AV-unprocessed.smi:2168|AV-procd|sdf|8818|dock2
  -GOLD-   2272012 03D 1   1.00000     0.00000
 Structure written by MMmdl.
 46 47  0  0  0  0  0  0  0  0  1 V2000
  147.0497  136.2726  155.4189 C   0  0  0  0  0  0  0  0  0  0  0  0
  147.6393  135.1827  154.5114 C   0  0  0  0  0  0  0  0  0  0  0  0
  148.9781  134.7546  154.9556 N   0  0  0  0  0  0  0  0  0  0  0  0
  149.5557  133.6200  154.2086 C   0  0  0  0  0  0  0  0  0  0  0  0
  148.4552  132.6948  153.6707 C   0  0  0  0  0  0  0  0  0  0  0  0
  150.0528  135.9807  155.5525 S   0  0  0  0  0  0  0  0  0  0  0  0
  149.4468  136.6048  156.7387 O   0  0  0  0  0  0  0  0  0  0  0  0
  151.4200  135.4400  155.6038 O   0  0  0  0  0  0  0  0  0  0  0  0
  149.9720  137.1026  154.2493 N   0  0  0  0  0  0  0  0  0  0  0  0
  151.0537  138.0509  154.0055 C   0  0  0  0  0  0  0  0  0  0  0  0
  151.2016  139.0433  155.1404 C   0  0  0  0  0  0  0  0  0  0  0  0
  150.2059  140.0075  155.3879 C   0  0  0  0  0  0  0  0  0  0  0  0
  150.3926  140.9247  156.4394 C   0  0  0  0  0  0  0  0  0  0  0  0
  151.5744  140.8556  157.2159 C   0  0  0  0  0  0  0  0  0  0  0  0
  151.7877  141.7719  158.2693 N   0  0  0  0  0  0  0  0  0  0  0  0
  151.7066  143.1851  157.9066 C   0  0  0  0  0  0  0  0  0  0  0  0
  151.6475  144.0611  159.1700 C   0  0  0  0  0  0  0  0  0  0  0  0
  152.7578  143.7696  160.0116 O   0  0  0  0  0  0  0  0  0  0  0  0
  152.7508  142.4137  160.4446 C   0  0  0  0  0  0  0  0  0  0  0  0
  152.8538  141.4807  159.2264 C   0  0  0  0  0  0  0  0  0  0  0  0
  152.5248  139.9170  156.9778 N   0  0  0  0  0  0  0  0  0  0  0  0
  152.3418  139.0404  155.9678 C   0  0  0  0  0  0  0  0  0  0  0  0
  146.0955  136.6236  155.0255 H   0  0  0  0  0  0  0  0  0  0  0  0
  147.7169  137.1325  155.4834 H   0  0  0  0  0  0  0  0  0  0  0  0
  146.8684  135.9093  156.4303 H   0  0  0  0  0  0  0  0  0  0  0  0
  146.9778  134.3170  154.4652 H   0  0  0  0  0  0  0  0  0  0  0  0
  147.7036  135.5754  153.4967 H   0  0  0  0  0  0  0  0  0  0  0  0
  150.1772  133.9796  153.3878 H   0  0  0  0  0  0  0  0  0  0  0  0
  150.2227  133.0563  154.8614 H   0  0  0  0  0  0  0  0  0  0  0  0
  148.8895  131.8622  153.1172 H   0  0  0  0  0  0  0  0  0  0  0  0
  147.7843  133.2251  152.9952 H   0  0  0  0  0  0  0  0  0  0  0  0
  147.8519  132.2740  154.4745 H   0  0  0  0  0  0  0  0  0  0  0  0
  149.4484  136.7918  153.4315 H   0  0  0  0  0  0  0  0  0  0  0  0
  151.9861  137.5031  153.8663 H   0  0  0  0  0  0  0  0  0  0  0  0
  150.8572  138.5863  153.0758 H   0  0  0  0  0  0  0  0  0  0  0  0
  149.3130  140.0463  154.7812 H   0  0  0  0  0  0  0  0  0  0  0  0
  149.6262  141.6574  156.6430 H   0  0  0  0  0  0  0  0  0  0  0  0
  152.5839  143.4459  157.3133 H   0  0  0  0  0  0  0  0  0  0  0  0
  150.8341  143.3965  157.2905 H   0  0  0  0  0  0  0  0  0  0  0  0
  151.6771  145.1159  158.8968 H   0  0  0  0  0  0  0  0  0  0  0  0
  150.7142  143.8989  159.7117 H   0  0  0  0  0  0  0  0  0  0  0  0
  153.5948  142.2504  161.1147 H   0  0  0  0  0  0  0  0  0  0  0  0
  151.8448  142.2077  161.0168 H   0  0  0  0  0  0  0  0  0  0  0  0
  152.7900  140.4443  159.5603 H   0  0  0  0  0  0  0  0  0  0  0  0
  153.8218  141.6086  158.7396 H   0  0  0  0  0  0  0  0  0  0  0  0
  153.1329  138.3214  155.8136 H   0  0  0  0  0  0  0  0  0  0  0  0
  1  2  1  0  0  0  0
  1 23  1  0  0  0  0
  1 24  1  0  0  0  0
  1 25  1  0  0  0  0
  2  3  1  0  0  0  0
  2 26  1  0  0  0  0
  2 27  1  0  0  0  0
  3  4  1  0  0  0  0
  3  6  1  0  0  0  0
  4  5  1  0  0  0  0
  4 28  1  0  0  0  0
  4 29  1  0  0  0  0
  5 30  1  0  0  0  0
  5 31  1  0  0  0  0
  5 32  1  0  0  0  0
  6  7  2  0  0  0  0
  6  8  2  0  0  0  0
  6  9  1  0  0  0  0
  9 10  1  0  0  0  0
  9 33  1  0  0  0  0
 10 11  1  0  0  0  0
 10 34  1  0  0  0  0
 10 35  1  0  0  0  0
 11 22  1  0  0  0  0
 11 12  2  0  0  0  0
 12 13  1  0  0  0  0
 12 36  1  0  0  0  0
 13 14  2  0  0  0  0
 13 37  1  0  0  0  0
 14 15  1  0  0  0  0
 14 21  1  0  0  0  0
 15 20  1  0  0  0  0
 15 16  1  0  0  0  0
 16 17  1  0  0  0  0
 16 38  1  0  0  0  0
 16 39  1  0  0  0  0
 17 18  1  0  0  0  0
 17 40  1  0  0  0  0
 17 41  1  0  0  0  0
 18 19  1  0  0  0  0
 19 20  1  0  0  0  0
 19 42  1  0  0  0  0
 19 43  1  0  0  0  0
 20 44  1  0  0  0  0
 20 45  1  0  0  0  0
 21 22  2  0  0  0  0
 22 46  1  0  0  0  0
M  END
> <s_m_source_file>
AV-unprocessed.smi

> <i_m_source_file_index>
2168

> <i_lp_mmshare_version>
43012

> <i_f3d_flags>
0

> <s_epik_input>
W0NIM11bQ0gyXU4oW0NIMl1bQ0gzXSlTKD1PKSg9TylbTkhdW0NIMl1jMVtjSF1bY0hdYyhuW2NIXTEpTjJbQ0gyXVtDSDJdT1tDSDJdW0NIMl0y

> <s_epik_cmdline>
J2VwaWtfcHl0aG9uJywgJy1waCcsICc3LjAnLCAnLXRuJywgJzgnLCAnLW1hJywgJzIwMCcsICctbWV0YWxfYmluZGluZycsICctaW1hZScsICc8aW5maWxlLm1hZT4nLCAnLW9tYWUnLCAnPG91dGZpbGUubWFlPic=

> <r_lp_tautomer_probability>
1

> <r_epik_Ionization_Penalty>
0.0173889

> <r_epik_Ionization_Penalty_Charging>
0

> <r_epik_Ionization_Penalty_Neutral>
0.0173889

> <r_epik_State_Penalty>
0.0135122

> <r_epik_Charging_Adjusted_Penalty>
0.0135122

> <i_epik_Tot_Q>
0

> <i_epik_Tot_abs_Q>
0

> <r_epik_Metal_State_Penalty>
0.283451

> <b_epik_Metal_Only>
0

> <s_lp_Force_Field>
OPLS_2005

> <r_lp_Energy>
21.8709

> <b_lp_Chiralities_Consistent>
1

> <s_lp_Variant>
AV-unprocessed.smi:2168-1

> <Gold.Version>
5.8.1

> <Gold.Id.Protein>
6NUR|6NUR_protein|mol2

> <Gold.PLP.Fitness>
47.7196

> <Gold.PLP.PLP>
-39.5081

> <Gold.PLP.part.hbond>
-3.3413

> <Gold.PLP.part.metal>
0.0000

> <Gold.PLP.part.buried>
-4.3973

> <Gold.PLP.part.nonpolar>
-32.9412

> <Gold.PLP.part.repulsive>
0.1095

> <Gold.PLP.ligand.clash>
0.0028

> <Gold.PLP.ligand.torsion>
2.2609

> <Gold.PLP.Chemscore.Hbond>
2.9000

> <Gold.PLP.Chemscore.CHOScore>
0.0000

> <Gold.PLP.Chemscore.Metal>
0.0000

> <Gold.Chemscore.Hbonds>
donor molecule, donor type, donor heavy atom, donor atom, acceptor molecule, acceptor atom, score
      L1  H     9    33       P1  7948  1.00
      P1  H  7997  8010       L1    21  0.85
      P1  H 10752 10763       L1     8  1.00

> <Gold.PLP.Chemscore.Internal.Correction>
4.0360

> <Gold.Rescore>
     Score         DG    S(hbond)    S(metal)    S(lipo)     H(rot)  DE(clash)    DE(int)     intcor
     16.45     -20.32       2.49        0.00      93.28       1.72       0.23       3.63       ----

> <Gold.Chemscore.Fitness>
16.4468

> <Gold.Chemscore.DG>
-20.3155

> <Gold.Chemscore.ZeroCoef>
-5.4800

> <Gold.Chemscore.Hbond>
2.4907

> <Gold.Chemscore.Metal>
0.0000

> <Gold.Chemscore.Lipo>
93.2821

> <Gold.Chemscore.Internal_Hbond>
0.0000

> <Gold.Chemscore.DEClash>
0.2345

> <Gold.Chemscore.DEInternal>
3.6342

> <Gold.Chemscore.Rot>
1.7177

> <Gold.Chemscore.Internal.Correction>
   9.000000E+99

> <Gold.Chemscore.Hbonds>
donor molecule, donor type, donor heavy atom, donor atom, acceptor molecule, acceptor atom, score
      L1  H     9    33       P1  7948  0.85
      P1  H  7997  8010       L1    21  0.14
      P1  H 10752 10763       L1     8  0.99

> <Gold.Chemscore.Hbond.Weighted>
-8.3188

> <Gold.Chemscore.Metal.Weighted>
-0.0000

> <Gold.Chemscore.Lipo.Weighted>
-10.9140

> <Gold.Chemscore.Internal_Hbond.Weighted>
0.0000

> <Gold.Chemscore.DEClash.Weighted>
0.2345

> <Gold.Chemscore.DEInternal.Weighted>
3.6342

> <Gold.Chemscore.Rot.Weighted>
4.3974

> <Gold.Chemscore.Internal.Correction.Weighted>
   9.000000E+99

> <Gold.Protein.RotatedTorsions>
[ 6907 6896 6895 6894 ] final   24.98 input  -60.11 | X-H torsion
[ 7974 7965 7964 7962 ] final  -67.03 input  175.53 | X-H torsion
[ 8008 7997 7996 7995 ] final   48.13 input   59.86 | X-H torsion
[ 10167 10162 10161 10158 ] final  -32.85 input  -65.29 | X-H torsion
[ 10718 10713 10712 10709 ] final   63.00 input   66.30 | X-H torsion
[ 10763 10752 10751 10750 ] final   76.92 input  -60.55 | X-H torsion
[ 11005 11000 10999 10996 ] final   96.57 input  -57.11 | X-H torsion

> <Gold.Protein.ActiveResidues>
 VAL166  LYS551  ARG553  GLY616  TRP617  ASP618  TYR619  PRO620  LYS621  CYS622 
 ASP623  PHE694  ASN695  SER759  ASP760  ASP761  ALA762  ILE779  LEU786  VAL792 
 PHE793  MET794  SER795  GLU796  ALA797  LYS798  CYS799  TRP800  GLU811  SER814 

> <Gold.Protein.RotatedAtoms>
  151.9656  135.0102  160.0549 H   0  0  0  0  0  0  0  0  0  0  0  0  # atno 6907 bound_to 6896
  152.1829  133.4715  159.4976 H   0  0  0  0  0  0  0  0  0  0  0  0  # atno 6908 bound_to 6896
  150.6921  134.1727  159.4261 H   0  0  0  0  0  0  0  0  0  0  0  0  # atno 6909 bound_to 6896
  145.7343  140.8983  143.0563 H   0  0  0  0  0  0  0  0  0  0  0  0  # atno 7974 bound_to 7965
  155.3805  140.3428  155.4246 H   0  0  0  0  0  0  0  0  0  0  0  0  # atno 8008 bound_to 7997
  156.1613  140.1601  156.8641 H   0  0  0  0  0  0  0  0  0  0  0  0  # atno 8009 bound_to 7997
  154.5142  140.0782  156.8031 H   0  0  0  0  0  0  0  0  0  0  0  0  # atno 8010 bound_to 7997
  140.7214  143.3664  151.1863 H   0  0  0  0  0  0  0  0  0  0  0  0  # atno 10167 bound_to 10162
  157.5941  130.9081  149.9660 H   0  0  0  0  0  0  0  0  0  0  0  0  # atno 10718 bound_to 10713
  153.0760  135.4933  154.8406 H   0  0  0  0  0  0  0  0  0  0  0  0  # atno 10763 bound_to 10752
  154.7088  135.3016  154.9231 H   0  0  0  0  0  0  0  0  0  0  0  0  # atno 10764 bound_to 10752
  153.9931  135.6775  153.4808 H   0  0  0  0  0  0  0  0  0  0  0  0  # atno 10765 bound_to 10752
  139.8781  134.8957  156.4179 H   0  0  0  0  0  0  0  0  0  0  0  0  # atno 11005 bound_to 11000
  144.6885  139.9373  143.7474 LP  0  0  0  0  0  0  0  0  0  0  0  0  # atno 17320 bound_to 7965
  146.0508  139.3509  143.0640 LP  0  0  0  0  0  0  0  0  0  0  0  0  # atno 17321 bound_to 7965
  139.7226  143.9199  152.2991 LP  0  0  0  0  0  0  0  0  0  0  0  0  # atno 17342 bound_to 10162
  139.8961  144.6938  150.8716 LP  0  0  0  0  0  0  0  0  0  0  0  0  # atno 17343 bound_to 10162
  156.1000  130.3656  150.0235 LP  0  0  0  0  0  0  0  0  0  0  0  0  # atno 17370 bound_to 10713
  156.8352  130.9406  151.3635 LP  0  0  0  0  0  0  0  0  0  0  0  0  # atno 17371 bound_to 10713
  140.9154  133.7682  155.9842 LP  0  0  0  0  0  0  0  0  0  0  0  0  # atno 17394 bound_to 11000
  140.8499  134.2966  157.5279 LP  0  0  0  0  0  0  0  0  0  0  0  0  # atno 17395 bound_to 11000

$$$$
