AV-unprocessed.smi:1046|AV-procd|sdf|4549|dock8
  -GOLD-   22720 2573D 1   1.00000     0.00000
 Structure written by MMmdl.
 53 55  0  0  0  0  0  0  0  0  2 V2000
  152.1472  143.8590  159.9472 C   0  0  0  0  0  0  0  0  0  0  0  0
  151.9423  142.7497  158.9308 C   0  0  0  0  0  0  0  0  0  0  0  0
  151.0485  142.9589  157.8566 C   0  0  0  0  0  0  0  0  0  0  0  0
  150.8315  141.9538  156.8893 C   0  0  0  0  0  0  0  0  0  0  0  0
  150.0171  141.9443  155.7700 N   0  0  0  0  0  0  0  0  0  0  0  0
  150.2516  140.7318  155.2778 C   0  0  0  0  0  0  0  0  0  0  0  0
  151.1249  139.9530  155.9452 N   0  0  0  0  0  0  0  0  0  0  0  0
  151.5341  138.6042  155.5965 C   0  0  0  0  0  0  0  0  0  0  0  0
  150.4004  137.8013  154.9261 C   0  0  1  0  0  0  0  0  0  0  0  0
  150.3834  138.0848  153.5414 O   0  0  0  0  0  0  0  0  0  0  0  0
  150.5636  136.2759  155.0901 C   0  0  0  0  0  0  0  0  0  0  0  0
  149.4640  135.4974  154.4644 N   0  3  0  0  0  0  0  0  0  0  0  0
  148.1327  135.8561  155.0178 C   0  0  0  0  0  0  0  0  0  0  0  0
  147.0182  135.0864  154.2795 C   0  0  0  0  0  0  0  0  0  0  0  0
  147.1901  133.6345  154.3245 N   0  0  0  0  0  0  0  0  0  0  0  0
  146.9158  133.0695  155.6496 C   0  0  0  0  0  0  0  0  0  0  0  0
  145.5738  133.4944  156.2671 C   0  0  0  0  0  0  0  0  0  0  0  0
  144.5958  133.5730  155.2539 O   0  0  0  0  0  0  0  0  0  0  0  0
  148.5109  133.3047  153.7835 C   0  0  0  0  0  0  0  0  0  0  0  0
  149.6673  134.0245  154.5074 C   0  0  0  0  0  0  0  0  0  0  0  0
  151.5377  140.7229  157.0277 C   0  0  0  0  0  0  0  0  0  0  0  0
  152.4290  140.5027  158.0924 C   0  0  0  0  0  0  0  0  0  0  0  0
  152.6347  141.5180  159.0498 C   0  0  0  0  0  0  0  0  0  0  0  0
  153.6004  141.2714  160.1953 C   0  0  0  0  0  0  0  0  0  0  0  0
  151.5566  144.7412  159.6988 H   0  0  0  0  0  0  0  0  0  0  0  0
  153.1953  144.1573  159.9809 H   0  0  0  0  0  0  0  0  0  0  0  0
  151.8490  143.5254  160.9413 H   0  0  0  0  0  0  0  0  0  0  0  0
  150.5208  143.8970  157.7660 H   0  0  0  0  0  0  0  0  0  0  0  0
  149.7613  140.3900  154.3778 H   0  0  0  0  0  0  0  0  0  0  0  0
  152.4056  138.6596  154.9426 H   0  0  0  0  0  0  0  0  0  0  0  0
  151.8637  138.1083  156.5102 H   0  0  0  0  0  0  0  0  0  0  0  0
  149.4384  138.1243  155.3231 H   0  0  0  0  0  0  0  0  0  0  0  0
  149.8319  137.4498  153.1089 H   0  0  0  0  0  0  0  0  0  0  0  0
  151.5163  135.9459  154.6721 H   0  0  0  0  0  0  0  0  0  0  0  0
  150.6026  136.0466  156.1563 H   0  0  0  0  0  0  0  0  0  0  0  0
  148.1062  135.6499  156.0886 H   0  0  0  0  0  0  0  0  0  0  0  0
  147.9649  136.9273  154.9004 H   0  0  0  0  0  0  0  0  0  0  0  0
  146.0451  135.3581  154.6905 H   0  0  0  0  0  0  0  0  0  0  0  0
  146.9990  135.4091  153.2377 H   0  0  0  0  0  0  0  0  0  0  0  0
  146.9724  131.9815  155.6231 H   0  0  0  0  0  0  0  0  0  0  0  0
  147.7054  133.3894  156.3310 H   0  0  0  0  0  0  0  0  0  0  0  0
  145.2501  132.7739  157.0188 H   0  0  0  0  0  0  0  0  0  0  0  0
  145.6443  134.4681  156.7507 H   0  0  0  0  0  0  0  0  0  0  0  0
  144.1287  132.7519  155.2216 H   0  0  0  0  0  0  0  0  0  0  0  0
  148.6737  132.2278  153.7998 H   0  0  0  0  0  0  0  0  0  0  0  0
  148.5362  133.5822  152.7287 H   0  0  0  0  0  0  0  0  0  0  0  0
  150.6010  133.7584  154.0142 H   0  0  0  0  0  0  0  0  0  0  0  0
  149.7519  133.6866  155.5411 H   0  0  0  0  0  0  0  0  0  0  0  0
  152.9524  139.5613  158.1701 H   0  0  0  0  0  0  0  0  0  0  0  0
  154.0270  140.2691  160.1481 H   0  0  0  0  0  0  0  0  0  0  0  0
  153.0907  141.3726  161.1536 H   0  0  0  0  0  0  0  0  0  0  0  0
  154.4220  141.9872  160.1621 H   0  0  0  0  0  0  0  0  0  0  0  0
  149.4409  135.7616  153.4901 H   0  0  0  0  0  0  0  0  0  0  0  0
  1  2  1  0  0  0  0
  1 25  1  0  0  0  0
  1 26  1  0  0  0  0
  1 27  1  0  0  0  0
  2 23  1  0  0  0  0
  2  3  2  0  0  0  0
  3  4  1  0  0  0  0
  3 28  1  0  0  0  0
  4 21  2  0  0  0  0
  4  5  1  0  0  0  0
  5  6  2  0  0  0  0
  6  7  1  0  0  0  0
  6 29  1  0  0  0  0
  7  8  1  0  0  0  0
  7 21  1  0  0  0  0
  8  9  1  0  0  0  0
  8 30  1  0  0  0  0
  8 31  1  0  0  0  0
  9 10  1  0  0  0  0
  9 11  1  0  0  0  0
  9 32  1  0  0  0  0
 10 33  1  0  0  0  0
 11 12  1  0  0  0  0
 11 34  1  0  0  0  0
 11 35  1  0  0  0  0
 12 20  1  0  0  0  0
 12 13  1  0  0  0  0
 12 53  1  0  0  0  0
 13 14  1  0  0  0  0
 13 36  1  0  0  0  0
 13 37  1  0  0  0  0
 14 15  1  0  0  0  0
 14 38  1  0  0  0  0
 14 39  1  0  0  0  0
 15 16  1  0  0  0  0
 15 19  1  0  0  0  0
 16 17  1  0  0  0  0
 16 40  1  0  0  0  0
 16 41  1  0  0  0  0
 17 18  1  0  0  0  0
 17 42  1  0  0  0  0
 17 43  1  0  0  0  0
 18 44  1  0  0  0  0
 19 20  1  0  0  0  0
 19 45  1  0  0  0  0
 19 46  1  0  0  0  0
 20 47  1  0  0  0  0
 20 48  1  0  0  0  0
 21 22  1  0  0  0  0
 22 23  2  0  0  0  0
 22 49  1  0  0  0  0
 23 24  1  0  0  0  0
 24 50  1  0  0  0  0
 24 51  1  0  0  0  0
 24 52  1  0  0  0  0
M  CHG  1  12   1
M  END
> <s_m_source_file>
AV-unprocessed.smi

> <i_m_source_file_index>
1046

> <i_lp_mmshare_version>
43012

> <i_f3d_flags>
0

> <s_epik_input>
W0NIM11jKFtjSF0xKWMoW0NIM10pW2NIXWMoYzEyKW4oW2NIXW4yKVtDSDJdW0NASF0oW09IXSlbQ0gyXU4zW0NIMl1bQ0gyXU4oW0NIMl1bQ0gyXTMpW0NIMl1bQ0gyXVtPSF0=

> <s_epik_cmdline>
J2VwaWtfcHl0aG9uJywgJy1waCcsICc3LjAnLCAnLXRuJywgJzgnLCAnLW1hJywgJzIwMCcsICctbWV0YWxfYmluZGluZycsICctaW1hZScsICc8aW5maWxlLm1hZT4nLCAnLW9tYWUnLCAnPG91dGZpbGUubWFlPic=

> <r_epik_Ionization_Penalty>
0.131947

> <r_epik_Ionization_Penalty_Charging>
0.00213896

> <r_epik_Ionization_Penalty_Neutral>
0.129808

> <r_epik_State_Penalty>
0.319681

> <r_epik_Charging_Adjusted_Penalty>
0.32182

> <i_epik_Tot_Q>
1

> <i_epik_Tot_abs_Q>
1

> <r_epik_Metal_State_Penalty>
0.225417

> <b_epik_Metal_Only>
0

> <s_lp_Force_Field>
OPLS_2005

> <r_lp_Energy>
33.7571

> <b_lp_Chiralities_Consistent>
1

> <s_lp_Variant>
AV-unprocessed.smi:1046-2

> <Gold.Version>
5.8.1

> <Gold.Id.Protein>
6NUR|6NUR_protein|mol2

> <Gold.PLP.Fitness>
52.9685

> <Gold.PLP.PLP>
-42.4250

> <Gold.PLP.part.hbond>
-4.6853

> <Gold.PLP.part.metal>
0.0000

> <Gold.PLP.part.buried>
-1.2280

> <Gold.PLP.part.nonpolar>
-35.0085

> <Gold.PLP.part.repulsive>
1.1502

> <Gold.PLP.ligand.clash>
0.0000

> <Gold.PLP.ligand.torsion>
0.7887

> <Gold.PLP.Chemscore.Hbond>
4.0000

> <Gold.PLP.Chemscore.CHOScore>
0.0000

> <Gold.PLP.Chemscore.Metal>
0.0000

> <Gold.Chemscore.Hbonds>
donor molecule, donor type, donor heavy atom, donor atom, acceptor molecule, acceptor atom, score
      L1  H    10    33       P1  7948  1.00
      L1  H    12    53       P1  7948  2.00
      L1  H    18    44       P1 10957  1.00

> <Gold.PLP.Chemscore.Internal.Correction>
0.1208

> <Gold.Rescore>
     Score         DG    S(hbond)    S(metal)    S(lipo)     H(rot)  DE(clash)    DE(int)     intcor
     17.33     -18.33       2.63        0.00     104.75       3.21       0.29       0.71       ----

> <Gold.Chemscore.Fitness>
17.3276

> <Gold.Chemscore.DG>
-18.3255

> <Gold.Chemscore.ZeroCoef>
-5.4800

> <Gold.Chemscore.Hbond>
2.6337

> <Gold.Chemscore.Metal>
0.0000

> <Gold.Chemscore.Lipo>
104.7492

> <Gold.Chemscore.Internal_Hbond>
0.0000

> <Gold.Chemscore.DEClash>
0.2920

> <Gold.Chemscore.DEInternal>
0.7059

> <Gold.Chemscore.Rot>
3.2058

> <Gold.Chemscore.Internal.Correction>
   9.000000E+99

> <Gold.Chemscore.Hbonds>
donor molecule, donor type, donor heavy atom, donor atom, acceptor molecule, acceptor atom, score
      L1  H    10    33       P1  7948  0.45
      L1  H    12    53       P1  7948  0.35
      L1  H    18    44       P1 10957  0.97

> <Gold.Chemscore.Hbond.Weighted>
-8.7966

> <Gold.Chemscore.Metal.Weighted>
-0.0000

> <Gold.Chemscore.Lipo.Weighted>
-12.2557

> <Gold.Chemscore.Internal_Hbond.Weighted>
0.0000

> <Gold.Chemscore.DEClash.Weighted>
0.2920

> <Gold.Chemscore.DEInternal.Weighted>
0.7059

> <Gold.Chemscore.Rot.Weighted>
8.2067

> <Gold.Chemscore.Internal.Correction.Weighted>
   9.000000E+99

> <Gold.Protein.RotatedTorsions>
[ 6907 6896 6895 6894 ] final -156.14 input  -60.11 | X-H torsion
[ 7974 7965 7964 7962 ] final  159.79 input  175.53 | X-H torsion
[ 8008 7997 7996 7995 ] final  135.78 input   59.86 | X-H torsion
[ 10167 10162 10161 10158 ] final  123.96 input  -65.29 | X-H torsion
[ 10718 10713 10712 10709 ] final  131.53 input   66.30 | X-H torsion
[ 10763 10752 10751 10750 ] final -123.02 input  -60.55 | X-H torsion
[ 11005 11000 10999 10996 ] final  109.62 input  -57.11 | X-H torsion

> <Gold.Protein.ActiveResidues>
 VAL166  LYS551  ARG553  GLY616  TRP617  ASP618  TYR619  PRO620  LYS621  CYS622 
 ASP623  PHE694  ASN695  SER759  ASP760  ASP761  ALA762  ILE779  LEU786  VAL792 
 PHE793  MET794  SER795  GLU796  ALA797  LYS798  CYS799  TRP800  GLU811  SER814 

> <Gold.Protein.RotatedAtoms>
  151.2832  133.4200  159.2627 H   0  0  0  0  0  0  0  0  0  0  0  0  # atno 6907 bound_to 6896
  151.0342  134.9562  159.8138 H   0  0  0  0  0  0  0  0  0  0  0  0  # atno 6908 bound_to 6896
  152.5352  134.2792  159.9053 H   0  0  0  0  0  0  0  0  0  0  0  0  # atno 6909 bound_to 6896
  144.7771  139.7666  143.6274 H   0  0  0  0  0  0  0  0  0  0  0  0  # atno 7974 bound_to 7965
  156.3003  140.2462  156.3638 H   0  0  0  0  0  0  0  0  0  0  0  0  # atno 8008 bound_to 7997
  154.8853  140.0411  157.1826 H   0  0  0  0  0  0  0  0  0  0  0  0  # atno 8009 bound_to 7997
  154.8654  140.2927  155.5517 H   0  0  0  0  0  0  0  0  0  0  0  0  # atno 8010 bound_to 7997
  139.5769  144.6968  151.3629 H   0  0  0  0  0  0  0  0  0  0  0  0  # atno 10167 bound_to 10162
  157.4958  131.1092  150.9495 H   0  0  0  0  0  0  0  0  0  0  0  0  # atno 10718 bound_to 10713
  154.8700  135.4112  154.2876 H   0  0  0  0  0  0  0  0  0  0  0  0  # atno 10763 bound_to 10752
  153.3758  135.7009  153.6608 H   0  0  0  0  0  0  0  0  0  0  0  0  # atno 10764 bound_to 10752
  153.5451  135.3640  155.2707 H   0  0  0  0  0  0  0  0  0  0  0  0  # atno 10765 bound_to 10752
  139.8865  134.9463  156.6154 H   0  0  0  0  0  0  0  0  0  0  0  0  # atno 11005 bound_to 11000
  146.1958  139.5223  142.9776 LP  0  0  0  0  0  0  0  0  0  0  0  0  # atno 17320 bound_to 7965
  145.6154  141.0332  143.1944 LP  0  0  0  0  0  0  0  0  0  0  0  0  # atno 17321 bound_to 7965
  140.7051  143.7534  150.7468 LP  0  0  0  0  0  0  0  0  0  0  0  0  # atno 17342 bound_to 10162
  140.1056  143.4747  152.2400 LP  0  0  0  0  0  0  0  0  0  0  0  0  # atno 17343 bound_to 10162
  157.0181  130.5663  149.5328 LP  0  0  0  0  0  0  0  0  0  0  0  0  # atno 17370 bound_to 10713
  156.0200  130.5294  150.8247 LP  0  0  0  0  0  0  0  0  0  0  0  0  # atno 17371 bound_to 10713
  140.7780  133.8684  155.8544 LP  0  0  0  0  0  0  0  0  0  0  0  0  # atno 17394 bound_to 11000
  140.9785  134.1437  157.4515 LP  0  0  0  0  0  0  0  0  0  0  0  0  # atno 17395 bound_to 11000

$$$$
