#       Name:                AV-unprocessed.smi:282
#       Creating user name   scv26
#       Creation time:       Thu Mar 26 21:42:16 2020


#       File generated by GOLD software.
#

@<TRIPOS>MOLECULE
AV-unprocessed.smi:282
    72    76     1
SMALL
NO_CHARGES


@<TRIPOS>ATOM
      1 ****        -2.4764   0.7759  -4.2022 C.3            1 S1                 0.0000
      2 ****        -2.3042   1.4134  -2.8169 C.3            1 S1                 0.0000
      3 ****        -2.2159   0.3911  -1.6574 C.3            1 S1                 0.0000
      4 ****        -3.5245  -0.3957  -1.4351 C.3            1 S1                 0.0000
      5 ****        -4.5858   0.4567  -0.8354 N.4            1 S1                 1.0000
      6 ****        -5.8948  -0.2333  -0.6967 C.3            1 S1                 0.0000
      7 ****        -5.9060  -1.2251   0.4822 C.3            1 S1                 0.0000
      8 ****        -5.4950  -0.5324   1.7886 C.3            1 S1                 0.0000
      9 ****        -4.1416   0.1721   1.6191 C.3            1 S1                 0.0000
     10 ****        -4.1674   1.1462   0.4203 C.3            1 S1                 0.0000
     11 ****        -2.8276   1.8862   0.2361 C.3            1 S1                 0.0000
     12 ****        -1.8256   1.0306  -0.3984 N.pl3          1 S1                 0.0000
     13 ****        -0.5184   1.3715  -0.2645 C.ar           1 S1                 0.0000
     14 ****        -0.1810   2.6720  -0.0558 N.ar           1 S1                 0.0000
     15 ****         1.1019   3.0243   0.0690 C.ar           1 S1                 0.0000
     16 ****         2.1873   2.2499   0.0262 N.ar           1 S1                 0.0000
     17 ****         1.8549   0.9418  -0.1704 C.ar           1 S1                 0.0000
     18 ****         0.5396   0.4217  -0.3302 C.ar           1 S1                 0.0000
     19 ****         0.5947  -0.9558  -0.5064 N.2            1 S1                 0.0000
     20 ****         1.8691  -1.2323  -0.4610 C.2            1 S1                 0.0000
     21 ****         2.6973  -0.1546  -0.2425 N.pl3          1 S1                 0.0000
     22 ****         4.1488  -0.1719  -0.1443 C.3            1 S1                 0.0000
     23 ****         4.7299  -0.5456   1.2577 C.3            1 S1                 0.0000
     24 ****         4.2913   0.4862   2.3350 C.3            1 S1                 0.0000
     25 ****         2.9386   0.3578   2.7276 O.3            1 S1                 0.0000
     26 ****         4.3474  -1.9774   1.7153 C.3            1 S1                 0.0000
     27 ****         5.0182  -3.0706   0.8651 C.3            1 S1                 0.0000
     28 ****         6.4309  -2.9173   0.9086 O.3            1 S1                 0.0000
     29 ****         6.8696  -1.6778   0.3679 C.3            1 S1                 0.0000
     30 ****         6.2772  -0.5084   1.1776 C.3            1 S1                 0.0000
     31 ****        -2.4331   1.5368  -4.9817 H              1 S1                 0.0000
     32 ****        -3.4350   0.2677  -4.3008 H              1 S1                 0.0000
     33 ****        -1.6865   0.0518  -4.4036 H              1 S1                 0.0000
     34 ****        -1.3895   2.0070  -2.8399 H              1 S1                 0.0000
     35 ****        -3.1151   2.1213  -2.6438 H              1 S1                 0.0000
     36 ****        -1.4553  -0.3371  -1.9347 H              1 S1                 0.0000
     37 ****        -3.8805  -0.8294  -2.3688 H              1 S1                 0.0000
     38 ****        -3.3188  -1.2392  -0.7759 H              1 S1                 0.0000
     39 ****        -6.6651   0.5230  -0.5403 H              1 S1                 0.0000
     40 ****        -6.1506  -0.7413  -1.6272 H              1 S1                 0.0000
     41 ****        -6.9008  -1.6581   0.5909 H              1 S1                 0.0000
     42 ****        -5.2331  -2.0587   0.2799 H              1 S1                 0.0000
     43 ****        -6.2551   0.1970   2.0711 H              1 S1                 0.0000
     44 ****        -5.4430  -1.2585   2.6003 H              1 S1                 0.0000
     45 ****        -3.8988   0.7150   2.5332 H              1 S1                 0.0000
     46 ****        -3.3539  -0.5709   1.4901 H              1 S1                 0.0000
     47 ****        -4.9237   1.9023   0.6368 H              1 S1                 0.0000
     48 ****        -2.9775   2.7707  -0.3839 H              1 S1                 0.0000
     49 ****        -2.4698   2.2415   1.2037 H              1 S1                 0.0000
     50 ****         1.2849   4.0767   0.2281 H              1 S1                 0.0000
     51 ****         2.2416  -2.2394  -0.5774 H              1 S1                 0.0000
     52 ****         4.5086  -0.8528  -0.9138 H              1 S1                 0.0000
     53 ****         4.5138   0.8124  -0.4400 H              1 S1                 0.0000
     54 ****         4.8892   0.3722   3.2399 H              1 S1                 0.0000
     55 ****         4.4601   1.5037   1.9808 H              1 S1                 0.0000
     56 ****         2.7514   1.0165   3.3788 H              1 S1                 0.0000
     57 ****         4.6586  -2.1173   2.7516 H              1 S1                 0.0000
     58 ****         3.2676  -2.1196   1.7154 H              1 S1                 0.0000
     59 ****         4.7648  -4.0541   1.2610 H              1 S1                 0.0000
     60 ****         4.6669  -3.0498  -0.1670 H              1 S1                 0.0000
     61 ****         7.9581  -1.6459   0.4174 H              1 S1                 0.0000
     62 ****         6.6082  -1.6138  -0.6885 H              1 S1                 0.0000
     63 ****         6.6145   0.4408   0.7594 H              1 S1                 0.0000
     64 ****         6.6991  -0.5582   2.1823 H              1 S1                 0.0000
     65 ****        -4.7353   1.1917  -1.5116 H              1 S1                 0.0000
     66 ****        -0.8963   3.3681   0.0046 LP             1 S1                 0.0000
     67 ****         3.1241   2.5853   0.1255 LP             1 S1                 0.0000
     68 ****        -0.1675  -1.5897  -0.6378 LP             1 S1                 0.0000
     69 ****         2.7843  -0.5517   3.1137 LP             1 S1                 0.0000
     70 ****         2.3434   0.4886   1.9347 LP             1 S1                 0.0000
     71 ****         6.8487  -3.6597   0.3848 LP             1 S1                 0.0000
     72 ****         6.7288  -2.9731   1.8616 LP             1 S1                 0.0000
@<TRIPOS>BOND
    1    1    2 1     
    2    1   31 1     
    3    1   32 1     
    4    1   33 1     
    5    2    3 1     
    6    2   34 1     
    7    2   35 1     
    8    3   12 1     
    9    3    4 1     
   10    3   36 1     
   11    4    5 1     
   12    4   37 1     
   13    4   38 1     
   14    5   10 1     
   15    5    6 1     
   16    5   65 1     
   17    6    7 1     
   18    6   39 1     
   19    6   40 1     
   20    7    8 1     
   21    7   41 1     
   22    7   42 1     
   23    8    9 1     
   24    8   43 1     
   25    8   44 1     
   26    9   10 1     
   27    9   45 1     
   28    9   46 1     
   29   10   11 1     
   30   10   47 1     
   31   11   12 1     
   32   11   48 1     
   33   11   49 1     
   34   12   13 1     
   35   13   18 ar    
   36   13   14 ar    
   37   14   15 ar    
   38   15   16 ar    
   39   15   50 1     
   40   16   17 ar    
   41   17   21 1     
   42   17   18 ar    
   43   18   19 1     
   44   19   20 2     
   45   20   21 1     
   46   20   51 1     
   47   21   22 1     
   48   22   23 1     
   49   22   52 1     
   50   22   53 1     
   51   23   30 1     
   52   23   24 1     
   53   23   26 1     
   54   24   25 1     
   55   24   54 1     
   56   24   55 1     
   57   25   56 1     
   58   26   27 1     
   59   26   57 1     
   60   26   58 1     
   61   27   28 1     
   62   27   59 1     
   63   27   60 1     
   64   28   29 1     
   65   29   30 1     
   66   29   61 1     
   67   29   62 1     
   68   30   63 1     
   69   30   64 1     
   70   14   66 1     
   71   16   67 1     
   72   19   68 1     
   73   25   69 1     
   74   25   70 1     
   75   28   71 1     
   76   28   72 1     
@<TRIPOS>SUBSTRUCTURE
      1 S1             1
@<TRIPOS>SET
LONE_PAIRS      STATIC     ATOMS    <user>   **** ""
7 66 67 68 69 70 71 72
DONOR_HYDROGENS      STATIC     ATOMS    <user>   **** ""
2 65 56
ATOM$BLUE        STATIC     ATOMS    COLORGROUP SYSTEM
7 66 67 68 69 70 71 72
ATOM$RED        STATIC     ATOMS    COLORGROUP SYSTEM
2 65 56
