AV-unprocessed.smi:1784|AV-procd|sdf|7197|dock7
  -GOLD-   22720 8443D 1   1.00000     0.00000
 Structure written by MMmdl.
 43 45  0  0  0  0  0  0  0  0  1 V2000
  145.5160  138.2782  153.4861 O   0  0  0  0  0  0  0  0  0  0  0  0
  146.5065  137.6877  153.0549 C   0  0  0  0  0  0  0  0  0  0  0  0
  146.4584  136.4703  152.4971 N   0  0  0  0  0  0  0  0  0  0  0  0
  145.2529  135.6620  152.3570 C   0  0  0  0  0  0  0  0  0  0  0  0
  145.3140  134.7875  151.0946 C   0  0  1  0  0  0  0  0  0  0  0  0
  146.4187  133.7340  151.1205 C   0  0  0  0  0  0  0  0  0  0  0  0
  145.9031  132.6573  150.1776 C   0  0  0  0  0  0  0  0  0  0  0  0
  144.4147  132.9816  150.0153 C   0  0  0  0  0  0  0  0  0  0  0  0
  144.1454  133.9918  150.9771 O   0  0  0  0  0  0  0  0  0  0  0  0
  147.7667  138.1503  153.1000 N   0  0  0  0  0  0  0  0  0  0  0  0
  148.2358  139.3824  153.6389 C   0  0  0  0  0  0  0  0  0  0  0  0
  147.4754  140.5756  153.5801 C   0  0  0  0  0  0  0  0  0  0  0  0
  148.0107  141.7584  154.1205 C   0  0  0  0  0  0  0  0  0  0  0  0
  149.2928  141.7093  154.6944 C   0  0  0  0  0  0  0  0  0  0  0  0
  150.0364  140.5857  154.7428 N   0  0  0  0  0  0  0  0  0  0  0  0
  149.5278  139.4393  154.2278 C   0  0  0  0  0  0  0  0  0  0  0  0
  150.3435  138.2886  154.2600 N   0  0  0  0  0  0  0  0  0  0  0  0
  151.7197  138.5678  154.6635 C   0  0  0  0  0  0  0  0  0  0  0  0
  152.1426  137.4318  155.5989 C   0  0  0  0  0  0  0  0  0  0  0  0
  150.8185  136.9354  156.1663 C   0  0  0  0  0  0  0  0  0  0  0  0
  149.8719  137.1082  154.9812 C   0  0  0  0  0  0  0  0  0  0  0  0
  147.3221  136.0572  152.1772 H   0  0  0  0  0  0  0  0  0  0  0  0
  145.1164  135.0391  153.2426 H   0  0  0  0  0  0  0  0  0  0  0  0
  144.3920  136.3294  152.3124 H   0  0  0  0  0  0  0  0  0  0  0  0
  145.4181  135.4053  150.2002 H   0  0  0  0  0  0  0  0  0  0  0  0
  147.3874  134.1346  150.8205 H   0  0  0  0  0  0  0  0  0  0  0  0
  146.5218  133.3199  152.1243 H   0  0  0  0  0  0  0  0  0  0  0  0
  146.4102  132.6952  149.2129 H   0  0  0  0  0  0  0  0  0  0  0  0
  146.0574  131.6637  150.5995 H   0  0  0  0  0  0  0  0  0  0  0  0
  144.2142  133.3749  149.0175 H   0  0  0  0  0  0  0  0  0  0  0  0
  143.7765  132.1117  150.1728 H   0  0  0  0  0  0  0  0  0  0  0  0
  148.4864  137.5078  152.8029 H   0  0  0  0  0  0  0  0  0  0  0  0
  146.5007  140.6079  153.1185 H   0  0  0  0  0  0  0  0  0  0  0  0
  147.4528  142.6824  154.0909 H   0  0  0  0  0  0  0  0  0  0  0  0
  149.7379  142.5975  155.1178 H   0  0  0  0  0  0  0  0  0  0  0  0
  152.3753  138.6296  153.7948 H   0  0  0  0  0  0  0  0  0  0  0  0
  151.7755  139.5223  155.1896 H   0  0  0  0  0  0  0  0  0  0  0  0
  152.6174  136.6358  155.0237 H   0  0  0  0  0  0  0  0  0  0  0  0
  152.8428  137.7556  156.3693 H   0  0  0  0  0  0  0  0  0  0  0  0
  150.8645  135.9078  156.5279 H   0  0  0  0  0  0  0  0  0  0  0  0
  150.5032  137.5748  156.9919 H   0  0  0  0  0  0  0  0  0  0  0  0
  148.8292  137.1608  155.2956 H   0  0  0  0  0  0  0  0  0  0  0  0
  149.9564  136.2532  154.3098 H   0  0  0  0  0  0  0  0  0  0  0  0
  1  2  2  0  0  0  0
  2  3  1  0  0  0  0
  2 10  1  0  0  0  0
  3  4  1  0  0  0  0
  3 22  1  0  0  0  0
  4  5  1  0  0  0  0
  4 23  1  0  0  0  0
  4 24  1  0  0  0  0
  5  9  1  0  0  0  0
  5  6  1  0  0  0  0
  5 25  1  0  0  0  0
  6  7  1  0  0  0  0
  6 26  1  0  0  0  0
  6 27  1  0  0  0  0
  7  8  1  0  0  0  0
  7 28  1  0  0  0  0
  7 29  1  0  0  0  0
  8  9  1  0  0  0  0
  8 30  1  0  0  0  0
  8 31  1  0  0  0  0
 10 11  1  0  0  0  0
 10 32  1  0  0  0  0
 11 16  1  0  0  0  0
 11 12  2  0  0  0  0
 12 13  1  0  0  0  0
 12 33  1  0  0  0  0
 13 14  2  0  0  0  0
 13 34  1  0  0  0  0
 14 15  1  0  0  0  0
 14 35  1  0  0  0  0
 15 16  2  0  0  0  0
 16 17  1  0  0  0  0
 17 21  1  0  0  0  0
 17 18  1  0  0  0  0
 18 19  1  0  0  0  0
 18 36  1  0  0  0  0
 18 37  1  0  0  0  0
 19 20  1  0  0  0  0
 19 38  1  0  0  0  0
 19 39  1  0  0  0  0
 20 21  1  0  0  0  0
 20 40  1  0  0  0  0
 20 41  1  0  0  0  0
 21 42  1  0  0  0  0
 21 43  1  0  0  0  0
M  END
> <s_m_source_file>
AV-unprocessed.smi

> <i_m_source_file_index>
1784

> <i_lp_mmshare_version>
43012

> <i_f3d_flags>
0

> <s_epik_input>
TzFbQ0gyXVtDSDJdW0NIMl1bQ0BIXTFbQ0gyXVtOSF1DKD1PKVtOSF1jMltjSF1bY0hdW2NIXW5jMk4zW0NIMl1bQ0gyXVtDSDJdW0NIMl0z

> <s_epik_cmdline>
J2VwaWtfcHl0aG9uJywgJy1waCcsICc3LjAnLCAnLXRuJywgJzgnLCAnLW1hJywgJzIwMCcsICctbWV0YWxfYmluZGluZycsICctaW1hZScsICc8aW5maWxlLm1hZT4nLCAnLW9tYWUnLCAnPG91dGZpbGUubWFlPic=

> <r_lp_tautomer_probability>
1

> <r_epik_Ionization_Penalty>
0.0982482

> <r_epik_Ionization_Penalty_Charging>
0

> <r_epik_Ionization_Penalty_Neutral>
0.0982482

> <r_epik_State_Penalty>
0.0877864

> <r_epik_Charging_Adjusted_Penalty>
0.0877864

> <i_epik_Tot_Q>
0

> <i_epik_Tot_abs_Q>
0

> <r_epik_Metal_State_Penalty>
0.0752567

> <b_epik_Metal_Only>
0

> <s_lp_Force_Field>
OPLS_2005

> <r_lp_Energy>
44.9043

> <b_lp_Chiralities_Consistent>
1

> <s_lp_Variant>
AV-unprocessed.smi:1784-2

> <Gold.Version>
5.8.1

> <Gold.Id.Protein>
6NUR|6NUR_protein|mol2

> <Gold.PLP.Fitness>
44.1840

> <Gold.PLP.PLP>
-33.5564

> <Gold.PLP.part.hbond>
-3.2222

> <Gold.PLP.part.metal>
0.0000

> <Gold.PLP.part.buried>
0.1146

> <Gold.PLP.part.nonpolar>
-30.9507

> <Gold.PLP.part.repulsive>
1.4132

> <Gold.PLP.ligand.clash>
0.0000

> <Gold.PLP.ligand.torsion>
0.5161

> <Gold.PLP.Chemscore.Hbond>
2.8500

> <Gold.PLP.Chemscore.CHOScore>
1.0000

> <Gold.PLP.Chemscore.Metal>
0.0000

> <Gold.Chemscore.Hbonds>
donor molecule, donor type, donor heavy atom, donor atom, acceptor molecule, acceptor atom, score
      L1  H     3    22       P1  7948  0.99
      L1  H    10    32       P1  7948  0.99
      P1  H  7989  7998       L1    15  0.86
      L1  C    14    35       P1  8028  1.00

> <Gold.PLP.Chemscore.Internal.Correction>
0.1098

> <Gold.Rescore>
     Score         DG    S(hbond)    S(metal)    S(lipo)     H(rot)  DE(clash)    DE(int)     intcor
     15.54     -18.60       2.00        0.00      85.27       1.38       0.79       2.27       ----

> <Gold.Chemscore.Fitness>
15.5352

> <Gold.Chemscore.DG>
-18.5998

> <Gold.Chemscore.ZeroCoef>
-5.4800

> <Gold.Chemscore.Hbond>
1.9984

> <Gold.Chemscore.Metal>
0.0000

> <Gold.Chemscore.Lipo>
85.2731

> <Gold.Chemscore.Internal_Hbond>
0.0000

> <Gold.Chemscore.DEClash>
0.7913

> <Gold.Chemscore.DEInternal>
2.2733

> <Gold.Chemscore.Rot>
1.3796

> <Gold.Chemscore.Internal.Correction>
   9.000000E+99

> <Gold.Chemscore.Hbonds>
donor molecule, donor type, donor heavy atom, donor atom, acceptor molecule, acceptor atom, score
      L1  H     3    22       P1  7948  0.94
      L1  H    10    32       P1  7948  0.94
      P1  H  7989  7998       L1    15  0.13

> <Gold.Chemscore.Hbond.Weighted>
-6.6745

> <Gold.Chemscore.Metal.Weighted>
-0.0000

> <Gold.Chemscore.Lipo.Weighted>
-9.9769

> <Gold.Chemscore.Internal_Hbond.Weighted>
0.0000

> <Gold.Chemscore.DEClash.Weighted>
0.7913

> <Gold.Chemscore.DEInternal.Weighted>
2.2733

> <Gold.Chemscore.Rot.Weighted>
3.5317

> <Gold.Chemscore.Internal.Correction.Weighted>
   9.000000E+99

> <Gold.Protein.RotatedTorsions>
[ 6907 6896 6895 6894 ] final  -76.05 input  -60.11 | X-H torsion
[ 7974 7965 7964 7962 ] final   39.41 input  175.53 | X-H torsion
[ 8008 7997 7996 7995 ] final  142.41 input   59.86 | X-H torsion
[ 10167 10162 10161 10158 ] final  144.58 input  -65.29 | X-H torsion
[ 10718 10713 10712 10709 ] final  127.18 input   66.30 | X-H torsion
[ 10763 10752 10751 10750 ] final  -62.18 input  -60.55 | X-H torsion
[ 11005 11000 10999 10996 ] final  171.59 input  -57.11 | X-H torsion

> <Gold.Protein.ActiveResidues>
 VAL166  LYS551  ARG553  GLY616  TRP617  ASP618  TYR619  PRO620  LYS621  CYS622 
 ASP623  PHE694  ASN695  SER759  ASP760  ASP761  ALA762  ILE779  LEU786  VAL792 
 PHE793  MET794  SER795  GLU796  ALA797  LYS798  CYS799  TRP800  GLU811  SER814 

> <Gold.Protein.RotatedAtoms>
  150.7039  134.4630  159.5389 H   0  0  0  0  0  0  0  0  0  0  0  0  # atno 6907 bound_to 6896
  152.2301  134.8327  160.0484 H   0  0  0  0  0  0  0  0  0  0  0  0  # atno 6908 bound_to 6896
  151.9146  133.3535  159.3912 H   0  0  0  0  0  0  0  0  0  0  0  0  # atno 6909 bound_to 6896
  146.0986  139.5655  142.9429 H   0  0  0  0  0  0  0  0  0  0  0  0  # atno 7974 bound_to 7965
  156.2949  140.2289  156.4724 H   0  0  0  0  0  0  0  0  0  0  0  0  # atno 8008 bound_to 7997
  154.7924  140.0453  157.1232 H   0  0  0  0  0  0  0  0  0  0  0  0  # atno 8009 bound_to 7997
  154.9630  140.3057  155.5025 H   0  0  0  0  0  0  0  0  0  0  0  0  # atno 8010 bound_to 7997
  139.4944  144.5962  151.6578 H   0  0  0  0  0  0  0  0  0  0  0  0  # atno 10167 bound_to 10162
  157.5355  131.1098  150.8942 H   0  0  0  0  0  0  0  0  0  0  0  0  # atno 10718 bound_to 10713
  154.2960  135.6244  153.5405 H   0  0  0  0  0  0  0  0  0  0  0  0  # atno 10763 bound_to 10752
  152.9846  135.5667  154.5337 H   0  0  0  0  0  0  0  0  0  0  0  0  # atno 10764 bound_to 10752
  154.4958  135.2869  155.1436 H   0  0  0  0  0  0  0  0  0  0  0  0  # atno 10765 bound_to 10752
  140.3206  134.7440  157.4061 H   0  0  0  0  0  0  0  0  0  0  0  0  # atno 11005 bound_to 11000
  145.5899  141.0371  143.2076 LP  0  0  0  0  0  0  0  0  0  0  0  0  # atno 17320 bound_to 7965
  144.7415  139.7436  143.7309 LP  0  0  0  0  0  0  0  0  0  0  0  0  # atno 17321 bound_to 7965
  140.5600  144.0283  150.6165 LP  0  0  0  0  0  0  0  0  0  0  0  0  # atno 17342 bound_to 10162
  140.3366  143.3045  152.0632 LP  0  0  0  0  0  0  0  0  0  0  0  0  # atno 17343 bound_to 10162
  156.9510  130.5420  149.5282 LP  0  0  0  0  0  0  0  0  0  0  0  0  # atno 17370 bound_to 10713
  156.0455  130.5532  150.8871 LP  0  0  0  0  0  0  0  0  0  0  0  0  # atno 17371 bound_to 10713
  140.0945  134.5556  155.8412 LP  0  0  0  0  0  0  0  0  0  0  0  0  # atno 17394 bound_to 11000
  141.2087  133.6676  156.6391 LP  0  0  0  0  0  0  0  0  0  0  0  0  # atno 17395 bound_to 11000

$$$$
