AV-unprocessed.smi:1932|AV-procd|sdf|7814|dock6
  -GOLD-   22720 9553D 1   1.00000     0.00000
 Structure written by MMmdl.
 44 45  0  0  0  0  0  0  0  0  1 V2000
  145.4971  143.6466  161.8358 C   0  0  0  0  0  0  0  0  0  0  0  0
  146.2998  143.5898  160.5325 C   0  0  0  0  0  0  0  0  0  0  0  0
  147.5188  143.7511  160.5958 O   0  0  0  0  0  0  0  0  0  0  0  0
  145.6519  143.3660  159.3625 N   0  0  0  0  0  0  0  0  0  0  0  0
  144.1955  143.2028  159.3417 C   0  0  0  0  0  0  0  0  0  0  0  0
  146.3158  143.3085  158.0479 C   0  0  0  0  0  0  0  0  0  0  0  0
  147.3101  142.1485  157.8697 C   0  0  0  0  0  0  0  0  0  0  0  0
  147.0956  141.0853  158.4506 O   0  0  0  0  0  0  0  0  0  0  0  0
  148.3895  142.3489  157.0963 N   0  0  0  0  0  0  0  0  0  0  0  0
  149.4674  141.3904  156.8876 C   0  0  0  0  0  0  0  0  0  0  0  0
  150.6440  141.6412  157.8216 C   0  0  0  0  0  0  0  0  0  0  0  0
  150.6676  142.8110  158.6099 C   0  0  0  0  0  0  0  0  0  0  0  0
  151.7754  143.0554  159.4416 C   0  0  0  0  0  0  0  0  0  0  0  0
  152.8235  142.1169  159.4491 C   0  0  0  0  0  0  0  0  0  0  0  0
  152.8145  140.9923  158.7037 N   0  0  0  0  0  0  0  0  0  0  0  0
  151.7478  140.7511  157.9033 C   0  0  0  0  0  0  0  0  0  0  0  0
  151.7501  139.5569  157.1619 N   0  0  0  0  0  0  0  0  0  0  0  0
  152.7193  138.5838  157.6476 C   0  0  0  0  0  0  0  0  0  0  0  0
  152.4965  137.2315  156.9487 C   0  0  0  0  0  0  0  0  0  0  0  0
  152.5599  137.4075  155.5359 O   0  0  0  0  0  0  0  0  0  0  0  0
  151.5610  138.3072  155.0633 C   0  0  0  0  0  0  0  0  0  0  0  0
  151.7647  139.6887  155.7099 C   0  0  0  0  0  0  0  0  0  0  0  0
  145.0715  142.6706  162.0689 H   0  0  0  0  0  0  0  0  0  0  0  0
  144.6911  144.3774  161.7737 H   0  0  0  0  0  0  0  0  0  0  0  0
  146.1402  143.9344  162.6680 H   0  0  0  0  0  0  0  0  0  0  0  0
  143.8246  142.6608  160.2118 H   0  0  0  0  0  0  0  0  0  0  0  0
  143.8710  142.6441  158.4629 H   0  0  0  0  0  0  0  0  0  0  0  0
  143.7099  144.1786  159.3182 H   0  0  0  0  0  0  0  0  0  0  0  0
  145.5554  143.2157  157.2710 H   0  0  0  0  0  0  0  0  0  0  0  0
  146.8261  144.2446  157.8210 H   0  0  0  0  0  0  0  0  0  0  0  0
  148.4947  143.2515  156.6557 H   0  0  0  0  0  0  0  0  0  0  0  0
  149.1011  140.3689  157.0031 H   0  0  0  0  0  0  0  0  0  0  0  0
  149.8021  141.4691  155.8538 H   0  0  0  0  0  0  0  0  0  0  0  0
  149.8521  143.5181  158.5729 H   0  0  0  0  0  0  0  0  0  0  0  0
  151.8228  143.9435  160.0544 H   0  0  0  0  0  0  0  0  0  0  0  0
  153.6923  142.2728  160.0714 H   0  0  0  0  0  0  0  0  0  0  0  0
  153.7274  138.9478  157.4445 H   0  0  0  0  0  0  0  0  0  0  0  0
  152.6346  138.4656  158.7280 H   0  0  0  0  0  0  0  0  0  0  0  0
  153.2626  136.5189  157.2542 H   0  0  0  0  0  0  0  0  0  0  0  0
  151.5322  136.8039  157.2291 H   0  0  0  0  0  0  0  0  0  0  0  0
  151.6334  138.3842  153.9786 H   0  0  0  0  0  0  0  0  0  0  0  0
  150.5702  137.9115  155.2910 H   0  0  0  0  0  0  0  0  0  0  0  0
  150.9787  140.3748  155.3924 H   0  0  0  0  0  0  0  0  0  0  0  0
  152.7167  140.1102  155.3845 H   0  0  0  0  0  0  0  0  0  0  0  0
  1  2  1  0  0  0  0
  1 23  1  0  0  0  0
  1 24  1  0  0  0  0
  1 25  1  0  0  0  0
  2  3  2  0  0  0  0
  2  4  1  0  0  0  0
  4  5  1  0  0  0  0
  4  6  1  0  0  0  0
  5 26  1  0  0  0  0
  5 27  1  0  0  0  0
  5 28  1  0  0  0  0
  6  7  1  0  0  0  0
  6 29  1  0  0  0  0
  6 30  1  0  0  0  0
  7  8  2  0  0  0  0
  7  9  1  0  0  0  0
  9 10  1  0  0  0  0
  9 31  1  0  0  0  0
 10 11  1  0  0  0  0
 10 32  1  0  0  0  0
 10 33  1  0  0  0  0
 11 16  1  0  0  0  0
 11 12  2  0  0  0  0
 12 13  1  0  0  0  0
 12 34  1  0  0  0  0
 13 14  2  0  0  0  0
 13 35  1  0  0  0  0
 14 15  1  0  0  0  0
 14 36  1  0  0  0  0
 15 16  2  0  0  0  0
 16 17  1  0  0  0  0
 17 22  1  0  0  0  0
 17 18  1  0  0  0  0
 18 19  1  0  0  0  0
 18 37  1  0  0  0  0
 18 38  1  0  0  0  0
 19 20  1  0  0  0  0
 19 39  1  0  0  0  0
 19 40  1  0  0  0  0
 20 21  1  0  0  0  0
 21 22  1  0  0  0  0
 21 41  1  0  0  0  0
 21 42  1  0  0  0  0
 22 43  1  0  0  0  0
 22 44  1  0  0  0  0
M  END
> <s_m_source_file>
AV-unprocessed.smi

> <i_m_source_file_index>
1932

> <i_lp_mmshare_version>
43012

> <i_f3d_flags>
0

> <s_epik_input>
W0NIM11DKD1PKU4oW0NIM10pW0NIMl1DKD1PKVtOSF1bQ0gyXWMxW2NIXVtjSF1bY0hdbmMxTjJbQ0gyXVtDSDJdT1tDSDJdW0NIMl0y

> <s_epik_cmdline>
J2VwaWtfcHl0aG9uJywgJy1waCcsICc3LjAnLCAnLXRuJywgJzgnLCAnLW1hJywgJzIwMCcsICctbWV0YWxfYmluZGluZycsICctaW1hZScsICc8aW5maWxlLm1hZT4nLCAnLW9tYWUnLCAnPG91dGZpbGUubWFlPic=

> <r_lp_tautomer_probability>
1

> <r_epik_Ionization_Penalty>
0.00462916

> <r_epik_Ionization_Penalty_Charging>
0

> <r_epik_Ionization_Penalty_Neutral>
0.00462916

> <r_epik_State_Penalty>
0.00334737

> <r_epik_Charging_Adjusted_Penalty>
0.00334737

> <i_epik_Tot_Q>
0

> <i_epik_Tot_abs_Q>
0

> <r_epik_Metal_State_Penalty>
-0

> <b_epik_Metal_Only>
0

> <s_lp_Force_Field>
OPLS_2005

> <r_lp_Energy>
20.2877

> <b_lp_Chiralities_Consistent>
1

> <s_lp_Variant>
AV-unprocessed.smi:1932-1

> <Gold.Version>
5.8.1

> <Gold.Id.Protein>
6NUR|6NUR_protein|mol2

> <Gold.PLP.Fitness>
41.3016

> <Gold.PLP.PLP>
-34.5946

> <Gold.PLP.part.hbond>
-4.1874

> <Gold.PLP.part.metal>
0.0000

> <Gold.PLP.part.buried>
-5.2521

> <Gold.PLP.part.nonpolar>
-25.5024

> <Gold.PLP.part.repulsive>
0.1373

> <Gold.PLP.ligand.clash>
0.0000

> <Gold.PLP.ligand.torsion>
0.8559

> <Gold.PLP.Chemscore.Hbond>
2.7368

> <Gold.PLP.Chemscore.CHOScore>
0.0000

> <Gold.PLP.Chemscore.Metal>
0.0000

> <Gold.Chemscore.Hbonds>
donor molecule, donor type, donor heavy atom, donor atom, acceptor molecule, acceptor atom, score
      L1  H     9    31       P1  8028  1.00
      P1  H  6933  6944       L1     3  1.00
      P1  H  6934  6946       L1     8  0.11
      P1  H 10752 10765       L1    20  0.64

> <Gold.PLP.Chemscore.Internal.Correction>
0.2083

> <Gold.Rescore>
     Score         DG    S(hbond)    S(metal)    S(lipo)     H(rot)  DE(clash)    DE(int)     intcor
     17.08     -18.14       2.93        0.00      68.21       2.00       0.19       0.88       ----

> <Gold.Chemscore.Fitness>
17.0756

> <Gold.Chemscore.DG>
-18.1419

> <Gold.Chemscore.ZeroCoef>
-5.4800

> <Gold.Chemscore.Hbond>
2.9312

> <Gold.Chemscore.Metal>
0.0000

> <Gold.Chemscore.Lipo>
68.2091

> <Gold.Chemscore.Internal_Hbond>
0.0000

> <Gold.Chemscore.DEClash>
0.1889

> <Gold.Chemscore.DEInternal>
0.8774

> <Gold.Chemscore.Rot>
1.9956

> <Gold.Chemscore.Internal.Correction>
   9.000000E+99

> <Gold.Chemscore.Hbonds>
donor molecule, donor type, donor heavy atom, donor atom, acceptor molecule, acceptor atom, score
      L1  H     9    31       P1  8028  0.55
      P1  H  6933  6944       L1     3  0.93
      P1  H  6934  6946       L1     8  0.11
      P1  H 10752 10765       L1    20  0.27

> <Gold.Chemscore.Hbond.Weighted>
-9.7901

> <Gold.Chemscore.Metal.Weighted>
-0.0000

> <Gold.Chemscore.Lipo.Weighted>
-7.9805

> <Gold.Chemscore.Internal_Hbond.Weighted>
0.0000

> <Gold.Chemscore.DEClash.Weighted>
0.1889

> <Gold.Chemscore.DEInternal.Weighted>
0.8774

> <Gold.Chemscore.Rot.Weighted>
5.1087

> <Gold.Chemscore.Internal.Correction.Weighted>
   9.000000E+99

> <Gold.Protein.RotatedTorsions>
[ 6907 6896 6895 6894 ] final   91.99 input  -60.11 | X-H torsion
[ 7974 7965 7964 7962 ] final   65.81 input  175.53 | X-H torsion
[ 8008 7997 7996 7995 ] final   66.26 input   59.86 | X-H torsion
[ 10167 10162 10161 10158 ] final   -3.46 input  -65.29 | X-H torsion
[ 10718 10713 10712 10709 ] final -126.86 input   66.30 | X-H torsion
[ 10763 10752 10751 10750 ] final -164.42 input  -60.55 | X-H torsion
[ 11005 11000 10999 10996 ] final  149.50 input  -57.11 | X-H torsion

> <Gold.Protein.ActiveResidues>
 VAL166  LYS551  ARG553  GLY616  TRP617  ASP618  TYR619  PRO620  LYS621  CYS622 
 ASP623  PHE694  ASN695  SER759  ASP760  ASP761  ALA762  ILE779  LEU786  VAL792 
 PHE793  MET794  SER795  GLU796  ALA797  LYS798  CYS799  TRP800  GLU811  SER814 

> <Gold.Protein.RotatedAtoms>
  152.5452  134.1571  159.8542 H   0  0  0  0  0  0  0  0  0  0  0  0  # atno 6907 bound_to 6896
  151.1592  133.4849  159.2602 H   0  0  0  0  0  0  0  0  0  0  0  0  # atno 6908 bound_to 6896
  151.1390  135.0181  159.8672 H   0  0  0  0  0  0  0  0  0  0  0  0  # atno 6909 bound_to 6896
  145.8340  139.3156  143.0970 H   0  0  0  0  0  0  0  0  0  0  0  0  # atno 7974 bound_to 7965
  155.6747  140.3497  155.4832 H   0  0  0  0  0  0  0  0  0  0  0  0  # atno 8008 bound_to 7997
  155.9658  140.1146  157.0878 H   0  0  0  0  0  0  0  0  0  0  0  0  # atno 8009 bound_to 7997
  154.4154  140.1166  156.5227 H   0  0  0  0  0  0  0  0  0  0  0  0  # atno 8010 bound_to 7997
  140.6891  143.6538  150.8327 H   0  0  0  0  0  0  0  0  0  0  0  0  # atno 10167 bound_to 10162
  156.1804  130.6728  151.0297 H   0  0  0  0  0  0  0  0  0  0  0  0  # atno 10718 bound_to 10713
  154.7030  135.2991  154.9312 H   0  0  0  0  0  0  0  0  0  0  0  0  # atno 10763 bound_to 10752
  154.0238  135.6679  153.4779 H   0  0  0  0  0  0  0  0  0  0  0  0  # atno 10764 bound_to 10752
  153.0696  135.5068  154.8185 H   0  0  0  0  0  0  0  0  0  0  0  0  # atno 10765 bound_to 10752
  140.1050  134.8960  157.1852 H   0  0  0  0  0  0  0  0  0  0  0  0  # atno 11005 bound_to 11000
  145.9539  140.8888  143.0245 LP  0  0  0  0  0  0  0  0  0  0  0  0  # atno 17320 bound_to 7965
  144.6738  140.1718  143.7413 LP  0  0  0  0  0  0  0  0  0  0  0  0  # atno 17321 bound_to 7965
  140.0248  143.5504  152.2785 LP  0  0  0  0  0  0  0  0  0  0  0  0  # atno 17342 bound_to 10162
  139.6276  144.7639  151.2606 LP  0  0  0  0  0  0  0  0  0  0  0  0  # atno 17343 bound_to 10162
  157.6864  131.0823  150.7230 LP  0  0  0  0  0  0  0  0  0  0  0  0  # atno 17370 bound_to 10713
  156.7288  130.4703  149.5505 LP  0  0  0  0  0  0  0  0  0  0  0  0  # atno 17371 bound_to 10713
  140.3168  134.2961  155.7254 LP  0  0  0  0  0  0  0  0  0  0  0  0  # atno 17394 bound_to 11000
  141.2116  133.7685  156.9855 LP  0  0  0  0  0  0  0  0  0  0  0  0  # atno 17395 bound_to 11000

$$$$
