AV-unprocessed.smi:2077|AV-procd|sdf|8461|dock7
  -GOLD-   2272011163D 1   1.00000     0.00000
 Structure written by MMmdl.
 38 40  0  0  0  0  0  0  0  0  1 V2000
  152.3609  143.6837  161.7371 C   0  0  0  0  0  0  0  0  0  0  0  0
  152.6737  142.5104  160.8997 N   0  0  0  0  0  0  0  0  0  0  0  0
  151.9219  142.2965  159.7741 C   0  0  0  0  0  0  0  0  0  0  0  0
  150.9943  143.0160  159.4018 O   0  0  0  0  0  0  0  0  0  0  0  0
  152.3172  141.1057  159.0129 C   0  0  0  0  0  0  0  0  0  0  0  0
  153.3362  140.2938  159.3882 C   0  0  0  0  0  0  0  0  0  0  0  0
  153.5039  139.2462  158.4893 N   0  0  0  0  0  0  0  0  0  0  0  0
  152.5485  139.4915  157.5923 C   0  0  0  0  0  0  0  0  0  0  0  0
  151.7949  140.5839  157.8291 N   0  0  0  0  0  0  0  0  0  0  0  0
  150.6999  141.0634  156.9987 C   0  0  0  0  0  0  0  0  0  0  0  0
  150.4428  140.1645  155.7715 C   0  0  2  0  0  0  0  0  0  0  0  0
  151.5314  140.2327  154.8707 O   0  0  0  0  0  0  0  0  0  0  0  0
  149.1258  140.5144  155.0976 C   0  0  0  0  0  0  0  0  0  0  0  0
  148.4214  141.6769  155.4780 C   0  0  0  0  0  0  0  0  0  0  0  0
  147.2023  142.0040  154.8526 C   0  0  0  0  0  0  0  0  0  0  0  0
  146.6824  141.1724  153.8422 C   0  0  0  0  0  0  0  0  0  0  0  0
  147.3827  140.0133  153.4562 C   0  0  0  0  0  0  0  0  0  0  0  0
  146.8848  139.2139  152.4833 F   0  0  0  0  0  0  0  0  0  0  0  0
  148.6011  139.6854  154.0815 C   0  0  0  0  0  0  0  0  0  0  0  0
  154.0507  140.6097  160.5728 N   0  0  0  0  0  0  0  0  0  0  0  0
  155.1576  139.7448  160.9910 C   0  0  0  0  0  0  0  0  0  0  0  0
  153.7237  141.7130  161.3210 C   0  0  0  0  0  0  0  0  0  0  0  0
  154.3584  141.9815  162.3451 O   0  0  0  0  0  0  0  0  0  0  0  0
  151.4956  144.2622  161.4119 H   0  0  0  0  0  0  0  0  0  0  0  0
  153.2082  144.3709  161.7552 H   0  0  0  0  0  0  0  0  0  0  0  0
  152.1554  143.3780  162.7644 H   0  0  0  0  0  0  0  0  0  0  0  0
  152.3929  138.8566  156.7324 H   0  0  0  0  0  0  0  0  0  0  0  0
  149.8020  141.1016  157.6171 H   0  0  0  0  0  0  0  0  0  0  0  0
  150.8958  142.0922  156.6997 H   0  0  0  0  0  0  0  0  0  0  0  0
  150.3898  139.1284  156.1091 H   0  0  0  0  0  0  0  0  0  0  0  0
  152.1040  139.4992  155.0360 H   0  0  0  0  0  0  0  0  0  0  0  0
  148.8122  142.3228  156.2507 H   0  0  0  0  0  0  0  0  0  0  0  0
  146.6661  142.8938  155.1480 H   0  0  0  0  0  0  0  0  0  0  0  0
  145.7477  141.4237  153.3628 H   0  0  0  0  0  0  0  0  0  0  0  0
  149.1338  138.7959  153.7779 H   0  0  0  0  0  0  0  0  0  0  0  0
  154.9806  139.3509  161.9929 H   0  0  0  0  0  0  0  0  0  0  0  0
  156.0939  140.3043  161.0057 H   0  0  0  0  0  0  0  0  0  0  0  0
  155.3002  138.8909  160.3293 H   0  0  0  0  0  0  0  0  0  0  0  0
  1  2  1  0  0  0  0
  1 24  1  0  0  0  0
  1 25  1  0  0  0  0
  1 26  1  0  0  0  0
  2 22  1  0  0  0  0
  2  3  1  0  0  0  0
  3  4  2  0  0  0  0
  3  5  1  0  0  0  0
  5  9  1  0  0  0  0
  5  6  2  0  0  0  0
  6  7  1  0  0  0  0
  6 20  1  0  0  0  0
  7  8  2  0  0  0  0
  8  9  1  0  0  0  0
  8 27  1  0  0  0  0
  9 10  1  0  0  0  0
 10 11  1  0  0  0  0
 10 28  1  0  0  0  0
 10 29  1  0  0  0  0
 11 12  1  0  0  0  0
 11 13  1  0  0  0  0
 11 30  1  0  0  0  0
 12 31  1  0  0  0  0
 13 19  1  0  0  0  0
 13 14  2  0  0  0  0
 14 15  1  0  0  0  0
 14 32  1  0  0  0  0
 15 16  2  0  0  0  0
 15 33  1  0  0  0  0
 16 17  1  0  0  0  0
 16 34  1  0  0  0  0
 17 18  1  0  0  0  0
 17 19  2  0  0  0  0
 19 35  1  0  0  0  0
 20 21  1  0  0  0  0
 20 22  1  0  0  0  0
 21 36  1  0  0  0  0
 21 37  1  0  0  0  0
 21 38  1  0  0  0  0
 22 23  2  0  0  0  0
M  END
> <s_m_source_file>
AV-unprocessed.smi

> <i_m_source_file_index>
2077

> <i_lp_mmshare_version>
43012

> <i_f3d_flags>
0

> <s_epik_input>
Tz1jMW4oW0NIM10pYyg9TyluKFtDSDNdKWMoYzEyKW5bY0hdbjJbQ0gyXVtDQEhdKFtPSF0pYzNbY0hdW2NIXVtjSF1jKEYpW2NIXTM=

> <s_epik_cmdline>
J2VwaWtfcHl0aG9uJywgJy1waCcsICc3LjAnLCAnLXRuJywgJzgnLCAnLW1hJywgJzIwMCcsICctbWV0YWxfYmluZGluZycsICctaW1hZScsICc8aW5maWxlLm1hZT4nLCAnLW9tYWUnLCAnPG91dGZpbGUubWFlPic=

> <r_lp_tautomer_probability>
1

> <r_epik_Ionization_Penalty>
1.5338e-06

> <r_epik_Ionization_Penalty_Charging>
3.74189e-09

> <r_epik_Ionization_Penalty_Neutral>
1.53006e-06

> <r_epik_State_Penalty>
-0

> <r_epik_Charging_Adjusted_Penalty>
3.74189e-09

> <i_epik_Tot_Q>
0

> <i_epik_Tot_abs_Q>
0

> <r_epik_Metal_State_Penalty>
-0

> <b_epik_Metal_Only>
0

> <s_lp_Force_Field>
OPLS_2005

> <r_lp_Energy>
35.2177

> <b_lp_Chiralities_Consistent>
1

> <s_lp_Variant>
AV-unprocessed.smi:2077-1

> <Gold.Version>
5.8.1

> <Gold.Id.Protein>
6NUR|6NUR_protein|mol2

> <Gold.PLP.Fitness>
50.5673

> <Gold.PLP.PLP>
-46.2436

> <Gold.PLP.part.hbond>
-2.8346

> <Gold.PLP.part.metal>
0.0000

> <Gold.PLP.part.buried>
0.0007

> <Gold.PLP.part.nonpolar>
-42.4069

> <Gold.PLP.part.repulsive>
0.0309

> <Gold.PLP.ligand.clash>
0.0480

> <Gold.PLP.ligand.torsion>
0.1714

> <Gold.PLP.Chemscore.Hbond>
1.5616

> <Gold.PLP.Chemscore.CHOScore>
0.0000

> <Gold.PLP.Chemscore.Metal>
0.0000

> <Gold.Chemscore.Hbonds>
donor molecule, donor type, donor heavy atom, donor atom, acceptor molecule, acceptor atom, score
      P1  H  7989  7998       L1    12  0.94
      P1  H  7997  8008       L1     7  0.60

> <Gold.PLP.Chemscore.Internal.Correction>
0.0296

> <Gold.Rescore>
     Score         DG    S(hbond)    S(metal)    S(lipo)     H(rot)  DE(clash)    DE(int)     intcor
     10.52     -11.96       0.99        0.00      76.00       2.24       0.12       1.31       ----

> <Gold.Chemscore.Fitness>
10.5247

> <Gold.Chemscore.DG>
-11.9571

> <Gold.Chemscore.ZeroCoef>
-5.4800

> <Gold.Chemscore.Hbond>
0.9922

> <Gold.Chemscore.Metal>
0.0000

> <Gold.Chemscore.Lipo>
75.9972

> <Gold.Chemscore.Internal_Hbond>
0.0000

> <Gold.Chemscore.DEClash>
0.1238

> <Gold.Chemscore.DEInternal>
1.3086

> <Gold.Chemscore.Rot>
2.2377

> <Gold.Chemscore.Internal.Correction>
   9.000000E+99

> <Gold.Chemscore.Hbonds>
donor molecule, donor type, donor heavy atom, donor atom, acceptor molecule, acceptor atom, score
      P1  H  7989  7998       L1    12  0.80
      P1  H  7997  8008       L1     7  0.01

> <Gold.Chemscore.Hbond.Weighted>
-3.3141

> <Gold.Chemscore.Metal.Weighted>
-0.0000

> <Gold.Chemscore.Lipo.Weighted>
-8.8917

> <Gold.Chemscore.Internal_Hbond.Weighted>
0.0000

> <Gold.Chemscore.DEClash.Weighted>
0.1238

> <Gold.Chemscore.DEInternal.Weighted>
1.3086

> <Gold.Chemscore.Rot.Weighted>
5.7286

> <Gold.Chemscore.Internal.Correction.Weighted>
   9.000000E+99

> <Gold.Protein.RotatedTorsions>
[ 6907 6896 6895 6894 ] final  146.95 input  -60.11 | X-H torsion
[ 7974 7965 7964 7962 ] final -112.08 input  175.53 | X-H torsion
[ 8008 7997 7996 7995 ] final -110.68 input   59.86 | X-H torsion
[ 10167 10162 10161 10158 ] final -115.86 input  -65.29 | X-H torsion
[ 10718 10713 10712 10709 ] final  -13.49 input   66.30 | X-H torsion
[ 10763 10752 10751 10750 ] final  -98.83 input  -60.55 | X-H torsion
[ 11005 11000 10999 10996 ] final   77.61 input  -57.11 | X-H torsion

> <Gold.Protein.ActiveResidues>
 VAL166  LYS551  ARG553  GLY616  TRP617  ASP618  TYR619  PRO620  LYS621  CYS622 
 ASP623  PHE694  ASN695  SER759  ASP760  ASP761  ALA762  ILE779  LEU786  VAL792 
 PHE793  MET794  SER795  GLU796  ALA797  LYS798  CYS799  TRP800  GLU811  SER814 

> <Gold.Protein.RotatedAtoms>
  152.1612  133.4583  159.4861 H   0  0  0  0  0  0  0  0  0  0  0  0  # atno 6907 bound_to 6896
  150.6907  134.2069  159.4353 H   0  0  0  0  0  0  0  0  0  0  0  0  # atno 6908 bound_to 6896
  151.9971  134.9948  160.0614 H   0  0  0  0  0  0  0  0  0  0  0  0  # atno 6909 bound_to 6896
  145.1483  140.8815  143.3661 H   0  0  0  0  0  0  0  0  0  0  0  0  # atno 7974 bound_to 7965
  154.9783  140.0396  157.2266 H   0  0  0  0  0  0  0  0  0  0  0  0  # atno 8008 bound_to 7997
  154.7738  140.2806  155.6095 H   0  0  0  0  0  0  0  0  0  0  0  0  # atno 8009 bound_to 7997
  156.2925  140.2605  156.2546 H   0  0  0  0  0  0  0  0  0  0  0  0  # atno 8010 bound_to 7997
  140.0855  143.4748  152.1900 H   0  0  0  0  0  0  0  0  0  0  0  0  # atno 10167 bound_to 10162
  156.6296  130.4898  149.6134 H   0  0  0  0  0  0  0  0  0  0  0  0  # atno 10718 bound_to 10713
  154.7448  135.4994  153.9184 H   0  0  0  0  0  0  0  0  0  0  0  0  # atno 10763 bound_to 10752
  153.1080  135.6702  153.9559 H   0  0  0  0  0  0  0  0  0  0  0  0  # atno 10764 bound_to 10752
  153.9327  135.3076  155.3424 H   0  0  0  0  0  0  0  0  0  0  0  0  # atno 10765 bound_to 10752
  139.9247  134.7697  156.1544 H   0  0  0  0  0  0  0  0  0  0  0  0  # atno 11005 bound_to 11000
  145.0458  139.3222  143.5953 LP  0  0  0  0  0  0  0  0  0  0  0  0  # atno 17320 bound_to 7965
  146.3497  139.9848  142.8692 LP  0  0  0  0  0  0  0  0  0  0  0  0  # atno 17321 bound_to 7965
  139.5754  144.7485  151.3778 LP  0  0  0  0  0  0  0  0  0  0  0  0  # atno 17342 bound_to 10162
  140.7055  143.7523  150.7475 LP  0  0  0  0  0  0  0  0  0  0  0  0  # atno 17343 bound_to 10162
  156.2246  130.6757  151.1402 LP  0  0  0  0  0  0  0  0  0  0  0  0  # atno 17370 bound_to 10713
  157.7204  131.0685  150.6159 LP  0  0  0  0  0  0  0  0  0  0  0  0  # atno 17371 bound_to 10713
  141.0796  133.6760  156.2308 LP  0  0  0  0  0  0  0  0  0  0  0  0  # atno 17394 bound_to 11000
  140.6371  134.5204  157.5566 LP  0  0  0  0  0  0  0  0  0  0  0  0  # atno 17395 bound_to 11000

$$$$
