AV-unprocessed.smi:1487|AV-procd|sdf|6012|dock1
  -GOLD-   22720 6113D 1   1.00000     0.00000
 Structure written by MMmdl.
 48 50  0  0  0  0  0  0  0  0  2 V2000
  147.0743  128.5191  152.7983 C   0  0  0  0  0  0  0  0  0  0  0  0
  146.3709  129.8455  152.5710 C   0  0  0  0  0  0  0  0  0  0  0  0
  145.3809  129.9345  151.5665 C   0  0  0  0  0  0  0  0  0  0  0  0
  144.7026  131.1488  151.3238 C   0  0  0  0  0  0  0  0  0  0  0  0
  143.7109  131.4578  150.4085 N   0  0  0  0  0  0  0  0  0  0  0  0
  143.4910  132.7419  150.6741 C   0  0  0  0  0  0  0  0  0  0  0  0
  144.2217  133.3020  151.6572 N   0  0  0  0  0  0  0  0  0  0  0  0
  144.1530  134.6755  152.1229 C   0  0  0  0  0  0  0  0  0  0  0  0
  145.5456  135.2758  152.3965 C   0  0  1  0  0  0  0  0  0  0  0  0
  146.4486  134.8475  151.3946 O   0  0  0  0  0  0  0  0  0  0  0  0
  145.5105  136.8168  152.3971 C   0  0  0  0  0  0  0  0  0  0  0  0
  146.6701  137.4150  153.1079 N   0  3  1  0  0  0  0  0  0  0  0  0
  146.6349  138.8998  153.0975 C   0  0  0  0  0  0  0  0  0  0  0  0
  147.9328  139.4860  153.6741 C   0  0  0  0  0  0  0  0  0  0  0  0
  148.1892  138.9646  155.0948 C   0  0  0  0  0  0  0  0  0  0  0  0
  148.1466  137.4278  155.1358 C   0  0  2  0  0  0  0  0  0  0  0  0
  149.2842  136.8849  154.4943 O   0  0  0  0  0  0  0  0  0  0  0  0
  146.8648  136.8752  154.4818 C   0  0  0  0  0  0  0  0  0  0  0  0
  145.0457  132.2811  152.1189 C   0  0  0  0  0  0  0  0  0  0  0  0
  146.0298  132.2056  153.1202 C   0  0  0  0  0  0  0  0  0  0  0  0
  146.6966  130.9843  153.3507 C   0  0  0  0  0  0  0  0  0  0  0  0
  147.7551  130.9114  154.4371 C   0  0  0  0  0  0  0  0  0  0  0  0
  146.6804  127.7422  152.1424 H   0  0  0  0  0  0  0  0  0  0  0  0
  146.9413  128.1859  153.8277 H   0  0  0  0  0  0  0  0  0  0  0  0
  148.1421  128.6154  152.5999 H   0  0  0  0  0  0  0  0  0  0  0  0
  145.1328  129.0672  150.9723 H   0  0  0  0  0  0  0  0  0  0  0  0
  142.7541  133.3085  150.1234 H   0  0  0  0  0  0  0  0  0  0  0  0
  143.6157  135.2682  151.3810 H   0  0  0  0  0  0  0  0  0  0  0  0
  143.5503  134.6963  153.0319 H   0  0  0  0  0  0  0  0  0  0  0  0
  145.8995  134.9002  153.3560 H   0  0  0  0  0  0  0  0  0  0  0  0
  147.3305  135.0160  151.6916 H   0  0  0  0  0  0  0  0  0  0  0  0
  145.4975  137.1577  151.3604 H   0  0  0  0  0  0  0  0  0  0  0  0
  144.5852  137.1808  152.8465 H   0  0  0  0  0  0  0  0  0  0  0  0
  146.5092  139.2597  152.0754 H   0  0  0  0  0  0  0  0  0  0  0  0
  145.7728  139.2505  153.6669 H   0  0  0  0  0  0  0  0  0  0  0  0
  148.7717  139.2256  153.0272 H   0  0  0  0  0  0  0  0  0  0  0  0
  147.8783  140.5751  153.6828 H   0  0  0  0  0  0  0  0  0  0  0  0
  149.1449  139.3332  155.4696 H   0  0  0  0  0  0  0  0  0  0  0  0
  147.4238  139.3620  155.7629 H   0  0  0  0  0  0  0  0  0  0  0  0
  148.1864  137.1015  156.1757 H   0  0  0  0  0  0  0  0  0  0  0  0
  149.0116  136.4698  153.6899 H   0  0  0  0  0  0  0  0  0  0  0  0
  146.0005  137.1436  155.0914 H   0  0  0  0  0  0  0  0  0  0  0  0
  146.9070  135.7866  154.4686 H   0  0  0  0  0  0  0  0  0  0  0  0
  146.2672  133.0800  153.7080 H   0  0  0  0  0  0  0  0  0  0  0  0
  147.8941  131.8775  154.9229 H   0  0  0  0  0  0  0  0  0  0  0  0
  148.7141  130.6070  154.0174 H   0  0  0  0  0  0  0  0  0  0  0  0
  147.4670  130.1905  155.2025 H   0  0  0  0  0  0  0  0  0  0  0  0
  147.4877  137.1543  152.5740 H   0  0  0  0  0  0  0  0  0  0  0  0
  1  2  1  0  0  0  0
  1 23  1  0  0  0  0
  1 24  1  0  0  0  0
  1 25  1  0  0  0  0
  2 21  1  0  0  0  0
  2  3  2  0  0  0  0
  3  4  1  0  0  0  0
  3 26  1  0  0  0  0
  4 19  2  0  0  0  0
  4  5  1  0  0  0  0
  5  6  2  0  0  0  0
  6  7  1  0  0  0  0
  6 27  1  0  0  0  0
  7  8  1  0  0  0  0
  7 19  1  0  0  0  0
  8  9  1  0  0  0  0
  8 28  1  0  0  0  0
  8 29  1  0  0  0  0
  9 10  1  0  0  0  0
  9 11  1  0  0  0  0
  9 30  1  0  0  0  0
 10 31  1  0  0  0  0
 11 12  1  0  0  0  0
 11 32  1  0  0  0  0
 11 33  1  0  0  0  0
 12 18  1  0  0  0  0
 12 13  1  0  0  0  0
 12 48  1  0  0  0  0
 13 14  1  0  0  0  0
 13 34  1  0  0  0  0
 13 35  1  0  0  0  0
 14 15  1  0  0  0  0
 14 36  1  0  0  0  0
 14 37  1  0  0  0  0
 15 16  1  0  0  0  0
 15 38  1  0  0  0  0
 15 39  1  0  0  0  0
 16 17  1  0  0  0  0
 16 18  1  0  0  0  0
 16 40  1  0  0  0  0
 17 41  1  0  0  0  0
 18 42  1  0  0  0  0
 18 43  1  0  0  0  0
 19 20  1  0  0  0  0
 20 21  2  0  0  0  0
 20 44  1  0  0  0  0
 21 22  1  0  0  0  0
 22 45  1  0  0  0  0
 22 46  1  0  0  0  0
 22 47  1  0  0  0  0
M  CHG  1  12   1
M  END
> <s_m_source_file>
AV-unprocessed.smi

> <i_m_source_file_index>
1487

> <i_lp_mmshare_version>
43012

> <i_f3d_flags>
0

> <s_epik_input>
W0NIM11jKFtjSF0xKWMoW0NIM10pW2NIXWMoYzEyKW4oW2NIXW4yKVtDSDJdW0NASF0oW09IXSlbQ0gyXU4zW0NIMl1bQ0gyXVtDSDJdW0NAQEhdKFtPSF0pW0NIMl0z

> <s_epik_cmdline>
J2VwaWtfcHl0aG9uJywgJy1waCcsICc3LjAnLCAnLXRuJywgJzgnLCAnLW1hJywgJzIwMCcsICctbWV0YWxfYmluZGluZycsICctaW1hZScsICc8aW5maWxlLm1hZT4nLCAnLW9tYWUnLCAnPG91dGZpbGUubWFlPic=

> <r_epik_Ionization_Penalty>
0.0940186

> <r_epik_Ionization_Penalty_Charging>
0.00679686

> <r_epik_Ionization_Penalty_Neutral>
0.0872218

> <r_epik_State_Penalty>
0.0799311

> <r_epik_Charging_Adjusted_Penalty>
0.086728

> <i_epik_Tot_Q>
1

> <i_epik_Tot_abs_Q>
1

> <r_epik_Metal_State_Penalty>
7.95545e-05

> <b_epik_Metal_Only>
0

> <s_lp_Force_Field>
OPLS_2005

> <r_lp_Energy>
22.2404

> <b_lp_Chiralities_Consistent>
1

> <s_lp_Variant>
AV-unprocessed.smi:1487-6

> <Gold.Version>
5.8.1

> <Gold.Id.Protein>
6NUR|6NUR_protein|mol2

> <Gold.PLP.Fitness>
50.0813

> <Gold.PLP.PLP>
-33.7657

> <Gold.PLP.part.hbond>
-4.0000

> <Gold.PLP.part.metal>
0.0000

> <Gold.PLP.part.buried>
-3.8895

> <Gold.PLP.part.nonpolar>
-25.9815

> <Gold.PLP.part.repulsive>
0.1868

> <Gold.PLP.ligand.clash>
0.0000

> <Gold.PLP.ligand.torsion>
0.6435

> <Gold.PLP.Chemscore.Hbond>
4.7930

> <Gold.PLP.Chemscore.CHOScore>
1.0000

> <Gold.PLP.Chemscore.Metal>
0.0000

> <Gold.Chemscore.Hbonds>
donor molecule, donor type, donor heavy atom, donor atom, acceptor molecule, acceptor atom, score
      L1  H    10    31       P1  7948  1.00
      L1  H    12    48       P1  7948  2.00
      L1  H    17    41       P1  7948  1.00
      P1  H 10785 10796       L1     5  0.51
      L1  C     6    27       P1 10186  1.00

> <Gold.PLP.Chemscore.Internal.Correction>
0.2235

> <Gold.Rescore>
     Score         DG    S(hbond)    S(metal)    S(lipo)     H(rot)  DE(clash)    DE(int)     intcor
     19.44     -20.43       3.45        0.00      87.60       2.67       0.44       0.55       ----

> <Gold.Chemscore.Fitness>
19.4448

> <Gold.Chemscore.DG>
-20.4297

> <Gold.Chemscore.ZeroCoef>
-5.4800

> <Gold.Chemscore.Hbond>
3.4547

> <Gold.Chemscore.Metal>
0.0000

> <Gold.Chemscore.Lipo>
87.6012

> <Gold.Chemscore.Internal_Hbond>
0.0000

> <Gold.Chemscore.DEClash>
0.4387

> <Gold.Chemscore.DEInternal>
0.5462

> <Gold.Chemscore.Rot>
2.6712

> <Gold.Chemscore.Internal.Correction>
   9.000000E+99

> <Gold.Chemscore.Hbonds>
donor molecule, donor type, donor heavy atom, donor atom, acceptor molecule, acceptor atom, score
      L1  H    10    31       P1  7948  0.79
      L1  H    12    48       P1  7948  1.00
      L1  H    17    41       P1  7948  0.98
      P1  H 10785 10796       L1     5  0.51

> <Gold.Chemscore.Hbond.Weighted>
-11.5387

> <Gold.Chemscore.Metal.Weighted>
-0.0000

> <Gold.Chemscore.Lipo.Weighted>
-10.2493

> <Gold.Chemscore.Internal_Hbond.Weighted>
0.0000

> <Gold.Chemscore.DEClash.Weighted>
0.4387

> <Gold.Chemscore.DEInternal.Weighted>
0.5462

> <Gold.Chemscore.Rot.Weighted>
6.8383

> <Gold.Chemscore.Internal.Correction.Weighted>
   9.000000E+99

> <Gold.Protein.RotatedTorsions>
[ 6907 6896 6895 6894 ] final -131.86 input  -60.11 | X-H torsion
[ 7974 7965 7964 7962 ] final   28.77 input  175.53 | X-H torsion
[ 8008 7997 7996 7995 ] final   57.17 input   59.86 | X-H torsion
[ 10167 10162 10161 10158 ] final   54.24 input  -65.29 | X-H torsion
[ 10718 10713 10712 10709 ] final   17.00 input   66.30 | X-H torsion
[ 10763 10752 10751 10750 ] final   88.53 input  -60.55 | X-H torsion
[ 11005 11000 10999 10996 ] final   25.90 input  -57.11 | X-H torsion

> <Gold.Protein.ActiveResidues>
 VAL166  LYS551  ARG553  GLY616  TRP617  ASP618  TYR619  PRO620  LYS621  CYS622 
 ASP623  PHE694  ASN695  SER759  ASP760  ASP761  ALA762  ILE779  LEU786  VAL792 
 PHE793  MET794  SER795  GLU796  ALA797  LYS798  CYS799  TRP800  GLU811  SER814 

> <Gold.Protein.RotatedAtoms>
  150.9557  133.6500  159.2763 H   0  0  0  0  0  0  0  0  0  0  0  0  # atno 6907 bound_to 6896
  151.3840  135.0943  159.9515 H   0  0  0  0  0  0  0  0  0  0  0  0  # atno 6908 bound_to 6896
  152.5128  133.9086  159.7531 H   0  0  0  0  0  0  0  0  0  0  0  0  # atno 6909 bound_to 6896
  146.1710  139.7012  142.8967 H   0  0  0  0  0  0  0  0  0  0  0  0  # atno 7974 bound_to 7965
  155.5293  140.3481  155.4423 H   0  0  0  0  0  0  0  0  0  0  0  0  # atno 8008 bound_to 7997
  156.0729  140.1367  156.9833 H   0  0  0  0  0  0  0  0  0  0  0  0  # atno 8009 bound_to 7997
  154.4538  140.0962  156.6671 H   0  0  0  0  0  0  0  0  0  0  0  0  # atno 8010 bound_to 7997
  140.2322  144.3674  150.6410 H   0  0  0  0  0  0  0  0  0  0  0  0  # atno 10167 bound_to 10162
  157.0759  130.6367  149.5816 H   0  0  0  0  0  0  0  0  0  0  0  0  # atno 10718 bound_to 10713
  153.1778  135.4503  154.9988 H   0  0  0  0  0  0  0  0  0  0  0  0  # atno 10763 bound_to 10752
  154.8010  135.3255  154.7553 H   0  0  0  0  0  0  0  0  0  0  0  0  # atno 10764 bound_to 10752
  153.8021  135.6961  153.4909 H   0  0  0  0  0  0  0  0  0  0  0  0  # atno 10765 bound_to 10752
  140.3428  134.2314  155.7688 H   0  0  0  0  0  0  0  0  0  0  0  0  # atno 11005 bound_to 11000
  145.4340  141.0417  143.2895 LP  0  0  0  0  0  0  0  0  0  0  0  0  # atno 17320 bound_to 7965
  144.8163  139.5871  143.7007 LP  0  0  0  0  0  0  0  0  0  0  0  0  # atno 17321 bound_to 7965
  140.6176  143.2173  151.6759 LP  0  0  0  0  0  0  0  0  0  0  0  0  # atno 17342 bound_to 10162
  139.5106  144.3537  152.0628 LP  0  0  0  0  0  0  0  0  0  0  0  0  # atno 17343 bound_to 10162
  155.9937  130.4999  150.7391 LP  0  0  0  0  0  0  0  0  0  0  0  0  # atno 17370 bound_to 10713
  157.4840  131.0905  151.0504 LP  0  0  0  0  0  0  0  0  0  0  0  0  # atno 17371 bound_to 10713
  141.2034  133.7914  157.0342 LP  0  0  0  0  0  0  0  0  0  0  0  0  # atno 17394 bound_to 11000
  140.0767  134.9671  157.1557 LP  0  0  0  0  0  0  0  0  0  0  0  0  # atno 17395 bound_to 11000

$$$$
