AV-unprocessed.smi:2881|AV-procd|sdf|11057|dock3
  -GOLD-   2272015523D 1   1.00000     0.00000
 Structure written by MMmdl.
 40 42  0  0  0  0  0  0  0  0  1 V2000
  152.9568  142.8777  162.2353 C   0  0  0  0  0  0  0  0  0  0  0  0
  152.6101  142.6910  160.7974 C   0  0  0  0  0  0  0  0  0  0  0  0
  151.7913  143.4009  159.9657 C   0  0  0  0  0  0  0  0  0  0  0  0
  151.8850  142.7234  158.7140 C   0  0  0  0  0  0  0  0  0  0  0  0
  151.1968  143.0691  157.4205 C   0  0  0  0  0  0  0  0  0  0  0  0
  150.6459  141.8037  156.7623 C   0  0  0  0  0  0  0  0  0  0  0  0
  150.9360  140.6959  157.2140 O   0  0  0  0  0  0  0  0  0  0  0  0
  149.8535  141.9828  155.6948 N   0  0  0  0  0  0  0  0  0  0  0  0
  149.1974  140.9130  154.9481 C   0  0  2  0  0  0  0  0  0  0  0  0
  148.2897  141.4193  153.7982 C   0  0  2  0  0  0  0  0  0  0  0  0
  147.2964  142.4931  154.2921 C   0  0  0  0  0  0  0  0  0  0  0  0
  146.3319  141.6787  155.1740 C   0  0  0  0  0  0  0  0  0  0  0  0
  146.8828  140.2445  155.0484 C   0  0  1  0  0  0  0  0  0  0  0  0
  147.3592  140.2295  153.6003 C   0  0  0  0  0  0  0  0  0  0  0  0
  148.2034  140.1291  155.8453 C   0  0  1  0  0  0  0  0  0  0  0  0
  148.6268  138.6691  156.0971 C   0  0  0  0  0  0  0  0  0  0  0  0
  147.6206  137.9884  156.8173 O   0  0  0  0  0  0  0  0  0  0  0  0
  152.6915  141.6720  158.7689 N   0  0  0  0  0  0  0  0  0  0  0  0
  153.1279  141.6642  160.0422 N   0  0  0  0  0  0  0  0  0  0  0  0
  153.7709  140.9612  160.3777 H   0  0  0  0  0  0  0  0  0  0  0  0
  152.6099  143.8459  162.5970 H   0  0  0  0  0  0  0  0  0  0  0  0
  154.0355  142.8300  162.3845 H   0  0  0  0  0  0  0  0  0  0  0  0
  152.4943  142.1038  162.8479 H   0  0  0  0  0  0  0  0  0  0  0  0
  151.2129  144.2795  160.2110 H   0  0  0  0  0  0  0  0  0  0  0  0
  150.3816  143.7757  157.5842 H   0  0  0  0  0  0  0  0  0  0  0  0
  151.8964  143.5560  156.7399 H   0  0  0  0  0  0  0  0  0  0  0  0
  149.6652  142.9294  155.3974 H   0  0  0  0  0  0  0  0  0  0  0  0
  149.9550  140.2387  154.5435 H   0  0  0  0  0  0  0  0  0  0  0  0
  148.8424  141.7169  152.9065 H   0  0  0  0  0  0  0  0  0  0  0  0
  147.7721  143.3112  154.8327 H   0  0  0  0  0  0  0  0  0  0  0  0
  146.7596  142.9308  153.4495 H   0  0  0  0  0  0  0  0  0  0  0  0
  146.3138  142.0297  156.2063 H   0  0  0  0  0  0  0  0  0  0  0  0
  145.3149  141.7400  154.7842 H   0  0  0  0  0  0  0  0  0  0  0  0
  146.1473  139.4794  155.2990 H   0  0  0  0  0  0  0  0  0  0  0  0
  146.5612  140.4178  152.8798 H   0  0  0  0  0  0  0  0  0  0  0  0
  147.8810  139.3138  153.3190 H   0  0  0  0  0  0  0  0  0  0  0  0
  148.0754  140.6139  156.8152 H   0  0  0  0  0  0  0  0  0  0  0  0
  148.7796  138.1506  155.1501 H   0  0  0  0  0  0  0  0  0  0  0  0
  149.5648  138.6136  156.6497 H   0  0  0  0  0  0  0  0  0  0  0  0
  147.3104  137.2665  156.2922 H   0  0  0  0  0  0  0  0  0  0  0  0
  1  2  1  0  0  0  0
  1 21  1  0  0  0  0
  1 22  1  0  0  0  0
  1 23  1  0  0  0  0
  2 19  1  0  0  0  0
  2  3  2  0  0  0  0
  3  4  1  0  0  0  0
  3 24  1  0  0  0  0
  4  5  1  0  0  0  0
  4 18  2  0  0  0  0
  5  6  1  0  0  0  0
  5 25  1  0  0  0  0
  5 26  1  0  0  0  0
  6  7  2  0  0  0  0
  6  8  1  0  0  0  0
  8  9  1  0  0  0  0
  8 27  1  0  0  0  0
  9 15  1  0  0  0  0
  9 10  1  0  0  0  0
  9 28  1  0  0  0  0
 10 14  1  0  0  0  0
 10 11  1  0  0  0  0
 10 29  1  0  0  0  0
 11 12  1  0  0  0  0
 11 30  1  0  0  0  0
 11 31  1  0  0  0  0
 12 13  1  0  0  0  0
 12 32  1  0  0  0  0
 12 33  1  0  0  0  0
 13 14  1  0  0  0  0
 13 15  1  0  0  0  0
 13 34  1  0  0  0  0
 14 35  1  0  0  0  0
 14 36  1  0  0  0  0
 15 16  1  0  0  0  0
 15 37  1  0  0  0  0
 16 17  1  0  0  0  0
 16 38  1  0  0  0  0
 16 39  1  0  0  0  0
 17 40  1  0  0  0  0
 18 19  1  0  0  0  0
 19 20  1  0  0  0  0
M  END
> <s_m_source_file>
AV-unprocessed.smi

> <i_m_source_file_index>
2881

> <i_lp_mmshare_version>
43012

> <i_f3d_flags>
0

> <s_epik_input>
W0NIM11jMVtjSF1jKG5bbkhdMSlbQ0gyXUMoPU8pW05IXVtDQEhdKFtDQEBIXTIzKVtDQEhdKFtDSDJdW09IXSlbQ0BASF0oW0NIMl0zKVtDSDJdW0NIMl0y

> <s_epik_cmdline>
J2VwaWtfcHl0aG9uJywgJy1waCcsICc3LjAnLCAnLXRuJywgJzgnLCAnLW1hJywgJzIwMCcsICctbWV0YWxfYmluZGluZycsICctaW1hZScsICc8aW5maWxlLm1hZT4nLCAnLW9tYWUnLCAnPG91dGZpbGUubWFlPic=

> <r_lp_tautomer_probability>
0.5

> <r_epik_Ionization_Penalty>
9.4349e-05

> <r_epik_Ionization_Penalty_Charging>
0

> <r_epik_Ionization_Penalty_Neutral>
9.4349e-05

> <r_epik_State_Penalty>
0.41068

> <r_epik_Charging_Adjusted_Penalty>
0.41068

> <i_epik_Tot_Q>
0

> <i_epik_Tot_abs_Q>
0

> <r_epik_Metal_State_Penalty>
0.4107

> <b_epik_Metal_Only>
0

> <s_lp_Force_Field>
OPLS_2005

> <r_lp_Energy>
47.2373

> <b_lp_Chiralities_Consistent>
1

> <s_lp_Variant>
AV-unprocessed.smi:2881-3

> <Gold.Version>
5.8.1

> <Gold.Id.Protein>
6NUR|6NUR_protein|mol2

> <Gold.PLP.Fitness>
36.5001

> <Gold.PLP.PLP>
-34.0628

> <Gold.PLP.part.hbond>
-1.0000

> <Gold.PLP.part.metal>
0.0000

> <Gold.PLP.part.buried>
-2.6703

> <Gold.PLP.part.nonpolar>
-29.6377

> <Gold.PLP.part.repulsive>
0.2311

> <Gold.PLP.ligand.clash>
0.0000

> <Gold.PLP.ligand.torsion>
0.2960

> <Gold.PLP.Chemscore.Hbond>
1.0000

> <Gold.PLP.Chemscore.CHOScore>
0.0000

> <Gold.PLP.Chemscore.Metal>
0.0000

> <Gold.Chemscore.Hbonds>
donor molecule, donor type, donor heavy atom, donor atom, acceptor molecule, acceptor atom, score
      L1  H     8    27       P1  8028  1.00

> <Gold.PLP.Chemscore.Internal.Correction>
0.0293

> <Gold.Rescore>
     Score         DG    S(hbond)    S(metal)    S(lipo)     H(rot)  DE(clash)    DE(int)     intcor
     11.93     -13.76       1.00        0.00      92.11       2.28       0.03       1.81       ----

> <Gold.Chemscore.Fitness>
11.9251

> <Gold.Chemscore.DG>
-13.7566

> <Gold.Chemscore.ZeroCoef>
-5.4800

> <Gold.Chemscore.Hbond>
0.9953

> <Gold.Chemscore.Metal>
0.0000

> <Gold.Chemscore.Lipo>
92.1141

> <Gold.Chemscore.Internal_Hbond>
0.0000

> <Gold.Chemscore.DEClash>
0.0262

> <Gold.Chemscore.DEInternal>
1.8052

> <Gold.Chemscore.Rot>
2.2755

> <Gold.Chemscore.Internal.Correction>
   9.000000E+99

> <Gold.Chemscore.Hbonds>
donor molecule, donor type, donor heavy atom, donor atom, acceptor molecule, acceptor atom, score
      L1  H     8    27       P1  8028  0.95

> <Gold.Chemscore.Hbond.Weighted>
-3.3244

> <Gold.Chemscore.Metal.Weighted>
-0.0000

> <Gold.Chemscore.Lipo.Weighted>
-10.7773

> <Gold.Chemscore.Internal_Hbond.Weighted>
0.0000

> <Gold.Chemscore.DEClash.Weighted>
0.0262

> <Gold.Chemscore.DEInternal.Weighted>
1.8052

> <Gold.Chemscore.Rot.Weighted>
5.8252

> <Gold.Chemscore.Internal.Correction.Weighted>
   9.000000E+99

> <Gold.Protein.RotatedTorsions>
[ 6907 6896 6895 6894 ] final  -90.59 input  -60.11 | X-H torsion
[ 7974 7965 7964 7962 ] final   93.91 input  175.53 | X-H torsion
[ 8008 7997 7996 7995 ] final   57.26 input   59.86 | X-H torsion
[ 10167 10162 10161 10158 ] final  -61.06 input  -65.29 | X-H torsion
[ 10718 10713 10712 10709 ] final -176.70 input   66.30 | X-H torsion
[ 10763 10752 10751 10750 ] final  -80.92 input  -60.55 | X-H torsion
[ 11005 11000 10999 10996 ] final -158.89 input  -57.11 | X-H torsion

> <Gold.Protein.ActiveResidues>
 VAL166  LYS551  ARG553  GLY616  TRP617  ASP618  TYR619  PRO620  LYS621  CYS622 
 ASP623  PHE694  ASN695  SER759  ASP760  ASP761  ALA762  ILE779  LEU786  VAL792 
 PHE793  MET794  SER795  GLU796  ALA797  LYS798  CYS799  TRP800  GLU811  SER814 

> <Gold.Protein.RotatedAtoms>
  150.6883  134.2408  159.4471 H   0  0  0  0  0  0  0  0  0  0  0  0  # atno 6907 bound_to 6896
  152.0353  134.9741  160.0582 H   0  0  0  0  0  0  0  0  0  0  0  0  # atno 6908 bound_to 6896
  152.1264  133.4348  159.4737 H   0  0  0  0  0  0  0  0  0  0  0  0  # atno 6909 bound_to 6896
  145.4726  139.2281  143.2927 H   0  0  0  0  0  0  0  0  0  0  0  0  # atno 7974 bound_to 7965
  155.5308  140.3482  155.4426 H   0  0  0  0  0  0  0  0  0  0  0  0  # atno 8008 bound_to 7997
  156.0719  140.1365  156.9845 H   0  0  0  0  0  0  0  0  0  0  0  0  # atno 8009 bound_to 7997
  154.4533  140.0964  156.6657 H   0  0  0  0  0  0  0  0  0  0  0  0  # atno 8010 bound_to 7997
  140.6031  143.2366  151.5884 H   0  0  0  0  0  0  0  0  0  0  0  0  # atno 10167 bound_to 10162
  156.8186  130.9611  151.3113 H   0  0  0  0  0  0  0  0  0  0  0  0  # atno 10718 bound_to 10713
  154.5571  135.5644  153.6974 H   0  0  0  0  0  0  0  0  0  0  0  0  # atno 10763 bound_to 10752
  153.0007  135.6265  154.2295 H   0  0  0  0  0  0  0  0  0  0  0  0  # atno 10764 bound_to 10752
  154.2231  135.2869  155.2897 H   0  0  0  0  0  0  0  0  0  0  0  0  # atno 10765 bound_to 10752
  140.6486  134.4475  157.5234 H   0  0  0  0  0  0  0  0  0  0  0  0  # atno 11005 bound_to 11000
  146.2388  140.5505  142.8943 LP  0  0  0  0  0  0  0  0  0  0  0  0  # atno 17320 bound_to 7965
  144.7936  140.6080  143.6525 LP  0  0  0  0  0  0  0  0  0  0  0  0  # atno 17321 bound_to 7965
  139.5305  144.2930  152.1136 LP  0  0  0  0  0  0  0  0  0  0  0  0  # atno 17342 bound_to 10162
  140.2115  144.4558  150.6384 LP  0  0  0  0  0  0  0  0  0  0  0  0  # atno 17343 bound_to 10162
  157.6469  130.8851  149.9555 LP  0  0  0  0  0  0  0  0  0  0  0  0  # atno 17370 bound_to 10713
  156.1002  130.3656  150.0232 LP  0  0  0  0  0  0  0  0  0  0  0  0  # atno 17371 bound_to 10713
  139.9054  134.8461  156.1728 LP  0  0  0  0  0  0  0  0  0  0  0  0  # atno 17394 bound_to 11000
  141.0554  133.6868  156.1850 LP  0  0  0  0  0  0  0  0  0  0  0  0  # atno 17395 bound_to 11000

$$$$
