AV-unprocessed.smi:3323|AV-procd|sdf|12780|dock7
  -GOLD-   2272019123D 1   1.00000     0.00000
 Structure written by MMmdl.
 37 38  0  0  0  0  0  0  0  0  1 V2000
  151.2542  138.1516  154.3352 C   0  0  0  0  0  0  0  0  0  0  0  0
  149.9249  138.8580  154.0485 C   0  0  1  0  0  0  0  0  0  0  0  0
  148.7439  138.1872  154.7774 C   0  0  0  0  0  0  0  0  0  0  0  0
  147.4237  138.9475  154.5392 C   0  0  2  0  0  0  0  0  0  0  0  0
  146.8327  138.7719  153.1203 C   0  0  0  0  0  0  0  0  0  0  0  0
  146.8647  137.3822  152.6728 N   0  0  0  0  0  0  0  0  0  0  0  0
  145.7975  136.6523  152.3170 C   0  0  0  0  0  0  0  0  0  0  0  0
  144.6459  137.0868  152.3137 O   0  0  0  0  0  0  0  0  0  0  0  0
  146.1609  135.4122  151.9475 N   0  0  0  0  0  0  0  0  0  0  0  0
  145.3362  134.3400  151.5114 C   0  0  0  0  0  0  0  0  0  0  0  0
  145.7547  133.3219  150.6204 C   0  0  0  0  0  0  0  0  0  0  0  0
  144.8340  132.3229  150.2494 C   0  0  0  0  0  0  0  0  0  0  0  0
  143.5288  132.3816  150.7754 C   0  0  0  0  0  0  0  0  0  0  0  0
  143.1125  133.3532  151.6144 N   0  0  0  0  0  0  0  0  0  0  0  0
  144.0001  134.3080  151.9649 C   0  0  0  0  0  0  0  0  0  0  0  0
  147.6503  140.4285  154.8903 C   0  0  0  0  0  0  0  0  0  0  0  0
  148.8910  140.9978  154.1788 C   0  0  0  0  0  0  0  0  0  0  0  0
  150.0365  140.2097  154.4845 O   0  0  0  0  0  0  0  0  0  0  0  0
  151.2238  137.1126  154.0059 H   0  0  0  0  0  0  0  0  0  0  0  0
  151.4853  138.1591  155.4007 H   0  0  0  0  0  0  0  0  0  0  0  0
  152.0759  138.6418  153.8125 H   0  0  0  0  0  0  0  0  0  0  0  0
  149.7577  138.8425  152.9708 H   0  0  0  0  0  0  0  0  0  0  0  0
  148.6559  137.1420  154.4823 H   0  0  0  0  0  0  0  0  0  0  0  0
  148.9533  138.1745  155.8478 H   0  0  0  0  0  0  0  0  0  0  0  0
  146.6840  138.5543  155.2381 H   0  0  0  0  0  0  0  0  0  0  0  0
  145.7875  139.0821  153.1245 H   0  0  0  0  0  0  0  0  0  0  0  0
  147.3297  139.4233  152.4009 H   0  0  0  0  0  0  0  0  0  0  0  0
  147.7725  136.9421  152.6343 H   0  0  0  0  0  0  0  0  0  0  0  0
  147.1535  135.2302  151.9231 H   0  0  0  0  0  0  0  0  0  0  0  0
  146.7500  133.2939  150.2053 H   0  0  0  0  0  0  0  0  0  0  0  0
  145.1212  131.5317  149.5727 H   0  0  0  0  0  0  0  0  0  0  0  0
  142.7983  131.6316  150.5101 H   0  0  0  0  0  0  0  0  0  0  0  0
  143.6309  135.0702  152.6357 H   0  0  0  0  0  0  0  0  0  0  0  0
  146.7683  141.0215  154.6461 H   0  0  0  0  0  0  0  0  0  0  0  0
  147.7912  140.5228  155.9677 H   0  0  0  0  0  0  0  0  0  0  0  0
  148.7440  141.0413  153.0991 H   0  0  0  0  0  0  0  0  0  0  0  0
  149.0727  142.0201  154.5110 H   0  0  0  0  0  0  0  0  0  0  0  0
  1  2  1  0  0  0  0
  1 19  1  0  0  0  0
  1 20  1  0  0  0  0
  1 21  1  0  0  0  0
  2 18  1  0  0  0  0
  2  3  1  0  0  0  0
  2 22  1  0  0  0  0
  3  4  1  0  0  0  0
  3 23  1  0  0  0  0
  3 24  1  0  0  0  0
  4  5  1  0  0  0  0
  4 16  1  0  0  0  0
  4 25  1  0  0  0  0
  5  6  1  0  0  0  0
  5 26  1  0  0  0  0
  5 27  1  0  0  0  0
  6  7  1  0  0  0  0
  6 28  1  0  0  0  0
  7  8  2  0  0  0  0
  7  9  1  0  0  0  0
  9 10  1  0  0  0  0
  9 29  1  0  0  0  0
 10 15  1  0  0  0  0
 10 11  2  0  0  0  0
 11 12  1  0  0  0  0
 11 30  1  0  0  0  0
 12 13  2  0  0  0  0
 12 31  1  0  0  0  0
 13 14  1  0  0  0  0
 13 32  1  0  0  0  0
 14 15  2  0  0  0  0
 15 33  1  0  0  0  0
 16 17  1  0  0  0  0
 16 34  1  0  0  0  0
 16 35  1  0  0  0  0
 17 18  1  0  0  0  0
 17 36  1  0  0  0  0
 17 37  1  0  0  0  0
M  END
> <s_m_source_file>
AV-unprocessed.smi

> <i_m_source_file_index>
3323

> <i_lp_mmshare_version>
43012

> <i_f3d_flags>
0

> <s_epik_input>
W0NIM11bQ0BASF0xW0NIMl1bQ0BIXShbQ0gyXVtDSDJdTzEpW0NIMl1bTkhdQyg9TylbTkhdYzJbY0hdW2NIXVtjSF1uW2NIXTI=

> <s_epik_cmdline>
J2VwaWtfcHl0aG9uJywgJy1waCcsICc3LjAnLCAnLXRuJywgJzgnLCAnLW1hJywgJzIwMCcsICctbWV0YWxfYmluZGluZycsICctaW1hZScsICc8aW5maWxlLm1hZT4nLCAnLW9tYWUnLCAnPG91dGZpbGUubWFlPic=

> <r_epik_Ionization_Penalty>
0.00485293

> <r_epik_Ionization_Penalty_Charging>
0

> <r_epik_Ionization_Penalty_Neutral>
0.00485293

> <r_epik_State_Penalty>
0.00349083

> <r_epik_Charging_Adjusted_Penalty>
0.00349083

> <i_epik_Tot_Q>
0

> <i_epik_Tot_abs_Q>
0

> <r_epik_Metal_State_Penalty>
-0

> <b_epik_Metal_Only>
0

> <s_lp_Force_Field>
OPLS_2005

> <r_lp_Energy>
13.6237

> <b_lp_Chiralities_Consistent>
1

> <s_lp_Variant>
AV-unprocessed.smi:3323-4

> <Gold.Version>
5.8.1

> <Gold.Id.Protein>
6NUR|6NUR_protein|mol2

> <Gold.PLP.Fitness>
41.6987

> <Gold.PLP.PLP>
-30.7278

> <Gold.PLP.part.hbond>
-2.9122

> <Gold.PLP.part.metal>
0.0000

> <Gold.PLP.part.buried>
-6.0922

> <Gold.PLP.part.nonpolar>
-23.7109

> <Gold.PLP.part.repulsive>
1.3590

> <Gold.PLP.ligand.clash>
0.0000

> <Gold.PLP.ligand.torsion>
0.2573

> <Gold.PLP.Chemscore.Hbond>
2.8320

> <Gold.PLP.Chemscore.CHOScore>
0.9949

> <Gold.PLP.Chemscore.Metal>
0.0000

> <Gold.Chemscore.Hbonds>
donor molecule, donor type, donor heavy atom, donor atom, acceptor molecule, acceptor atom, score
      L1  H     6    28       P1  7948  1.00
      L1  H     9    29       P1  7948  0.83
      P1  H  7989  7998       L1    18  1.00
      L1  C    13    32       P1 10952  0.99

> <Gold.PLP.Chemscore.Internal.Correction>
0.0048

> <Gold.Rescore>
     Score         DG    S(hbond)    S(metal)    S(lipo)     H(rot)  DE(clash)    DE(int)     intcor
     17.51     -19.25       2.39        0.00      76.33       1.23       0.13       1.61       ----

> <Gold.Chemscore.Fitness>
17.5056

> <Gold.Chemscore.DG>
-19.2536

> <Gold.Chemscore.ZeroCoef>
-5.4800

> <Gold.Chemscore.Hbond>
2.3907

> <Gold.Chemscore.Metal>
0.0000

> <Gold.Chemscore.Lipo>
76.3290

> <Gold.Chemscore.Internal_Hbond>
0.0000

> <Gold.Chemscore.DEClash>
0.1346

> <Gold.Chemscore.DEInternal>
1.6134

> <Gold.Chemscore.Rot>
1.2273

> <Gold.Chemscore.Internal.Correction>
   9.000000E+99

> <Gold.Chemscore.Hbonds>
donor molecule, donor type, donor heavy atom, donor atom, acceptor molecule, acceptor atom, score
      L1  H     6    28       P1  7948  0.94
      L1  H     9    29       P1  7948  0.76
      P1  H  7989  7998       L1    18  0.27

> <Gold.Chemscore.Hbond.Weighted>
-7.9849

> <Gold.Chemscore.Metal.Weighted>
-0.0000

> <Gold.Chemscore.Lipo.Weighted>
-8.9305

> <Gold.Chemscore.Internal_Hbond.Weighted>
0.0000

> <Gold.Chemscore.DEClash.Weighted>
0.1346

> <Gold.Chemscore.DEInternal.Weighted>
1.6134

> <Gold.Chemscore.Rot.Weighted>
3.1418

> <Gold.Chemscore.Internal.Correction.Weighted>
   9.000000E+99

> <Gold.Protein.RotatedTorsions>
[ 6907 6896 6895 6894 ] final   92.14 input  -60.11 | X-H torsion
[ 7974 7965 7964 7962 ] final  152.23 input  175.53 | X-H torsion
[ 8008 7997 7996 7995 ] final   64.20 input   59.86 | X-H torsion
[ 10167 10162 10161 10158 ] final  145.49 input  -65.29 | X-H torsion
[ 10718 10713 10712 10709 ] final  -35.23 input   66.30 | X-H torsion
[ 10763 10752 10751 10750 ] final  100.75 input  -60.55 | X-H torsion
[ 11005 11000 10999 10996 ] final  -62.04 input  -57.11 | X-H torsion

> <Gold.Protein.ActiveResidues>
 VAL166  LYS551  ARG553  GLY616  TRP617  ASP618  TYR619  PRO620  LYS621  CYS622 
 ASP623  PHE694  ASN695  SER759  ASP760  ASP761  ALA762  ILE779  LEU786  VAL792 
 PHE793  MET794  SER795  GLU796  ALA797  LYS798  CYS799  TRP800  GLU811  SER814 

> <Gold.Protein.RotatedAtoms>
  152.5452  134.1548  159.8533 H   0  0  0  0  0  0  0  0  0  0  0  0  # atno 6907 bound_to 6896
  151.1572  133.4862  159.2602 H   0  0  0  0  0  0  0  0  0  0  0  0  # atno 6908 bound_to 6896
  151.1411  135.0191  159.8681 H   0  0  0  0  0  0  0  0  0  0  0  0  # atno 6909 bound_to 6896
  144.8237  139.6641  143.6089 H   0  0  0  0  0  0  0  0  0  0  0  0  # atno 7974 bound_to 7965
  155.6423  140.3497  155.4719 H   0  0  0  0  0  0  0  0  0  0  0  0  # atno 8008 bound_to 7997
  155.9916  140.1195  157.0656 H   0  0  0  0  0  0  0  0  0  0  0  0  # atno 8009 bound_to 7997
  154.4221  140.1118  156.5559 H   0  0  0  0  0  0  0  0  0  0  0  0  # atno 8010 bound_to 7997
  139.4925  144.5898  151.6704 H   0  0  0  0  0  0  0  0  0  0  0  0  # atno 10167 bound_to 10162
  156.3411  130.4293  149.7787 H   0  0  0  0  0  0  0  0  0  0  0  0  # atno 10718 bound_to 10713
  153.3179  135.4068  155.1392 H   0  0  0  0  0  0  0  0  0  0  0  0  # atno 10763 bound_to 10752
  154.8593  135.3580  154.5635 H   0  0  0  0  0  0  0  0  0  0  0  0  # atno 10764 bound_to 10752
  153.6067  135.7069  153.5422 H   0  0  0  0  0  0  0  0  0  0  0  0  # atno 10765 bound_to 10752
  141.1346  133.6636  156.5467 H   0  0  0  0  0  0  0  0  0  0  0  0  # atno 11005 bound_to 11000
  146.2542  139.6267  142.9406 LP  0  0  0  0  0  0  0  0  0  0  0  0  # atno 17320 bound_to 7965
  145.5048  141.0437  143.2520 LP  0  0  0  0  0  0  0  0  0  0  0  0  # atno 17321 bound_to 7965
  140.5522  144.0407  150.6132 LP  0  0  0  0  0  0  0  0  0  0  0  0  # atno 17342 bound_to 10162
  140.3464  143.2989  152.0533 LP  0  0  0  0  0  0  0  0  0  0  0  0  # atno 17343 bound_to 10162
  156.5023  130.8134  151.3137 LP  0  0  0  0  0  0  0  0  0  0  0  0  # atno 17370 bound_to 10713
  157.7447  130.9941  150.2694 LP  0  0  0  0  0  0  0  0  0  0  0  0  # atno 17371 bound_to 10713
  140.4096  134.7284  157.4828 LP  0  0  0  0  0  0  0  0  0  0  0  0  # atno 17394 bound_to 11000
  140.0436  134.6231  155.8949 LP  0  0  0  0  0  0  0  0  0  0  0  0  # atno 17395 bound_to 11000

$$$$
