#       Name:                AV-unprocessed.smi:2187
#       Creating user name   scv26
#       Creation time:       Fri Mar 27 12:07:59 2020


#       File generated by GOLD software.
#

@<TRIPOS>MOLECULE
AV-unprocessed.smi:2187
    47    48     1
SMALL
NO_CHARGES


@<TRIPOS>ATOM
      1 ****        -1.7969   1.9482   1.6780 C.3            1 S1                 0.0000
      2 ****        -2.3958   0.5706   1.6829 C.2            1 S1                 0.0000
      3 ****        -3.6899   0.4278   1.4499 N.2            1 S1                 0.0000
      4 ****        -3.9059  -0.9015   1.5100 N.pl3          1 S1                 0.0000
      5 ****        -5.2447  -1.4141   1.2925 C.3            1 S1                 0.0000
      6 ****        -2.7449  -1.6005   1.7773 C.2            1 S1                 0.0000
      7 ****        -2.7182  -3.0913   1.8838 C.3            1 S1                 0.0000
      8 ****        -1.7406  -0.6778   1.9002 C.2            1 S1                 0.0000
      9 ****        -0.2789  -0.9124   2.1857 C.3            1 S1                 0.0000
     10 ****         0.4878  -0.9954   0.8667 C.2            1 S1                 0.0000
     11 ****         0.5571  -2.0640   0.2598 O.2            1 S1                 0.0000
     12 ****         1.0473   0.1443   0.4295 N.am           1 S1                 0.0000
     13 ****         1.7938   0.3042  -0.8198 C.3            1 S1                 0.0000
     14 ****         1.7424   1.8018  -1.2003 C.3            1 S1                 0.0000
     15 ****         1.9815   2.0724  -2.6957 C.3            1 S1                 0.0000
     16 ****         3.3832   1.7047  -3.2057 C.3            1 S1                 0.0000
     17 ****         3.7106   0.2064  -3.0874 C.3            1 S1                 0.0000
     18 ****         4.0641  -0.1714  -1.7252 N.am           1 S1                 0.0000
     19 ****         3.2690  -0.1273  -0.6453 C.2            1 S1                 0.0000
     20 ****         3.7116  -0.4219   0.4650 O.2            1 S1                 0.0000
     21 ****        -1.3012   2.1521   0.7287 H              1 S1                 0.0000
     22 ****        -1.0559   2.0576   2.4696 H              1 S1                 0.0000
     23 ****        -2.5548   2.7177   1.8289 H              1 S1                 0.0000
     24 ****        -5.5007  -2.1219   2.0811 H              1 S1                 0.0000
     25 ****        -5.2889  -1.9219   0.3289 H              1 S1                 0.0000
     26 ****        -5.9738  -0.6026   1.2996 H              1 S1                 0.0000
     27 ****        -1.6960  -3.4693   1.8870 H              1 S1                 0.0000
     28 ****        -3.2368  -3.5516   1.0428 H              1 S1                 0.0000
     29 ****        -3.2020  -3.4209   2.8031 H              1 S1                 0.0000
     30 ****         0.1399  -0.1169   2.8033 H              1 S1                 0.0000
     31 ****        -0.1216  -1.8356   2.7442 H              1 S1                 0.0000
     32 ****         0.9429   0.9692   1.0018 H              1 S1                 0.0000
     33 ****         1.3160  -0.2981  -1.5947 H              1 S1                 0.0000
     34 ****         0.7532   2.1958  -0.9613 H              1 S1                 0.0000
     35 ****         2.4403   2.3830  -0.5949 H              1 S1                 0.0000
     36 ****         1.2311   1.5422  -3.2833 H              1 S1                 0.0000
     37 ****         1.8117   3.1324  -2.8872 H              1 S1                 0.0000
     38 ****         3.4455   1.9898  -4.2563 H              1 S1                 0.0000
     39 ****         4.1399   2.2980  -2.6905 H              1 S1                 0.0000
     40 ****         2.8883  -0.4089  -3.4553 H              1 S1                 0.0000
     41 ****         4.5702  -0.0230  -3.7173 H              1 S1                 0.0000
     42 ****         5.0181  -0.4692  -1.5798 H              1 S1                 0.0000
     43 ****        -4.3603   1.1473   1.2690 LP             1 S1                 0.0000
     44 ****         0.1114  -2.8791   0.6299 LP             1 S1                 0.0000
     45 ****         1.0592  -2.1171  -0.6034 LP             1 S1                 0.0000
     46 ****         3.1156  -0.3838   1.2671 LP             1 S1                 0.0000
     47 ****         4.6672  -0.6994   0.5648 LP             1 S1                 0.0000
@<TRIPOS>BOND
    1    1    2 1     
    2    1   21 1     
    3    1   22 1     
    4    1   23 1     
    5    2    8 1     
    6    2    3 2     
    7    3    4 1     
    8    4    5 1     
    9    4    6 1     
   10    5   24 1     
   11    5   25 1     
   12    5   26 1     
   13    6    7 1     
   14    6    8 2     
   15    7   27 1     
   16    7   28 1     
   17    7   29 1     
   18    8    9 1     
   19    9   10 1     
   20    9   30 1     
   21    9   31 1     
   22   10   11 2     
   23   10   12 am    
   24   12   13 1     
   25   12   32 1     
   26   13   19 1     
   27   13   14 1     
   28   13   33 1     
   29   14   15 1     
   30   14   34 1     
   31   14   35 1     
   32   15   16 1     
   33   15   36 1     
   34   15   37 1     
   35   16   17 1     
   36   16   38 1     
   37   16   39 1     
   38   17   18 1     
   39   17   40 1     
   40   17   41 1     
   41   18   19 am    
   42   18   42 1     
   43   19   20 2     
   44    3   43 1     
   45   11   44 1     
   46   11   45 1     
   47   20   46 1     
   48   20   47 1     
@<TRIPOS>SUBSTRUCTURE
      1 S1             1
@<TRIPOS>SET
LONE_PAIRS      STATIC     ATOMS    <user>   **** ""
5 43 44 45 46 47
DONOR_HYDROGENS      STATIC     ATOMS    <user>   **** ""
2 32 42
ATOM$BLUE        STATIC     ATOMS    COLORGROUP SYSTEM
5 43 44 45 46 47
ATOM$RED        STATIC     ATOMS    COLORGROUP SYSTEM
2 32 42
