#       Name:                AV-unprocessed.smi:199
#       Creating user name   scv26
#       Creation time:       Thu Mar 26 19:45:32 2020


#       File generated by GOLD software.
#

@<TRIPOS>MOLECULE
AV-unprocessed.smi:199
    61    65     1
SMALL
NO_CHARGES


@<TRIPOS>ATOM
      1 ****        -6.0094   0.8255  -0.0529 C.3            1 S1                 0.0000
      2 ****        -5.1207  -0.1040   0.7925 C.3            1 S1                 0.0000
      3 ****        -5.3414   0.2544   2.1581 O.3            1 S1                 0.0000
      4 ****        -4.1142   0.5759   2.7987 C.3            1 S1                 0.0000
      5 ****        -3.1966   0.9960   1.6605 C.3            1 S1                 0.0000
      6 ****        -3.5957   0.0274   0.5536 C.3            1 S1                 0.0000
      7 ****        -3.2869   0.6078  -0.7014 O.3            1 S1                 0.0000
      8 ****        -2.8956  -1.3556   0.6402 C.3            1 S1                 0.0000
      9 ****        -1.4422  -1.2947   0.5957 N.pl3          1 S1                 0.0000
     10 ****        -0.5854  -1.2642   1.6722 C.2            1 S1                 0.0000
     11 ****         0.6830  -1.2143   1.3715 N.2            1 S1                 0.0000
     12 ****         0.7080  -1.2232  -0.0184 C.ar           1 S1                 0.0000
     13 ****         1.7422  -1.1912  -0.9983 C.ar           1 S1                 0.0000
     14 ****         3.0659  -1.1243  -0.6938 N.3            1 S1                 0.0000
     15 ****         4.0594  -0.7606  -1.6919 C.3            1 S1                 0.0000
     16 ****         5.3781  -1.0552  -0.9561 C.3            1 S1                 0.0000
     17 ****         5.0077  -0.6782   0.4888 C.3            1 S1                 0.0000
     18 ****         3.5565  -0.1953   0.3138 C.3            1 S1                 0.0000
     19 ****         3.5825   1.1865  -0.3881 C.3            1 S1                 0.0000
     20 ****         2.2829   1.9991  -0.2301 C.3            1 S1                 0.0000
     21 ****         2.4486   3.2882  -0.7809 O.3            1 S1                 0.0000
     22 ****         3.8925   0.7659  -1.8396 C.3            1 S1                 0.0000
     23 ****         1.3651  -1.2540  -2.3031 N.ar           1 S1                 0.0000
     24 ****         0.0726  -1.3135  -2.6339 C.ar           1 S1                 0.0000
     25 ****        -0.9925  -1.3299  -1.8317 N.ar           1 S1                 0.0000
     26 ****        -0.6238  -1.2866  -0.5201 C.ar           1 S1                 0.0000
     27 ****        -5.9368   0.5872  -1.1143 H              1 S1                 0.0000
     28 ****        -5.7314   1.8718   0.0785 H              1 S1                 0.0000
     29 ****        -7.0567   0.7234   0.2321 H              1 S1                 0.0000
     30 ****        -5.4485  -1.1328   0.6372 H              1 S1                 0.0000
     31 ****        -4.2468   1.3604   3.5438 H              1 S1                 0.0000
     32 ****        -3.7274  -0.3100   3.3037 H              1 S1                 0.0000
     33 ****        -3.4377   2.0208   1.3731 H              1 S1                 0.0000
     34 ****        -2.1414   0.9750   1.9290 H              1 S1                 0.0000
     35 ****        -2.3469   0.6473  -0.7906 H              1 S1                 0.0000
     36 ****        -3.1800  -1.8691   1.5591 H              1 S1                 0.0000
     37 ****        -3.2336  -1.9970  -0.1751 H              1 S1                 0.0000
     38 ****        -0.9337  -1.2740   2.6951 H              1 S1                 0.0000
     39 ****         3.9794  -1.2995  -2.6367 H              1 S1                 0.0000
     40 ****         5.6359  -2.1130  -1.0219 H              1 S1                 0.0000
     41 ****         6.2156  -0.4757  -1.3461 H              1 S1                 0.0000
     42 ****         5.0468  -1.5573   1.1333 H              1 S1                 0.0000
     43 ****         5.6645   0.0811   0.9144 H              1 S1                 0.0000
     44 ****         3.0159  -0.1909   1.2588 H              1 S1                 0.0000
     45 ****         4.4014   1.7837   0.0167 H              1 S1                 0.0000
     46 ****         1.4381   1.5139  -0.7174 H              1 S1                 0.0000
     47 ****         2.0292   2.1040   0.8250 H              1 S1                 0.0000
     48 ****         1.6437   3.7703  -0.6670 H              1 S1                 0.0000
     49 ****         4.7854   1.2494  -2.2370 H              1 S1                 0.0000
     50 ****         3.0641   1.0018  -2.5089 H              1 S1                 0.0000
     51 ****        -0.1378  -1.3542  -3.6923 H              1 S1                 0.0000
     52 ****        -5.7685  -0.5143   2.6342 LP             1 S1                 0.0000
     53 ****        -5.9486   1.0482   2.1950 LP             1 S1                 0.0000
     54 ****        -3.6694   1.5306  -0.7495 LP             1 S1                 0.0000
     55 ****        -3.6722   0.0487  -1.4355 LP             1 S1                 0.0000
     56 ****         1.4610  -1.1779   1.9987 LP             1 S1                 0.0000
     57 ****         3.0120  -2.0907  -0.4427 LP             1 S1                 0.0000
     58 ****         2.6616   3.2136  -1.7550 LP             1 S1                 0.0000
     59 ****         3.1942   3.7617  -0.3119 LP             1 S1                 0.0000
     60 ****         2.0612  -1.2556  -3.0209 LP             1 S1                 0.0000
     61 ****        -1.9394  -1.3689  -2.1510 LP             1 S1                 0.0000
@<TRIPOS>BOND
    1    1    2 1     
    2    1   27 1     
    3    1   28 1     
    4    1   29 1     
    5    2    6 1     
    6    2    3 1     
    7    2   30 1     
    8    3    4 1     
    9    4    5 1     
   10    4   31 1     
   11    4   32 1     
   12    5    6 1     
   13    5   33 1     
   14    5   34 1     
   15    6    7 1     
   16    6    8 1     
   17    7   35 1     
   18    8    9 1     
   19    8   36 1     
   20    8   37 1     
   21    9   26 1     
   22    9   10 1     
   23   10   11 2     
   24   10   38 1     
   25   11   12 1     
   26   12   26 ar    
   27   12   13 ar    
   28   13   14 1     
   29   13   23 ar    
   30   14   18 1     
   31   14   15 1     
   32   15   22 1     
   33   15   16 1     
   34   15   39 1     
   35   16   17 1     
   36   16   40 1     
   37   16   41 1     
   38   17   18 1     
   39   17   42 1     
   40   17   43 1     
   41   18   19 1     
   42   18   44 1     
   43   19   20 1     
   44   19   22 1     
   45   19   45 1     
   46   20   21 1     
   47   20   46 1     
   48   20   47 1     
   49   21   48 1     
   50   22   49 1     
   51   22   50 1     
   52   23   24 ar    
   53   24   25 ar    
   54   24   51 1     
   55   25   26 ar    
   56    3   52 1     
   57    3   53 1     
   58    7   54 1     
   59    7   55 1     
   60   11   56 1     
   61   14   57 1     
   62   21   58 1     
   63   21   59 1     
   64   23   60 1     
   65   25   61 1     
@<TRIPOS>SUBSTRUCTURE
      1 S1             1
@<TRIPOS>SET
LONE_PAIRS      STATIC     ATOMS    <user>   **** ""
10 52 53 54 55 56 57 58 59 60 61
DONOR_HYDROGENS      STATIC     ATOMS    <user>   **** ""
2 35 48
ATOM$BLUE        STATIC     ATOMS    COLORGROUP SYSTEM
10 52 53 54 55 56 57 58 59 60 61
ATOM$RED        STATIC     ATOMS    COLORGROUP SYSTEM
2 35 48
