AV-unprocessed.smi:2526|AV-procd|sdf|9937|dock2
  -GOLD-   2272013583D 1   1.00000     0.00000
 Structure written by MMmdl.
 29 30  0  0  0  0  0  0  0  0  2 V2000
  141.2339  136.6648  154.5779 C   0  0  0  0  0  0  0  0  0  0  0  0
  142.0641  135.9980  153.5980 N   0  0  0  0  0  0  0  0  0  0  0  0
  142.1749  134.6490  153.3407 C   0  0  0  0  0  0  0  0  0  0  0  0
  143.0850  134.4943  152.3306 C   0  0  0  0  0  0  0  0  0  0  0  0
  143.5681  133.2287  151.6634 C   0  0  1  0  0  0  0  0  0  0  0  0
  143.3501  133.2922  150.2157 N   0  0  0  0  0  0  0  0  0  0  0  0
  144.1299  132.7594  149.2578 C   0  0  0  0  0  0  0  0  0  0  0  0
  143.8164  132.8169  148.0717 O   0  0  0  0  0  0  0  0  0  0  0  0
  145.4590  132.0987  149.6551 C   0  0  0  0  0  0  0  0  0  0  0  0
  145.5682  131.7799  151.1555 C   0  0  0  0  0  0  0  0  0  0  0  0
  145.0505  132.9477  152.0032 C   0  0  2  0  0  0  0  0  0  0  0  0
  145.2416  132.6873  153.4417 N   0  3  0  0  0  0  0  0  0  0  0  0
  143.4793  135.8328  152.0413 C   0  0  0  0  0  0  0  0  0  0  0  0
  142.8662  136.7279  152.7968 N   0  0  0  0  0  0  0  0  0  0  0  0
  140.4463  135.9923  154.9193 H   0  0  0  0  0  0  0  0  0  0  0  0
  140.7748  137.5513  154.1385 H   0  0  0  0  0  0  0  0  0  0  0  0
  141.8428  136.9627  155.4320 H   0  0  0  0  0  0  0  0  0  0  0  0
  141.6013  133.9173  153.8911 H   0  0  0  0  0  0  0  0  0  0  0  0
  142.9727  132.3829  152.0112 H   0  0  0  0  0  0  0  0  0  0  0  0
  142.4972  133.7411  149.9133 H   0  0  0  0  0  0  0  0  0  0  0  0
  145.6039  131.1908  149.0683 H   0  0  0  0  0  0  0  0  0  0  0  0
  146.2600  132.7823  149.3717 H   0  0  0  0  0  0  0  0  0  0  0  0
  145.0026  130.8743  151.3809 H   0  0  0  0  0  0  0  0  0  0  0  0
  146.6080  131.5642  151.4042 H   0  0  0  0  0  0  0  0  0  0  0  0
  145.6436  133.8318  151.7623 H   0  0  0  0  0  0  0  0  0  0  0  0
  145.9778  132.0074  153.5679 H   0  0  0  0  0  0  0  0  0  0  0  0
  144.3820  132.3305  153.8345 H   0  0  0  0  0  0  0  0  0  0  0  0
  144.1887  136.1787  151.3040 H   0  0  0  0  0  0  0  0  0  0  0  0
  145.4931  133.5465  153.9093 H   0  0  0  0  0  0  0  0  0  0  0  0
  1  2  1  0  0  0  0
  1 15  1  0  0  0  0
  1 16  1  0  0  0  0
  1 17  1  0  0  0  0
  2 14  1  0  0  0  0
  2  3  1  0  0  0  0
  3  4  2  0  0  0  0
  3 18  1  0  0  0  0
  4  5  1  0  0  0  0
  4 13  1  0  0  0  0
  5 11  1  0  0  0  0
  5  6  1  0  0  0  0
  5 19  1  0  0  0  0
  6  7  1  0  0  0  0
  6 20  1  0  0  0  0
  7  8  2  0  0  0  0
  7  9  1  0  0  0  0
  9 10  1  0  0  0  0
  9 21  1  0  0  0  0
  9 22  1  0  0  0  0
 10 11  1  0  0  0  0
 10 23  1  0  0  0  0
 10 24  1  0  0  0  0
 11 12  1  0  0  0  0
 11 25  1  0  0  0  0
 12 26  1  0  0  0  0
 12 27  1  0  0  0  0
 12 29  1  0  0  0  0
 13 14  2  0  0  0  0
 13 28  1  0  0  0  0
M  CHG  1  12   1
M  END
> <s_m_source_file>
AV-unprocessed.smi

> <i_m_source_file_index>
2526

> <i_lp_mmshare_version>
43012

> <i_f3d_flags>
0

> <s_epik_input>
W0NIM11uMVtjSF1jKFtjSF1uMSlbQ0BASF0yW05IXUMoPU8pW0NIMl1bQ0gyXVtDQEhdMltOSDJd

> <s_epik_cmdline>
J2VwaWtfcHl0aG9uJywgJy1waCcsICc3LjAnLCAnLXRuJywgJzgnLCAnLW1hJywgJzIwMCcsICctbWV0YWxfYmluZGluZycsICctaW1hZScsICc8aW5maWxlLm1hZT4nLCAnLW9tYWUnLCAnPG91dGZpbGUubWFlPic=

> <r_lp_tautomer_probability>
1

> <r_epik_Ionization_Penalty>
0.00878543

> <r_epik_Ionization_Penalty_Charging>
0.00874185

> <r_epik_Ionization_Penalty_Neutral>
4.35793e-05

> <r_epik_State_Penalty>
0.00660351

> <r_epik_Charging_Adjusted_Penalty>
0.0153454

> <i_epik_Tot_Q>
1

> <i_epik_Tot_abs_Q>
1

> <r_epik_Metal_State_Penalty>
0.00660727

> <b_epik_Metal_Only>
0

> <s_lp_Force_Field>
OPLS_2005

> <r_lp_Energy>
10.7235

> <b_lp_Chiralities_Consistent>
1

> <s_lp_Variant>
AV-unprocessed.smi:2526-4

> <Gold.Version>
5.8.1

> <Gold.Id.Protein>
6NUR|6NUR_protein|mol2

> <Gold.PLP.Fitness>
39.0702

> <Gold.PLP.PLP>
-27.3974

> <Gold.PLP.part.hbond>
-2.6177

> <Gold.PLP.part.metal>
0.0000

> <Gold.PLP.part.buried>
-7.0490

> <Gold.PLP.part.nonpolar>
-19.8375

> <Gold.PLP.part.repulsive>
0.6679

> <Gold.PLP.ligand.clash>
0.0000

> <Gold.PLP.ligand.torsion>
0.0838

> <Gold.PLP.Chemscore.Hbond>
3.0000

> <Gold.PLP.Chemscore.CHOScore>
0.9396

> <Gold.PLP.Chemscore.Metal>
0.0000

> <Gold.Chemscore.Hbonds>
donor molecule, donor type, donor heavy atom, donor atom, acceptor molecule, acceptor atom, score
      L1  H     6    20       P1 10186  1.00
      L1  H    12    27       P1 10957  2.00
      L1  C     3    18       P1 10957  0.84
      L1  C    13    28       P1 10171  0.19

> <Gold.PLP.Chemscore.Internal.Correction>
0.0215

> <Gold.Rescore>
     Score         DG    S(hbond)    S(metal)    S(lipo)     H(rot)  DE(clash)    DE(int)     intcor
     15.22     -15.31       1.92        0.00      51.08       1.00       0.09       0.01       ----

> <Gold.Chemscore.Fitness>
15.2184

> <Gold.Chemscore.DG>
-15.3147

> <Gold.Chemscore.ZeroCoef>
-5.4800

> <Gold.Chemscore.Hbond>
1.9218

> <Gold.Chemscore.Metal>
0.0000

> <Gold.Chemscore.Lipo>
51.0751

> <Gold.Chemscore.Internal_Hbond>
0.0000

> <Gold.Chemscore.DEClash>
0.0853

> <Gold.Chemscore.DEInternal>
0.0109

> <Gold.Chemscore.Rot>
1.0000

> <Gold.Chemscore.Internal.Correction>
   9.000000E+99

> <Gold.Chemscore.Hbonds>
donor molecule, donor type, donor heavy atom, donor atom, acceptor molecule, acceptor atom, score
      L1  H     6    20       P1 10186  1.00
      L1  H    12    27       P1 10957  0.24
      P1  H  7918  7932       L1     8  0.03

> <Gold.Chemscore.Hbond.Weighted>
-6.4189

> <Gold.Chemscore.Metal.Weighted>
-0.0000

> <Gold.Chemscore.Lipo.Weighted>
-5.9758

> <Gold.Chemscore.Internal_Hbond.Weighted>
0.0000

> <Gold.Chemscore.DEClash.Weighted>
0.0853

> <Gold.Chemscore.DEInternal.Weighted>
0.0109

> <Gold.Chemscore.Rot.Weighted>
2.5600

> <Gold.Chemscore.Internal.Correction.Weighted>
   9.000000E+99

> <Gold.Protein.RotatedTorsions>
[ 6907 6896 6895 6894 ] final  162.27 input  -60.11 | X-H torsion
[ 7974 7965 7964 7962 ] final -170.24 input  175.53 | X-H torsion
[ 8008 7997 7996 7995 ] final   57.43 input   59.86 | X-H torsion
[ 10167 10162 10161 10158 ] final -155.84 input  -65.29 | X-H torsion
[ 10718 10713 10712 10709 ] final   72.00 input   66.30 | X-H torsion
[ 10763 10752 10751 10750 ] final   38.47 input  -60.55 | X-H torsion
[ 11005 11000 10999 10996 ] final  145.56 input  -57.11 | X-H torsion

> <Gold.Protein.ActiveResidues>
 VAL166  LYS551  ARG553  GLY616  TRP617  ASP618  TYR619  PRO620  LYS621  CYS622 
 ASP623  PHE694  ASN695  SER759  ASP760  ASP761  ALA762  ILE779  LEU786  VAL792 
 PHE793  MET794  SER795  GLU796  ALA797  LYS798  CYS799  TRP800  GLU811  SER814 

> <Gold.Protein.RotatedAtoms>
  151.9430  133.3643  159.3971 H   0  0  0  0  0  0  0  0  0  0  0  0  # atno 6907 bound_to 6896
  150.6995  134.4420  159.5305 H   0  0  0  0  0  0  0  0  0  0  0  0  # atno 6908 bound_to 6896
  152.2080  134.8528  160.0551 H   0  0  0  0  0  0  0  0  0  0  0  0  # atno 6909 bound_to 6896
  144.7173  140.2101  143.6328 H   0  0  0  0  0  0  0  0  0  0  0  0  # atno 7974 bound_to 7965
  155.5336  140.3482  155.4431 H   0  0  0  0  0  0  0  0  0  0  0  0  # atno 8008 bound_to 7997
  156.0701  140.1361  156.9865 H   0  0  0  0  0  0  0  0  0  0  0  0  # atno 8009 bound_to 7997
  154.4524  140.0967  156.6631 H   0  0  0  0  0  0  0  0  0  0  0  0  # atno 8010 bound_to 7997
  139.6899  143.9438  152.2379 H   0  0  0  0  0  0  0  0  0  0  0  0  # atno 10167 bound_to 10162
  157.6479  130.9556  150.0867 H   0  0  0  0  0  0  0  0  0  0  0  0  # atno 10718 bound_to 10713
  153.0000  135.6248  154.2311 H   0  0  0  0  0  0  0  0  0  0  0  0  # atno 10763 bound_to 10752
  154.2053  135.2802  155.2979 H   0  0  0  0  0  0  0  0  0  0  0  0  # atno 10764 bound_to 10752
  154.5651  135.5693  153.7102 H   0  0  0  0  0  0  0  0  0  0  0  0  # atno 10765 bound_to 10752
  140.0722  134.9145  157.1364 H   0  0  0  0  0  0  0  0  0  0  0  0  # atno 11005 bound_to 11000
  145.8599  139.2217  143.1723 LP  0  0  0  0  0  0  0  0  0  0  0  0  # atno 17320 bound_to 7965
  146.0183  140.8371  142.9936 LP  0  0  0  0  0  0  0  0  0  0  0  0  # atno 17321 bound_to 7965
  139.9252  144.6775  150.8420 LP  0  0  0  0  0  0  0  0  0  0  0  0  # atno 17342 bound_to 10162
  140.7679  143.3347  151.2334 LP  0  0  0  0  0  0  0  0  0  0  0  0  # atno 17343 bound_to 10162
  156.1828  130.3651  149.9013 LP  0  0  0  0  0  0  0  0  0  0  0  0  # atno 17370 bound_to 10713
  156.6961  130.8914  151.3594 LP  0  0  0  0  0  0  0  0  0  0  0  0  # atno 17371 bound_to 10713
  140.3610  134.2494  155.7187 LP  0  0  0  0  0  0  0  0  0  0  0  0  # atno 17394 bound_to 11000
  141.2016  133.7958  157.0432 LP  0  0  0  0  0  0  0  0  0  0  0  0  # atno 17395 bound_to 11000

$$$$
