#       Name:                AV-unprocessed.smi:1513
#       Creating user name   scv26
#       Creation time:       Fri Mar 27 06:24:29 2020


#       File generated by GOLD software.
#

@<TRIPOS>MOLECULE
AV-unprocessed.smi:1513
    39    40     1
SMALL
NO_CHARGES


@<TRIPOS>ATOM
      1 ****        -3.2763   2.2430  -0.8595 N.3            1 S1                 0.0000
      2 ****        -1.6278   2.7091  -0.9818 S.o2           1 S1                 0.0000
      3 ****        -1.5911   3.8345  -1.9291 O.2            1 S1                 0.0000
      4 ****        -1.1675   2.9339   0.3980 O.2            1 S1                 0.0000
      5 ****        -1.1024   1.3164  -1.6165 N.pl3          1 S1                -1.0000
      6 ****         0.3156   1.1600  -1.8875 C.3            1 S1                 0.0000
      7 ****         0.7667  -0.2954  -1.7091 C.ar           1 S1                 0.0000
      8 ****         1.1691  -1.0226  -2.8579 C.ar           1 S1                 0.0000
      9 ****         1.6024  -2.3574  -2.7352 C.ar           1 S1                 0.0000
     10 ****         1.6290  -2.9529  -1.4624 C.ar           1 S1                 0.0000
     11 ****         1.2392  -2.2431  -0.3842 N.pl3          1 S1                 1.0000
     12 ****         0.8111  -0.9562  -0.4394 C.ar           1 S1                 0.0000
     13 ****         0.4181  -0.3650   0.7792 N.3            1 S1                 0.0000
     14 ****        -0.8502  -0.8707   1.2880 C.3            1 S1                 0.0000
     15 ****        -1.2874  -0.0544   2.5161 C.3            1 S1                 0.0000
     16 ****        -0.2498  -0.0651   3.4931 O.3            1 S1                 0.0000
     17 ****         0.9556   0.5133   3.0001 C.3            1 S1                 0.0000
     18 ****         1.4587  -0.3007   1.7963 C.3            1 S1                 0.0000
     19 ****        -3.8784   2.7934  -1.4709 H              1 S1                 0.0000
     20 ****        -3.5971   2.2070   0.1074 H              1 S1                 0.0000
     21 ****         0.5694   1.4984  -2.8925 H              1 S1                 0.0000
     22 ****         0.9291   1.7630  -1.2171 H              1 S1                 0.0000
     23 ****         1.1534  -0.5768  -3.8435 H              1 S1                 0.0000
     24 ****         1.9092  -2.9154  -3.6077 H              1 S1                 0.0000
     25 ****         1.9438  -3.9691  -1.2748 H              1 S1                 0.0000
     26 ****        -1.6119  -0.8112   0.5094 H              1 S1                 0.0000
     27 ****        -0.7441  -1.9221   1.5586 H              1 S1                 0.0000
     28 ****        -1.5268   0.9723   2.2366 H              1 S1                 0.0000
     29 ****        -2.1904  -0.4834   2.9502 H              1 S1                 0.0000
     30 ****         0.7851   1.5550   2.7221 H              1 S1                 0.0000
     31 ****         1.7022   0.5123   3.7942 H              1 S1                 0.0000
     32 ****         1.7289  -1.3078   2.1164 H              1 S1                 0.0000
     33 ****         2.3545   0.1604   1.3785 H              1 S1                 0.0000
     34 ****         1.2615  -2.7024   0.5263 H              1 S1                 0.0000
     35 ****        -3.3423   1.3035  -1.1956 LP             1 S1                 0.0000
     36 ****        -1.7434   0.5760  -1.8187 LP             1 S1                 0.0000
     37 ****         0.2556   0.5913   0.5362 LP             1 S1                 0.0000
     38 ****        -0.0679  -1.0115   3.7600 LP             1 S1                 0.0000
     39 ****        -0.5536   0.4541   4.2919 LP             1 S1                 0.0000
@<TRIPOS>BOND
    1    1    2 1     
    2    1   19 1     
    3    1   20 1     
    4    2    3 2     
    5    2    4 2     
    6    2    5 1     
    7    5    6 1     
    8    6    7 1     
    9    6   21 1     
   10    6   22 1     
   11    7   12 ar    
   12    7    8 ar    
   13    8    9 ar    
   14    8   23 1     
   15    9   10 ar    
   16    9   24 1     
   17   10   11 ar    
   18   10   25 1     
   19   11   12 ar    
   20   11   34 1     
   21   12   13 1     
   22   13   18 1     
   23   13   14 1     
   24   14   15 1     
   25   14   26 1     
   26   14   27 1     
   27   15   16 1     
   28   15   28 1     
   29   15   29 1     
   30   16   17 1     
   31   17   18 1     
   32   17   30 1     
   33   17   31 1     
   34   18   32 1     
   35   18   33 1     
   36    1   35 1     
   37    5   36 1     
   38   13   37 1     
   39   16   38 1     
   40   16   39 1     
@<TRIPOS>SUBSTRUCTURE
      1 S1             1
@<TRIPOS>SET
LONE_PAIRS      STATIC     ATOMS    <user>   **** ""
7 35 3 4 36 37 38 39
DONOR_HYDROGENS      STATIC     ATOMS    <user>   **** ""
3 19 20 34
ATOM$BLUE        STATIC     ATOMS    COLORGROUP SYSTEM
7 35 3 4 36 37 38 39
ATOM$RED        STATIC     ATOMS    COLORGROUP SYSTEM
3 19 20 34
