AV-unprocessed.smi:103|AV-procd|sdf|986|dock1
  -GOLD-   2262017553D 1   1.00000     0.00000
 Structure written by MMmdl.
 53 55  0  0  0  0  0  0  0  0  1 V2000
  144.3436  142.7599  159.4090 C   0  0  0  0  0  0  0  0  0  0  0  0
  145.8029  142.5080  159.0540 C   0  0  0  0  0  0  0  0  0  0  0  0
  146.6840  142.5336  159.9135 O   0  0  0  0  0  0  0  0  0  0  0  0
  145.9733  142.2617  157.7435 O   0  0  0  0  0  0  0  0  0  0  0  0
  147.2650  142.3297  157.1564 C   0  0  0  0  0  0  0  0  0  0  0  0
  148.2222  141.4070  157.9220 C   0  0  1  0  0  0  0  0  0  0  0  0
  147.4872  140.2611  158.3478 O   0  0  0  0  0  0  0  0  0  0  0  0
  148.1600  139.0987  157.9944 C   0  0  1  0  0  0  0  0  0  0  0  0
  147.1662  138.0102  157.7209 N   0  0  0  0  0  0  0  0  0  0  0  0
  147.0696  136.7563  158.2883 C   0  0  0  0  0  0  0  0  0  0  0  0
  148.0965  136.1064  159.6000 S   0  0  0  0  0  0  0  0  0  0  0  0
  147.3981  134.4208  159.8251 C   0  0  0  0  0  0  0  0  0  0  0  0
  149.4630  136.0025  159.0646 O   0  0  0  0  0  0  0  0  0  0  0  0
  147.8232  136.9072  160.8033 O   0  0  0  0  0  0  0  0  0  0  0  0
  146.0716  136.0107  157.8987 N   0  0  0  0  0  0  0  0  0  0  0  0
  145.4659  136.7854  156.9193 C   0  0  0  0  0  0  0  0  0  0  0  0
  144.3589  136.5918  156.0551 C   0  0  0  0  0  0  0  0  0  0  0  0
  143.6227  135.4720  156.0501 N   0  0  0  0  0  0  0  0  0  0  0  0
  144.0309  137.5810  155.1914 N   0  0  0  0  0  0  0  0  0  0  0  0
  144.7514  138.7067  155.1749 C   0  0  0  0  0  0  0  0  0  0  0  0
  145.8088  139.0313  155.9226 N   0  0  0  0  0  0  0  0  0  0  0  0
  146.1400  138.0341  156.7950 C   0  0  0  0  0  0  0  0  0  0  0  0
  149.0105  139.4331  156.7689 C   0  0  1  0  0  0  0  0  0  0  0  0
  148.2712  139.2866  155.5613 O   0  0  0  0  0  0  0  0  0  0  0  0
  148.8604  139.4726  154.3710 C   0  0  0  0  0  0  0  0  0  0  0  0
  147.9077  139.2208  153.2099 C   0  0  0  0  0  0  0  0  0  0  0  0
  150.0307  139.8033  154.1834 O   0  0  0  0  0  0  0  0  0  0  0  0
  149.3592  140.8913  157.0240 C   0  0  2  0  0  0  0  0  0  0  0  0
  150.6052  140.9854  157.7051 O   0  0  0  0  0  0  0  0  0  0  0  0
  151.0211  142.1640  158.2033 C   0  0  0  0  0  0  0  0  0  0  0  0
  152.3307  142.0429  158.9710 C   0  0  0  0  0  0  0  0  0  0  0  0
  150.4493  143.2467  158.0781 O   0  0  0  0  0  0  0  0  0  0  0  0
  143.8892  143.4441  158.6923 H   0  0  0  0  0  0  0  0  0  0  0  0
  144.2627  143.1989  160.4036 H   0  0  0  0  0  0  0  0  0  0  0  0
  143.7855  141.8236  159.3974 H   0  0  0  0  0  0  0  0  0  0  0  0
  147.2639  142.0649  156.0982 H   0  0  0  0  0  0  0  0  0  0  0  0
  147.6096  143.3618  157.2245 H   0  0  0  0  0  0  0  0  0  0  0  0
  148.6266  141.9281  158.7911 H   0  0  0  0  0  0  0  0  0  0  0  0
  148.7478  138.7647  158.8486 H   0  0  0  0  0  0  0  0  0  0  0  0
  147.9448  133.9041  160.6135 H   0  0  0  0  0  0  0  0  0  0  0  0
  147.4912  133.8631  158.8933 H   0  0  0  0  0  0  0  0  0  0  0  0
  146.3464  134.4941  160.0997 H   0  0  0  0  0  0  0  0  0  0  0  0
  143.8489  134.7181  156.6829 H   0  0  0  0  0  0  0  0  0  0  0  0
  142.8459  135.3826  155.4115 H   0  0  0  0  0  0  0  0  0  0  0  0
  144.4358  139.4556  154.4633 H   0  0  0  0  0  0  0  0  0  0  0  0
  149.8881  138.7848  156.7614 H   0  0  0  0  0  0  0  0  0  0  0  0
  146.8829  139.4625  153.4934 H   0  0  0  0  0  0  0  0  0  0  0  0
  147.9463  138.1727  152.9132 H   0  0  0  0  0  0  0  0  0  0  0  0
  148.1821  139.8347  152.3518 H   0  0  0  0  0  0  0  0  0  0  0  0
  149.4046  141.4601  156.0935 H   0  0  0  0  0  0  0  0  0  0  0  0
  152.3982  141.0745  159.4673 H   0  0  0  0  0  0  0  0  0  0  0  0
  152.4006  142.8234  159.7288 H   0  0  0  0  0  0  0  0  0  0  0  0
  153.1763  142.1448  158.2904 H   0  0  0  0  0  0  0  0  0  0  0  0
  1  2  1  0  0  0  0
  1 33  1  0  0  0  0
  1 34  1  0  0  0  0
  1 35  1  0  0  0  0
  2  3  2  0  0  0  0
  2  4  1  0  0  0  0
  4  5  1  0  0  0  0
  5  6  1  0  0  0  0
  5 36  1  0  0  0  0
  5 37  1  0  0  0  0
  6 28  1  0  0  0  0
  6  7  1  0  0  0  0
  6 38  1  0  0  0  0
  7  8  1  0  0  0  0
  8  9  1  0  0  0  0
  8 23  1  0  0  0  0
  8 39  1  0  0  0  0
  9 22  1  0  0  0  0
  9 10  1  0  0  0  0
 10 11  1  0  0  0  0
 10 15  2  0  0  0  0
 11 12  1  0  0  0  0
 11 13  2  0  0  0  0
 11 14  2  0  0  0  0
 12 40  1  0  0  0  0
 12 41  1  0  0  0  0
 12 42  1  0  0  0  0
 15 16  1  0  0  0  0
 16 22  2  0  0  0  0
 16 17  1  0  0  0  0
 17 18  1  0  0  0  0
 17 19  2  0  0  0  0
 18 43  1  0  0  0  0
 18 44  1  0  0  0  0
 19 20  1  0  0  0  0
 20 21  2  0  0  0  0
 20 45  1  0  0  0  0
 21 22  1  0  0  0  0
 23 24  1  0  0  0  0
 23 28  1  0  0  0  0
 23 46  1  0  0  0  0
 24 25  1  0  0  0  0
 25 26  1  0  0  0  0
 25 27  2  0  0  0  0
 26 47  1  0  0  0  0
 26 48  1  0  0  0  0
 26 49  1  0  0  0  0
 28 29  1  0  0  0  0
 28 50  1  0  0  0  0
 29 30  1  0  0  0  0
 30 31  1  0  0  0  0
 30 32  2  0  0  0  0
 31 51  1  0  0  0  0
 31 52  1  0  0  0  0
 31 53  1  0  0  0  0
M  END
> <s_m_source_file>
AV-unprocessed.smi

> <i_m_source_file_index>
103

> <i_lp_mmshare_version>
43012

> <i_f3d_flags>
0

> <s_epik_input>
W0NIM11DKD1PKU9bQ0gyXVtDQEBIXTFPW0NASF0oW0NAQEhdKE9DKD1PKVtDSDNdKVtDQEhdMU9DKD1PKVtDSDNdKW4oYyhuMilTKD1PKSg9TylbQ0gzXSljKGMyMyluW2NIXW5jM1tOSDJd

> <s_epik_cmdline>
J2VwaWtfcHl0aG9uJywgJy1waCcsICc3LjAnLCAnLXRuJywgJzgnLCAnLW1hJywgJzIwMCcsICctbWV0YWxfYmluZGluZycsICctaW1hZScsICc8aW5maWxlLm1hZT4nLCAnLW9tYWUnLCAnPG91dGZpbGUubWFlPic=

> <r_lp_tautomer_probability>
1

> <r_epik_Ionization_Penalty>
1.51338e-05

> <r_epik_Ionization_Penalty_Charging>
0

> <r_epik_Ionization_Penalty_Neutral>
1.51338e-05

> <r_epik_State_Penalty>
-0

> <r_epik_Charging_Adjusted_Penalty>
0

> <i_epik_Tot_Q>
0

> <i_epik_Tot_abs_Q>
0

> <r_epik_Metal_State_Penalty>
-0

> <b_epik_Metal_Only>
0

> <s_epik_Chemistry_Notes>
This compound has an ester and may undergo hydrolysis at high or low pH. This compound contains an acetal/aminal-like group ( X-CH(R)-Y where X, Y are N, S, or O) that may be acid/base labile, releasing an aldehyde.

> <s_lp_Force_Field>
OPLS_2005

> <r_lp_Energy>
13.7998

> <b_lp_Chiralities_Consistent>
1

> <s_lp_Variant>
AV-unprocessed.smi:103-10

> <Gold.Version>
5.8.1

> <Gold.Id.Protein>
6NUR|6NUR_protein|mol2

> <Gold.PLP.Fitness>
38.3864

> <Gold.PLP.PLP>
-21.5910

> <Gold.PLP.part.hbond>
-6.7596

> <Gold.PLP.part.metal>
0.0000

> <Gold.PLP.part.buried>
-1.1861

> <Gold.PLP.part.nonpolar>
-15.7822

> <Gold.PLP.part.repulsive>
1.0879

> <Gold.PLP.ligand.clash>
0.0000

> <Gold.PLP.ligand.torsion>
1.8433

> <Gold.PLP.Chemscore.Hbond>
5.0048

> <Gold.PLP.Chemscore.CHOScore>
1.0000

> <Gold.PLP.Chemscore.Metal>
0.0000

> <Gold.Chemscore.Hbonds>
donor molecule, donor type, donor heavy atom, donor atom, acceptor molecule, acceptor atom, score
      P1  H  6896  6909       L1    13  1.00
      P1  H  6931  6943       L1    14  0.78
      P1  H  6933  6944       L1     3  0.11
      P1  H  6934  6946       L1     3  1.00
      P1  H  6934  6947       L1    14  0.50
      P1  H  7989  7998       L1    27  0.99
      L1  C    20    45       P1 10175  1.00

> <Gold.PLP.Chemscore.Internal.Correction>
2.4674

> <Gold.Rescore>
     Score         DG    S(hbond)    S(metal)    S(lipo)     H(rot)  DE(clash)    DE(int)     intcor
      3.70     -15.37       5.08        0.00      32.44       4.25       1.98       9.70       ----

> <Gold.Chemscore.Fitness>
3.6953

> <Gold.Chemscore.DG>
-15.3733

> <Gold.Chemscore.ZeroCoef>
-5.4800

> <Gold.Chemscore.Hbond>
5.0799

> <Gold.Chemscore.Metal>
0.0000

> <Gold.Chemscore.Lipo>
32.4356

> <Gold.Chemscore.Internal_Hbond>
0.0000

> <Gold.Chemscore.DEClash>
1.9756

> <Gold.Chemscore.DEInternal>
9.7023

> <Gold.Chemscore.Rot>
4.2456

> <Gold.Chemscore.Internal.Correction>
   9.000000E+99

> <Gold.Chemscore.Hbonds>
donor molecule, donor type, donor heavy atom, donor atom, acceptor molecule, acceptor atom, score
      P1  H  6896  6909       L1    13  0.99
      P1  H  6931  6943       L1    14  0.72
      P1  H  6933  6944       L1     3  0.12
      P1  H  6934  6946       L1     3  0.80
      P1  H  6934  6947       L1    14  0.47
      P1  H  7989  7998       L1    27  0.89

> <Gold.Chemscore.Hbond.Weighted>
-16.9670

> <Gold.Chemscore.Metal.Weighted>
-0.0000

> <Gold.Chemscore.Lipo.Weighted>
-3.7950

> <Gold.Chemscore.Internal_Hbond.Weighted>
0.0000

> <Gold.Chemscore.DEClash.Weighted>
1.9756

> <Gold.Chemscore.DEInternal.Weighted>
9.7023

> <Gold.Chemscore.Rot.Weighted>
10.8687

> <Gold.Chemscore.Internal.Correction.Weighted>
   9.000000E+99

> <Gold.Protein.RotatedTorsions>
[ 6907 6896 6895 6894 ] final   53.18 input  -60.11 | X-H torsion
[ 7974 7965 7964 7962 ] final  -47.70 input  175.53 | X-H torsion
[ 8008 7997 7996 7995 ] final   20.12 input   59.86 | X-H torsion
[ 10167 10162 10161 10158 ] final -111.41 input  -65.29 | X-H torsion
[ 10718 10713 10712 10709 ] final  169.44 input   66.30 | X-H torsion
[ 10763 10752 10751 10750 ] final -111.01 input  -60.55 | X-H torsion
[ 11005 11000 10999 10996 ] final  -93.19 input  -57.11 | X-H torsion

> <Gold.Protein.ActiveResidues>
 VAL166  LYS551  ARG553  GLY616  TRP617  ASP618  TYR619  PRO620  LYS621  CYS622 
 ASP623  PHE694  ASN695  SER759  ASP760  ASP761  ALA762  ILE779  LEU786  VAL792 
 PHE793  MET794  SER795  GLU796  ALA797  LYS798  CYS799  TRP800  GLU811  SER814 

> <Gold.Protein.RotatedAtoms>
  152.3310  134.7259  160.0289 H   0  0  0  0  0  0  0  0  0  0  0  0  # atno 6907 bound_to 6896
  151.7676  133.3333  159.3443 H   0  0  0  0  0  0  0  0  0  0  0  0  # atno 6908 bound_to 6896
  150.7423  134.5980  159.6066 H   0  0  0  0  0  0  0  0  0  0  0  0  # atno 6909 bound_to 6896
  145.9589  140.7499  142.9467 H   0  0  0  0  0  0  0  0  0  0  0  0  # atno 7974 bound_to 7965
  154.9309  140.3040  155.5168 H   0  0  0  0  0  0  0  0  0  0  0  0  # atno 8008 bound_to 7997
  156.3003  140.2354  156.4306 H   0  0  0  0  0  0  0  0  0  0  0  0  # atno 8009 bound_to 7997
  154.8238  140.0422  157.1418 H   0  0  0  0  0  0  0  0  0  0  0  0  # atno 8010 bound_to 7997
  140.1339  143.4337  152.1609 H   0  0  0  0  0  0  0  0  0  0  0  0  # atno 10167 bound_to 10162
  157.0225  131.0236  151.2770 H   0  0  0  0  0  0  0  0  0  0  0  0  # atno 10718 bound_to 10713
  154.8278  135.4543  154.0973 H   0  0  0  0  0  0  0  0  0  0  0  0  # atno 10763 bound_to 10752
  153.2272  135.6901  153.7938 H   0  0  0  0  0  0  0  0  0  0  0  0  # atno 10764 bound_to 10752
  153.7333  135.3323  155.3266 H   0  0  0  0  0  0  0  0  0  0  0  0  # atno 10765 bound_to 10752
  141.1503  133.7871  157.0125 H   0  0  0  0  0  0  0  0  0  0  0  0  # atno 11005 bound_to 11000
  144.6811  140.2558  143.7325 LP  0  0  0  0  0  0  0  0  0  0  0  0  # atno 17320 bound_to 7965
  145.8067  139.1986  143.2016 LP  0  0  0  0  0  0  0  0  0  0  0  0  # atno 17321 bound_to 7965
  139.5506  144.7334  151.4448 LP  0  0  0  0  0  0  0  0  0  0  0  0  # atno 17342 bound_to 10162
  140.6801  143.8102  150.7110 LP  0  0  0  0  0  0  0  0  0  0  0  0  # atno 17343 bound_to 10162
  157.5238  130.8015  149.7839 LP  0  0  0  0  0  0  0  0  0  0  0  0  # atno 17370 bound_to 10713
  156.0097  130.3839  150.2307 LP  0  0  0  0  0  0  0  0  0  0  0  0  # atno 17371 bound_to 10713
  140.0868  134.9616  157.1713 LP  0  0  0  0  0  0  0  0  0  0  0  0  # atno 17394 bound_to 11000
  140.3500  134.2609  155.7200 LP  0  0  0  0  0  0  0  0  0  0  0  0  # atno 17395 bound_to 11000

$$$$
