#       Name:                AV-unprocessed.smi:252
#       Creating user name   scv26
#       Creation time:       Thu Mar 26 21:07:04 2020


#       File generated by GOLD software.
#

@<TRIPOS>MOLECULE
AV-unprocessed.smi:252
    66    69     1
SMALL
NO_CHARGES


@<TRIPOS>ATOM
      1 ****        -6.5953   3.9541  -0.1605 C.3            1 S1                 0.0000
      2 ****        -5.2486   3.4788   0.4067 C.3            1 S1                 0.0000
      3 ****        -5.0472   1.9619   0.3275 C.2            1 S1                 0.0000
      4 ****        -5.8229   1.2507  -0.3119 O.2            1 S1                 0.0000
      5 ****        -3.9849   1.4803   0.9900 N.am           1 S1                 0.0000
      6 ****        -3.5866   0.0778   1.0457 C.3            1 S1                 0.0000
      7 ****        -4.3810  -0.6728   2.1330 C.3            1 S1                 0.0000
      8 ****        -3.8747  -2.1166   2.2675 C.3            1 S1                 0.0000
      9 ****        -2.3594  -2.1474   2.5219 C.3            1 S1                 0.0000
     10 ****        -1.6454  -1.3969   1.4881 N.3            1 S1                 0.0000
     11 ****        -0.3053  -1.5829   1.3865 C.ar           1 S1                 0.0000
     12 ****         0.4047  -2.0182   2.4619 N.ar           1 S1                 0.0000
     13 ****         1.7265  -2.1916   2.3716 C.ar           1 S1                 0.0000
     14 ****         2.5243  -1.9943   1.3206 N.ar           1 S1                 0.0000
     15 ****         1.8182  -1.5609   0.2375 C.ar           1 S1                 0.0000
     16 ****         0.4137  -1.3348   0.1835 C.ar           1 S1                 0.0000
     17 ****         0.0504  -0.9183  -1.0919 N.2            1 S1                 0.0000
     18 ****         1.1758  -0.8950  -1.7520 C.2            1 S1                 0.0000
     19 ****         2.2901  -1.2530  -1.0268 N.pl3          1 S1                 0.0000
     20 ****         3.6606  -1.3159  -1.5103 C.3            1 S1                 0.0000
     21 ****         4.4822  -0.0203  -1.2632 C.3            1 S1                 0.0000
     22 ****         4.6111   0.2037   0.1280 O.3            1 S1                 0.0000
     23 ****         3.8872   1.2241  -1.9113 C.3            1 S1                 0.0000
     24 ****         4.4012   1.1305  -3.3450 C.3            1 S1                 0.0000
     25 ****         5.6505   0.4504  -3.2628 O.3            1 S1                 0.0000
     26 ****         5.8687  -0.0206  -1.9353 C.3            1 S1                 0.0000
     27 ****         6.6311  -1.3537  -1.9492 C.3            1 S1                 0.0000
     28 ****        -2.0745  -0.0090   1.3214 C.3            1 S1                 0.0000
     29 ****        -6.6984   5.0339  -0.0518 H              1 S1                 0.0000
     30 ****        -7.4333   3.4891   0.3601 H              1 S1                 0.0000
     31 ****        -6.6846   3.7210  -1.2222 H              1 S1                 0.0000
     32 ****        -4.4335   3.9654  -0.1298 H              1 S1                 0.0000
     33 ****        -5.1672   3.7884   1.4494 H              1 S1                 0.0000
     34 ****        -3.4025   2.1372   1.4887 H              1 S1                 0.0000
     35 ****        -3.7804  -0.3898   0.0780 H              1 S1                 0.0000
     36 ****        -4.2752  -0.1612   3.0906 H              1 S1                 0.0000
     37 ****        -5.4453  -0.6747   1.8956 H              1 S1                 0.0000
     38 ****        -4.3995  -2.6243   3.0769 H              1 S1                 0.0000
     39 ****        -4.1025  -2.6688   1.3548 H              1 S1                 0.0000
     40 ****        -2.1373  -1.7164   3.4993 H              1 S1                 0.0000
     41 ****        -2.0157  -3.1826   2.5386 H              1 S1                 0.0000
     42 ****         2.2157  -2.5357   3.2710 H              1 S1                 0.0000
     43 ****         1.2256  -0.6077  -2.7923 H              1 S1                 0.0000
     44 ****         4.1435  -2.1672  -1.0293 H              1 S1                 0.0000
     45 ****         3.6296  -1.5482  -2.5753 H              1 S1                 0.0000
     46 ****         5.1280   0.9836   0.2605 H              1 S1                 0.0000
     47 ****         2.8028   1.3018  -1.8471 H              1 S1                 0.0000
     48 ****         4.2997   2.1234  -1.4501 H              1 S1                 0.0000
     49 ****         3.7209   0.5401  -3.9597 H              1 S1                 0.0000
     50 ****         4.5119   2.1103  -3.8099 H              1 S1                 0.0000
     51 ****         6.4946   0.7301  -1.4486 H              1 S1                 0.0000
     52 ****         6.7699  -1.7356  -0.9375 H              1 S1                 0.0000
     53 ****         7.6182  -1.2272  -2.3942 H              1 S1                 0.0000
     54 ****         6.1078  -2.1135  -2.5297 H              1 S1                 0.0000
     55 ****        -1.5321   0.4778   0.5111 H              1 S1                 0.0000
     56 ****        -1.8289   0.5386   2.2327 H              1 S1                 0.0000
     57 ****        -6.5992   1.6616  -0.7900 LP             1 S1                 0.0000
     58 ****        -5.6766   0.2624  -0.3530 LP             1 S1                 0.0000
     59 ****        -1.9718  -1.8700   0.6698 LP             1 S1                 0.0000
     60 ****        -0.0647  -2.2093   3.3240 LP             1 S1                 0.0000
     61 ****         3.5128  -2.1448   1.3264 LP             1 S1                 0.0000
     62 ****        -0.8636  -0.6891  -1.4267 LP             1 S1                 0.0000
     63 ****         5.0654  -0.5783   0.5546 LP             1 S1                 0.0000
     64 ****         3.7059   0.3261   0.5350 LP             1 S1                 0.0000
     65 ****         6.3860   1.0792  -3.5152 LP             1 S1                 0.0000
     66 ****         5.6455  -0.3266  -3.8923 LP             1 S1                 0.0000
@<TRIPOS>BOND
    1    1    2 1     
    2    1   29 1     
    3    1   30 1     
    4    1   31 1     
    5    2    3 1     
    6    2   32 1     
    7    2   33 1     
    8    3    4 2     
    9    3    5 am    
   10    5    6 1     
   11    5   34 1     
   12    6   28 1     
   13    6    7 1     
   14    6   35 1     
   15    7    8 1     
   16    7   36 1     
   17    7   37 1     
   18    8    9 1     
   19    8   38 1     
   20    8   39 1     
   21    9   10 1     
   22    9   40 1     
   23    9   41 1     
   24   10   11 1     
   25   10   28 1     
   26   11   16 ar    
   27   11   12 ar    
   28   12   13 ar    
   29   13   14 ar    
   30   13   42 1     
   31   14   15 ar    
   32   15   19 1     
   33   15   16 ar    
   34   16   17 1     
   35   17   18 2     
   36   18   19 1     
   37   18   43 1     
   38   19   20 1     
   39   20   21 1     
   40   20   44 1     
   41   20   45 1     
   42   21   26 1     
   43   21   22 1     
   44   21   23 1     
   45   22   46 1     
   46   23   24 1     
   47   23   47 1     
   48   23   48 1     
   49   24   25 1     
   50   24   49 1     
   51   24   50 1     
   52   25   26 1     
   53   26   27 1     
   54   26   51 1     
   55   27   52 1     
   56   27   53 1     
   57   27   54 1     
   58   28   55 1     
   59   28   56 1     
   60    4   57 1     
   61    4   58 1     
   62   10   59 1     
   63   12   60 1     
   64   14   61 1     
   65   17   62 1     
   66   22   63 1     
   67   22   64 1     
   68   25   65 1     
   69   25   66 1     
@<TRIPOS>SUBSTRUCTURE
      1 S1             1
@<TRIPOS>SET
LONE_PAIRS      STATIC     ATOMS    <user>   **** ""
10 57 58 59 60 61 62 63 64 65 66
DONOR_HYDROGENS      STATIC     ATOMS    <user>   **** ""
2 34 46
ATOM$BLUE        STATIC     ATOMS    COLORGROUP SYSTEM
10 57 58 59 60 61 62 63 64 65 66
ATOM$RED        STATIC     ATOMS    COLORGROUP SYSTEM
2 34 46
