AV-unprocessed.smi:5|AV-procd|sdf|37|dock2
  -GOLD-   2262015153D 1   1.00000     0.00000
 Structure written by MMmdl.
 44 45  0  0  0  0  0  0  0  0  1 V2000
  153.2721  142.9728  161.0735 C   0  0  0  0  0  0  0  0  0  0  0  0
  152.5584  142.9612  159.7370 C   0  0  0  0  0  0  0  0  0  0  0  0
  152.3995  144.0727  158.9949 C   0  0  0  0  0  0  0  0  0  0  0  0
  151.6680  144.0759  157.6670 C   0  0  0  0  0  0  0  0  0  0  0  0
  150.8572  142.7830  157.4718 C   0  0  0  0  0  0  0  0  0  0  0  0
  151.6663  141.6071  157.8435 N   0  0  0  0  0  0  0  0  0  0  0  0
  151.9622  140.5626  157.0292 C   0  0  0  0  0  0  0  0  0  0  0  0
  152.9047  139.7957  157.2307 O   0  0  0  0  0  0  0  0  0  0  0  0
  151.1775  140.4565  155.9431 N   0  0  0  0  0  0  0  0  0  0  0  0
  151.2908  139.4279  154.9144 C   0  0  0  0  0  0  0  0  0  0  0  0
  150.1353  138.4361  154.9774 C   0  0  0  0  0  0  0  0  0  0  0  0
  148.8539  138.8274  154.7637 C   0  0  0  0  0  0  0  0  0  0  0  0
  147.7594  137.9750  154.8092 N   0  0  0  0  0  0  0  0  0  0  0  0
  146.4091  138.4583  154.5723 C   0  0  0  0  0  0  0  0  0  0  0  0
  146.2017  138.8032  153.0881 C   0  0  0  0  0  0  0  0  0  0  0  0
  146.0520  139.6318  155.5032 C   0  0  0  0  0  0  0  0  0  0  0  0
  147.9727  136.5977  155.0704 C   0  0  0  0  0  0  0  0  0  0  0  0
  147.0763  135.7553  155.1133 O   0  0  0  0  0  0  0  0  0  0  0  0
  149.2904  136.1957  155.2844 N   0  0  0  0  0  0  0  0  0  0  0  0
  150.4141  137.0243  155.2592 C   0  0  0  0  0  0  0  0  0  0  0  0
  151.5255  136.5397  155.4647 O   0  0  0  0  0  0  0  0  0  0  0  0
  152.0525  141.6006  159.2663 C   0  0  0  0  0  0  0  0  0  0  0  0
  149.4467  135.2162  155.4734 H   0  0  0  0  0  0  0  0  0  0  0  0
  152.6137  142.5949  161.8558 H   0  0  0  0  0  0  0  0  0  0  0  0
  153.5853  143.9801  161.3498 H   0  0  0  0  0  0  0  0  0  0  0  0
  154.1588  142.3394  161.0347 H   0  0  0  0  0  0  0  0  0  0  0  0
  152.7955  145.0188  159.3340 H   0  0  0  0  0  0  0  0  0  0  0  0
  151.0062  144.9412  157.6225 H   0  0  0  0  0  0  0  0  0  0  0  0
  152.4023  144.1905  156.8690 H   0  0  0  0  0  0  0  0  0  0  0  0
  149.9866  142.8039  158.1292 H   0  0  0  0  0  0  0  0  0  0  0  0
  150.4486  142.7531  156.4618 H   0  0  0  0  0  0  0  0  0  0  0  0
  150.4409  141.1373  155.8274 H   0  0  0  0  0  0  0  0  0  0  0  0
  151.2718  139.9198  153.9417 H   0  0  0  0  0  0  0  0  0  0  0  0
  152.2605  138.9321  154.9825 H   0  0  0  0  0  0  0  0  0  0  0  0
  148.6814  139.8716  154.5472 H   0  0  0  0  0  0  0  0  0  0  0  0
  145.7030  137.6654  154.8174 H   0  0  0  0  0  0  0  0  0  0  0  0
  145.1692  139.0963  152.8971 H   0  0  0  0  0  0  0  0  0  0  0  0
  146.4227  137.9457  152.4516 H   0  0  0  0  0  0  0  0  0  0  0  0
  146.8414  139.6274  152.7714 H   0  0  0  0  0  0  0  0  0  0  0  0
  144.9993  139.8976  155.4037 H   0  0  0  0  0  0  0  0  0  0  0  0
  146.6324  140.5270  155.2805 H   0  0  0  0  0  0  0  0  0  0  0  0
  146.2254  139.3716  156.5479 H   0  0  0  0  0  0  0  0  0  0  0  0
  152.8457  140.8769  159.4610 H   0  0  0  0  0  0  0  0  0  0  0  0
  151.1979  141.3035  159.8754 H   0  0  0  0  0  0  0  0  0  0  0  0
  1  2  1  0  0  0  0
  1 24  1  0  0  0  0
  1 25  1  0  0  0  0
  1 26  1  0  0  0  0
  2 22  1  0  0  0  0
  2  3  2  0  0  0  0
  3  4  1  0  0  0  0
  3 27  1  0  0  0  0
  4  5  1  0  0  0  0
  4 28  1  0  0  0  0
  4 29  1  0  0  0  0
  5  6  1  0  0  0  0
  5 30  1  0  0  0  0
  5 31  1  0  0  0  0
  6  7  1  0  0  0  0
  6 22  1  0  0  0  0
  7  8  2  0  0  0  0
  7  9  1  0  0  0  0
  9 10  1  0  0  0  0
  9 32  1  0  0  0  0
 10 11  1  0  0  0  0
 10 33  1  0  0  0  0
 10 34  1  0  0  0  0
 11 20  1  0  0  0  0
 11 12  2  0  0  0  0
 12 13  1  0  0  0  0
 12 35  1  0  0  0  0
 13 14  1  0  0  0  0
 13 17  1  0  0  0  0
 14 15  1  0  0  0  0
 14 16  1  0  0  0  0
 14 36  1  0  0  0  0
 15 37  1  0  0  0  0
 15 38  1  0  0  0  0
 15 39  1  0  0  0  0
 16 40  1  0  0  0  0
 16 41  1  0  0  0  0
 16 42  1  0  0  0  0
 17 18  2  0  0  0  0
 17 19  1  0  0  0  0
 19 23  1  0  0  0  0
 19 20  1  0  0  0  0
 20 21  2  0  0  0  0
 22 43  1  0  0  0  0
 22 44  1  0  0  0  0
M  END
> <s_m_source_file>
AV-unprocessed.smi

> <i_m_source_file_index>
5

> <i_lp_mmshare_version>
43012

> <i_f3d_flags>
0

> <s_epik_input>
W0NIM11DMT1bQ0hdW0NIMl1bQ0gyXU4oW0NIMl0xKUMoPU8pW05IXVtDSDJdYzJbY0hdbihbQ0hdKFtDSDNdKVtDSDNdKWMoPU8pW25IXWMyPU8=

> <s_epik_cmdline>
J2VwaWtfcHl0aG9uJywgJy1waCcsICc3LjAnLCAnLXRuJywgJzgnLCAnLW1hJywgJzIwMCcsICctbWV0YWxfYmluZGluZycsICctaW1hZScsICc8aW5maWxlLm1hZT4nLCAnLW9tYWUnLCAnPG91dGZpbGUubWFlPic=

> <r_lp_tautomer_probability>
0.999537

> <r_epik_Ionization_Penalty>
0.000965624

> <r_epik_Ionization_Penalty_Charging>
0.000915459

> <r_epik_Ionization_Penalty_Neutral>
5.01649e-05

> <r_epik_State_Penalty>
0.000593189

> <r_epik_Charging_Adjusted_Penalty>
0.00150865

> <i_epik_Tot_Q>
0

> <i_epik_Tot_abs_Q>
0

> <r_epik_Metal_State_Penalty>
0.281504

> <b_epik_Metal_Only>
0

> <s_lp_Force_Field>
OPLS_2005

> <r_lp_Energy>
30.7874

> <b_lp_Chiralities_Consistent>
1

> <s_lp_Variant>
AV-unprocessed.smi:5-1

> <Gold.Version>
5.8.1

> <Gold.Id.Protein>
6NUR|6NUR_protein|mol2

> <Gold.PLP.Fitness>
45.4773

> <Gold.PLP.PLP>
-40.2855

> <Gold.PLP.part.hbond>
-2.3192

> <Gold.PLP.part.metal>
0.0000

> <Gold.PLP.part.buried>
-2.2676

> <Gold.PLP.part.nonpolar>
-36.4165

> <Gold.PLP.part.repulsive>
0.3154

> <Gold.PLP.ligand.clash>
0.0000

> <Gold.PLP.ligand.torsion>
0.4364

> <Gold.PLP.Chemscore.Hbond>
2.0000

> <Gold.PLP.Chemscore.CHOScore>
0.0000

> <Gold.PLP.Chemscore.Metal>
0.0000

> <Gold.Chemscore.Hbonds>
donor molecule, donor type, donor heavy atom, donor atom, acceptor molecule, acceptor atom, score
      P1  H  7997  8008       L1     8  0.96
      P1  H 10752 10764       L1    21  1.00

> <Gold.PLP.Chemscore.Internal.Correction>
0.0646

> <Gold.Rescore>
     Score         DG    S(hbond)    S(metal)    S(lipo)     H(rot)  DE(clash)    DE(int)     intcor
     19.36     -19.79       1.95        0.00      99.20       1.48       0.24       0.19       ----

> <Gold.Chemscore.Fitness>
19.3610

> <Gold.Chemscore.DG>
-19.7921

> <Gold.Chemscore.ZeroCoef>
-5.4800

> <Gold.Chemscore.Hbond>
1.9481

> <Gold.Chemscore.Metal>
0.0000

> <Gold.Chemscore.Lipo>
99.1959

> <Gold.Chemscore.Internal_Hbond>
0.0000

> <Gold.Chemscore.DEClash>
0.2405

> <Gold.Chemscore.DEInternal>
0.1906

> <Gold.Chemscore.Rot>
1.4846

> <Gold.Chemscore.Internal.Correction>
   9.000000E+99

> <Gold.Chemscore.Hbonds>
donor molecule, donor type, donor heavy atom, donor atom, acceptor molecule, acceptor atom, score
      P1  H  7997  8008       L1     8  0.92
      P1  H 10752 10764       L1    21  1.00

> <Gold.Chemscore.Hbond.Weighted>
-6.5067

> <Gold.Chemscore.Metal.Weighted>
-0.0000

> <Gold.Chemscore.Lipo.Weighted>
-11.6059

> <Gold.Chemscore.Internal_Hbond.Weighted>
0.0000

> <Gold.Chemscore.DEClash.Weighted>
0.2405

> <Gold.Chemscore.DEInternal.Weighted>
0.1906

> <Gold.Chemscore.Rot.Weighted>
3.8005

> <Gold.Chemscore.Internal.Correction.Weighted>
   9.000000E+99

> <Gold.Protein.RotatedTorsions>
[ 6907 6896 6895 6894 ] final  138.47 input  -60.11 | X-H torsion
[ 7974 7965 7964 7962 ] final  -45.43 input  175.53 | X-H torsion
[ 8008 7997 7996 7995 ] final  -83.08 input   59.86 | X-H torsion
[ 10167 10162 10161 10158 ] final   48.34 input  -65.29 | X-H torsion
[ 10718 10713 10712 10709 ] final  -35.45 input   66.30 | X-H torsion
[ 10763 10752 10751 10750 ] final  -54.80 input  -60.55 | X-H torsion
[ 11005 11000 10999 10996 ] final -120.27 input  -57.11 | X-H torsion

> <Gold.Protein.ActiveResidues>
 VAL166  LYS551  ARG553  GLY616  TRP617  ASP618  TYR619  PRO620  LYS621  CYS622 
 ASP623  PHE694  ASN695  SER759  ASP760  ASP761  ALA762  ILE779  LEU786  VAL792 
 PHE793  MET794  SER795  GLU796  ALA797  LYS798  CYS799  TRP800  GLU811  SER814 

> <Gold.Protein.RotatedAtoms>
  152.2662  133.5341  159.5411 H   0  0  0  0  0  0  0  0  0  0  0  0  # atno 6907 bound_to 6896
  150.7142  134.0761  159.3890 H   0  0  0  0  0  0  0  0  0  0  0  0  # atno 6908 bound_to 6896
  151.8677  135.0501  160.0527 H   0  0  0  0  0  0  0  0  0  0  0  0  # atno 6909 bound_to 6896
  145.9821  140.7272  142.9358 H   0  0  0  0  0  0  0  0  0  0  0  0  # atno 7974 bound_to 7965
  154.6153  140.0624  156.9546 H   0  0  0  0  0  0  0  0  0  0  0  0  # atno 8008 bound_to 7997
  155.1905  140.3307  155.4341 H   0  0  0  0  0  0  0  0  0  0  0  0  # atno 8009 bound_to 7997
  156.2401  140.1882  156.6996 H   0  0  0  0  0  0  0  0  0  0  0  0  # atno 8010 bound_to 7997
  140.2943  144.3009  150.6233 H   0  0  0  0  0  0  0  0  0  0  0  0  # atno 10167 bound_to 10162
  156.3385  130.4290  149.7808 H   0  0  0  0  0  0  0  0  0  0  0  0  # atno 10718 bound_to 10713
  154.1806  135.6444  153.5033 H   0  0  0  0  0  0  0  0  0  0  0  0  # atno 10763 bound_to 10752
  153.0060  135.5405  154.6518 H   0  0  0  0  0  0  0  0  0  0  0  0  # atno 10764 bound_to 10752
  154.5881  135.2931  155.0636 H   0  0  0  0  0  0  0  0  0  0  0  0  # atno 10765 bound_to 10752
  141.0155  134.0201  157.3355 H   0  0  0  0  0  0  0  0  0  0  0  0  # atno 11005 bound_to 11000
  144.6864  140.2926  143.7275 LP  0  0  0  0  0  0  0  0  0  0  0  0  # atno 17320 bound_to 7965
  145.7754  139.1872  143.2188 LP  0  0  0  0  0  0  0  0  0  0  0  0  # atno 17321 bound_to 7965
  140.5706  143.2181  151.7606 LP  0  0  0  0  0  0  0  0  0  0  0  0  # atno 17342 bound_to 10162
  139.4930  144.4222  151.9965 LP  0  0  0  0  0  0  0  0  0  0  0  0  # atno 17343 bound_to 10162
  156.5054  130.8147  151.3148 LP  0  0  0  0  0  0  0  0  0  0  0  0  # atno 17370 bound_to 10713
  157.7443  130.9931  150.2660 LP  0  0  0  0  0  0  0  0  0  0  0  0  # atno 17371 bound_to 10713
  139.9115  135.0190  156.7709 LP  0  0  0  0  0  0  0  0  0  0  0  0  # atno 17394 bound_to 11000
  140.6661  133.9601  155.7831 LP  0  0  0  0  0  0  0  0  0  0  0  0  # atno 17395 bound_to 11000

$$$$
