AV-unprocessed.smi:1626|AV-procd|sdf|6509|dock6
  -GOLD-   22720 7173D 1   1.00000     0.00000
 Structure written by MMmdl.
 48 50  0  0  0  0  0  0  0  0  2 V2000
  153.2158  142.6778  160.2941 C   0  0  0  0  0  0  0  0  0  0  0  0
  152.3844  142.3796  159.0591 C   0  0  0  0  0  0  0  0  0  0  0  0
  152.5236  141.1250  158.4237 C   0  0  0  0  0  0  0  0  0  0  0  0
  151.7670  140.8074  157.2748 C   0  0  0  0  0  0  0  0  0  0  0  0
  151.7416  139.6577  156.5042 N   0  0  0  0  0  0  0  0  0  0  0  0
  150.8365  139.9721  155.5823 C   0  0  0  0  0  0  0  0  0  0  0  0
  150.2772  141.1953  155.6600 N   0  0  0  0  0  0  0  0  0  0  0  0
  149.2773  141.7616  154.7725 C   0  0  0  0  0  0  0  0  0  0  0  0
  147.8423  141.5622  155.2975 C   0  0  1  0  0  0  0  0  0  0  0  0
  147.5660  142.5377  156.2847 O   0  0  0  0  0  0  0  0  0  0  0  0
  146.8005  141.6943  154.1691 C   0  0  0  0  0  0  0  0  0  0  0  0
  146.3664  140.3774  153.6352 N   0  3  2  0  0  0  0  0  0  0  0  0
  146.0922  139.3721  154.6962 C   0  0  0  0  0  0  0  0  0  0  0  0
  145.5085  138.0772  154.1010 C   0  0  0  0  0  0  0  0  0  0  0  0
  146.4098  137.4917  153.0010 C   0  0  2  0  0  0  0  0  0  0  0  0
  147.5970  136.9736  153.5670 O   0  0  0  0  0  0  0  0  0  0  0  0
  146.7498  138.5690  151.9580 C   0  0  0  0  0  0  0  0  0  0  0  0
  147.3035  139.8477  152.6115 C   0  0  0  0  0  0  0  0  0  0  0  0
  150.8615  141.7880  156.7737 C   0  0  0  0  0  0  0  0  0  0  0  0
  150.7149  143.0403  157.3957 C   0  0  0  0  0  0  0  0  0  0  0  0
  151.4777  143.3406  158.5437 C   0  0  0  0  0  0  0  0  0  0  0  0
  151.3116  144.6948  159.2105 C   0  0  0  0  0  0  0  0  0  0  0  0
  153.8489  141.8315  160.5624 H   0  0  0  0  0  0  0  0  0  0  0  0
  152.5709  142.8954  161.1459 H   0  0  0  0  0  0  0  0  0  0  0  0
  153.8630  143.5377  160.1202 H   0  0  0  0  0  0  0  0  0  0  0  0
  153.2143  140.3929  158.8159 H   0  0  0  0  0  0  0  0  0  0  0  0
  150.5679  139.2749  154.8020 H   0  0  0  0  0  0  0  0  0  0  0  0
  149.4925  142.8226  154.6369 H   0  0  0  0  0  0  0  0  0  0  0  0
  149.3890  141.2937  153.7935 H   0  0  0  0  0  0  0  0  0  0  0  0
  147.7769  140.5794  155.7636 H   0  0  0  0  0  0  0  0  0  0  0  0
  148.1697  143.2570  156.1730 H   0  0  0  0  0  0  0  0  0  0  0  0
  145.9379  142.2351  154.5624 H   0  0  0  0  0  0  0  0  0  0  0  0
  147.1920  142.3033  153.3527 H   0  0  0  0  0  0  0  0  0  0  0  0
  147.0131  139.1553  155.2396 H   0  0  0  0  0  0  0  0  0  0  0  0
  145.3876  139.7710  155.4248 H   0  0  0  0  0  0  0  0  0  0  0  0
  145.3448  137.3408  154.8889 H   0  0  0  0  0  0  0  0  0  0  0  0
  144.5258  138.2932  153.6794 H   0  0  0  0  0  0  0  0  0  0  0  0
  145.8967  136.6630  152.5115 H   0  0  0  0  0  0  0  0  0  0  0  0
  148.0816  136.5218  152.8925 H   0  0  0  0  0  0  0  0  0  0  0  0
  147.4619  138.1798  151.2292 H   0  0  0  0  0  0  0  0  0  0  0  0
  145.8486  138.8197  151.3967 H   0  0  0  0  0  0  0  0  0  0  0  0
  147.4660  140.5975  151.8363 H   0  0  0  0  0  0  0  0  0  0  0  0
  148.2742  139.6521  153.0700 H   0  0  0  0  0  0  0  0  0  0  0  0
  150.0204  143.7628  156.9936 H   0  0  0  0  0  0  0  0  0  0  0  0
  150.5837  145.3123  158.6835 H   0  0  0  0  0  0  0  0  0  0  0  0
  152.2595  145.2329  159.2236 H   0  0  0  0  0  0  0  0  0  0  0  0
  150.9667  144.5749  160.2379 H   0  0  0  0  0  0  0  0  0  0  0  0
  145.4946  140.5478  153.1538 H   0  0  0  0  0  0  0  0  0  0  0  0
  1  2  1  0  0  0  0
  1 23  1  0  0  0  0
  1 24  1  0  0  0  0
  1 25  1  0  0  0  0
  2 21  1  0  0  0  0
  2  3  2  0  0  0  0
  3  4  1  0  0  0  0
  3 26  1  0  0  0  0
  4 19  2  0  0  0  0
  4  5  1  0  0  0  0
  5  6  2  0  0  0  0
  6  7  1  0  0  0  0
  6 27  1  0  0  0  0
  7  8  1  0  0  0  0
  7 19  1  0  0  0  0
  8  9  1  0  0  0  0
  8 28  1  0  0  0  0
  8 29  1  0  0  0  0
  9 10  1  0  0  0  0
  9 11  1  0  0  0  0
  9 30  1  0  0  0  0
 10 31  1  0  0  0  0
 11 12  1  0  0  0  0
 11 32  1  0  0  0  0
 11 33  1  0  0  0  0
 12 18  1  0  0  0  0
 12 13  1  0  0  0  0
 12 48  1  0  0  0  0
 13 14  1  0  0  0  0
 13 34  1  0  0  0  0
 13 35  1  0  0  0  0
 14 15  1  0  0  0  0
 14 36  1  0  0  0  0
 14 37  1  0  0  0  0
 15 16  1  0  0  0  0
 15 17  1  0  0  0  0
 15 38  1  0  0  0  0
 16 39  1  0  0  0  0
 17 18  1  0  0  0  0
 17 40  1  0  0  0  0
 17 41  1  0  0  0  0
 18 42  1  0  0  0  0
 18 43  1  0  0  0  0
 19 20  1  0  0  0  0
 20 21  2  0  0  0  0
 20 44  1  0  0  0  0
 21 22  1  0  0  0  0
 22 45  1  0  0  0  0
 22 46  1  0  0  0  0
 22 47  1  0  0  0  0
M  CHG  1  12   1
M  END
> <s_m_source_file>
AV-unprocessed.smi

> <i_m_source_file_index>
1626

> <i_lp_mmshare_version>
43012

> <i_f3d_flags>
0

> <s_epik_input>
W0NIM11jKFtjSF0xKWMoW0NIM10pW2NIXWMoYzEyKW4oW2NIXW4yKVtDSDJdW0NASF0oW09IXSlbQ0gyXU4zW0NIMl1bQ0gyXVtDSF0oW09IXSlbQ0gyXVtDSDJdMw==

> <s_epik_cmdline>
J2VwaWtfcHl0aG9uJywgJy1waCcsICc3LjAnLCAnLXRuJywgJzgnLCAnLW1hJywgJzIwMCcsICctbWV0YWxfYmluZGluZycsICctaW1hZScsICc8aW5maWxlLm1hZT4nLCAnLW9tYWUnLCAnPG91dGZpbGUubWFlPic=

> <r_epik_Ionization_Penalty>
0.106584

> <r_epik_Ionization_Penalty_Charging>
0.0185694

> <r_epik_Ionization_Penalty_Neutral>
0.0880147

> <r_epik_State_Penalty>
0.0908428

> <r_epik_Charging_Adjusted_Penalty>
0.109412

> <i_epik_Tot_Q>
1

> <i_epik_Tot_abs_Q>
1

> <r_epik_Metal_State_Penalty>
0.0153739

> <b_epik_Metal_Only>
0

> <s_lp_Force_Field>
OPLS_2005

> <r_lp_Energy>
22.63

> <b_lp_Chiralities_Consistent>
1

> <s_lp_Variant>
AV-unprocessed.smi:1626-4

> <Gold.Version>
5.8.1

> <Gold.Id.Protein>
6NUR|6NUR_protein|mol2

> <Gold.PLP.Fitness>
53.0986

> <Gold.PLP.PLP>
-43.5746

> <Gold.PLP.part.hbond>
-2.9253

> <Gold.PLP.part.metal>
0.0000

> <Gold.PLP.part.buried>
1.3687

> <Gold.PLP.part.nonpolar>
-41.4436

> <Gold.PLP.part.repulsive>
0.0000

> <Gold.PLP.ligand.clash>
0.0000

> <Gold.PLP.ligand.torsion>
1.2661

> <Gold.PLP.Chemscore.Hbond>
4.0000

> <Gold.PLP.Chemscore.CHOScore>
0.0000

> <Gold.PLP.Chemscore.Metal>
0.0000

> <Gold.Chemscore.Hbonds>
donor molecule, donor type, donor heavy atom, donor atom, acceptor molecule, acceptor atom, score
      L1  H    10    31       P1  8028  1.00
      L1  H    12    48       P1 10175  2.00
      L1  H    16    39       P1  7948  0.63

> <Gold.PLP.Chemscore.Internal.Correction>
0.0563

> <Gold.Rescore>
     Score         DG    S(hbond)    S(metal)    S(lipo)     H(rot)  DE(clash)    DE(int)     intcor
     18.17     -20.41       2.45        0.00     116.07       2.67       1.28       0.96       ----

> <Gold.Chemscore.Fitness>
18.1691

> <Gold.Chemscore.DG>
-20.4061

> <Gold.Chemscore.ZeroCoef>
-5.4800

> <Gold.Chemscore.Hbond>
2.4503

> <Gold.Chemscore.Metal>
0.0000

> <Gold.Chemscore.Lipo>
116.0727

> <Gold.Chemscore.Internal_Hbond>
0.0000

> <Gold.Chemscore.DEClash>
1.2769

> <Gold.Chemscore.DEInternal>
0.9601

> <Gold.Chemscore.Rot>
2.6712

> <Gold.Chemscore.Internal.Correction>
   9.000000E+99

> <Gold.Chemscore.Hbonds>
donor molecule, donor type, donor heavy atom, donor atom, acceptor molecule, acceptor atom, score
      L1  H    10    31       P1  8028  0.50
      L1  H    12    48       P1 10175  0.88
      L1  H    16    39       P1  7948  0.62

> <Gold.Chemscore.Hbond.Weighted>
-8.1840

> <Gold.Chemscore.Metal.Weighted>
-0.0000

> <Gold.Chemscore.Lipo.Weighted>
-13.5805

> <Gold.Chemscore.Internal_Hbond.Weighted>
0.0000

> <Gold.Chemscore.DEClash.Weighted>
1.2769

> <Gold.Chemscore.DEInternal.Weighted>
0.9601

> <Gold.Chemscore.Rot.Weighted>
6.8383

> <Gold.Chemscore.Internal.Correction.Weighted>
   9.000000E+99

> <Gold.Protein.RotatedTorsions>
[ 6907 6896 6895 6894 ] final -139.34 input  -60.11 | X-H torsion
[ 7974 7965 7964 7962 ] final -115.38 input  175.53 | X-H torsion
[ 8008 7997 7996 7995 ] final  121.32 input   59.86 | X-H torsion
[ 10167 10162 10161 10158 ] final   19.29 input  -65.29 | X-H torsion
[ 10718 10713 10712 10709 ] final  -29.24 input   66.30 | X-H torsion
[ 10763 10752 10751 10750 ] final  122.84 input  -60.55 | X-H torsion
[ 11005 11000 10999 10996 ] final  -27.51 input  -57.11 | X-H torsion

> <Gold.Protein.ActiveResidues>
 VAL166  LYS551  ARG553  GLY616  TRP617  ASP618  TYR619  PRO620  LYS621  CYS622 
 ASP623  PHE694  ASN695  SER759  ASP760  ASP761  ALA762  ILE779  LEU786  VAL792 
 PHE793  MET794  SER795  GLU796  ALA797  LYS798  CYS799  TRP800  GLU811  SER814 

> <Gold.Protein.RotatedAtoms>
  151.0465  133.5661  159.2645 H   0  0  0  0  0  0  0  0  0  0  0  0  # atno 6907 bound_to 6896
  151.2688  135.0677  159.9136 H   0  0  0  0  0  0  0  0  0  0  0  0  # atno 6908 bound_to 6896
  152.5374  134.0199  159.8031 H   0  0  0  0  0  0  0  0  0  0  0  0  # atno 6909 bound_to 6896
  145.1091  140.8600  143.3881 H   0  0  0  0  0  0  0  0  0  0  0  0  # atno 7974 bound_to 7965
  156.2681  140.2811  156.1289 H   0  0  0  0  0  0  0  0  0  0  0  0  # atno 8008 bound_to 7997
  155.1076  140.0390  157.2732 H   0  0  0  0  0  0  0  0  0  0  0  0  # atno 8009 bound_to 7997
  154.6767  140.2600  155.6956 H   0  0  0  0  0  0  0  0  0  0  0  0  # atno 8010 bound_to 7997
  140.5590  143.9372  150.6629 H   0  0  0  0  0  0  0  0  0  0  0  0  # atno 10167 bound_to 10162
  156.4150  130.4415  149.7224 H   0  0  0  0  0  0  0  0  0  0  0  0  # atno 10718 bound_to 10713
  153.6360  135.3387  155.3057 H   0  0  0  0  0  0  0  0  0  0  0  0  # atno 10763 bound_to 10752
  154.8570  135.4307  154.2055 H   0  0  0  0  0  0  0  0  0  0  0  0  # atno 10764 bound_to 10752
  153.2962  135.7021  153.7320 H   0  0  0  0  0  0  0  0  0  0  0  0  # atno 10765 bound_to 10752
  140.9126  133.7451  156.0691 H   0  0  0  0  0  0  0  0  0  0  0  0  # atno 11005 bound_to 11000
  145.0868  139.2919  143.5755 LP  0  0  0  0  0  0  0  0  0  0  0  0  # atno 17320 bound_to 7965
  146.3527  140.0392  142.8644 LP  0  0  0  0  0  0  0  0  0  0  0  0  # atno 17321 bound_to 7965
  140.2817  143.3384  152.1145 LP  0  0  0  0  0  0  0  0  0  0  0  0  # atno 17342 bound_to 10162
  139.5061  144.6808  151.6014 LP  0  0  0  0  0  0  0  0  0  0  0  0  # atno 17343 bound_to 10162
  156.4188  130.7758  151.2774 LP  0  0  0  0  0  0  0  0  0  0  0  0  # atno 17370 bound_to 10713
  157.7507  131.0189  150.3646 LP  0  0  0  0  0  0  0  0  0  0  0  0  # atno 17371 bound_to 10713
  140.8091  134.3420  157.5417 LP  0  0  0  0  0  0  0  0  0  0  0  0  # atno 17394 bound_to 11000
  139.8760  134.9243  156.3347 LP  0  0  0  0  0  0  0  0  0  0  0  0  # atno 17395 bound_to 11000

$$$$
