#       Name:                AV-unprocessed.smi:767
#       Creating user name   scv26
#       Creation time:       Fri Mar 27 01:07:22 2020


#       File generated by GOLD software.
#

@<TRIPOS>MOLECULE
AV-unprocessed.smi:767
    52    54     1
SMALL
NO_CHARGES


@<TRIPOS>ATOM
      1 ****        -1.2413   3.3486   3.5053 C.3            1 S1                 0.0000
      2 ****        -1.9603   2.3711   2.5990 C.ar           1 S1                 0.0000
      3 ****        -2.7778   1.3569   3.1402 C.ar           1 S1                 0.0000
      4 ****        -3.4154   0.4658   2.2555 C.ar           1 S1                 0.0000
      5 ****        -3.2090   0.6198   0.8695 C.ar           1 S1                 0.0000
      6 ****        -3.8501  -0.3326  -0.1257 C.3            1 S1                 0.0000
      7 ****        -3.2555  -1.7553  -0.0870 C.3            1 S1                 0.0000
      8 ****        -1.7955  -1.7619  -0.0947 N.am           1 S1                 0.0000
      9 ****        -1.0302  -1.4759  -1.1563 C.2            1 S1                 0.0000
     10 ****        -1.4713  -1.2054  -2.2732 O.2            1 S1                 0.0000
     11 ****         0.2729  -1.4980  -0.8482 N.am           1 S1                 0.0000
     12 ****         1.3530  -1.1868  -1.7897 C.3            1 S1                 0.0000
     13 ****         2.7349  -1.5654  -1.2503 C.3            1 S1                 0.0000
     14 ****         3.2531  -2.4437  -0.1693 C.3            1 S1                 0.0000
     15 ****         4.3567  -1.4816   0.3488 C.3            1 S1                 0.0000
     16 ****         4.1191  -0.2099  -0.3081 O.3            1 S1                 0.0000
     17 ****         2.7288  -0.2152  -0.5638 C.3            1 S1                 0.0000
     18 ****         1.8835   0.3020  -1.7486 C.3            1 S1                 0.0000
     19 ****         2.6439   0.8121  -2.9857 C.3            1 S1                 0.0000
     20 ****         0.8698   1.3968  -1.3991 C.3            1 S1                 0.0000
     21 ****        -2.3767   1.6719   0.4313 C.ar           1 S1                 0.0000
     22 ****        -1.7601   2.5299   1.2720 N.ar           1 S1                 0.0000
     23 ****        -1.7987   3.5012   4.4301 H              1 S1                 0.0000
     24 ****        -1.1213   4.3178   3.0200 H              1 S1                 0.0000
     25 ****        -0.2523   2.9670   3.7595 H              1 S1                 0.0000
     26 ****        -2.9110   1.2600   4.2077 H              1 S1                 0.0000
     27 ****        -4.0435  -0.3266   2.6354 H              1 S1                 0.0000
     28 ****        -4.9223  -0.3761   0.0674 H              1 S1                 0.0000
     29 ****        -3.7427   0.0799  -1.1298 H              1 S1                 0.0000
     30 ****        -3.5720  -2.2532   0.8299 H              1 S1                 0.0000
     31 ****        -3.6434  -2.3548  -0.9119 H              1 S1                 0.0000
     32 ****        -1.3377  -1.9687   0.7809 H              1 S1                 0.0000
     33 ****         0.5394  -1.7277   0.0979 H              1 S1                 0.0000
     34 ****         1.1788  -1.5572  -2.8014 H              1 S1                 0.0000
     35 ****         3.4292  -1.6077  -2.0931 H              1 S1                 0.0000
     36 ****         2.5003  -2.6508   0.5924 H              1 S1                 0.0000
     37 ****         3.6568  -3.3852  -0.5423 H              1 S1                 0.0000
     38 ****         4.2942  -1.3672   1.4316 H              1 S1                 0.0000
     39 ****         5.3574  -1.8377   0.1028 H              1 S1                 0.0000
     40 ****         2.1697  -0.1949   0.3774 H              1 S1                 0.0000
     41 ****         3.2060   1.7181  -2.7570 H              1 S1                 0.0000
     42 ****         1.9582   1.0515  -3.7991 H              1 S1                 0.0000
     43 ****         3.3578   0.0936  -3.3845 H              1 S1                 0.0000
     44 ****         1.3449   2.3744  -1.3130 H              1 S1                 0.0000
     45 ****         0.3787   1.2047  -0.4455 H              1 S1                 0.0000
     46 ****         0.0886   1.4743  -2.1559 H              1 S1                 0.0000
     47 ****        -2.1882   1.8227  -0.6215 H              1 S1                 0.0000
     48 ****        -2.4587  -1.1899  -2.4305 LP             1 S1                 0.0000
     49 ****        -0.8422  -1.0012  -3.0232 LP             1 S1                 0.0000
     50 ****         4.6377  -0.1474  -1.1608 LP             1 S1                 0.0000
     51 ****         4.3682   0.5518   0.2901 LP             1 S1                 0.0000
     52 ****        -1.1732   3.2606   0.9233 LP             1 S1                 0.0000
@<TRIPOS>BOND
    1    1    2 1     
    2    1   23 1     
    3    1   24 1     
    4    1   25 1     
    5    2   22 ar    
    6    2    3 ar    
    7    3    4 ar    
    8    3   26 1     
    9    4    5 ar    
   10    4   27 1     
   11    5    6 1     
   12    5   21 ar    
   13    6    7 1     
   14    6   28 1     
   15    6   29 1     
   16    7    8 1     
   17    7   30 1     
   18    7   31 1     
   19    8    9 am    
   20    8   32 1     
   21    9   10 2     
   22    9   11 am    
   23   11   12 1     
   24   11   33 1     
   25   12   18 1     
   26   12   13 1     
   27   12   34 1     
   28   13   17 1     
   29   13   14 1     
   30   13   35 1     
   31   14   15 1     
   32   14   36 1     
   33   14   37 1     
   34   15   16 1     
   35   15   38 1     
   36   15   39 1     
   37   16   17 1     
   38   17   18 1     
   39   17   40 1     
   40   18   19 1     
   41   18   20 1     
   42   19   41 1     
   43   19   42 1     
   44   19   43 1     
   45   20   44 1     
   46   20   45 1     
   47   20   46 1     
   48   21   22 ar    
   49   21   47 1     
   50   10   48 1     
   51   10   49 1     
   52   16   50 1     
   53   16   51 1     
   54   22   52 1     
@<TRIPOS>SUBSTRUCTURE
      1 S1             1
@<TRIPOS>SET
LONE_PAIRS      STATIC     ATOMS    <user>   **** ""
5 48 49 50 51 52
DONOR_HYDROGENS      STATIC     ATOMS    <user>   **** ""
2 32 33
ATOM$BLUE        STATIC     ATOMS    COLORGROUP SYSTEM
5 48 49 50 51 52
ATOM$RED        STATIC     ATOMS    COLORGROUP SYSTEM
2 32 33
