AV-unprocessed.smi:2272|AV-procd|sdf|9162|dock6
  -GOLD-   2272012373D 1   1.00000     0.00000
 Structure written by MMmdl.
 41 42  0  0  0  0  0  0  0  0  1 V2000
  151.8963  144.7713  160.2838 C   0  0  0  0  0  0  0  0  0  0  0  0
  152.5497  143.4118  160.4585 C   0  0  0  0  0  0  0  0  0  0  0  0
  152.8919  143.0702  161.7696 N   0  0  0  0  0  0  0  0  0  0  0  0
  153.4387  141.9249  162.0149 C   0  0  0  0  0  0  0  0  0  0  0  0
  153.7013  140.9958  160.9940 N   0  0  0  0  0  0  0  0  0  0  0  0
  154.3058  139.7209  161.4212 C   0  0  0  0  0  0  0  0  0  0  0  0
  155.6691  139.9166  162.1230 C   0  0  2  0  0  0  0  0  0  0  0  0
  156.6524  139.1059  161.5153 O   0  0  0  0  0  0  0  0  0  0  0  0
  155.6751  139.6634  163.6404 C   0  0  0  0  0  0  0  0  0  0  0  0
  155.3365  140.8532  164.3400 O   0  0  0  0  0  0  0  0  0  0  0  0
  155.3890  140.7268  165.7547 C   0  0  0  0  0  0  0  0  0  0  0  0
  155.1982  142.0482  166.4814 C   0  0  0  0  0  0  0  0  0  0  0  0
  155.0966  143.2499  165.7485 C   0  0  0  0  0  0  0  0  0  0  0  0
  154.9159  144.4762  166.4169 C   0  0  0  0  0  0  0  0  0  0  0  0
  154.8433  144.5078  167.8225 C   0  0  0  0  0  0  0  0  0  0  0  0
  154.9504  143.3123  168.5587 C   0  0  0  0  0  0  0  0  0  0  0  0
  155.1276  142.0845  167.8916 C   0  0  0  0  0  0  0  0  0  0  0  0
  155.2258  140.9415  168.6122 F   0  0  0  0  0  0  0  0  0  0  0  0
  153.4219  141.2608  159.6845 C   0  0  0  0  0  0  0  0  0  0  0  0
  153.6804  140.4548  158.7901 O   0  0  0  0  0  0  0  0  0  0  0  0
  152.7938  142.5657  159.4210 C   0  0  0  0  0  0  0  0  0  0  0  0
  152.4370  142.8838  157.9746 C   0  0  0  0  0  0  0  0  0  0  0  0
  150.9172  144.6686  159.8150 H   0  0  0  0  0  0  0  0  0  0  0  0
  152.5166  145.4152  159.6597 H   0  0  0  0  0  0  0  0  0  0  0  0
  151.7560  145.2710  161.2433 H   0  0  0  0  0  0  0  0  0  0  0  0
  153.7241  141.6083  163.0200 H   0  0  0  0  0  0  0  0  0  0  0  0
  153.6342  139.1504  162.0648 H   0  0  0  0  0  0  0  0  0  0  0  0
  154.4412  139.0846  160.5441 H   0  0  0  0  0  0  0  0  0  0  0  0
  156.0035  140.9413  161.9581 H   0  0  0  0  0  0  0  0  0  0  0  0
  156.2198  138.3750  161.1003 H   0  0  0  0  0  0  0  0  0  0  0  0
  154.9815  138.8589  163.8906 H   0  0  0  0  0  0  0  0  0  0  0  0
  156.6688  139.3321  163.9425 H   0  0  0  0  0  0  0  0  0  0  0  0
  154.5922  140.0471  166.0569 H   0  0  0  0  0  0  0  0  0  0  0  0
  156.3194  140.2503  166.0682 H   0  0  0  0  0  0  0  0  0  0  0  0
  155.1513  143.2326  164.6698 H   0  0  0  0  0  0  0  0  0  0  0  0
  154.8331  145.3925  165.8512 H   0  0  0  0  0  0  0  0  0  0  0  0
  154.7039  145.4475  168.3362 H   0  0  0  0  0  0  0  0  0  0  0  0
  154.8924  143.3358  169.6369 H   0  0  0  0  0  0  0  0  0  0  0  0
  151.6610  142.2037  157.6251 H   0  0  0  0  0  0  0  0  0  0  0  0
  153.3095  142.7632  157.3314 H   0  0  0  0  0  0  0  0  0  0  0  0
  152.0714  143.8999  157.8361 H   0  0  0  0  0  0  0  0  0  0  0  0
  1  2  1  0  0  0  0
  1 23  1  0  0  0  0
  1 24  1  0  0  0  0
  1 25  1  0  0  0  0
  2 21  2  0  0  0  0
  2  3  1  0  0  0  0
  3  4  2  0  0  0  0
  4  5  1  0  0  0  0
  4 26  1  0  0  0  0
  5  6  1  0  0  0  0
  5 19  1  0  0  0  0
  6  7  1  0  0  0  0
  6 27  1  0  0  0  0
  6 28  1  0  0  0  0
  7  8  1  0  0  0  0
  7  9  1  0  0  0  0
  7 29  1  0  0  0  0
  8 30  1  0  0  0  0
  9 10  1  0  0  0  0
  9 31  1  0  0  0  0
  9 32  1  0  0  0  0
 10 11  1  0  0  0  0
 11 12  1  0  0  0  0
 11 33  1  0  0  0  0
 11 34  1  0  0  0  0
 12 17  1  0  0  0  0
 12 13  2  0  0  0  0
 13 14  1  0  0  0  0
 13 35  1  0  0  0  0
 14 15  2  0  0  0  0
 14 36  1  0  0  0  0
 15 16  1  0  0  0  0
 15 37  1  0  0  0  0
 16 17  2  0  0  0  0
 16 38  1  0  0  0  0
 17 18  1  0  0  0  0
 19 20  2  0  0  0  0
 19 21  1  0  0  0  0
 21 22  1  0  0  0  0
 22 39  1  0  0  0  0
 22 40  1  0  0  0  0
 22 41  1  0  0  0  0
M  END
> <s_m_source_file>
AV-unprocessed.smi

> <i_m_source_file_index>
2272

> <i_lp_mmshare_version>
43012

> <i_f3d_flags>
0

> <s_epik_input>
W0NIM11jMW5bY0hdbihjKD1PKWMxW0NIM10pW0NIMl1bQ0BIXShbT0hdKVtDSDJdT1tDSDJdYzJbY0hdW2NIXVtjSF1bY0hdYzJG

> <s_epik_cmdline>
J2VwaWtfcHl0aG9uJywgJy1waCcsICc3LjAnLCAnLXRuJywgJzgnLCAnLW1hJywgJzIwMCcsICctbWV0YWxfYmluZGluZycsICctaW1hZScsICc8aW5maWxlLm1hZT4nLCAnLW9tYWUnLCAnPG91dGZpbGUubWFlPic=

> <r_lp_tautomer_probability>
1

> <r_epik_Ionization_Penalty>
5.35985e-05

> <r_epik_Ionization_Penalty_Charging>
1.17753e-07

> <r_epik_Ionization_Penalty_Neutral>
5.34808e-05

> <r_epik_State_Penalty>
-0

> <r_epik_Charging_Adjusted_Penalty>
1.17753e-07

> <i_epik_Tot_Q>
0

> <i_epik_Tot_abs_Q>
0

> <r_epik_Metal_State_Penalty>
-0

> <b_epik_Metal_Only>
0

> <s_lp_Force_Field>
OPLS_2005

> <r_lp_Energy>
20.6286

> <b_lp_Chiralities_Consistent>
1

> <s_lp_Variant>
AV-unprocessed.smi:2272-1

> <Gold.Version>
5.8.1

> <Gold.Id.Protein>
6NUR|6NUR_protein|mol2

> <Gold.PLP.Fitness>
49.5558

> <Gold.PLP.PLP>
-50.0796

> <Gold.PLP.part.hbond>
-1.1316

> <Gold.PLP.part.metal>
0.0000

> <Gold.PLP.part.buried>
-3.7344

> <Gold.PLP.part.nonpolar>
-43.4313

> <Gold.PLP.part.repulsive>
0.1021

> <Gold.PLP.ligand.clash>
0.0000

> <Gold.PLP.ligand.torsion>
1.1254

> <Gold.PLP.Chemscore.Hbond>
0.5265

> <Gold.PLP.Chemscore.CHOScore>
0.0000

> <Gold.PLP.Chemscore.Metal>
0.0000

> <Gold.Chemscore.Hbonds>
donor molecule, donor type, donor heavy atom, donor atom, acceptor molecule, acceptor atom, score
      P1  H  7997  8010       L1    20  0.77

> <Gold.PLP.Chemscore.Internal.Correction>
0.1474

> <Gold.Rescore>
     Score         DG    S(hbond)    S(metal)    S(lipo)     H(rot)  DE(clash)    DE(int)     intcor
     12.91     -14.28       0.75        0.00     112.59       2.69       0.21       1.16       ----

> <Gold.Chemscore.Fitness>
12.9128

> <Gold.Chemscore.DG>
-14.2755

> <Gold.Chemscore.ZeroCoef>
-5.4800

> <Gold.Chemscore.Hbond>
0.7479

> <Gold.Chemscore.Metal>
0.0000

> <Gold.Chemscore.Lipo>
112.5906

> <Gold.Chemscore.Internal_Hbond>
0.0000

> <Gold.Chemscore.DEClash>
0.2068

> <Gold.Chemscore.DEInternal>
1.1559

> <Gold.Chemscore.Rot>
2.6857

> <Gold.Chemscore.Internal.Correction>
   9.000000E+99

> <Gold.Chemscore.Hbonds>
donor molecule, donor type, donor heavy atom, donor atom, acceptor molecule, acceptor atom, score
      P1  H  7997  8010       L1    20  0.76

> <Gold.Chemscore.Hbond.Weighted>
-2.4979

> <Gold.Chemscore.Metal.Weighted>
-0.0000

> <Gold.Chemscore.Lipo.Weighted>
-13.1731

> <Gold.Chemscore.Internal_Hbond.Weighted>
0.0000

> <Gold.Chemscore.DEClash.Weighted>
0.2068

> <Gold.Chemscore.DEInternal.Weighted>
1.1559

> <Gold.Chemscore.Rot.Weighted>
6.8755

> <Gold.Chemscore.Internal.Correction.Weighted>
   9.000000E+99

> <Gold.Protein.RotatedTorsions>
[ 6907 6896 6895 6894 ] final  172.63 input  -60.11 | X-H torsion
[ 7974 7965 7964 7962 ] final  132.16 input  175.53 | X-H torsion
[ 8008 7997 7996 7995 ] final   14.79 input   59.86 | X-H torsion
[ 10167 10162 10161 10158 ] final -158.10 input  -65.29 | X-H torsion
[ 10718 10713 10712 10709 ] final   38.44 input   66.30 | X-H torsion
[ 10763 10752 10751 10750 ] final  -40.79 input  -60.55 | X-H torsion
[ 11005 11000 10999 10996 ] final  -76.55 input  -57.11 | X-H torsion

> <Gold.Protein.ActiveResidues>
 VAL166  LYS551  ARG553  GLY616  TRP617  ASP618  TYR619  PRO620  LYS621  CYS622 
 ASP623  PHE694  ASN695  SER759  ASP760  ASP761  ALA762  ILE779  LEU786  VAL792 
 PHE793  MET794  SER795  GLU796  ALA797  LYS798  CYS799  TRP800  GLU811  SER814 

> <Gold.Protein.RotatedAtoms>
  151.7812  133.3350  159.3471 H   0  0  0  0  0  0  0  0  0  0  0  0  # atno 6907 bound_to 6896
  150.7425  134.5929  159.6006 H   0  0  0  0  0  0  0  0  0  0  0  0  # atno 6908 bound_to 6896
  152.3275  134.7304  160.0349 H   0  0  0  0  0  0  0  0  0  0  0  0  # atno 6909 bound_to 6896
  144.9997  139.4324  143.5298 H   0  0  0  0  0  0  0  0  0  0  0  0  # atno 7974 bound_to 7965
  154.8534  140.2933  155.5584 H   0  0  0  0  0  0  0  0  0  0  0  0  # atno 8008 bound_to 7997
  156.3017  140.2491  156.3429 H   0  0  0  0  0  0  0  0  0  0  0  0  # atno 8009 bound_to 7997
  154.8996  140.0392  157.1874 H   0  0  0  0  0  0  0  0  0  0  0  0  # atno 8010 bound_to 7997
  139.6719  143.9731  152.2288 H   0  0  0  0  0  0  0  0  0  0  0  0  # atno 10167 bound_to 10162
  157.3589  130.7639  149.7033 H   0  0  0  0  0  0  0  0  0  0  0  0  # atno 10718 bound_to 10713
  153.9519  135.6749  153.4744 H   0  0  0  0  0  0  0  0  0  0  0  0  # atno 10763 bound_to 10752
  153.0880  135.4889  154.8632 H   0  0  0  0  0  0  0  0  0  0  0  0  # atno 10764 bound_to 10752
  154.7321  135.3140  154.8833 H   0  0  0  0  0  0  0  0  0  0  0  0  # atno 10765 bound_to 10752
  141.1654  133.6988  156.7686 H   0  0  0  0  0  0  0  0  0  0  0  0  # atno 11005 bound_to 11000
  146.3449  139.9379  142.8745 LP  0  0  0  0  0  0  0  0  0  0  0  0  # atno 17320 bound_to 7965
  145.2170  140.9919  143.4068 LP  0  0  0  0  0  0  0  0  0  0  0  0  # atno 17321 bound_to 7965
  139.9498  144.6628  150.8183 LP  0  0  0  0  0  0  0  0  0  0  0  0  # atno 17342 bound_to 10162
  140.7621  143.3190  151.2666 LP  0  0  0  0  0  0  0  0  0  0  0  0  # atno 17343 bound_to 10162
  155.9734  130.4119  150.4006 LP  0  0  0  0  0  0  0  0  0  0  0  0  # atno 17370 bound_to 10713
  157.2081  131.0454  151.2614 LP  0  0  0  0  0  0  0  0  0  0  0  0  # atno 17371 bound_to 10713
  140.2480  134.8562  157.3640 LP  0  0  0  0  0  0  0  0  0  0  0  0  # atno 17394 bound_to 11000
  140.1730  134.4585  155.7819 LP  0  0  0  0  0  0  0  0  0  0  0  0  # atno 17395 bound_to 11000

$$$$
