AV-unprocessed.smi:2895|AV-procd|sdf|11130|dock2
  -GOLD-   2272016 03D 1   1.00000     0.00000
 Structure written by MMmdl.
 53 56  0  0  0  0  0  0  0  0  2 V2000
  149.9804  138.6769  154.2611 O   0  0  0  0  0  0  0  0  0  0  0  0
  149.2611  139.0023  155.2063 C   0  0  0  0  0  0  0  0  0  0  0  0
  148.0103  138.5296  155.3432 N   0  0  0  0  0  0  0  0  0  0  0  0
  147.3564  137.5989  154.4301 C   0  0  0  0  0  0  0  0  0  0  0  0
  146.1906  138.2605  153.6756 C   0  0  0  0  0  0  0  0  0  0  0  0
  145.3658  137.2518  152.8997 C   0  0  0  0  0  0  0  0  0  0  0  0
  144.0503  136.9401  153.3005 C   0  0  0  0  0  0  0  0  0  0  0  0
  143.3221  135.9997  152.5443 C   0  0  0  0  0  0  0  0  0  0  0  0
  143.8213  135.3789  151.4537 N   0  0  0  0  0  0  0  0  0  0  0  0
  145.0823  135.6816  151.0767 C   0  0  0  0  0  0  0  0  0  0  0  0
  145.8941  136.6082  151.7616 C   0  0  0  0  0  0  0  0  0  0  0  0
  149.6649  139.8477  156.1893 N   0  0  0  0  0  0  0  0  0  0  0  0
  148.8342  140.3826  157.2804 C   0  0  0  0  0  0  0  0  0  0  0  0
  148.6894  141.9100  157.1149 C   0  0  0  0  0  0  0  0  0  0  0  0
  150.0118  142.6018  157.0491 N   0  3  0  0  0  0  0  0  0  0  0  0
  150.6709  142.7671  158.3850 C   0  0  2  0  0  0  0  0  0  0  0  0
  150.0875  143.9511  159.2044 C   0  0  0  0  0  0  0  0  0  0  0  0
  151.3266  144.7677  159.6025 C   0  0  1  0  0  0  0  0  0  0  0  0
  152.1785  143.9712  160.6055 C   0  0  0  0  0  0  0  0  0  0  0  0
  152.8006  142.8776  159.7199 C   0  0  0  0  0  0  0  0  0  0  0  0
  152.1774  143.1571  158.3383 C   0  0  2  0  0  0  0  0  0  0  0  0
  152.1526  144.6815  158.3280 C   0  0  0  0  0  0  0  0  0  0  0  0
  150.8689  141.9768  155.9991 C   0  0  0  0  0  0  0  0  0  0  0  0
  151.0017  140.4532  156.1917 C   0  0  0  0  0  0  0  0  0  0  0  0
  147.4756  138.8283  156.1456 H   0  0  0  0  0  0  0  0  0  0  0  0
  148.0876  137.1927  153.7291 H   0  0  0  0  0  0  0  0  0  0  0  0
  146.9867  136.7568  155.0159 H   0  0  0  0  0  0  0  0  0  0  0  0
  145.5454  138.7915  154.3768 H   0  0  0  0  0  0  0  0  0  0  0  0
  146.5653  139.0084  152.9759 H   0  0  0  0  0  0  0  0  0  0  0  0
  143.6060  137.4113  154.1654 H   0  0  0  0  0  0  0  0  0  0  0  0
  142.3115  135.7397  152.8229 H   0  0  0  0  0  0  0  0  0  0  0  0
  145.4557  135.1708  150.2016 H   0  0  0  0  0  0  0  0  0  0  0  0
  146.8965  136.8166  151.4178 H   0  0  0  0  0  0  0  0  0  0  0  0
  147.8409  139.9388  157.3412 H   0  0  0  0  0  0  0  0  0  0  0  0
  149.3089  140.1453  158.2331 H   0  0  0  0  0  0  0  0  0  0  0  0
  148.1597  142.1147  156.1834 H   0  0  0  0  0  0  0  0  0  0  0  0
  148.0519  142.3079  157.9021 H   0  0  0  0  0  0  0  0  0  0  0  0
  150.5538  141.8381  158.9436 H   0  0  0  0  0  0  0  0  0  0  0  0
  149.4393  144.5891  158.6028 H   0  0  0  0  0  0  0  0  0  0  0  0
  149.5133  143.6148  160.0685 H   0  0  0  0  0  0  0  0  0  0  0  0
  151.0940  145.7805  159.9327 H   0  0  0  0  0  0  0  0  0  0  0  0
  152.9559  144.5985  161.0440 H   0  0  0  0  0  0  0  0  0  0  0  0
  151.5801  143.5592  161.4191 H   0  0  0  0  0  0  0  0  0  0  0  0
  153.8848  142.9907  159.6826 H   0  0  0  0  0  0  0  0  0  0  0  0
  152.5857  141.8719  160.0829 H   0  0  0  0  0  0  0  0  0  0  0  0
  152.7715  142.7175  157.5413 H   0  0  0  0  0  0  0  0  0  0  0  0
  151.6513  145.1016  157.4541 H   0  0  0  0  0  0  0  0  0  0  0  0
  153.1422  145.1320  158.4241 H   0  0  0  0  0  0  0  0  0  0  0  0
  150.3973  142.1663  155.0336 H   0  0  0  0  0  0  0  0  0  0  0  0
  151.8498  142.4369  155.9228 H   0  0  0  0  0  0  0  0  0  0  0  0
  151.4997  140.2249  157.1345 H   0  0  0  0  0  0  0  0  0  0  0  0
  151.6518  140.0482  155.4150 H   0  0  0  0  0  0  0  0  0  0  0  0
  149.8229  143.5426  156.7337 H   0  0  0  0  0  0  0  0  0  0  0  0
  1  2  2  0  0  0  0
  2  3  1  0  0  0  0
  2 12  1  0  0  0  0
  3  4  1  0  0  0  0
  3 25  1  0  0  0  0
  4  5  1  0  0  0  0
  4 26  1  0  0  0  0
  4 27  1  0  0  0  0
  5  6  1  0  0  0  0
  5 28  1  0  0  0  0
  5 29  1  0  0  0  0
  6 11  1  0  0  0  0
  6  7  2  0  0  0  0
  7  8  1  0  0  0  0
  7 30  1  0  0  0  0
  8  9  2  0  0  0  0
  8 31  1  0  0  0  0
  9 10  1  0  0  0  0
 10 11  2  0  0  0  0
 10 32  1  0  0  0  0
 11 33  1  0  0  0  0
 12 24  1  0  0  0  0
 12 13  1  0  0  0  0
 13 14  1  0  0  0  0
 13 34  1  0  0  0  0
 13 35  1  0  0  0  0
 14 15  1  0  0  0  0
 14 36  1  0  0  0  0
 14 37  1  0  0  0  0
 15 16  1  0  0  0  0
 15 23  1  0  0  0  0
 15 53  1  0  0  0  0
 16 21  1  0  0  0  0
 16 17  1  0  0  0  0
 16 38  1  0  0  0  0
 17 18  1  0  0  0  0
 17 39  1  0  0  0  0
 17 40  1  0  0  0  0
 18 22  1  0  0  0  0
 18 19  1  0  0  0  0
 18 41  1  0  0  0  0
 19 20  1  0  0  0  0
 19 42  1  0  0  0  0
 19 43  1  0  0  0  0
 20 21  1  0  0  0  0
 20 44  1  0  0  0  0
 20 45  1  0  0  0  0
 21 22  1  0  0  0  0
 21 46  1  0  0  0  0
 22 47  1  0  0  0  0
 22 48  1  0  0  0  0
 23 24  1  0  0  0  0
 23 49  1  0  0  0  0
 23 50  1  0  0  0  0
 24 51  1  0  0  0  0
 24 52  1  0  0  0  0
M  CHG  1  15   1
M  END
> <s_m_source_file>
AV-unprocessed.smi

> <i_m_source_file_index>
2895

> <i_lp_mmshare_version>
43012

> <i_f3d_flags>
0

> <s_epik_input>
W0NIMl0xW0NIMl1bQ0BASF0oW0NIMl0yKVtDQEBIXShbQ0gyXVtDQEhdMTIpTihbQ0gyXVtDSDJdMylbQ0gyXVtDSDJdTjNDKD1PKVtOSF1bQ0gyXVtDSDJdYzRbY0hdW2NIXW5bY0hdW2NIXTQ=

> <s_epik_cmdline>
J2VwaWtfcHl0aG9uJywgJy1waCcsICc3LjAnLCAnLXRuJywgJzgnLCAnLW1hJywgJzIwMCcsICctbWV0YWxfYmluZGluZycsICctaW1hZScsICc8aW5maWxlLm1hZT4nLCAnLW9tYWUnLCAnPG91dGZpbGUubWFlPic=

> <r_epik_Ionization_Penalty>
0.0566172

> <r_epik_Ionization_Penalty_Charging>
0.00262064

> <r_epik_Ionization_Penalty_Neutral>
0.0539965

> <r_epik_State_Penalty>
0.0463959

> <r_epik_Charging_Adjusted_Penalty>
0.0490165

> <i_epik_Tot_Q>
1

> <i_epik_Tot_abs_Q>
1

> <r_epik_Metal_State_Penalty>
0.0424856

> <b_epik_Metal_Only>
0

> <s_lp_Force_Field>
OPLS_2005

> <r_lp_Energy>
100.404

> <b_lp_Chiralities_Consistent>
1

> <s_lp_Variant>
AV-unprocessed.smi:2895-3

> <Gold.Version>
5.8.1

> <Gold.Id.Protein>
6NUR|6NUR_protein|mol2

> <Gold.PLP.Fitness>
50.2990

> <Gold.PLP.PLP>
-42.2817

> <Gold.PLP.part.hbond>
-1.0000

> <Gold.PLP.part.metal>
0.0000

> <Gold.PLP.part.buried>
-5.3000

> <Gold.PLP.part.nonpolar>
-36.4929

> <Gold.PLP.part.repulsive>
0.4391

> <Gold.PLP.ligand.clash>
0.0000

> <Gold.PLP.ligand.torsion>
0.5609

> <Gold.PLP.Chemscore.Hbond>
2.0000

> <Gold.PLP.Chemscore.CHOScore>
1.0000

> <Gold.PLP.Chemscore.Metal>
0.0000

> <Gold.Chemscore.Hbonds>
donor molecule, donor type, donor heavy atom, donor atom, acceptor molecule, acceptor atom, score
      L1  H    15    53       P1  8028  2.00
      L1  C    10    32       P1  7921  0.64

> <Gold.PLP.Chemscore.Internal.Correction>
0.1392

> <Gold.Rescore>
     Score         DG    S(hbond)    S(metal)    S(lipo)     H(rot)  DE(clash)    DE(int)     intcor
     18.97     -19.97       0.92        0.00     127.62       1.37       0.59       0.40       ----

> <Gold.Chemscore.Fitness>
18.9732

> <Gold.Chemscore.DG>
-19.9674

> <Gold.Chemscore.ZeroCoef>
-5.4800

> <Gold.Chemscore.Hbond>
0.9195

> <Gold.Chemscore.Metal>
0.0000

> <Gold.Chemscore.Lipo>
127.6193

> <Gold.Chemscore.Internal_Hbond>
0.0000

> <Gold.Chemscore.DEClash>
0.5909

> <Gold.Chemscore.DEInternal>
0.4033

> <Gold.Chemscore.Rot>
1.3731

> <Gold.Chemscore.Internal.Correction>
   9.000000E+99

> <Gold.Chemscore.Hbonds>
donor molecule, donor type, donor heavy atom, donor atom, acceptor molecule, acceptor atom, score
      L1  H    15    53       P1  8028  0.95

> <Gold.Chemscore.Hbond.Weighted>
-3.0711

> <Gold.Chemscore.Metal.Weighted>
-0.0000

> <Gold.Chemscore.Lipo.Weighted>
-14.9315

> <Gold.Chemscore.Internal_Hbond.Weighted>
0.0000

> <Gold.Chemscore.DEClash.Weighted>
0.5909

> <Gold.Chemscore.DEInternal.Weighted>
0.4033

> <Gold.Chemscore.Rot.Weighted>
3.5152

> <Gold.Chemscore.Internal.Correction.Weighted>
   9.000000E+99

> <Gold.Protein.RotatedTorsions>
[ 6907 6896 6895 6894 ] final  106.28 input  -60.11 | X-H torsion
[ 7974 7965 7964 7962 ] final  -89.76 input  175.53 | X-H torsion
[ 8008 7997 7996 7995 ] final  -92.42 input   59.86 | X-H torsion
[ 10167 10162 10161 10158 ] final  129.23 input  -65.29 | X-H torsion
[ 10718 10713 10712 10709 ] final  115.95 input   66.30 | X-H torsion
[ 10763 10752 10751 10750 ] final -168.30 input  -60.55 | X-H torsion
[ 11005 11000 10999 10996 ] final  118.48 input  -57.11 | X-H torsion

> <Gold.Protein.ActiveResidues>
 VAL166  LYS551  ARG553  GLY616  TRP617  ASP618  TYR619  PRO620  LYS621  CYS622 
 ASP623  PHE694  ASN695  SER759  ASP760  ASP761  ALA762  ILE779  LEU786  VAL792 
 PHE793  MET794  SER795  GLU796  ALA797  LYS798  CYS799  TRP800  GLU811  SER814 

> <Gold.Protein.RotatedAtoms>
  152.5199  133.9404  159.7623 H   0  0  0  0  0  0  0  0  0  0  0  0  # atno 6907 bound_to 6896
  150.9735  133.6310  159.2741 H   0  0  0  0  0  0  0  0  0  0  0  0  # atno 6908 bound_to 6896
  151.3513  135.0890  159.9457 H   0  0  0  0  0  0  0  0  0  0  0  0  # atno 6909 bound_to 6896
  145.4355  140.9557  143.2104 H   0  0  0  0  0  0  0  0  0  0  0  0  # atno 7974 bound_to 7965
  154.7228  140.0509  157.0655 H   0  0  0  0  0  0  0  0  0  0  0  0  # atno 8008 bound_to 7997
  155.0404  140.3168  155.4707 H   0  0  0  0  0  0  0  0  0  0  0  0  # atno 8009 bound_to 7997
  156.2821  140.2134  156.5528 H   0  0  0  0  0  0  0  0  0  0  0  0  # atno 8010 bound_to 7997
  139.5488  144.6796  151.4389 H   0  0  0  0  0  0  0  0  0  0  0  0  # atno 10167 bound_to 10162
  157.6191  131.1019  150.7402 H   0  0  0  0  0  0  0  0  0  0  0  0  # atno 10718 bound_to 10713
  154.6643  135.2929  154.9826 H   0  0  0  0  0  0  0  0  0  0  0  0  # atno 10763 bound_to 10752
  154.0875  135.6595  153.4851 H   0  0  0  0  0  0  0  0  0  0  0  0  # atno 10764 bound_to 10752
  153.0448  135.5212  154.7609 H   0  0  0  0  0  0  0  0  0  0  0  0  # atno 10765 bound_to 10752
  139.9111  134.9620  156.7509 H   0  0  0  0  0  0  0  0  0  0  0  0  # atno 11005 bound_to 11000
  144.8155  139.5885  143.7010 LP  0  0  0  0  0  0  0  0  0  0  0  0  # atno 17320 bound_to 7965
  146.2584  139.6354  142.9379 LP  0  0  0  0  0  0  0  0  0  0  0  0  # atno 17321 bound_to 7965
  140.6744  143.8222  150.7040 LP  0  0  0  0  0  0  0  0  0  0  0  0  # atno 17342 bound_to 10162
  140.1656  143.4238  152.2036 LP  0  0  0  0  0  0  0  0  0  0  0  0  # atno 17343 bound_to 10162
  156.7764  130.4845  149.5409 LP  0  0  0  0  0  0  0  0  0  0  0  0  # atno 17370 bound_to 10713
  156.1327  130.6189  151.0356 LP  0  0  0  0  0  0  0  0  0  0  0  0  # atno 17371 bound_to 10713
  140.6774  133.9505  155.7891 LP  0  0  0  0  0  0  0  0  0  0  0  0  # atno 17394 bound_to 11000
  141.0534  134.0451  157.3754 LP  0  0  0  0  0  0  0  0  0  0  0  0  # atno 17395 bound_to 11000

$$$$
