AV-unprocessed.smi:759|AV-procd|sdf|3626|dock5
  -GOLD-   22720 1 23D 1   1.00000     0.00000
 Structure written by MMmdl.
 23 24  0  0  0  0  0  0  0  0  3 V2000
  152.7977  138.8611  155.1835 C   0  0  0  0  0  0  0  0  0  0  0  0
  152.8483  138.9814  156.5169 N   0  5  0  0  0  0  0  0  0  0  0  0
  151.9089  139.8322  156.8832 N   0  0  0  0  0  0  0  0  0  0  0  0
  151.2940  140.2176  155.7491 C   0  0  0  0  0  0  0  0  0  0  0  0
  150.1331  141.1906  155.6916 C   0  0  1  0  0  0  0  0  0  0  0  0
  148.9906  140.6802  154.7946 C   0  0  0  0  0  0  0  0  0  0  0  0
  147.8274  141.6841  154.7852 C   0  0  0  0  0  0  0  0  0  0  0  0
  147.3722  142.0116  156.2176 C   0  0  0  0  0  0  0  0  0  0  0  0
  148.5046  142.5163  157.0247 N   0  3  0  0  0  0  0  0  0  0  0  0
  149.6313  141.5610  157.1003 C   0  0  0  0  0  0  0  0  0  0  0  0
  151.8373  139.6195  154.6769 N   0  0  0  0  0  0  0  0  0  0  0  0
  153.4805  138.2084  154.6534 H   0  0  0  0  0  0  0  0  0  0  0  0
  150.5204  142.1028  155.2343 H   0  0  0  0  0  0  0  0  0  0  0  0
  149.3517  140.5141  153.7790 H   0  0  0  0  0  0  0  0  0  0  0  0
  148.6347  139.7161  155.1609 H   0  0  0  0  0  0  0  0  0  0  0  0
  148.1381  142.5998  154.2802 H   0  0  0  0  0  0  0  0  0  0  0  0
  146.9927  141.2817  154.2105 H   0  0  0  0  0  0  0  0  0  0  0  0
  146.5837  142.7641  156.2013 H   0  0  0  0  0  0  0  0  0  0  0  0
  146.9567  141.1239  156.6966 H   0  0  0  0  0  0  0  0  0  0  0  0
  148.8398  143.3735  156.6088 H   0  0  0  0  0  0  0  0  0  0  0  0
  149.3042  140.6688  157.6366 H   0  0  0  0  0  0  0  0  0  0  0  0
  150.4356  142.0077  157.6854 H   0  0  0  0  0  0  0  0  0  0  0  0
  148.1803  142.7123  157.9609 H   0  0  0  0  0  0  0  0  0  0  0  0
  1 11  2  0  0  0  0
  1 12  1  0  0  0  0
  1  2  1  0  0  0  0
  2  3  1  0  0  0  0
  3  4  2  0  0  0  0
  4 11  1  0  0  0  0
  4  5  1  0  0  0  0
  5 10  1  0  0  0  0
  5  6  1  0  0  0  0
  5 13  1  0  0  0  0
  6  7  1  0  0  0  0
  6 14  1  0  0  0  0
  6 15  1  0  0  0  0
  7  8  1  0  0  0  0
  7 16  1  0  0  0  0
  7 17  1  0  0  0  0
  8  9  1  0  0  0  0
  8 18  1  0  0  0  0
  8 19  1  0  0  0  0
  9 10  1  0  0  0  0
  9 20  1  0  0  0  0
  9 23  1  0  0  0  0
 10 21  1  0  0  0  0
 10 22  1  0  0  0  0
M  CHG  1   2  -1
M  CHG  1   9   1
M  END
> <s_m_source_file>
AV-unprocessed.smi

> <i_m_source_file_index>
759

> <i_lp_mmshare_version>
43012

> <i_f3d_flags>
0

> <s_epik_input>
W25IXTFbY0hdbm5jMVtDQEBIXTJbQ0gyXVtDSDJdW0NIMl1bTkhdW0NIMl0y

> <s_epik_cmdline>
J2VwaWtfcHl0aG9uJywgJy1waCcsICc3LjAnLCAnLXRuJywgJzgnLCAnLW1hJywgJzIwMCcsICctbWV0YWxfYmluZGluZycsICctaW1hZScsICc8aW5maWxlLm1hZT4nLCAnLW9tYWUnLCAnPG91dGZpbGUubWFlPic=

> <r_lp_tautomer_probability>
0.948284

> <r_epik_Ionization_Penalty>
7.12535

> <r_epik_Ionization_Penalty_Charging>
7.12535

> <r_epik_Ionization_Penalty_Neutral>
7.15677e-14

> <r_epik_State_Penalty>
3.13859

> <r_epik_Charging_Adjusted_Penalty>
10.2639

> <i_epik_Tot_Q>
0

> <i_epik_Tot_abs_Q>
2

> <r_epik_Metal_State_Penalty>
0.603007

> <b_epik_Metal_Only>
1

> <s_lp_Force_Field>
OPLS_2005

> <r_lp_Energy>
6.41651

> <b_lp_Chiralities_Consistent>
1

> <s_lp_Variant>
AV-unprocessed.smi:759-8

> <Gold.Version>
5.8.1

> <Gold.Id.Protein>
6NUR|6NUR_protein|mol2

> <Gold.PLP.Fitness>
34.2693

> <Gold.PLP.PLP>
-19.6301

> <Gold.PLP.part.hbond>
-3.0000

> <Gold.PLP.part.metal>
0.0000

> <Gold.PLP.part.buried>
0.0142

> <Gold.PLP.part.nonpolar>
-15.5738

> <Gold.PLP.part.repulsive>
0.1009

> <Gold.PLP.ligand.clash>
0.0000

> <Gold.PLP.ligand.torsion>
0.2011

> <Gold.PLP.Chemscore.Hbond>
5.0000

> <Gold.PLP.Chemscore.CHOScore>
0.0000

> <Gold.PLP.Chemscore.Metal>
0.0000

> <Gold.Chemscore.Hbonds>
donor molecule, donor type, donor heavy atom, donor atom, acceptor molecule, acceptor atom, score
      L1  H     9    20       P1  8028  2.00
      P1  H  7989  7998       L1    11  1.00
      P1  H  7997  8009       L1     2  1.20

> <Gold.PLP.Chemscore.Internal.Correction>
0.0414

> <Gold.Rescore>
     Score         DG    S(hbond)    S(metal)    S(lipo)     H(rot)  DE(clash)    DE(int)     intcor
     10.44     -10.83       1.38        0.00      28.13       1.00       0.05       0.34       ----

> <Gold.Chemscore.Fitness>
10.4413

> <Gold.Chemscore.DG>
-10.8336

> <Gold.Chemscore.ZeroCoef>
-5.4800

> <Gold.Chemscore.Hbond>
1.3839

> <Gold.Chemscore.Metal>
0.0000

> <Gold.Chemscore.Lipo>
28.1318

> <Gold.Chemscore.Internal_Hbond>
0.0000

> <Gold.Chemscore.DEClash>
0.0542

> <Gold.Chemscore.DEInternal>
0.3380

> <Gold.Chemscore.Rot>
1.0000

> <Gold.Chemscore.Internal.Correction>
   9.000000E+99

> <Gold.Chemscore.Hbonds>
donor molecule, donor type, donor heavy atom, donor atom, acceptor molecule, acceptor atom, score
      L1  H     9    20       P1  8028  0.85
      P1  H  7989  7998       L1    11  0.28
      P1  H  7997  8009       L1     2  0.01

> <Gold.Chemscore.Hbond.Weighted>
-4.6222

> <Gold.Chemscore.Metal.Weighted>
-0.0000

> <Gold.Chemscore.Lipo.Weighted>
-3.2914

> <Gold.Chemscore.Internal_Hbond.Weighted>
0.0000

> <Gold.Chemscore.DEClash.Weighted>
0.0542

> <Gold.Chemscore.DEInternal.Weighted>
0.3380

> <Gold.Chemscore.Rot.Weighted>
2.5600

> <Gold.Chemscore.Internal.Correction.Weighted>
   9.000000E+99

> <Gold.Protein.RotatedTorsions>
[ 6907 6896 6895 6894 ] final  109.84 input  -60.11 | X-H torsion
[ 7974 7965 7964 7962 ] final -105.33 input  175.53 | X-H torsion
[ 8008 7997 7996 7995 ] final -168.29 input   59.86 | X-H torsion
[ 10167 10162 10161 10158 ] final -116.36 input  -65.29 | X-H torsion
[ 10718 10713 10712 10709 ] final   75.08 input   66.30 | X-H torsion
[ 10763 10752 10751 10750 ] final  -71.48 input  -60.55 | X-H torsion
[ 11005 11000 10999 10996 ] final -150.09 input  -57.11 | X-H torsion

> <Gold.Protein.ActiveResidues>
 VAL166  LYS551  ARG553  GLY616  TRP617  ASP618  TYR619  PRO620  LYS621  CYS622 
 ASP623  PHE694  ASN695  SER759  ASP760  ASP761  ALA762  ILE779  LEU786  VAL792 
 PHE793  MET794  SER795  GLU796  ALA797  LYS798  CYS799  TRP800  GLU811  SER814 

> <Gold.Protein.RotatedAtoms>
  152.5048  133.8886  159.7381 H   0  0  0  0  0  0  0  0  0  0  0  0  # atno 6907 bound_to 6896
  150.9330  133.6736  159.2813 H   0  0  0  0  0  0  0  0  0  0  0  0  # atno 6908 bound_to 6896
  151.4074  135.0984  159.9627 H   0  0  0  0  0  0  0  0  0  0  0  0  # atno 6909 bound_to 6896
  145.2319  140.9173  143.3200 H   0  0  0  0  0  0  0  0  0  0  0  0  # atno 7974 bound_to 7965
  155.8894  140.1022  157.1429 H   0  0  0  0  0  0  0  0  0  0  0  0  # atno 8008 bound_to 7997
  154.4013  140.1313  156.4360 H   0  0  0  0  0  0  0  0  0  0  0  0  # atno 8009 bound_to 7997
  155.7551  140.3464  155.5172 H   0  0  0  0  0  0  0  0  0  0  0  0  # atno 8010 bound_to 7997
  140.0800  143.4796  152.1931 H   0  0  0  0  0  0  0  0  0  0  0  0  # atno 10167 bound_to 10162
  157.6619  130.9709  150.1303 H   0  0  0  0  0  0  0  0  0  0  0  0  # atno 10718 bound_to 10713
  154.4324  135.5960  153.6077 H   0  0  0  0  0  0  0  0  0  0  0  0  # atno 10763 bound_to 10752
  152.9800  135.5978  154.3823 H   0  0  0  0  0  0  0  0  0  0  0  0  # atno 10764 bound_to 10752
  154.3662  135.2841  155.2270 H   0  0  0  0  0  0  0  0  0  0  0  0  # atno 10765 bound_to 10752
  140.7439  134.3483  157.5141 H   0  0  0  0  0  0  0  0  0  0  0  0  # atno 11005 bound_to 11000
  144.9669  139.3921  143.6328 LP  0  0  0  0  0  0  0  0  0  0  0  0  # atno 17320 bound_to 7965
  146.3351  139.8748  142.8834 LP  0  0  0  0  0  0  0  0  0  0  0  0  # atno 17321 bound_to 7965
  139.5785  144.7499  151.3702 LP  0  0  0  0  0  0  0  0  0  0  0  0  # atno 17342 bound_to 10162
  140.7082  143.7458  150.7520 LP  0  0  0  0  0  0  0  0  0  0  0  0  # atno 17343 bound_to 10162
  156.2151  130.3669  149.8623 LP  0  0  0  0  0  0  0  0  0  0  0  0  # atno 17370 bound_to 10713
  156.6491  130.8736  151.3528 LP  0  0  0  0  0  0  0  0  0  0  0  0  # atno 17371 bound_to 10713
  139.8800  134.9098  156.3000 LP  0  0  0  0  0  0  0  0  0  0  0  0  # atno 17394 bound_to 11000
  140.9812  133.7266  156.0675 LP  0  0  0  0  0  0  0  0  0  0  0  0  # atno 17395 bound_to 11000

$$$$
