AV-unprocessed.smi:1885|AV-procd|sdf|7653|dock6
  -GOLD-   22720 9383D 1   1.00000     0.00000
 Structure written by MMmdl.
 44 46  0  0  0  0  0  0  0  0  2 V2000
  159.8285  135.2196  151.2813 C   0  0  0  0  0  0  0  0  0  0  0  0
  159.7554  135.7470  152.5980 O   0  0  0  0  0  0  0  0  0  0  0  0
  158.6117  136.4247  152.9630 C   0  0  0  0  0  0  0  0  0  0  0  0
  157.4983  136.6262  152.1089 C   0  0  0  0  0  0  0  0  0  0  0  0
  156.3676  137.3315  152.5651 C   0  0  0  0  0  0  0  0  0  0  0  0
  156.3307  137.8514  153.8744 C   0  0  0  0  0  0  0  0  0  0  0  0
  155.0960  138.5887  154.3598 C   0  0  0  0  0  0  0  0  0  0  0  0
  153.9119  137.8201  154.2127 O   0  0  0  0  0  0  0  0  0  0  0  0
  153.0804  137.8675  155.3604 C   0  0  0  0  0  0  0  0  0  0  0  0
  152.3636  139.2294  155.4090 C   0  0  1  0  0  0  0  0  0  0  0  0
  151.3593  139.2436  154.4159 O   0  0  0  0  0  0  0  0  0  0  0  0
  151.6725  139.5260  156.7552 C   0  0  0  0  0  0  0  0  0  0  0  0
  151.2485  140.9276  156.8871 N   0  0  0  0  0  0  0  0  0  0  0  0
  150.4768  141.6763  156.0528 C   0  0  0  0  0  0  0  0  0  0  0  0
  150.3550  142.9150  156.6047 N   0  3  0  0  0  0  0  0  0  0  0  0
  151.0585  142.9599  157.8101 C   0  0  0  0  0  0  0  0  0  0  0  0
  151.2305  143.9935  158.7252 C   0  0  0  0  0  0  0  0  0  0  0  0
  152.0161  143.7117  159.8619 C   0  0  0  0  0  0  0  0  0  0  0  0
  152.2173  144.6830  160.7836 F   0  0  0  0  0  0  0  0  0  0  0  0
  152.5970  142.4405  160.0550 C   0  0  0  0  0  0  0  0  0  0  0  0
  153.3476  142.2125  161.1587 F   0  0  0  0  0  0  0  0  0  0  0  0
  152.4143  141.3998  159.1207 C   0  0  0  0  0  0  0  0  0  0  0  0
  151.6351  141.6858  157.9998 C   0  0  0  0  0  0  0  0  0  0  0  0
  157.4319  137.6461  154.7308 C   0  0  0  0  0  0  0  0  0  0  0  0
  158.5621  136.9411  154.2740 C   0  0  0  0  0  0  0  0  0  0  0  0
  160.7875  134.7195  151.1469 H   0  0  0  0  0  0  0  0  0  0  0  0
  159.7606  136.0087  150.5309 H   0  0  0  0  0  0  0  0  0  0  0  0
  159.0448  134.4822  151.1027 H   0  0  0  0  0  0  0  0  0  0  0  0
  157.4861  136.2474  151.0983 H   0  0  0  0  0  0  0  0  0  0  0  0
  155.5260  137.4717  151.9027 H   0  0  0  0  0  0  0  0  0  0  0  0
  155.2287  138.8554  155.4096 H   0  0  0  0  0  0  0  0  0  0  0  0
  155.0099  139.5180  153.7950 H   0  0  0  0  0  0  0  0  0  0  0  0
  152.3631  137.0449  155.3687 H   0  0  0  0  0  0  0  0  0  0  0  0
  153.7201  137.7460  156.2343 H   0  0  0  0  0  0  0  0  0  0  0  0
  153.0755  140.0275  155.1936 H   0  0  0  0  0  0  0  0  0  0  0  0
  150.6324  138.7173  154.7120 H   0  0  0  0  0  0  0  0  0  0  0  0
  150.7714  138.9182  156.8489 H   0  0  0  0  0  0  0  0  0  0  0  0
  152.3098  139.2531  157.5961 H   0  0  0  0  0  0  0  0  0  0  0  0
  150.0397  141.3467  155.1209 H   0  0  0  0  0  0  0  0  0  0  0  0
  150.7893  144.9686  158.5805 H   0  0  0  0  0  0  0  0  0  0  0  0
  152.8700  140.4344  159.2810 H   0  0  0  0  0  0  0  0  0  0  0  0
  157.4169  138.0266  155.7414 H   0  0  0  0  0  0  0  0  0  0  0  0
  159.4003  136.7932  154.9391 H   0  0  0  0  0  0  0  0  0  0  0  0
  149.8291  143.6719  156.1865 H   0  0  0  0  0  0  0  0  0  0  0  0
  1  2  1  0  0  0  0
  1 26  1  0  0  0  0
  1 27  1  0  0  0  0
  1 28  1  0  0  0  0
  2  3  1  0  0  0  0
  3 25  1  0  0  0  0
  3  4  2  0  0  0  0
  4  5  1  0  0  0  0
  4 29  1  0  0  0  0
  5  6  2  0  0  0  0
  5 30  1  0  0  0  0
  6  7  1  0  0  0  0
  6 24  1  0  0  0  0
  7  8  1  0  0  0  0
  7 31  1  0  0  0  0
  7 32  1  0  0  0  0
  8  9  1  0  0  0  0
  9 10  1  0  0  0  0
  9 33  1  0  0  0  0
  9 34  1  0  0  0  0
 10 11  1  0  0  0  0
 10 12  1  0  0  0  0
 10 35  1  0  0  0  0
 11 36  1  0  0  0  0
 12 13  1  0  0  0  0
 12 37  1  0  0  0  0
 12 38  1  0  0  0  0
 13 23  1  0  0  0  0
 13 14  1  0  0  0  0
 14 15  2  0  0  0  0
 14 39  1  0  0  0  0
 15 16  1  0  0  0  0
 15 44  1  0  0  0  0
 16 23  2  0  0  0  0
 16 17  1  0  0  0  0
 17 18  2  0  0  0  0
 17 40  1  0  0  0  0
 18 19  1  0  0  0  0
 18 20  1  0  0  0  0
 20 21  1  0  0  0  0
 20 22  2  0  0  0  0
 22 23  1  0  0  0  0
 22 41  1  0  0  0  0
 24 25  2  0  0  0  0
 24 42  1  0  0  0  0
 25 43  1  0  0  0  0
M  CHG  1  15   1
M  END
> <s_m_source_file>
AV-unprocessed.smi

> <i_m_source_file_index>
1885

> <i_lp_mmshare_version>
43012

> <i_f3d_flags>
0

> <s_epik_input>
W0NIM11PYzFbY0hdW2NIXWMoW2NIXVtjSF0xKVtDSDJdT1tDSDJdW0NASF0oW09IXSlbQ0gyXW4oW2NIXW4yKWMoYzIzKVtjSF1jKEYpYyhGKVtjSF0z

> <s_epik_cmdline>
J2VwaWtfcHl0aG9uJywgJy1waCcsICc3LjAnLCAnLXRuJywgJzgnLCAnLW1hJywgJzIwMCcsICctbWV0YWxfYmluZGluZycsICctaW1hZScsICc8aW5maWxlLm1hZT4nLCAnLW9tYWUnLCAnPG91dGZpbGUubWFlPic=

> <r_lp_tautomer_probability>
1

> <r_epik_Ionization_Penalty>
2.14697

> <r_epik_Ionization_Penalty_Charging>
2.14697

> <r_epik_Ionization_Penalty_Neutral>
9.74819e-07

> <r_epik_State_Penalty>
2.28651

> <r_epik_Charging_Adjusted_Penalty>
4.43348

> <i_epik_Tot_Q>
1

> <i_epik_Tot_abs_Q>
1

> <r_epik_Metal_State_Penalty>
6.36664

> <b_epik_Metal_Only>
0

> <s_lp_Force_Field>
OPLS_2005

> <r_lp_Energy>
25.0693

> <b_lp_Chiralities_Consistent>
1

> <s_lp_Variant>
AV-unprocessed.smi:1885-4

> <Gold.Version>
5.8.1

> <Gold.Id.Protein>
6NUR|6NUR_protein|mol2

> <Gold.PLP.Fitness>
62.0611

> <Gold.PLP.PLP>
-53.9729

> <Gold.PLP.part.hbond>
-3.0000

> <Gold.PLP.part.metal>
0.0000

> <Gold.PLP.part.buried>
-1.0474

> <Gold.PLP.part.nonpolar>
-51.5827

> <Gold.PLP.part.repulsive>
0.8508

> <Gold.PLP.ligand.clash>
0.0000

> <Gold.PLP.ligand.torsion>
0.6001

> <Gold.PLP.Chemscore.Hbond>
3.0304

> <Gold.PLP.Chemscore.CHOScore>
0.0000

> <Gold.PLP.Chemscore.Metal>
0.0000

> <Gold.Chemscore.Hbonds>
donor molecule, donor type, donor heavy atom, donor atom, acceptor molecule, acceptor atom, score
      L1  H    15    44       P1  8028  1.85
      P1  H  7989  7998       L1    11  1.00
      P1  H 10752 10764       L1     8  0.03

> <Gold.PLP.Chemscore.Internal.Correction>
0.1971

> <Gold.Rescore>
     Score         DG    S(hbond)    S(metal)    S(lipo)     H(rot)  DE(clash)    DE(int)     intcor
     20.33     -22.96       1.88        0.00     161.88       3.03       1.90       0.73       ----

> <Gold.Chemscore.Fitness>
20.3330

> <Gold.Chemscore.DG>
-22.9631

> <Gold.Chemscore.ZeroCoef>
-5.4800

> <Gold.Chemscore.Hbond>
1.8846

> <Gold.Chemscore.Metal>
0.0000

> <Gold.Chemscore.Lipo>
161.8781

> <Gold.Chemscore.Internal_Hbond>
0.0000

> <Gold.Chemscore.DEClash>
1.8962

> <Gold.Chemscore.DEInternal>
0.7338

> <Gold.Chemscore.Rot>
3.0278

> <Gold.Chemscore.Internal.Correction>
   9.000000E+99

> <Gold.Chemscore.Hbonds>
donor molecule, donor type, donor heavy atom, donor atom, acceptor molecule, acceptor atom, score
      L1  H    15    44       P1  8028  0.89
      P1  H  7989  7998       L1    11  0.45
      P1  H 10752 10764       L1     8  0.02

> <Gold.Chemscore.Hbond.Weighted>
-6.2945

> <Gold.Chemscore.Metal.Weighted>
-0.0000

> <Gold.Chemscore.Lipo.Weighted>
-18.9397

> <Gold.Chemscore.Internal_Hbond.Weighted>
0.0000

> <Gold.Chemscore.DEClash.Weighted>
1.8962

> <Gold.Chemscore.DEInternal.Weighted>
0.7338

> <Gold.Chemscore.Rot.Weighted>
7.7512

> <Gold.Chemscore.Internal.Correction.Weighted>
   9.000000E+99

> <Gold.Protein.RotatedTorsions>
[ 6907 6896 6895 6894 ] final  174.79 input  -60.11 | X-H torsion
[ 7974 7965 7964 7962 ] final -150.67 input  175.53 | X-H torsion
[ 8008 7997 7996 7995 ] final   66.75 input   59.86 | X-H torsion
[ 10167 10162 10161 10158 ] final  -61.20 input  -65.29 | X-H torsion
[ 10718 10713 10712 10709 ] final  173.38 input   66.30 | X-H torsion
[ 10763 10752 10751 10750 ] final -143.44 input  -60.55 | X-H torsion
[ 11005 11000 10999 10996 ] final  -19.59 input  -57.11 | X-H torsion

> <Gold.Protein.ActiveResidues>
 VAL166  LYS551  ARG553  GLY616  TRP617  ASP618  TYR619  PRO620  LYS621  CYS622 
 ASP623  PHE694  ASN695  SER759  ASP760  ASP761  ALA762  ILE779  LEU786  VAL792 
 PHE793  MET794  SER795  GLU796  ALA797  LYS798  CYS799  TRP800  GLU811  SER814 

> <Gold.Protein.RotatedAtoms>
  151.7467  133.3325  159.3380 H   0  0  0  0  0  0  0  0  0  0  0  0  # atno 6907 bound_to 6896
  150.7552  134.6229  159.6155 H   0  0  0  0  0  0  0  0  0  0  0  0  # atno 6908 bound_to 6896
  152.3495  134.7027  160.0292 H   0  0  0  0  0  0  0  0  0  0  0  0  # atno 6909 bound_to 6896
  144.7894  140.4901  143.5783 H   0  0  0  0  0  0  0  0  0  0  0  0  # atno 7974 bound_to 7965
  155.6822  140.3496  155.4860 H   0  0  0  0  0  0  0  0  0  0  0  0  # atno 8008 bound_to 7997
  155.9597  140.1135  157.0929 H   0  0  0  0  0  0  0  0  0  0  0  0  # atno 8009 bound_to 7997
  154.4140  140.1178  156.5149 H   0  0  0  0  0  0  0  0  0  0  0  0  # atno 8010 bound_to 7997
  140.6022  143.2364  151.5903 H   0  0  0  0  0  0  0  0  0  0  0  0  # atno 10167 bound_to 10162
  156.9651  131.0073  151.2918 H   0  0  0  0  0  0  0  0  0  0  0  0  # atno 10718 bound_to 10713
  154.8470  135.3468  154.6188 H   0  0  0  0  0  0  0  0  0  0  0  0  # atno 10763 bound_to 10752
  153.6796  135.6981  153.5126 H   0  0  0  0  0  0  0  0  0  0  0  0  # atno 10764 bound_to 10752
  153.2678  135.4302  155.0914 H   0  0  0  0  0  0  0  0  0  0  0  0  # atno 10765 bound_to 10752
  140.8381  133.7946  155.9831 H   0  0  0  0  0  0  0  0  0  0  0  0  # atno 11005 bound_to 11000
  145.5834  139.1490  143.3222 LP  0  0  0  0  0  0  0  0  0  0  0  0  # atno 17320 bound_to 7965
  146.2140  140.5963  142.9047 LP  0  0  0  0  0  0  0  0  0  0  0  0  # atno 17321 bound_to 7965
  139.5299  144.2947  152.1123 LP  0  0  0  0  0  0  0  0  0  0  0  0  # atno 17342 bound_to 10162
  140.2130  144.4543  150.6377 LP  0  0  0  0  0  0  0  0  0  0  0  0  # atno 17343 bound_to 10162
  157.5631  130.8259  149.8292 LP  0  0  0  0  0  0  0  0  0  0  0  0  # atno 17370 bound_to 10713
  156.0306  130.3766  150.1699 LP  0  0  0  0  0  0  0  0  0  0  0  0  # atno 17371 bound_to 10713
  140.8925  134.2478  157.5087 LP  0  0  0  0  0  0  0  0  0  0  0  0  # atno 17394 bound_to 11000
  139.8703  134.9668  156.4575 LP  0  0  0  0  0  0  0  0  0  0  0  0  # atno 17395 bound_to 11000

$$$$
