AV-unprocessed.smi:633|AV-procd|sdf|3130|dock7
  -GOLD-   22720 0 53D 1   1.00000     0.00000
 Structure written by MMmdl.
 53 56  0  0  0  0  0  0  0  0  1 V2000
  153.3454  141.7693  160.4638 C   0  0  0  0  0  0  0  0  0  0  0  0
  152.2999  142.3006  159.4776 C   0  0  2  0  0  0  0  0  0  0  0  0
  152.0202  141.2986  158.3433 C   0  0  0  0  0  0  0  0  0  0  0  0
  151.1186  141.8863  157.3567 N   0  0  0  0  0  0  0  0  0  0  0  0
  150.5207  141.0281  156.4094 C   0  0  0  0  0  0  0  0  0  0  0  0
  151.3265  140.1825  155.6115 C   0  0  0  0  0  0  0  0  0  0  0  0
  150.7136  139.3294  154.6739 C   0  0  0  0  0  0  0  0  0  0  0  0
  149.3049  139.3473  154.5499 C   0  0  0  0  0  0  0  0  0  0  0  0
  148.5666  138.5192  153.6616 N   0  0  0  0  0  0  0  0  0  0  0  0
  147.2346  138.4421  153.4998 C   0  0  0  0  0  0  0  0  0  0  0  0
  146.4029  139.0716  154.1528 O   0  0  0  0  0  0  0  0  0  0  0  0
  146.9173  137.5640  152.5358 N   0  0  0  0  0  0  0  0  0  0  0  0
  145.5731  137.2069  152.0855 C   0  0  0  0  0  0  0  0  0  0  0  0
  144.6746  136.6745  153.1924 C   0  0  0  0  0  0  0  0  0  0  0  0
  143.1718  136.6612  153.0432 C   0  0  0  0  0  0  0  0  0  0  0  0
  143.8274  137.6051  154.0263 C   0  0  0  0  0  0  0  0  0  0  0  0
  145.5561  136.2805  150.8784 C   0  0  0  0  0  0  0  0  0  0  0  0
  144.3472  135.4333  150.5618 C   0  0  0  0  0  0  0  0  0  0  0  0
  145.6243  134.7807  151.0417 C   0  0  0  0  0  0  0  0  0  0  0  0
  148.5869  140.2176  155.3938 C   0  0  0  0  0  0  0  0  0  0  0  0
  149.1704  141.0389  156.2915 N   0  0  0  0  0  0  0  0  0  0  0  0
  151.5933  143.1639  156.8334 C   0  0  0  0  0  0  0  0  0  0  0  0
  151.9227  144.1434  157.9773 C   0  0  1  0  0  0  0  0  0  0  0  0
  150.6738  144.7507  158.6409 C   0  0  0  0  0  0  0  0  0  0  0  0
  152.7919  143.5218  158.9269 O   0  0  0  0  0  0  0  0  0  0  0  0
  153.0119  140.8402  160.9266 H   0  0  0  0  0  0  0  0  0  0  0  0
  153.5303  142.4897  161.2608 H   0  0  0  0  0  0  0  0  0  0  0  0
  154.2949  141.5732  159.9649 H   0  0  0  0  0  0  0  0  0  0  0  0
  151.3808  142.4914  160.0319 H   0  0  0  0  0  0  0  0  0  0  0  0
  152.9519  141.0130  157.8527 H   0  0  0  0  0  0  0  0  0  0  0  0
  151.5806  140.3923  158.7622 H   0  0  0  0  0  0  0  0  0  0  0  0
  152.4027  140.1853  155.7016 H   0  0  0  0  0  0  0  0  0  0  0  0
  151.3343  138.6745  154.0827 H   0  0  0  0  0  0  0  0  0  0  0  0
  149.1180  137.8754  153.1133 H   0  0  0  0  0  0  0  0  0  0  0  0
  147.6788  137.0973  152.0655 H   0  0  0  0  0  0  0  0  0  0  0  0
  145.1388  138.1527  151.7589 H   0  0  0  0  0  0  0  0  0  0  0  0
  145.0929  135.8201  153.7214 H   0  0  0  0  0  0  0  0  0  0  0  0
  142.7436  137.0970  152.1430 H   0  0  0  0  0  0  0  0  0  0  0  0
  142.6355  135.8051  153.4473 H   0  0  0  0  0  0  0  0  0  0  0  0
  143.7284  137.3783  155.0859 H   0  0  0  0  0  0  0  0  0  0  0  0
  143.8383  138.6640  153.7750 H   0  0  0  0  0  0  0  0  0  0  0  0
  146.0910  136.6759  150.0169 H   0  0  0  0  0  0  0  0  0  0  0  0
  143.5087  135.4673  151.2546 H   0  0  0  0  0  0  0  0  0  0  0  0
  144.0815  135.3105  149.5139 H   0  0  0  0  0  0  0  0  0  0  0  0
  146.2092  134.2225  150.3137 H   0  0  0  0  0  0  0  0  0  0  0  0
  145.6292  134.3762  152.0517 H   0  0  0  0  0  0  0  0  0  0  0  0
  147.5086  140.2615  155.3464 H   0  0  0  0  0  0  0  0  0  0  0  0
  152.4921  142.9758  156.2447 H   0  0  0  0  0  0  0  0  0  0  0  0
  150.8715  143.6237  156.1593 H   0  0  0  0  0  0  0  0  0  0  0  0
  152.4859  144.9734  157.5497 H   0  0  0  0  0  0  0  0  0  0  0  0
  150.1001  145.3341  157.9205 H   0  0  0  0  0  0  0  0  0  0  0  0
  150.9520  145.4173  159.4574 H   0  0  0  0  0  0  0  0  0  0  0  0
  150.0063  143.9887  159.0422 H   0  0  0  0  0  0  0  0  0  0  0  0
  1  2  1  0  0  0  0
  1 26  1  0  0  0  0
  1 27  1  0  0  0  0
  1 28  1  0  0  0  0
  2 25  1  0  0  0  0
  2  3  1  0  0  0  0
  2 29  1  0  0  0  0
  3  4  1  0  0  0  0
  3 30  1  0  0  0  0
  3 31  1  0  0  0  0
  4  5  1  0  0  0  0
  4 22  1  0  0  0  0
  5 21  1  0  0  0  0
  5  6  2  0  0  0  0
  6  7  1  0  0  0  0
  6 32  1  0  0  0  0
  7  8  2  0  0  0  0
  7 33  1  0  0  0  0
  8  9  1  0  0  0  0
  8 20  1  0  0  0  0
  9 10  1  0  0  0  0
  9 34  1  0  0  0  0
 10 11  2  0  0  0  0
 10 12  1  0  0  0  0
 12 13  1  0  0  0  0
 12 35  1  0  0  0  0
 13 14  1  0  0  0  0
 13 17  1  0  0  0  0
 13 36  1  0  0  0  0
 14 16  1  0  0  0  0
 14 15  1  0  0  0  0
 14 37  1  0  0  0  0
 15 16  1  0  0  0  0
 15 38  1  0  0  0  0
 15 39  1  0  0  0  0
 16 40  1  0  0  0  0
 16 41  1  0  0  0  0
 17 19  1  0  0  0  0
 17 18  1  0  0  0  0
 17 42  1  0  0  0  0
 18 19  1  0  0  0  0
 18 43  1  0  0  0  0
 18 44  1  0  0  0  0
 19 45  1  0  0  0  0
 19 46  1  0  0  0  0
 20 21  2  0  0  0  0
 20 47  1  0  0  0  0
 22 23  1  0  0  0  0
 22 48  1  0  0  0  0
 22 49  1  0  0  0  0
 23 24  1  0  0  0  0
 23 25  1  0  0  0  0
 23 50  1  0  0  0  0
 24 51  1  0  0  0  0
 24 52  1  0  0  0  0
 24 53  1  0  0  0  0
M  END
> <s_m_source_file>
AV-unprocessed.smi

> <i_m_source_file_index>
633

> <i_lp_mmshare_version>
43012

> <i_f3d_flags>
0

> <s_epik_input>
W0NIM11bQ0BASF0xW0NIMl1OKFtDSDJdW0NASF0oTzEpW0NIM10pYzJbY0hdW2NIXWMoW2NIXW4yKVtOSF1DKD1PKVtOSF1bQ0hdKFtDSF0zW0NIMl1bQ0gyXTMpW0NIXTRbQ0gyXVtDSDJdNA==

> <s_epik_cmdline>
J2VwaWtfcHl0aG9uJywgJy1waCcsICc3LjAnLCAnLXRuJywgJzgnLCAnLW1hJywgJzIwMCcsICctbWV0YWxfYmluZGluZycsICctaW1hZScsICc8aW5maWxlLm1hZT4nLCAnLW9tYWUnLCAnPG91dGZpbGUubWFlPic=

> <r_lp_tautomer_probability>
1

> <r_epik_Ionization_Penalty>
0.00291159

> <r_epik_Ionization_Penalty_Charging>
0

> <r_epik_Ionization_Penalty_Neutral>
0.00291159

> <r_epik_State_Penalty>
0.00200877

> <r_epik_Charging_Adjusted_Penalty>
0.00200877

> <i_epik_Tot_Q>
0

> <i_epik_Tot_abs_Q>
0

> <r_epik_Metal_State_Penalty>
-0

> <b_epik_Metal_Only>
0

> <s_lp_Force_Field>
OPLS_2005

> <r_lp_Energy>
43.7528

> <b_lp_Chiralities_Consistent>
1

> <s_lp_Variant>
AV-unprocessed.smi:633-1

> <Gold.Version>
5.8.1

> <Gold.Id.Protein>
6NUR|6NUR_protein|mol2

> <Gold.PLP.Fitness>
50.3291

> <Gold.PLP.PLP>
-45.1968

> <Gold.PLP.part.hbond>
-2.6293

> <Gold.PLP.part.metal>
0.0000

> <Gold.PLP.part.buried>
-4.2596

> <Gold.PLP.part.nonpolar>
-39.3639

> <Gold.PLP.part.repulsive>
0.3345

> <Gold.PLP.ligand.clash>
0.0000

> <Gold.PLP.ligand.torsion>
1.4883

> <Gold.PLP.Chemscore.Hbond>
1.8636

> <Gold.PLP.Chemscore.CHOScore>
0.0000

> <Gold.PLP.Chemscore.Metal>
0.0000

> <Gold.Chemscore.Hbonds>
donor molecule, donor type, donor heavy atom, donor atom, acceptor molecule, acceptor atom, score
      L1  H     9    34       P1  7948  0.83
      L1  H    12    35       P1  7948  1.00

> <Gold.PLP.Chemscore.Internal.Correction>
2.5182

> <Gold.Rescore>
     Score         DG    S(hbond)    S(metal)    S(lipo)     H(rot)  DE(clash)    DE(int)     intcor
     16.44     -22.07       1.77        0.00     121.80       1.40       1.45       4.18       ----

> <Gold.Chemscore.Fitness>
16.4384

> <Gold.Chemscore.DG>
-22.0659

> <Gold.Chemscore.ZeroCoef>
-5.4800

> <Gold.Chemscore.Hbond>
1.7739

> <Gold.Chemscore.Metal>
0.0000

> <Gold.Chemscore.Lipo>
121.8006

> <Gold.Chemscore.Internal_Hbond>
0.0000

> <Gold.Chemscore.DEClash>
1.4464

> <Gold.Chemscore.DEInternal>
4.1811

> <Gold.Chemscore.Rot>
1.4022

> <Gold.Chemscore.Internal.Correction>
   9.000000E+99

> <Gold.Chemscore.Hbonds>
donor molecule, donor type, donor heavy atom, donor atom, acceptor molecule, acceptor atom, score
      L1  H     9    34       P1  7948  0.79
      L1  H    12    35       P1  7948  0.93

> <Gold.Chemscore.Hbond.Weighted>
-5.9249

> <Gold.Chemscore.Metal.Weighted>
-0.0000

> <Gold.Chemscore.Lipo.Weighted>
-14.2507

> <Gold.Chemscore.Internal_Hbond.Weighted>
0.0000

> <Gold.Chemscore.DEClash.Weighted>
1.4464

> <Gold.Chemscore.DEInternal.Weighted>
4.1811

> <Gold.Chemscore.Rot.Weighted>
3.5897

> <Gold.Chemscore.Internal.Correction.Weighted>
   9.000000E+99

> <Gold.Protein.RotatedTorsions>
[ 6907 6896 6895 6894 ] final   78.72 input  -60.11 | X-H torsion
[ 7974 7965 7964 7962 ] final   21.93 input  175.53 | X-H torsion
[ 8008 7997 7996 7995 ] final  173.41 input   59.86 | X-H torsion
[ 10167 10162 10161 10158 ] final  107.19 input  -65.29 | X-H torsion
[ 10718 10713 10712 10709 ] final   47.91 input   66.30 | X-H torsion
[ 10763 10752 10751 10750 ] final  -44.51 input  -60.55 | X-H torsion
[ 11005 11000 10999 10996 ] final  -36.86 input  -57.11 | X-H torsion

> <Gold.Protein.ActiveResidues>
 VAL166  LYS551  ARG553  GLY616  TRP617  ASP618  TYR619  PRO620  LYS621  CYS622 
 ASP623  PHE694  ASN695  SER759  ASP760  ASP761  ALA762  ILE779  LEU786  VAL792 
 PHE793  MET794  SER795  GLU796  ALA797  LYS798  CYS799  TRP800  GLU811  SER814 

> <Gold.Protein.RotatedAtoms>
  152.5170  134.3621  159.9288 H   0  0  0  0  0  0  0  0  0  0  0  0  # atno 6907 bound_to 6896
  151.3574  133.3896  159.2694 H   0  0  0  0  0  0  0  0  0  0  0  0  # atno 6908 bound_to 6896
  150.9679  134.9075  159.7828 H   0  0  0  0  0  0  0  0  0  0  0  0  # atno 6909 bound_to 6896
  146.2050  139.7956  142.8732 H   0  0  0  0  0  0  0  0  0  0  0  0  # atno 7974 bound_to 7965
  156.1078  140.1461  156.9380 H   0  0  0  0  0  0  0  0  0  0  0  0  # atno 8008 bound_to 7997
  154.4746  140.0899  156.7273 H   0  0  0  0  0  0  0  0  0  0  0  0  # atno 8009 bound_to 7997
  155.4649  140.3439  155.4320 H   0  0  0  0  0  0  0  0  0  0  0  0  # atno 8010 bound_to 7997
  139.6947  144.7103  151.1288 H   0  0  0  0  0  0  0  0  0  0  0  0  # atno 10167 bound_to 10162
  157.4633  130.8210  149.7909 H   0  0  0  0  0  0  0  0  0  0  0  0  # atno 10718 bound_to 10713
  154.0133  135.6678  153.4767 H   0  0  0  0  0  0  0  0  0  0  0  0  # atno 10763 bound_to 10752
  153.0611  135.5027  154.8092 H   0  0  0  0  0  0  0  0  0  0  0  0  # atno 10764 bound_to 10752
  154.6982  135.3074  154.9344 H   0  0  0  0  0  0  0  0  0  0  0  0  # atno 10765 bound_to 10752
  140.9908  133.7006  156.1846 H   0  0  0  0  0  0  0  0  0  0  0  0  # atno 11005 bound_to 11000
  145.3350  141.0275  143.3424 LP  0  0  0  0  0  0  0  0  0  0  0  0  # atno 17320 bound_to 7965
  144.8772  139.4955  143.6740 LP  0  0  0  0  0  0  0  0  0  0  0  0  # atno 17321 bound_to 7965
  140.7693  143.5509  150.9206 LP  0  0  0  0  0  0  0  0  0  0  0  0  # atno 17342 bound_to 10162
  139.9188  143.6631  152.3101 LP  0  0  0  0  0  0  0  0  0  0  0  0  # atno 17343 bound_to 10162
  156.0038  130.3866  150.2504 LP  0  0  0  0  0  0  0  0  0  0  0  0  # atno 17370 bound_to 10713
  157.0683  131.0109  151.3199 LP  0  0  0  0  0  0  0  0  0  0  0  0  # atno 17371 bound_to 10713
  140.7043  134.4530  157.5585 LP  0  0  0  0  0  0  0  0  0  0  0  0  # atno 17394 bound_to 11000
  139.8991  134.8598  156.1973 LP  0  0  0  0  0  0  0  0  0  0  0  0  # atno 17395 bound_to 11000

$$$$
