#       Name:                AV-unprocessed.smi:2270
#       Creating user name   scv26
#       Creation time:       Fri Mar 27 12:36:30 2020


#       File generated by GOLD software.
#

@<TRIPOS>MOLECULE
AV-unprocessed.smi:2270
    57    58     1
SMALL
NO_CHARGES


@<TRIPOS>ATOM
      1 ****        -4.9652   5.4739   0.4671 C.3            1 S1                 0.0000
      2 ****        -4.7055   4.3139  -0.4712 C.ar           1 S1                 0.0000
      3 ****        -5.5581   4.0617  -1.5636 C.ar           1 S1                 0.0000
      4 ****        -5.2571   2.9733  -2.4013 C.ar           1 S1                 0.0000
      5 ****        -4.1291   2.1827  -2.1107 C.ar           1 S1                 0.0000
      6 ****        -3.3328   2.4962  -0.9797 C.ar           1 S1                 0.0000
      7 ****        -2.1725   1.7339  -0.6849 N.am           1 S1                 0.0000
      8 ****        -1.9893   0.4113  -0.8400 C.2            1 S1                 0.0000
      9 ****        -2.8299  -0.3783  -1.2714 O.2            1 S1                 0.0000
     10 ****        -0.7641   0.0420  -0.4460 N.am           1 S1                 0.0000
     11 ****        -0.2508  -1.3229  -0.4931 C.3            1 S1                 0.0000
     12 ****         1.2960  -1.3895  -0.3381 C.3            1 S1                 0.0000
     13 ****         2.0644  -0.9824  -1.6395 C.3            1 S1                 0.0000
     14 ****         1.9402   0.5043  -2.0243 C.3            1 S1                 0.0000
     15 ****         1.7210  -1.8796  -2.8418 C.3            1 S1                 0.0000
     16 ****         1.7555  -0.6497   0.8644 N.3            1 S1                 0.0000
     17 ****         1.1206  -1.0540   2.1291 C.3            1 S1                 0.0000
     18 ****         1.5609  -2.4665   2.5715 C.3            1 S1                 0.0000
     19 ****         3.0325  -2.5203   2.7356 N.4            1 S1                 1.0000
     20 ****         3.5108  -3.8431   3.1898 C.3            1 S1                 0.0000
     21 ****         3.7175  -2.0513   1.5084 C.3            1 S1                 0.0000
     22 ****         3.2046  -0.6498   1.1157 C.3            1 S1                 0.0000
     23 ****        -3.6206   3.5588  -0.1930 N.ar           1 S1                 0.0000
     24 ****        -5.8933   5.9873   0.2141 H              1 S1                 0.0000
     25 ****        -4.1502   6.1960   0.4106 H              1 S1                 0.0000
     26 ****        -5.0424   5.1212   1.4960 H              1 S1                 0.0000
     27 ****        -6.4166   4.6867  -1.7607 H              1 S1                 0.0000
     28 ****        -5.8775   2.7508  -3.2570 H              1 S1                 0.0000
     29 ****        -3.8847   1.3589  -2.7644 H              1 S1                 0.0000
     30 ****        -1.4342   2.2351  -0.2133 H              1 S1                 0.0000
     31 ****        -0.1356   0.7522  -0.0995 H              1 S1                 0.0000
     32 ****        -0.7395  -1.9043   0.2886 H              1 S1                 0.0000
     33 ****        -0.5641  -1.8017  -1.4199 H              1 S1                 0.0000
     34 ****         1.5314  -2.4414  -0.1832 H              1 S1                 0.0000
     35 ****         3.1221  -1.1788  -1.4750 H              1 S1                 0.0000
     36 ****         0.9362   0.7530  -2.3667 H              1 S1                 0.0000
     37 ****         2.6240   0.7494  -2.8373 H              1 S1                 0.0000
     38 ****         2.1831   1.1607  -1.1890 H              1 S1                 0.0000
     39 ****         0.7198  -1.6868  -3.2264 H              1 S1                 0.0000
     40 ****         1.7852  -2.9360  -2.5792 H              1 S1                 0.0000
     41 ****         2.4158  -1.7061  -3.6641 H              1 S1                 0.0000
     42 ****         1.3988  -0.3348   2.9009 H              1 S1                 0.0000
     43 ****         0.0354  -0.9922   2.0696 H              1 S1                 0.0000
     44 ****         1.0888  -2.7088   3.5242 H              1 S1                 0.0000
     45 ****         1.2302  -3.2249   1.8611 H              1 S1                 0.0000
     46 ****         3.3006  -4.6129   2.4461 H              1 S1                 0.0000
     47 ****         3.0247  -4.1270   4.1239 H              1 S1                 0.0000
     48 ****         4.5866  -3.8222   3.3670 H              1 S1                 0.0000
     49 ****         4.7907  -2.0032   1.6959 H              1 S1                 0.0000
     50 ****         3.5754  -2.7659   0.6968 H              1 S1                 0.0000
     51 ****         3.7599  -0.2546   0.2676 H              1 S1                 0.0000
     52 ****         3.4142   0.0472   1.9287 H              1 S1                 0.0000
     53 ****         3.2641  -1.8600   3.4639 H              1 S1                 0.0000
     54 ****        -3.7350  -0.0481  -1.5392 LP             1 S1                 0.0000
     55 ****        -2.6074  -1.3498  -1.3540 LP             1 S1                 0.0000
     56 ****         1.4646   0.2704   0.6022 LP             1 S1                 0.0000
     57 ****        -3.0359   3.7829   0.5866 LP             1 S1                 0.0000
@<TRIPOS>BOND
    1    1    2 1     
    2    1   24 1     
    3    1   25 1     
    4    1   26 1     
    5    2   23 ar    
    6    2    3 ar    
    7    3    4 ar    
    8    3   27 1     
    9    4    5 ar    
   10    4   28 1     
   11    5    6 ar    
   12    5   29 1     
   13    6    7 1     
   14    6   23 ar    
   15    7    8 am    
   16    7   30 1     
   17    8    9 2     
   18    8   10 am    
   19   10   11 1     
   20   10   31 1     
   21   11   12 1     
   22   11   32 1     
   23   11   33 1     
   24   12   13 1     
   25   12   16 1     
   26   12   34 1     
   27   13   14 1     
   28   13   15 1     
   29   13   35 1     
   30   14   36 1     
   31   14   37 1     
   32   14   38 1     
   33   15   39 1     
   34   15   40 1     
   35   15   41 1     
   36   16   22 1     
   37   16   17 1     
   38   17   18 1     
   39   17   42 1     
   40   17   43 1     
   41   18   19 1     
   42   18   44 1     
   43   18   45 1     
   44   19   20 1     
   45   19   21 1     
   46   19   53 1     
   47   20   46 1     
   48   20   47 1     
   49   20   48 1     
   50   21   22 1     
   51   21   49 1     
   52   21   50 1     
   53   22   51 1     
   54   22   52 1     
   55    9   54 1     
   56    9   55 1     
   57   16   56 1     
   58   23   57 1     
@<TRIPOS>SUBSTRUCTURE
      1 S1             1
@<TRIPOS>SET
LONE_PAIRS      STATIC     ATOMS    <user>   **** ""
4 54 55 56 57
DONOR_HYDROGENS      STATIC     ATOMS    <user>   **** ""
3 30 31 53
ATOM$BLUE        STATIC     ATOMS    COLORGROUP SYSTEM
4 54 55 56 57
ATOM$RED        STATIC     ATOMS    COLORGROUP SYSTEM
3 30 31 53
