AV-unprocessed.smi:2837|AV-procd|sdf|10921|dock1
  -GOLD-   2272015373D 1   1.00000     0.00000
 Structure written by MMmdl.
 32 34  0  0  0  0  0  0  0  0  1 V2000
  146.3467  138.4215  152.4470 F   0  0  0  0  0  0  0  0  0  0  0  0
  147.3922  139.1069  152.9694 C   0  0  0  0  0  0  0  0  0  0  0  0
  147.0807  140.4254  152.9240 F   0  0  0  0  0  0  0  0  0  0  0  0
  147.6043  138.7127  154.2531 O   0  0  0  0  0  0  0  0  0  0  0  0
  148.5480  139.3692  155.0095 C   0  0  0  0  0  0  0  0  0  0  0  0
  148.3798  139.6782  156.3798 C   0  0  0  0  0  0  0  0  0  0  0  0
  149.4164  140.3420  157.0636 C   0  0  0  0  0  0  0  0  0  0  0  0
  150.5939  140.6711  156.3615 C   0  0  0  0  0  0  0  0  0  0  0  0
  151.6189  141.3380  157.0474 N   0  0  0  0  0  0  0  0  0  0  0  0
  151.3927  141.9188  158.3676 C   0  0  1  0  0  0  0  0  0  0  0  0
  152.6889  142.1625  159.1438 C   0  0  0  0  0  0  0  0  0  0  0  0
  152.5653  143.6489  159.5066 C   0  0  1  0  0  0  0  0  0  0  0  0
  152.8186  144.5482  158.2896 C   0  0  0  0  0  0  0  0  0  0  0  0
  151.5430  144.3366  157.4764 C   0  0  0  0  0  0  0  0  0  0  0  0
  150.7725  143.3309  158.3489 C   0  0  2  0  0  0  0  0  0  0  0  0
  151.1593  143.7789  159.6374 O   0  0  0  0  0  0  0  0  0  0  0  0
  150.7646  140.3704  155.0530 N   0  0  0  0  0  0  0  0  0  0  0  0
  149.7677  139.7326  154.4039 C   0  0  0  0  0  0  0  0  0  0  0  0
  148.2624  138.9171  152.3405 H   0  0  0  0  0  0  0  0  0  0  0  0
  147.4779  139.4120  156.9107 H   0  0  0  0  0  0  0  0  0  0  0  0
  149.3065  140.5889  158.1096 H   0  0  0  0  0  0  0  0  0  0  0  0
  152.4528  141.6055  156.5447 H   0  0  0  0  0  0  0  0  0  0  0  0
  150.7602  141.2503  158.9539 H   0  0  0  0  0  0  0  0  0  0  0  0
  152.7113  141.5441  160.0417 H   0  0  0  0  0  0  0  0  0  0  0  0
  153.5934  141.9559  158.5697 H   0  0  0  0  0  0  0  0  0  0  0  0
  153.1301  143.9362  160.3938 H   0  0  0  0  0  0  0  0  0  0  0  0
  152.9122  145.5925  158.5892 H   0  0  0  0  0  0  0  0  0  0  0  0
  153.7200  144.2655  157.7448 H   0  0  0  0  0  0  0  0  0  0  0  0
  150.9888  145.2721  157.3931 H   0  0  0  0  0  0  0  0  0  0  0  0
  151.7347  143.9714  156.4672 H   0  0  0  0  0  0  0  0  0  0  0  0
  149.6952  143.3396  158.1822 H   0  0  0  0  0  0  0  0  0  0  0  0
  149.9474  139.5081  153.3629 H   0  0  0  0  0  0  0  0  0  0  0  0
  1  2  1  0  0  0  0
  2  3  1  0  0  0  0
  2  4  1  0  0  0  0
  2 19  1  0  0  0  0
  4  5  1  0  0  0  0
  5 18  1  0  0  0  0
  5  6  2  0  0  0  0
  6  7  1  0  0  0  0
  6 20  1  0  0  0  0
  7  8  2  0  0  0  0
  7 21  1  0  0  0  0
  8  9  1  0  0  0  0
  8 17  1  0  0  0  0
  9 10  1  0  0  0  0
  9 22  1  0  0  0  0
 10 15  1  0  0  0  0
 10 11  1  0  0  0  0
 10 23  1  0  0  0  0
 11 12  1  0  0  0  0
 11 24  1  0  0  0  0
 11 25  1  0  0  0  0
 12 16  1  0  0  0  0
 12 13  1  0  0  0  0
 12 26  1  0  0  0  0
 13 14  1  0  0  0  0
 13 27  1  0  0  0  0
 13 28  1  0  0  0  0
 14 15  1  0  0  0  0
 14 29  1  0  0  0  0
 14 30  1  0  0  0  0
 15 16  1  0  0  0  0
 15 31  1  0  0  0  0
 17 18  2  0  0  0  0
 18 32  1  0  0  0  0
M  END
> <s_m_source_file>
AV-unprocessed.smi

> <i_m_source_file_index>
2837

> <i_lp_mmshare_version>
43012

> <i_f3d_flags>
0

> <s_epik_input>
RltDSF0oRilPYzFbY0hdW2NIXWMobltjSF0xKVtOSF1bQ0BIXShbQ0gyXVtDQEBIXTIzKVtDQEBIXShPMylbQ0gyXVtDSDJdMg==

> <s_epik_cmdline>
J2VwaWtfcHl0aG9uJywgJy1waCcsICc3LjAnLCAnLXRuJywgJzgnLCAnLW1hJywgJzIwMCcsICctbWV0YWxfYmluZGluZycsICctaW1hZScsICc8aW5maWxlLm1hZT4nLCAnLW9tYWUnLCAnPG91dGZpbGUubWFlPic=

> <r_lp_tautomer_probability>
1

> <r_epik_Ionization_Penalty>
0.0124072

> <r_epik_Ionization_Penalty_Charging>
0

> <r_epik_Ionization_Penalty_Neutral>
0.0124072

> <r_epik_State_Penalty>
0.00959565

> <r_epik_Charging_Adjusted_Penalty>
0.00959565

> <i_epik_Tot_Q>
0

> <i_epik_Tot_abs_Q>
0

> <r_epik_Metal_State_Penalty>
9.67369e-06

> <b_epik_Metal_Only>
0

> <s_lp_Force_Field>
OPLS_2005

> <r_lp_Energy>
39.9144

> <b_lp_Chiralities_Consistent>
1

> <s_lp_Variant>
AV-unprocessed.smi:2837-2

> <Gold.Version>
5.8.1

> <Gold.Id.Protein>
6NUR|6NUR_protein|mol2

> <Gold.PLP.Fitness>
37.7523

> <Gold.PLP.PLP>
-33.7300

> <Gold.PLP.part.hbond>
-1.0000

> <Gold.PLP.part.metal>
0.0000

> <Gold.PLP.part.buried>
0.2080

> <Gold.PLP.part.nonpolar>
-32.5373

> <Gold.PLP.part.repulsive>
0.3640

> <Gold.PLP.ligand.clash>
0.0000

> <Gold.PLP.ligand.torsion>
0.6371

> <Gold.PLP.Chemscore.Hbond>
0.7500

> <Gold.PLP.Chemscore.CHOScore>
1.0000

> <Gold.PLP.Chemscore.Metal>
0.0000

> <Gold.Chemscore.Hbonds>
donor molecule, donor type, donor heavy atom, donor atom, acceptor molecule, acceptor atom, score
      P1  H  7989  7998       L1    17  0.70
      L1  C    18    32       P1  7957  1.00

> <Gold.PLP.Chemscore.Internal.Correction>
0.0466

> <Gold.Rescore>
     Score         DG    S(hbond)    S(metal)    S(lipo)     H(rot)  DE(clash)    DE(int)     intcor
     13.22     -14.02       0.44        0.00      89.36       1.32       0.14       0.66       ----

> <Gold.Chemscore.Fitness>
13.2243

> <Gold.Chemscore.DG>
-14.0229

> <Gold.Chemscore.ZeroCoef>
-5.4800

> <Gold.Chemscore.Hbond>
0.4401

> <Gold.Chemscore.Metal>
0.0000

> <Gold.Chemscore.Lipo>
89.3638

> <Gold.Chemscore.Internal_Hbond>
0.0000

> <Gold.Chemscore.DEClash>
0.1420

> <Gold.Chemscore.DEInternal>
0.6566

> <Gold.Chemscore.Rot>
1.3213

> <Gold.Chemscore.Internal.Correction>
   9.000000E+99

> <Gold.Chemscore.Hbonds>
donor molecule, donor type, donor heavy atom, donor atom, acceptor molecule, acceptor atom, score
      P1  H  7989  7998       L1    17  0.07

> <Gold.Chemscore.Hbond.Weighted>
-1.4699

> <Gold.Chemscore.Metal.Weighted>
-0.0000

> <Gold.Chemscore.Lipo.Weighted>
-10.4556

> <Gold.Chemscore.Internal_Hbond.Weighted>
0.0000

> <Gold.Chemscore.DEClash.Weighted>
0.1420

> <Gold.Chemscore.DEInternal.Weighted>
0.6566

> <Gold.Chemscore.Rot.Weighted>
3.3825

> <Gold.Chemscore.Internal.Correction.Weighted>
   9.000000E+99

> <Gold.Protein.RotatedTorsions>
[ 6907 6896 6895 6894 ] final   -4.57 input  -60.11 | X-H torsion
[ 7974 7965 7964 7962 ] final   79.70 input  175.53 | X-H torsion
[ 8008 7997 7996 7995 ] final -137.39 input   59.86 | X-H torsion
[ 10167 10162 10161 10158 ] final  144.08 input  -65.29 | X-H torsion
[ 10718 10713 10712 10709 ] final   21.38 input   66.30 | X-H torsion
[ 10763 10752 10751 10750 ] final  -36.38 input  -60.55 | X-H torsion
[ 11005 11000 10999 10996 ] final   65.31 input  -57.11 | X-H torsion

> <Gold.Protein.ActiveResidues>
 VAL166  LYS551  ARG553  GLY616  TRP617  ASP618  TYR619  PRO620  LYS621  CYS622 
 ASP623  PHE694  ASN695  SER759  ASP760  ASP761  ALA762  ILE779  LEU786  VAL792 
 PHE793  MET794  SER795  GLU796  ALA797  LYS798  CYS799  TRP800  GLU811  SER814 

> <Gold.Protein.RotatedAtoms>
  151.4955  135.1059  159.9814 H   0  0  0  0  0  0  0  0  0  0  0  0  # atno 6907 bound_to 6896
  152.4723  133.8054  159.6986 H   0  0  0  0  0  0  0  0  0  0  0  0  # atno 6908 bound_to 6896
  150.8740  133.7403  159.2978 H   0  0  0  0  0  0  0  0  0  0  0  0  # atno 6909 bound_to 6896
  145.6608  139.2471  143.1924 H   0  0  0  0  0  0  0  0  0  0  0  0  # atno 7974 bound_to 7965
  155.4110  140.0512  157.3031 H   0  0  0  0  0  0  0  0  0  0  0  0  # atno 8008 bound_to 7997
  154.4946  140.2133  155.9434 H   0  0  0  0  0  0  0  0  0  0  0  0  # atno 8009 bound_to 7997
  156.1388  140.3158  155.8468 H   0  0  0  0  0  0  0  0  0  0  0  0  # atno 8010 bound_to 7997
  139.4955  144.5996  151.6509 H   0  0  0  0  0  0  0  0  0  0  0  0  # atno 10167 bound_to 10162
  157.1376  130.6618  149.5971 H   0  0  0  0  0  0  0  0  0  0  0  0  # atno 10718 bound_to 10713
  153.8788  135.6824  153.4768 H   0  0  0  0  0  0  0  0  0  0  0  0  # atno 10763 bound_to 10752
  153.1246  135.4725  154.9248 H   0  0  0  0  0  0  0  0  0  0  0  0  # atno 10764 bound_to 10752
  154.7679  135.3230  154.8201 H   0  0  0  0  0  0  0  0  0  0  0  0  # atno 10765 bound_to 10752
  139.9903  134.6602  156.0103 H   0  0  0  0  0  0  0  0  0  0  0  0  # atno 11005 bound_to 11000
  146.1127  140.7408  142.9495 LP  0  0  0  0  0  0  0  0  0  0  0  0  # atno 17320 bound_to 7965
  144.7090  140.3965  143.7095 LP  0  0  0  0  0  0  0  0  0  0  0  0  # atno 17321 bound_to 7965
  140.5643  144.0216  150.6184 LP  0  0  0  0  0  0  0  0  0  0  0  0  # atno 17342 bound_to 10162
  140.3313  143.3076  152.0684 LP  0  0  0  0  0  0  0  0  0  0  0  0  # atno 17343 bound_to 10162
  155.9795  130.4789  150.6718 LP  0  0  0  0  0  0  0  0  0  0  0  0  # atno 17370 bound_to 10713
  157.4336  131.0852  151.1014 LP  0  0  0  0  0  0  0  0  0  0  0  0  # atno 17371 bound_to 10713
  141.1560  133.6543  156.4162 LP  0  0  0  0  0  0  0  0  0  0  0  0  # atno 17394 bound_to 11000
  140.4922  134.6565  157.5215 LP  0  0  0  0  0  0  0  0  0  0  0  0  # atno 17395 bound_to 11000

$$$$
