AV-unprocessed.smi:2167|AV-procd|sdf|8817|dock3
  -GOLD-   2272012 03D 1   1.00000     0.00000
 Structure written by MMmdl.
 41 42  0  0  0  0  0  0  0  0  1 V2000
  153.1590  142.9341  162.5169 C   0  0  0  0  0  0  0  0  0  0  0  0
  153.0170  141.9710  161.3292 C   0  0  0  0  0  0  0  0  0  0  0  0
  154.2987  141.1754  161.0430 C   0  0  0  0  0  0  0  0  0  0  0  0
  152.4970  142.6581  160.1057 C   0  0  0  0  0  0  0  0  0  0  0  0
  152.0474  142.0112  159.0261 N   0  0  0  0  0  0  0  0  0  0  0  0
  151.6035  142.8768  158.0208 C   0  0  0  0  0  0  0  0  0  0  0  0
  151.0473  142.3233  156.7386 C   0  0  0  0  0  0  0  0  0  0  0  0
  151.2677  140.8099  156.6424 C   0  0  0  0  0  0  0  0  0  0  0  0
  152.3725  140.3342  156.9026 O   0  0  0  0  0  0  0  0  0  0  0  0
  150.2188  140.0656  156.2523 N   0  0  0  0  0  0  0  0  0  0  0  0
  150.2208  138.6114  156.0841 C   0  0  1  0  0  0  0  0  0  0  0  0
  148.8054  138.1015  156.4397 C   0  0  0  0  0  0  0  0  0  0  0  0
  148.7619  136.6146  156.8323 C   0  0  0  0  0  0  0  0  0  0  0  0
  149.1332  135.6345  155.7089 C   0  0  0  0  0  0  0  0  0  0  0  0
  150.5749  135.7972  155.1978 C   0  0  0  0  0  0  0  0  0  0  0  0
  150.7138  136.9402  154.3049 N   0  0  0  0  0  0  0  0  0  0  0  0
  150.5434  138.2333  154.6194 C   0  0  0  0  0  0  0  0  0  0  0  0
  150.6375  139.1012  153.7513 O   0  0  0  0  0  0  0  0  0  0  0  0
  151.7403  144.2022  158.3522 C   0  0  0  0  0  0  0  0  0  0  0  0
  152.4135  144.4089  159.9451 S   0  0  0  0  0  0  0  0  0  0  0  0
  152.2091  143.4190  162.7440 H   0  0  0  0  0  0  0  0  0  0  0  0
  153.8911  143.7150  162.3085 H   0  0  0  0  0  0  0  0  0  0  0  0
  153.4829  142.4059  163.4139 H   0  0  0  0  0  0  0  0  0  0  0  0
  152.2595  141.2403  161.6158 H   0  0  0  0  0  0  0  0  0  0  0  0
  154.1378  140.4447  160.2497 H   0  0  0  0  0  0  0  0  0  0  0  0
  154.6305  140.6333  161.9289 H   0  0  0  0  0  0  0  0  0  0  0  0
  155.1118  141.8320  160.7315 H   0  0  0  0  0  0  0  0  0  0  0  0
  149.9777  142.5224  156.6635 H   0  0  0  0  0  0  0  0  0  0  0  0
  151.5122  142.8112  155.8809 H   0  0  0  0  0  0  0  0  0  0  0  0
  149.3524  140.5428  156.0502 H   0  0  0  0  0  0  0  0  0  0  0  0
  150.9593  138.1729  156.7578 H   0  0  0  0  0  0  0  0  0  0  0  0
  148.4290  138.6663  157.2945 H   0  0  0  0  0  0  0  0  0  0  0  0
  148.1022  138.2992  155.6286 H   0  0  0  0  0  0  0  0  0  0  0  0
  149.4163  136.4480  157.6889 H   0  0  0  0  0  0  0  0  0  0  0  0
  147.7555  136.3770  157.1787 H   0  0  0  0  0  0  0  0  0  0  0  0
  149.0158  134.6209  156.0934 H   0  0  0  0  0  0  0  0  0  0  0  0
  148.4280  135.7232  154.8814 H   0  0  0  0  0  0  0  0  0  0  0  0
  151.2820  135.8686  156.0254 H   0  0  0  0  0  0  0  0  0  0  0  0
  150.8561  134.9104  154.6298 H   0  0  0  0  0  0  0  0  0  0  0  0
  150.9317  136.7287  153.3419 H   0  0  0  0  0  0  0  0  0  0  0  0
  151.4810  145.0670  157.7592 H   0  0  0  0  0  0  0  0  0  0  0  0
  1  2  1  0  0  0  0
  1 21  1  0  0  0  0
  1 22  1  0  0  0  0
  1 23  1  0  0  0  0
  2  3  1  0  0  0  0
  2  4  1  0  0  0  0
  2 24  1  0  0  0  0
  3 25  1  0  0  0  0
  3 26  1  0  0  0  0
  3 27  1  0  0  0  0
  4 20  1  0  0  0  0
  4  5  2  0  0  0  0
  5  6  1  0  0  0  0
  6  7  1  0  0  0  0
  6 19  2  0  0  0  0
  7  8  1  0  0  0  0
  7 28  1  0  0  0  0
  7 29  1  0  0  0  0
  8  9  2  0  0  0  0
  8 10  1  0  0  0  0
 10 11  1  0  0  0  0
 10 30  1  0  0  0  0
 11 17  1  0  0  0  0
 11 12  1  0  0  0  0
 11 31  1  0  0  0  0
 12 13  1  0  0  0  0
 12 32  1  0  0  0  0
 12 33  1  0  0  0  0
 13 14  1  0  0  0  0
 13 34  1  0  0  0  0
 13 35  1  0  0  0  0
 14 15  1  0  0  0  0
 14 36  1  0  0  0  0
 14 37  1  0  0  0  0
 15 16  1  0  0  0  0
 15 38  1  0  0  0  0
 15 39  1  0  0  0  0
 16 17  1  0  0  0  0
 16 40  1  0  0  0  0
 17 18  2  0  0  0  0
 19 20  1  0  0  0  0
 19 41  1  0  0  0  0
M  END
> <s_m_source_file>
AV-unprocessed.smi

> <i_m_source_file_index>
2167

> <i_lp_mmshare_version>
43012

> <i_f3d_flags>
0

> <s_epik_input>
W0NIM11bQ0hdKFtDSDNdKWMxbmMoW2NIXXMxKVtDSDJdQyg9TylbTkhdW0NAQEhdMltDSDJdW0NIMl1bQ0gyXVtDSDJdW05IXUMyPU8=

> <s_epik_cmdline>
J2VwaWtfcHl0aG9uJywgJy1waCcsICc3LjAnLCAnLXRuJywgJzgnLCAnLW1hJywgJzIwMCcsICctbWV0YWxfYmluZGluZycsICctaW1hZScsICc8aW5maWxlLm1hZT4nLCAnLW9tYWUnLCAnPG91dGZpbGUubWFlPic=

> <r_lp_tautomer_probability>
1

> <r_epik_Ionization_Penalty>
3.1619e-05

> <r_epik_Ionization_Penalty_Charging>
0

> <r_epik_Ionization_Penalty_Neutral>
3.1619e-05

> <r_epik_State_Penalty>
-0

> <r_epik_Charging_Adjusted_Penalty>
0

> <i_epik_Tot_Q>
0

> <i_epik_Tot_abs_Q>
0

> <r_epik_Metal_State_Penalty>
-0

> <b_epik_Metal_Only>
0

> <s_lp_Force_Field>
OPLS_2005

> <r_lp_Energy>
3.21442

> <b_lp_Chiralities_Consistent>
1

> <s_lp_Variant>
AV-unprocessed.smi:2167-2

> <Gold.Version>
5.8.1

> <Gold.Id.Protein>
6NUR|6NUR_protein|mol2

> <Gold.PLP.Fitness>
44.2426

> <Gold.PLP.PLP>
-36.9732

> <Gold.PLP.part.hbond>
-3.7381

> <Gold.PLP.part.metal>
0.0000

> <Gold.PLP.part.buried>
-1.6345

> <Gold.PLP.part.nonpolar>
-32.2984

> <Gold.PLP.part.repulsive>
1.3778

> <Gold.PLP.ligand.clash>
0.0000

> <Gold.PLP.ligand.torsion>
0.7803

> <Gold.PLP.Chemscore.Hbond>
2.9191

> <Gold.PLP.Chemscore.CHOScore>
0.0000

> <Gold.PLP.Chemscore.Metal>
0.0000

> <Gold.Chemscore.Hbonds>
donor molecule, donor type, donor heavy atom, donor atom, acceptor molecule, acceptor atom, score
      L1  H    16    40       P1  7949  0.90
      P1  H  7989  7998       L1    18  0.98
      P1  H  7997  8010       L1     9  0.95

> <Gold.PLP.Chemscore.Internal.Correction>
0.0729

> <Gold.Rescore>
     Score         DG    S(hbond)    S(metal)    S(lipo)     H(rot)  DE(clash)    DE(int)     intcor
     18.60     -21.57       2.55        0.00      99.22       1.57       0.74       2.23       ----

> <Gold.Chemscore.Fitness>
18.6028

> <Gold.Chemscore.DG>
-21.5688

> <Gold.Chemscore.ZeroCoef>
-5.4800

> <Gold.Chemscore.Hbond>
2.5474

> <Gold.Chemscore.Metal>
0.0000

> <Gold.Chemscore.Lipo>
99.2154

> <Gold.Chemscore.Internal_Hbond>
0.0000

> <Gold.Chemscore.DEClash>
0.7373

> <Gold.Chemscore.DEInternal>
2.2286

> <Gold.Chemscore.Rot>
1.5733

> <Gold.Chemscore.Internal.Correction>
   9.000000E+99

> <Gold.Chemscore.Hbonds>
donor molecule, donor type, donor heavy atom, donor atom, acceptor molecule, acceptor atom, score
      L1  H    16    40       P1  7949  0.17
      P1  H  7989  7998       L1    18  0.87
      P1  H  7997  8010       L1     9  0.85

> <Gold.Chemscore.Hbond.Weighted>
-8.5082

> <Gold.Chemscore.Metal.Weighted>
-0.0000

> <Gold.Chemscore.Lipo.Weighted>
-11.6082

> <Gold.Chemscore.Internal_Hbond.Weighted>
0.0000

> <Gold.Chemscore.DEClash.Weighted>
0.7373

> <Gold.Chemscore.DEInternal.Weighted>
2.2286

> <Gold.Chemscore.Rot.Weighted>
4.0276

> <Gold.Chemscore.Internal.Correction.Weighted>
   9.000000E+99

> <Gold.Protein.RotatedTorsions>
[ 6907 6896 6895 6894 ] final -129.47 input  -60.11 | X-H torsion
[ 7974 7965 7964 7962 ] final  176.57 input  175.53 | X-H torsion
[ 8008 7997 7996 7995 ] final   58.37 input   59.86 | X-H torsion
[ 10167 10162 10161 10158 ] final   50.45 input  -65.29 | X-H torsion
[ 10718 10713 10712 10709 ] final   33.45 input   66.30 | X-H torsion
[ 10763 10752 10751 10750 ] final  108.60 input  -60.55 | X-H torsion
[ 11005 11000 10999 10996 ] final  108.92 input  -57.11 | X-H torsion

> <Gold.Protein.ActiveResidues>
 VAL166  LYS551  ARG553  GLY616  TRP617  ASP618  TYR619  PRO620  LYS621  CYS622 
 ASP623  PHE694  ASN695  SER759  ASP760  ASP761  ALA762  ILE779  LEU786  VAL792 
 PHE793  MET794  SER795  GLU796  ALA797  LYS798  CYS799  TRP800  GLU811  SER814 

> <Gold.Protein.RotatedAtoms>
  150.9290  133.6789  159.2814 H   0  0  0  0  0  0  0  0  0  0  0  0  # atno 6907 bound_to 6896
  151.4217  135.0997  159.9625 H   0  0  0  0  0  0  0  0  0  0  0  0  # atno 6908 bound_to 6896
  152.5017  133.8741  159.7368 H   0  0  0  0  0  0  0  0  0  0  0  0  # atno 6909 bound_to 6896
  144.7182  140.0117  143.6440 H   0  0  0  0  0  0  0  0  0  0  0  0  # atno 7974 bound_to 7965
  155.5490  140.3486  155.4464 H   0  0  0  0  0  0  0  0  0  0  0  0  # atno 8008 bound_to 7997
  156.0597  140.1337  156.9981 H   0  0  0  0  0  0  0  0  0  0  0  0  # atno 8009 bound_to 7997
  154.4473  140.0988  156.6483 H   0  0  0  0  0  0  0  0  0  0  0  0  # atno 8010 bound_to 7997
  140.2723  144.3251  150.6287 H   0  0  0  0  0  0  0  0  0  0  0  0  # atno 10167 bound_to 10162
  157.2980  130.7336  149.6650 H   0  0  0  0  0  0  0  0  0  0  0  0  # atno 10718 bound_to 10713
  153.4229  135.3807  155.2122 H   0  0  0  0  0  0  0  0  0  0  0  0  # atno 10763 bound_to 10752
  154.8745  135.3821  154.4362 H   0  0  0  0  0  0  0  0  0  0  0  0  # atno 10764 bound_to 10752
  153.4885  135.7088  153.5960 H   0  0  0  0  0  0  0  0  0  0  0  0  # atno 10765 bound_to 10752
  139.8852  134.9444  156.6046 H   0  0  0  0  0  0  0  0  0  0  0  0  # atno 11005 bound_to 11000
  146.0253  139.3287  143.0788 LP  0  0  0  0  0  0  0  0  0  0  0  0  # atno 17320 bound_to 7965
  145.8519  140.9524  143.0745 LP  0  0  0  0  0  0  0  0  0  0  0  0  # atno 17321 bound_to 7965
  140.5879  143.2169  151.7307 LP  0  0  0  0  0  0  0  0  0  0  0  0  # atno 17342 bound_to 10162
  139.4985  144.3982  152.0209 LP  0  0  0  0  0  0  0  0  0  0  0  0  # atno 17343 bound_to 10162
  155.9670  130.4288  150.4807 LP  0  0  0  0  0  0  0  0  0  0  0  0  # atno 17370 bound_to 10713
  157.2782  131.0601  151.2215 LP  0  0  0  0  0  0  0  0  0  0  0  0  # atno 17371 bound_to 10713
  140.7858  133.8623  155.8605 LP  0  0  0  0  0  0  0  0  0  0  0  0  # atno 17394 bound_to 11000
  140.9721  134.1518  157.4568 LP  0  0  0  0  0  0  0  0  0  0  0  0  # atno 17395 bound_to 11000

$$$$
