AV-unprocessed.smi:2416|AV-procd|sdf|9544|dock5
  -GOLD-   2272013173D 1   1.00000     0.00000
 Structure written by MMmdl.
 40 41  0  0  0  0  0  0  0  0  1 V2000
  146.4674  142.2801  156.0671 C   0  0  0  0  0  0  0  0  0  0  0  0
  147.5304  141.3349  156.0722 O   0  0  0  0  0  0  0  0  0  0  0  0
  147.8741  140.7200  154.8232 C   0  0  1  0  0  0  0  0  0  0  0  0
  146.6174  140.1630  154.1413 C   0  0  0  0  0  0  0  0  0  0  0  0
  148.8236  141.6339  154.0251 C   0  0  0  0  0  0  0  0  0  0  0  0
  150.0080  140.9822  154.7424 C   0  0  1  0  0  0  0  0  0  0  0  0
  150.4095  141.7581  155.9162 N   0  0  0  0  0  0  0  0  0  0  0  0
  151.2091  141.3058  156.8915 C   0  0  0  0  0  0  0  0  0  0  0  0
  151.7121  140.1819  156.8883 O   0  0  0  0  0  0  0  0  0  0  0  0
  151.3717  142.2299  157.8547 N   0  0  0  0  0  0  0  0  0  0  0  0
  152.1021  142.1147  159.0673 C   0  0  0  0  0  0  0  0  0  0  0  0
  153.1354  141.1503  159.0542 C   0  0  0  0  0  0  0  0  0  0  0  0
  153.9239  140.9628  160.2064 C   0  0  0  0  0  0  0  0  0  0  0  0
  153.6565  141.7468  161.3425 C   0  0  0  0  0  0  0  0  0  0  0  0
  154.3889  141.6040  162.4725 F   0  0  0  0  0  0  0  0  0  0  0  0
  152.6088  142.6835  161.2744 C   0  0  0  0  0  0  0  0  0  0  0  0
  151.8527  142.8640  160.1707 N   0  0  0  0  0  0  0  0  0  0  0  0
  149.0920  139.7683  155.0589 C   0  0  0  0  0  0  0  0  0  0  0  0
  149.2005  139.1058  156.4427 C   0  0  0  0  0  0  0  0  0  0  0  0
  149.2469  138.6198  154.0508 C   0  0  0  0  0  0  0  0  0  0  0  0
  146.4269  142.7724  157.0385 H   0  0  0  0  0  0  0  0  0  0  0  0
  145.5020  141.7992  155.9111 H   0  0  0  0  0  0  0  0  0  0  0  0
  146.6004  143.0532  155.3111 H   0  0  0  0  0  0  0  0  0  0  0  0
  146.8588  139.6011  153.2397 H   0  0  0  0  0  0  0  0  0  0  0  0
  145.9379  140.9549  153.8281 H   0  0  0  0  0  0  0  0  0  0  0  0
  146.0699  139.4944  154.8062 H   0  0  0  0  0  0  0  0  0  0  0  0
  148.8155  141.4121  152.9570 H   0  0  0  0  0  0  0  0  0  0  0  0
  148.7187  142.7055  154.1942 H   0  0  0  0  0  0  0  0  0  0  0  0
  150.8309  140.7503  154.0639 H   0  0  0  0  0  0  0  0  0  0  0  0
  150.0289  142.6895  155.9980 H   0  0  0  0  0  0  0  0  0  0  0  0
  150.9020  143.1118  157.7129 H   0  0  0  0  0  0  0  0  0  0  0  0
  153.3275  140.5579  158.1712 H   0  0  0  0  0  0  0  0  0  0  0  0
  154.7189  140.2319  160.2163 H   0  0  0  0  0  0  0  0  0  0  0  0
  152.3716  143.3050  162.1254 H   0  0  0  0  0  0  0  0  0  0  0  0
  150.1577  138.5985  156.5674 H   0  0  0  0  0  0  0  0  0  0  0  0
  148.4145  138.3651  156.5916 H   0  0  0  0  0  0  0  0  0  0  0  0
  149.1160  139.8209  157.2606 H   0  0  0  0  0  0  0  0  0  0  0  0
  150.2107  138.1214  154.1610 H   0  0  0  0  0  0  0  0  0  0  0  0
  149.1904  138.9705  153.0201 H   0  0  0  0  0  0  0  0  0  0  0  0
  148.4722  137.8628  154.1780 H   0  0  0  0  0  0  0  0  0  0  0  0
  1  2  1  0  0  0  0
  1 21  1  0  0  0  0
  1 22  1  0  0  0  0
  1 23  1  0  0  0  0
  2  3  1  0  0  0  0
  3 18  1  0  0  0  0
  3  4  1  0  0  0  0
  3  5  1  0  0  0  0
  4 24  1  0  0  0  0
  4 25  1  0  0  0  0
  4 26  1  0  0  0  0
  5  6  1  0  0  0  0
  5 27  1  0  0  0  0
  5 28  1  0  0  0  0
  6  7  1  0  0  0  0
  6 18  1  0  0  0  0
  6 29  1  0  0  0  0
  7  8  1  0  0  0  0
  7 30  1  0  0  0  0
  8  9  2  0  0  0  0
  8 10  1  0  0  0  0
 10 11  1  0  0  0  0
 10 31  1  0  0  0  0
 11 17  1  0  0  0  0
 11 12  2  0  0  0  0
 12 13  1  0  0  0  0
 12 32  1  0  0  0  0
 13 14  2  0  0  0  0
 13 33  1  0  0  0  0
 14 15  1  0  0  0  0
 14 16  1  0  0  0  0
 16 17  2  0  0  0  0
 16 34  1  0  0  0  0
 18 19  1  0  0  0  0
 18 20  1  0  0  0  0
 19 35  1  0  0  0  0
 19 36  1  0  0  0  0
 19 37  1  0  0  0  0
 20 38  1  0  0  0  0
 20 39  1  0  0  0  0
 20 40  1  0  0  0  0
M  END
> <s_m_source_file>
AV-unprocessed.smi

> <i_m_source_file_index>
2416

> <i_lp_mmshare_version>
43012

> <i_f3d_flags>
0

> <s_epik_input>
W0NIM11PW0NAQF0xKFtDSDNdKVtDSDJdW0NASF0oQzEoW0NIM10pW0NIM10pW05IXUMoPU8pW05IXWMyW2NIXVtjSF1jKEYpW2NIXW4y

> <s_epik_cmdline>
J2VwaWtfcHl0aG9uJywgJy1waCcsICc3LjAnLCAnLXRuJywgJzgnLCAnLW1hJywgJzIwMCcsICctbWV0YWxfYmluZGluZycsICctaW1hZScsICc8aW5maWxlLm1hZT4nLCAnLW9tYWUnLCAnPG91dGZpbGUubWFlPic=

> <r_lp_tautomer_probability>
1

> <r_epik_Ionization_Penalty>
3.67756e-05

> <r_epik_Ionization_Penalty_Charging>
0

> <r_epik_Ionization_Penalty_Neutral>
3.67756e-05

> <r_epik_State_Penalty>
-0

> <r_epik_Charging_Adjusted_Penalty>
0

> <i_epik_Tot_Q>
0

> <i_epik_Tot_abs_Q>
0

> <r_epik_Metal_State_Penalty>
-0

> <b_epik_Metal_Only>
0

> <s_lp_Force_Field>
OPLS_2005

> <r_lp_Energy>
27.553

> <b_lp_Chiralities_Consistent>
1

> <s_lp_Variant>
AV-unprocessed.smi:2416-1

> <Gold.Version>
5.8.1

> <Gold.Id.Protein>
6NUR|6NUR_protein|mol2

> <Gold.PLP.Fitness>
29.4558

> <Gold.PLP.PLP>
-29.2755

> <Gold.PLP.part.hbond>
0.0000

> <Gold.PLP.part.metal>
0.0000

> <Gold.PLP.part.buried>
3.3020

> <Gold.PLP.part.nonpolar>
-30.3875

> <Gold.PLP.part.repulsive>
0.2740

> <Gold.PLP.ligand.clash>
0.0000

> <Gold.PLP.ligand.torsion>
0.3937

> <Gold.PLP.Chemscore.Hbond>
0.1950

> <Gold.PLP.Chemscore.CHOScore>
0.0000

> <Gold.PLP.Chemscore.Metal>
0.0000

> <Gold.Chemscore.Hbonds>
donor molecule, donor type, donor heavy atom, donor atom, acceptor molecule, acceptor atom, score
      L1  H     7    30       P1  8028  0.19

> <Gold.PLP.Chemscore.Internal.Correction>
0.3828

> <Gold.Rescore>
     Score         DG    S(hbond)    S(metal)    S(lipo)     H(rot)  DE(clash)    DE(int)     intcor
     10.19     -14.95       0.99        0.00      80.34       1.27       0.39       4.37       ----

> <Gold.Chemscore.Fitness>
10.1890

> <Gold.Chemscore.DG>
-14.9483

> <Gold.Chemscore.ZeroCoef>
-5.4800

> <Gold.Chemscore.Hbond>
0.9903

> <Gold.Chemscore.Metal>
0.0000

> <Gold.Chemscore.Lipo>
80.3411

> <Gold.Chemscore.Internal_Hbond>
0.0000

> <Gold.Chemscore.DEClash>
0.3921

> <Gold.Chemscore.DEInternal>
4.3673

> <Gold.Chemscore.Rot>
1.2653

> <Gold.Chemscore.Internal.Correction>
   9.000000E+99

> <Gold.Chemscore.Hbonds>
donor molecule, donor type, donor heavy atom, donor atom, acceptor molecule, acceptor atom, score
      L1  H     7    30       P1  8028  0.21

> <Gold.Chemscore.Hbond.Weighted>
-3.3076

> <Gold.Chemscore.Metal.Weighted>
-0.0000

> <Gold.Chemscore.Lipo.Weighted>
-9.3999

> <Gold.Chemscore.Internal_Hbond.Weighted>
0.0000

> <Gold.Chemscore.DEClash.Weighted>
0.3921

> <Gold.Chemscore.DEInternal.Weighted>
4.3673

> <Gold.Chemscore.Rot.Weighted>
3.2392

> <Gold.Chemscore.Internal.Correction.Weighted>
   9.000000E+99

> <Gold.Protein.RotatedTorsions>
[ 6907 6896 6895 6894 ] final    3.17 input  -60.11 | X-H torsion
[ 7974 7965 7964 7962 ] final -143.69 input  175.53 | X-H torsion
[ 8008 7997 7996 7995 ] final   41.58 input   59.86 | X-H torsion
[ 10167 10162 10161 10158 ] final  169.55 input  -65.29 | X-H torsion
[ 10718 10713 10712 10709 ] final -155.89 input   66.30 | X-H torsion
[ 10763 10752 10751 10750 ] final  -14.15 input  -60.55 | X-H torsion
[ 11005 11000 10999 10996 ] final -155.55 input  -57.11 | X-H torsion

> <Gold.Protein.ActiveResidues>
 VAL166  LYS551  ARG553  GLY616  TRP617  ASP618  TYR619  PRO620  LYS621  CYS622 
 ASP623  PHE694  ASN695  SER759  ASP760  ASP761  ALA762  ILE779  LEU786  VAL792 
 PHE793  MET794  SER795  GLU796  ALA797  LYS798  CYS799  TRP800  GLU811  SER814 

> <Gold.Protein.RotatedAtoms>
  151.6207  135.1032  160.0100 H   0  0  0  0  0  0  0  0  0  0  0  0  # atno 6907 bound_to 6896
  152.4159  133.7033  159.6447 H   0  0  0  0  0  0  0  0  0  0  0  0  # atno 6908 bound_to 6896
  150.8047  133.8458  159.3232 H   0  0  0  0  0  0  0  0  0  0  0  0  # atno 6909 bound_to 6896
  144.8351  140.5803  143.5489 H   0  0  0  0  0  0  0  0  0  0  0  0  # atno 7974 bound_to 7965
  155.2720  140.3366  155.4264 H   0  0  0  0  0  0  0  0  0  0  0  0  # atno 8008 bound_to 7997
  156.2128  140.1777  156.7697 H   0  0  0  0  0  0  0  0  0  0  0  0  # atno 8009 bound_to 7997
  154.5711  140.0670  156.8950 H   0  0  0  0  0  0  0  0  0  0  0  0  # atno 8010 bound_to 7997
  139.4995  144.3693  151.9741 H   0  0  0  0  0  0  0  0  0  0  0  0  # atno 10167 bound_to 10162
  156.5191  130.8469  151.2675 H   0  0  0  0  0  0  0  0  0  0  0  0  # atno 10718 bound_to 10713
  153.5239  135.7015  153.5717 H   0  0  0  0  0  0  0  0  0  0  0  0  # atno 10763 bound_to 10752
  153.3754  135.3934  155.1818 H   0  0  0  0  0  0  0  0  0  0  0  0  # atno 10764 bound_to 10752
  154.8692  135.3822  154.4730 H   0  0  0  0  0  0  0  0  0  0  0  0  # atno 10765 bound_to 10752
  140.6853  134.4100  157.5223 H   0  0  0  0  0  0  0  0  0  0  0  0  # atno 11005 bound_to 11000
  145.4812  139.1495  143.3761 LP  0  0  0  0  0  0  0  0  0  0  0  0  # atno 17320 bound_to 7965
  146.2650  140.4948  142.8837 LP  0  0  0  0  0  0  0  0  0  0  0  0  # atno 17321 bound_to 7965
  140.3129  144.3517  150.6029 LP  0  0  0  0  0  0  0  0  0  0  0  0  # atno 17342 bound_to 10162
  140.5784  143.2174  151.7473 LP  0  0  0  0  0  0  0  0  0  0  0  0  # atno 17343 bound_to 10162
  157.7439  130.9923  150.2633 LP  0  0  0  0  0  0  0  0  0  0  0  0  # atno 17370 bound_to 10713
  156.3167  130.3780  149.7612 LP  0  0  0  0  0  0  0  0  0  0  0  0  # atno 17371 bound_to 10713
  139.8939  134.8718  156.2200 LP  0  0  0  0  0  0  0  0  0  0  0  0  # atno 17394 bound_to 11000
  141.0285  133.7002  156.1389 LP  0  0  0  0  0  0  0  0  0  0  0  0  # atno 17395 bound_to 11000

$$$$
