AV-unprocessed.smi:34|AV-procd|sdf|240|dock6
  -GOLD-   2262015593D 1   1.00000     0.00000
 Structure written by MMmdl.
 54 58  0  0  0  0  0  0  0  0  2 V2000
  149.3066  130.7410  154.8068 O   0  0  0  0  0  0  0  0  0  0  0  0
  148.5309  131.1474  153.9389 C   0  0  0  0  0  0  0  0  0  0  0  0
  147.8975  132.3461  153.8811 N   0  5  0  0  0  0  0  0  0  0  0  0
  148.5539  133.4659  154.2206 C   0  0  0  0  0  0  0  0  0  0  0  0
  149.8628  133.4134  154.5771 N   0  0  0  0  0  0  0  0  0  0  0  0
  150.5157  134.5302  154.9190 C   0  0  0  0  0  0  0  0  0  0  0  0
  150.0597  135.7851  154.9781 N   0  0  0  0  0  0  0  0  0  0  0  0
  148.7411  135.8502  154.6324 C   0  0  0  0  0  0  0  0  0  0  0  0
  147.9291  134.7428  154.2497 C   0  0  0  0  0  0  0  0  0  0  0  0
  146.6347  135.1555  153.9692 N   0  0  0  0  0  0  0  0  0  0  0  0
  146.7172  136.4661  154.1878 C   0  0  0  0  0  0  0  0  0  0  0  0
  147.9115  136.9582  154.5724 N   0  0  0  0  0  0  0  0  0  0  0  0
  148.2531  138.3802  154.8726 C   0  0  1  0  0  0  0  0  0  0  0  0
  148.6294  138.4578  156.2113 O   0  0  0  0  0  0  0  0  0  0  0  0
  149.6246  139.4611  156.3369 C   0  0  1  0  0  0  0  0  0  0  0  0
  150.4030  139.3025  157.6486 C   0  0  0  0  0  0  0  0  0  0  0  0
  150.4707  140.5568  158.3072 O   0  0  0  0  0  0  0  0  0  0  0  0
  151.6538  141.0184  158.7573 C   0  0  0  0  0  0  0  0  0  0  0  0
  152.7042  140.3757  158.6980 O   0  0  0  0  0  0  0  0  0  0  0  0
  151.5603  142.3904  159.3352 C   0  0  0  0  0  0  0  0  0  0  0  0
  151.5045  142.5480  160.7400 C   0  0  0  0  0  0  0  0  0  0  0  0
  151.4162  143.8307  161.3152 C   0  0  0  0  0  0  0  0  0  0  0  0
  151.3825  144.9718  160.4928 C   0  0  0  0  0  0  0  0  0  0  0  0
  151.4370  144.8286  159.0940 C   0  0  0  0  0  0  0  0  0  0  0  0
  151.5254  143.5465  158.5168 C   0  0  0  0  0  0  0  0  0  0  0  0
  150.4683  139.2710  155.0748 C   0  0  1  0  0  0  0  0  0  0  0  0
  151.3595  138.2921  155.2403 F   0  0  0  0  0  0  0  0  0  0  0  0
  149.4461  138.8557  154.0231 C   0  0  2  0  0  0  0  0  0  0  0  0
  149.1095  139.9683  153.2193 O   0  0  0  0  0  0  0  0  0  0  0  0
  148.1519  130.2218  152.8145 C   0  0  0  0  0  0  0  0  0  0  0  0
  146.9494  130.4389  152.1038 C   0  0  0  0  0  0  0  0  0  0  0  0
  146.5654  129.5701  151.0638 C   0  0  0  0  0  0  0  0  0  0  0  0
  147.3749  128.4679  150.7306 C   0  0  0  0  0  0  0  0  0  0  0  0
  148.5670  128.2330  151.4409 C   0  0  0  0  0  0  0  0  0  0  0  0
  148.9525  129.1023  152.4800 C   0  0  0  0  0  0  0  0  0  0  0  0
  151.5540  134.3988  155.1853 H   0  0  0  0  0  0  0  0  0  0  0  0
  145.8578  137.1070  154.0570 H   0  0  0  0  0  0  0  0  0  0  0  0
  147.3342  138.9421  154.6970 H   0  0  0  0  0  0  0  0  0  0  0  0
  149.1439  140.4406  156.2976 H   0  0  0  0  0  0  0  0  0  0  0  0
  149.9281  138.5559  158.2871 H   0  0  0  0  0  0  0  0  0  0  0  0
  151.4176  138.9612  157.4383 H   0  0  0  0  0  0  0  0  0  0  0  0
  151.5288  141.6868  161.3920 H   0  0  0  0  0  0  0  0  0  0  0  0
  151.3742  143.9385  162.3891 H   0  0  0  0  0  0  0  0  0  0  0  0
  151.3148  145.9552  160.9342 H   0  0  0  0  0  0  0  0  0  0  0  0
  151.4112  145.7038  158.4616 H   0  0  0  0  0  0  0  0  0  0  0  0
  151.5655  143.4722  157.4398 H   0  0  0  0  0  0  0  0  0  0  0  0
  151.0349  140.1640  154.8081 H   0  0  0  0  0  0  0  0  0  0  0  0
  149.8255  138.0557  153.3851 H   0  0  0  0  0  0  0  0  0  0  0  0
  149.6289  139.9351  152.4304 H   0  0  0  0  0  0  0  0  0  0  0  0
  146.3163  131.2795  152.3487 H   0  0  0  0  0  0  0  0  0  0  0  0
  145.6484  129.7497  150.5225 H   0  0  0  0  0  0  0  0  0  0  0  0
  147.0798  127.8013  149.9339 H   0  0  0  0  0  0  0  0  0  0  0  0
  149.1863  127.3844  151.1908 H   0  0  0  0  0  0  0  0  0  0  0  0
  149.8665  128.8992  153.0193 H   0  0  0  0  0  0  0  0  0  0  0  0
  1  2  2  0  0  0  0
  2  3  1  0  0  0  0
  2 30  1  0  0  0  0
  3  4  1  0  0  0  0
  4  9  1  0  0  0  0
  4  5  2  0  0  0  0
  5  6  1  0  0  0  0
  6  7  2  0  0  0  0
  6 36  1  0  0  0  0
  7  8  1  0  0  0  0
  8 12  1  0  0  0  0
  8  9  2  0  0  0  0
  9 10  1  0  0  0  0
 10 11  2  0  0  0  0
 11 12  1  0  0  0  0
 11 37  1  0  0  0  0
 12 13  1  0  0  0  0
 13 28  1  0  0  0  0
 13 14  1  0  0  0  0
 13 38  1  0  0  0  0
 14 15  1  0  0  0  0
 15 16  1  0  0  0  0
 15 26  1  0  0  0  0
 15 39  1  0  0  0  0
 16 17  1  0  0  0  0
 16 40  1  0  0  0  0
 16 41  1  0  0  0  0
 17 18  1  0  0  0  0
 18 19  2  0  0  0  0
 18 20  1  0  0  0  0
 20 25  1  0  0  0  0
 20 21  2  0  0  0  0
 21 22  1  0  0  0  0
 21 42  1  0  0  0  0
 22 23  2  0  0  0  0
 22 43  1  0  0  0  0
 23 24  1  0  0  0  0
 23 44  1  0  0  0  0
 24 25  2  0  0  0  0
 24 45  1  0  0  0  0
 25 46  1  0  0  0  0
 26 27  1  0  0  0  0
 26 28  1  0  0  0  0
 26 47  1  0  0  0  0
 28 29  1  0  0  0  0
 28 48  1  0  0  0  0
 29 49  1  0  0  0  0
 30 35  1  0  0  0  0
 30 31  2  0  0  0  0
 31 32  1  0  0  0  0
 31 50  1  0  0  0  0
 32 33  2  0  0  0  0
 32 51  1  0  0  0  0
 33 34  1  0  0  0  0
 33 52  1  0  0  0  0
 34 35  2  0  0  0  0
 34 53  1  0  0  0  0
 35 54  1  0  0  0  0
M  CHG  1   3  -1
M  END
> <s_m_source_file>
AV-unprocessed.smi

> <i_m_source_file_index>
34

> <i_lp_mmshare_version>
43012

> <i_f3d_flags>
0

> <s_epik_input>
W2NIXTFbY0hdW2NIXVtjSF1bY0hdYzFDKD1PKVtOSF1jKG5bY0hdbjIpYyhjMjMpbltjSF1uM1tDQEBIXTRPW0NASF0oW0NAQEhdKEYpW0NASF00W09IXSlbQ0gyXU9DKD1PKWM1W2NIXVtjSF1bY0hdW2NIXVtjSF01

> <s_epik_cmdline>
J2VwaWtfcHl0aG9uJywgJy1waCcsICc3LjAnLCAnLXRuJywgJzgnLCAnLW1hJywgJzIwMCcsICctbWV0YWxfYmluZGluZycsICctaW1hZScsICc8aW5maWxlLm1hZT4nLCAnLW9tYWUnLCAnPG91dGZpbGUubWFlPic=

> <r_lp_tautomer_probability>
1

> <r_epik_Ionization_Penalty>
4.33227

> <r_epik_Ionization_Penalty_Charging>
3.41027

> <r_epik_Ionization_Penalty_Neutral>
0.922001

> <r_epik_State_Penalty>
3.41358

> <r_epik_Charging_Adjusted_Penalty>
6.82385

> <i_epik_Tot_Q>
-1

> <i_epik_Tot_abs_Q>
1

> <r_epik_Metal_State_Penalty>
0.496292

> <b_epik_Metal_Only>
1

> <s_epik_Chemistry_Notes>
This compound has an ester and may undergo hydrolysis at high or low pH. This compound contains an acetal/aminal-like group ( X-CH(R)-Y where X, Y are N, S, or O) that may be acid/base labile, releasing an aldehyde.

> <s_lp_Force_Field>
OPLS_2005

> <r_lp_Energy>
44.0615

> <b_lp_Chiralities_Consistent>
1

> <s_lp_Variant>
AV-unprocessed.smi:34-26

> <Gold.Version>
5.8.1

> <Gold.Id.Protein>
6NUR|6NUR_protein|mol2

> <Gold.PLP.Fitness>
57.5040

> <Gold.PLP.PLP>
-57.4328

> <Gold.PLP.part.hbond>
-1.5430

> <Gold.PLP.part.metal>
0.0000

> <Gold.PLP.part.buried>
-8.4615

> <Gold.PLP.part.nonpolar>
-47.6425

> <Gold.PLP.part.repulsive>
0.2878

> <Gold.PLP.ligand.clash>
0.0000

> <Gold.PLP.ligand.torsion>
3.0358

> <Gold.PLP.Chemscore.Hbond>
1.9360

> <Gold.PLP.Chemscore.CHOScore>
0.0000

> <Gold.PLP.Chemscore.Metal>
0.0000

> <Gold.Chemscore.Hbonds>
donor molecule, donor type, donor heavy atom, donor atom, acceptor molecule, acceptor atom, score
      L1  H    29    49       P1  7957  0.33

> <Gold.PLP.Chemscore.Internal.Correction>
0.3349

> <Gold.Rescore>
     Score         DG    S(hbond)    S(metal)    S(lipo)     H(rot)  DE(clash)    DE(int)     intcor
     14.74     -20.82       1.83        0.00     137.80       2.69       0.06       6.02       ----

> <Gold.Chemscore.Fitness>
14.7443

> <Gold.Chemscore.DG>
-20.8200

> <Gold.Chemscore.ZeroCoef>
-5.4800

> <Gold.Chemscore.Hbond>
1.8310

> <Gold.Chemscore.Metal>
0.0000

> <Gold.Chemscore.Lipo>
137.7955

> <Gold.Chemscore.Internal_Hbond>
0.0000

> <Gold.Chemscore.DEClash>
0.0580

> <Gold.Chemscore.DEInternal>
6.0177

> <Gold.Chemscore.Rot>
2.6944

> <Gold.Chemscore.Internal.Correction>
   9.000000E+99

> <Gold.Chemscore.Hbonds>
donor molecule, donor type, donor heavy atom, donor atom, acceptor molecule, acceptor atom, score
      L1  H    29    49       P1  7957  0.31

> <Gold.Chemscore.Hbond.Weighted>
-6.1155

> <Gold.Chemscore.Metal.Weighted>
-0.0000

> <Gold.Chemscore.Lipo.Weighted>
-16.1221

> <Gold.Chemscore.Internal_Hbond.Weighted>
0.0000

> <Gold.Chemscore.DEClash.Weighted>
0.0580

> <Gold.Chemscore.DEInternal.Weighted>
6.0177

> <Gold.Chemscore.Rot.Weighted>
6.8975

> <Gold.Chemscore.Internal.Correction.Weighted>
   9.000000E+99

> <Gold.Protein.RotatedTorsions>
[ 6907 6896 6895 6894 ] final -130.39 input  -60.11 | X-H torsion
[ 7974 7965 7964 7962 ] final  -87.07 input  175.53 | X-H torsion
[ 8008 7997 7996 7995 ] final  -90.03 input   59.86 | X-H torsion
[ 10167 10162 10161 10158 ] final  -44.98 input  -65.29 | X-H torsion
[ 10718 10713 10712 10709 ] final  -71.13 input   66.30 | X-H torsion
[ 10763 10752 10751 10750 ] final -130.10 input  -60.55 | X-H torsion
[ 11005 11000 10999 10996 ] final  131.96 input  -57.11 | X-H torsion

> <Gold.Protein.ActiveResidues>
 VAL166  LYS551  ARG553  GLY616  TRP617  ASP618  TYR619  PRO620  LYS621  CYS622 
 ASP623  PHE694  ASN695  SER759  ASP760  ASP761  ALA762  ILE779  LEU786  VAL792 
 PHE793  MET794  SER795  GLU796  ALA797  LYS798  CYS799  TRP800  GLU811  SER814 

> <Gold.Protein.RotatedAtoms>
  150.9392  133.6676  159.2794 H   0  0  0  0  0  0  0  0  0  0  0  0  # atno 6907 bound_to 6896
  151.4071  135.0978  159.9583 H   0  0  0  0  0  0  0  0  0  0  0  0  # atno 6908 bound_to 6896
  152.5062  133.8873  159.7431 H   0  0  0  0  0  0  0  0  0  0  0  0  # atno 6909 bound_to 6896
  145.4715  140.9559  143.1914 H   0  0  0  0  0  0  0  0  0  0  0  0  # atno 7974 bound_to 7965
  154.6937  140.0535  157.0389 H   0  0  0  0  0  0  0  0  0  0  0  0  # atno 8008 bound_to 7997
  155.0781  140.3206  155.4591 H   0  0  0  0  0  0  0  0  0  0  0  0  # atno 8009 bound_to 7997
  156.2737  140.2070  156.5909 H   0  0  0  0  0  0  0  0  0  0  0  0  # atno 8010 bound_to 7997
  140.6876  143.2902  151.3573 H   0  0  0  0  0  0  0  0  0  0  0  0  # atno 10167 bound_to 10162
  156.0377  130.4345  150.2398 H   0  0  0  0  0  0  0  0  0  0  0  0  # atno 10718 bound_to 10713
  154.8756  135.3873  154.4028 H   0  0  0  0  0  0  0  0  0  0  0  0  # atno 10763 bound_to 10752
  153.4751  135.7030  153.5976 H   0  0  0  0  0  0  0  0  0  0  0  0  # atno 10764 bound_to 10752
  153.4416  135.3855  155.2199 H   0  0  0  0  0  0  0  0  0  0  0  0  # atno 10765 bound_to 10752
  139.9761  134.9563  156.9514 H   0  0  0  0  0  0  0  0  0  0  0  0  # atno 11005 bound_to 11000
  144.7942  139.6266  143.7100 LP  0  0  0  0  0  0  0  0  0  0  0  0  # atno 17320 bound_to 7965
  146.2394  139.5970  142.9502 LP  0  0  0  0  0  0  0  0  0  0  0  0  # atno 17321 bound_to 7965
  139.6248  144.0836  152.2424 LP  0  0  0  0  0  0  0  0  0  0  0  0  # atno 17342 bound_to 10162
  140.0292  144.6094  150.7502 LP  0  0  0  0  0  0  0  0  0  0  0  0  # atno 17343 bound_to 10162
  157.0495  131.0058  151.3258 LP  0  0  0  0  0  0  0  0  0  0  0  0  # atno 17370 bound_to 10713
  157.5150  130.7962  149.7747 LP  0  0  0  0  0  0  0  0  0  0  0  0  # atno 17371 bound_to 10713
  140.5191  134.0925  155.7288 LP  0  0  0  0  0  0  0  0  0  0  0  0  # atno 17394 bound_to 11000
  141.1438  133.9091  157.2263 LP  0  0  0  0  0  0  0  0  0  0  0  0  # atno 17395 bound_to 11000

$$$$
