AV-unprocessed.smi:833|AV-procd|sdf|3883|dock8
  -GOLD-   22720 1343D 1   1.00000     0.00000
 Structure written by MMmdl.
 40 41  0  0  0  0  0  0  0  0  2 V2000
  148.8199  138.9903  154.1048 C   0  0  0  0  0  0  0  0  0  0  0  0
  148.1153  140.2977  153.7197 C   0  0  1  0  0  0  0  0  0  0  0  0
  149.0909  141.1556  153.1641 O   0  0  0  0  0  0  0  0  0  0  0  0
  147.0031  140.0665  152.6782 C   0  0  0  0  0  0  0  0  0  0  0  0
  146.1623  138.9244  153.0237 N   0  0  0  0  0  0  0  0  0  0  0  0
  145.9581  137.8550  152.2423 C   0  0  0  0  0  0  0  0  0  0  0  0
  146.4675  137.7144  151.1305 O   0  0  0  0  0  0  0  0  0  0  0  0
  145.1530  136.9600  152.8382 N   0  0  0  0  0  0  0  0  0  0  0  0
  144.7450  135.6929  152.3357 C   0  0  0  0  0  0  0  0  0  0  0  0
  144.9918  135.3315  150.9864 C   0  0  0  0  0  0  0  0  0  0  0  0
  144.5143  134.1046  150.4885 C   0  0  0  0  0  0  0  0  0  0  0  0
  143.7828  133.2629  151.3436 C   0  0  0  0  0  0  0  0  0  0  0  0
  143.5546  133.6400  152.6186 N   0  3  0  0  0  0  0  0  0  0  0  0
  143.9999  134.8012  153.1609 C   0  0  0  0  0  0  0  0  0  0  0  0
  143.6936  135.0566  154.5172 N   0  0  0  0  0  0  0  0  0  0  0  0
  144.7356  134.9837  155.5351 C   0  0  0  0  0  0  0  0  0  0  0  0
  144.1342  135.6544  156.7668 C   0  0  0  0  0  0  0  0  0  0  0  0
  143.2759  136.7566  156.1538 C   0  0  0  0  0  0  0  0  0  0  0  0
  142.7723  136.1408  154.8439 C   0  0  0  0  0  0  0  0  0  0  0  0
  148.1210  138.2908  154.5642 H   0  0  0  0  0  0  0  0  0  0  0  0
  149.6212  139.1712  154.8222 H   0  0  0  0  0  0  0  0  0  0  0  0
  149.2561  138.5005  153.2332 H   0  0  0  0  0  0  0  0  0  0  0  0
  147.7113  140.7573  154.6226 H   0  0  0  0  0  0  0  0  0  0  0  0
  149.1154  141.0172  152.2298 H   0  0  0  0  0  0  0  0  0  0  0  0
  146.3791  140.9550  152.5729 H   0  0  0  0  0  0  0  0  0  0  0  0
  147.4435  139.8911  151.6951 H   0  0  0  0  0  0  0  0  0  0  0  0
  145.7035  138.9564  153.9224 H   0  0  0  0  0  0  0  0  0  0  0  0
  144.8909  137.1589  153.7927 H   0  0  0  0  0  0  0  0  0  0  0  0
  145.5226  135.9913  150.3166 H   0  0  0  0  0  0  0  0  0  0  0  0
  144.6957  133.8209  149.4620 H   0  0  0  0  0  0  0  0  0  0  0  0
  143.3718  132.3082  151.0486 H   0  0  0  0  0  0  0  0  0  0  0  0
  145.0248  133.9520  155.7367 H   0  0  0  0  0  0  0  0  0  0  0  0
  145.6213  135.5343  155.2150 H   0  0  0  0  0  0  0  0  0  0  0  0
  143.5026  134.9474  157.3069 H   0  0  0  0  0  0  0  0  0  0  0  0
  144.8890  136.0325  157.4569 H   0  0  0  0  0  0  0  0  0  0  0  0
  142.4668  137.0807  156.8089 H   0  0  0  0  0  0  0  0  0  0  0  0
  143.8985  137.6253  155.9354 H   0  0  0  0  0  0  0  0  0  0  0  0
  142.7167  136.8880  154.0509 H   0  0  0  0  0  0  0  0  0  0  0  0
  141.7754  135.7233  154.9879 H   0  0  0  0  0  0  0  0  0  0  0  0
  143.0195  133.0076  153.2139 H   0  0  0  0  0  0  0  0  0  0  0  0
  1  2  1  0  0  0  0
  1 20  1  0  0  0  0
  1 21  1  0  0  0  0
  1 22  1  0  0  0  0
  2  3  1  0  0  0  0
  2  4  1  0  0  0  0
  2 23  1  0  0  0  0
  3 24  1  0  0  0  0
  4  5  1  0  0  0  0
  4 25  1  0  0  0  0
  4 26  1  0  0  0  0
  5  6  1  0  0  0  0
  5 27  1  0  0  0  0
  6  7  2  0  0  0  0
  6  8  1  0  0  0  0
  8  9  1  0  0  0  0
  8 28  1  0  0  0  0
  9 14  1  0  0  0  0
  9 10  2  0  0  0  0
 10 11  1  0  0  0  0
 10 29  1  0  0  0  0
 11 12  2  0  0  0  0
 11 30  1  0  0  0  0
 12 13  1  0  0  0  0
 12 31  1  0  0  0  0
 13 14  2  0  0  0  0
 13 40  1  0  0  0  0
 14 15  1  0  0  0  0
 15 19  1  0  0  0  0
 15 16  1  0  0  0  0
 16 17  1  0  0  0  0
 16 32  1  0  0  0  0
 16 33  1  0  0  0  0
 17 18  1  0  0  0  0
 17 34  1  0  0  0  0
 17 35  1  0  0  0  0
 18 19  1  0  0  0  0
 18 36  1  0  0  0  0
 18 37  1  0  0  0  0
 19 38  1  0  0  0  0
 19 39  1  0  0  0  0
M  CHG  1  13   1
M  END
> <s_m_source_file>
AV-unprocessed.smi

> <i_m_source_file_index>
833

> <i_lp_mmshare_version>
43012

> <i_f3d_flags>
0

> <s_epik_input>
W0NIM11bQ0BIXShbT0hdKVtDSDJdW05IXUMoPU8pW05IXWMxW2NIXVtjSF1bY0hdbmMxTjJbQ0gyXVtDSDJdW0NIMl1bQ0gyXTI=

> <s_epik_cmdline>
J2VwaWtfcHl0aG9uJywgJy1waCcsICc3LjAnLCAnLXRuJywgJzgnLCAnLW1hJywgJzIwMCcsICctbWV0YWxfYmluZGluZycsICctaW1hZScsICc8aW5maWxlLm1hZT4nLCAnLW9tYWUnLCAnPG91dGZpbGUubWFlPic=

> <r_lp_tautomer_probability>
0.999994

> <r_epik_Ionization_Penalty>
1.11387

> <r_epik_Ionization_Penalty_Charging>
1.11385

> <r_epik_Ionization_Penalty_Neutral>
1.95796e-05

> <r_epik_State_Penalty>
1.17209

> <r_epik_Charging_Adjusted_Penalty>
2.28594

> <i_epik_Tot_Q>
1

> <i_epik_Tot_abs_Q>
1

> <r_epik_Metal_State_Penalty>
1.25763

> <b_epik_Metal_Only>
0

> <s_lp_Force_Field>
OPLS_2005

> <r_lp_Energy>
38.2358

> <b_lp_Chiralities_Consistent>
1

> <s_lp_Variant>
AV-unprocessed.smi:833-4

> <Gold.Version>
5.8.1

> <Gold.Id.Protein>
6NUR|6NUR_protein|mol2

> <Gold.PLP.Fitness>
36.7178

> <Gold.PLP.PLP>
-25.3521

> <Gold.PLP.part.hbond>
-5.4666

> <Gold.PLP.part.metal>
0.0000

> <Gold.PLP.part.buried>
-3.8892

> <Gold.PLP.part.nonpolar>
-19.4149

> <Gold.PLP.part.repulsive>
2.2696

> <Gold.PLP.ligand.clash>
0.0000

> <Gold.PLP.ligand.torsion>
0.3232

> <Gold.PLP.Chemscore.Hbond>
3.8763

> <Gold.PLP.Chemscore.CHOScore>
0.0000

> <Gold.PLP.Chemscore.Metal>
0.0000

> <Gold.Chemscore.Hbonds>
donor molecule, donor type, donor heavy atom, donor atom, acceptor molecule, acceptor atom, score
      L1  H     3    24       P1  7957  0.84
      L1  H    13    40       P1 10957  2.00
      P1  H  7954  7966       L1     7  0.81

> <Gold.PLP.Chemscore.Internal.Correction>
0.3832

> <Gold.Rescore>
     Score         DG    S(hbond)    S(metal)    S(lipo)     H(rot)  DE(clash)    DE(int)     intcor
     10.72     -13.71       2.35        0.00      48.47       2.06       1.28       1.71       ----

> <Gold.Chemscore.Fitness>
10.7155

> <Gold.Chemscore.DG>
-13.7059

> <Gold.Chemscore.ZeroCoef>
-5.4800

> <Gold.Chemscore.Hbond>
2.3466

> <Gold.Chemscore.Metal>
0.0000

> <Gold.Chemscore.Lipo>
48.4740

> <Gold.Chemscore.Internal_Hbond>
0.0000

> <Gold.Chemscore.DEClash>
1.2814

> <Gold.Chemscore.DEInternal>
1.7090

> <Gold.Chemscore.Rot>
2.0637

> <Gold.Chemscore.Internal.Correction>
   9.000000E+99

> <Gold.Chemscore.Hbonds>
donor molecule, donor type, donor heavy atom, donor atom, acceptor molecule, acceptor atom, score
      L1  H     3    24       P1  7957  0.79
      L1  H    13    40       P1 10957  0.66
      P1  H  7954  7966       L1     7  0.80

> <Gold.Chemscore.Hbond.Weighted>
-7.8376

> <Gold.Chemscore.Metal.Weighted>
-0.0000

> <Gold.Chemscore.Lipo.Weighted>
-5.6715

> <Gold.Chemscore.Internal_Hbond.Weighted>
0.0000

> <Gold.Chemscore.DEClash.Weighted>
1.2814

> <Gold.Chemscore.DEInternal.Weighted>
1.7090

> <Gold.Chemscore.Rot.Weighted>
5.2832

> <Gold.Chemscore.Internal.Correction.Weighted>
   9.000000E+99

> <Gold.Protein.RotatedTorsions>
[ 6907 6896 6895 6894 ] final   64.89 input  -60.11 | X-H torsion
[ 7974 7965 7964 7962 ] final  117.38 input  175.53 | X-H torsion
[ 8008 7997 7996 7995 ] final   74.13 input   59.86 | X-H torsion
[ 10167 10162 10161 10158 ] final  104.00 input  -65.29 | X-H torsion
[ 10718 10713 10712 10709 ] final -172.96 input   66.30 | X-H torsion
[ 10763 10752 10751 10750 ] final  110.80 input  -60.55 | X-H torsion
[ 11005 11000 10999 10996 ] final  -52.71 input  -57.11 | X-H torsion

> <Gold.Protein.ActiveResidues>
 VAL166  LYS551  ARG553  GLY616  TRP617  ASP618  TYR619  PRO620  LYS621  CYS622 
 ASP623  PHE694  ASN695  SER759  ASP760  ASP761  ALA762  ILE779  LEU786  VAL792 
 PHE793  MET794  SER795  GLU796  ALA797  LYS798  CYS799  TRP800  GLU811  SER814 

> <Gold.Protein.RotatedAtoms>
  152.4366  134.5675  159.9911 H   0  0  0  0  0  0  0  0  0  0  0  0  # atno 6907 bound_to 6896
  151.5783  133.3375  159.3011 H   0  0  0  0  0  0  0  0  0  0  0  0  # atno 6908 bound_to 6896
  150.8265  134.7533  159.6881 H   0  0  0  0  0  0  0  0  0  0  0  0  # atno 6909 bound_to 6896
  145.1681  139.3117  143.4482 H   0  0  0  0  0  0  0  0  0  0  0  0  # atno 7974 bound_to 7965
  155.7939  140.3478  155.5364 H   0  0  0  0  0  0  0  0  0  0  0  0  # atno 8008 bound_to 7997
  155.8606  140.0970  157.1636 H   0  0  0  0  0  0  0  0  0  0  0  0  # atno 8009 bound_to 7997
  154.4012  140.1359  156.3944 H   0  0  0  0  0  0  0  0  0  0  0  0  # atno 8010 bound_to 7997
  139.7214  144.7057  151.0866 H   0  0  0  0  0  0  0  0  0  0  0  0  # atno 10167 bound_to 10162
  156.7633  130.9421  151.3118 H   0  0  0  0  0  0  0  0  0  0  0  0  # atno 10718 bound_to 10713
  153.4542  135.3737  155.2301 H   0  0  0  0  0  0  0  0  0  0  0  0  # atno 10763 bound_to 10752
  154.8757  135.3893  154.4002 H   0  0  0  0  0  0  0  0  0  0  0  0  # atno 10764 bound_to 10752
  153.4566  135.7086  153.6140 H   0  0  0  0  0  0  0  0  0  0  0  0  # atno 10765 bound_to 10752
  141.0938  133.6628  156.4064 H   0  0  0  0  0  0  0  0  0  0  0  0  # atno 11005 bound_to 11000
  146.3472  140.1817  142.8589 LP  0  0  0  0  0  0  0  0  0  0  0  0  # atno 17320 bound_to 7965
  145.0261  140.8833  143.5138 LP  0  0  0  0  0  0  0  0  0  0  0  0  # atno 17321 bound_to 7965
  140.7754  143.5161  150.9593 LP  0  0  0  0  0  0  0  0  0  0  0  0  # atno 17342 bound_to 10162
  139.8848  143.7027  152.3153 LP  0  0  0  0  0  0  0  0  0  0  0  0  # atno 17343 bound_to 10162
  157.6725  130.9064  150.0072 LP  0  0  0  0  0  0  0  0  0  0  0  0  # atno 17370 bound_to 10713
  156.1325  130.3643  149.9709 LP  0  0  0  0  0  0  0  0  0  0  0  0  # atno 17371 bound_to 10713
  140.5188  134.6324  157.5311 LP  0  0  0  0  0  0  0  0  0  0  0  0  # atno 17394 bound_to 11000
  139.9770  134.7199  155.9931 LP  0  0  0  0  0  0  0  0  0  0  0  0  # atno 17395 bound_to 11000

$$$$
