AV-unprocessed.smi:317|AV-procd|sdf|2326|dock4
  -GOLD-   2262022233D 1   1.00000     0.00000
 Structure written by MMmdl.
 39 40  0  0  0  0  0  0  0  0  1 V2000
  150.0102  137.9974  156.4499 C   0  0  0  0  0  0  0  0  0  0  0  0
  150.7457  137.6948  155.1339 C   0  0  2  0  0  0  0  0  0  0  0  0
  150.7426  138.9189  154.2005 C   0  0  0  0  0  0  0  0  0  0  0  0
  149.4825  139.0582  153.5788 O   0  0  0  0  0  0  0  0  0  0  0  0
  150.0924  136.5732  154.4643 N   0  0  0  0  0  0  0  0  0  0  0  0
  150.0300  135.3196  154.9343 C   0  0  0  0  0  0  0  0  0  0  0  0
  150.5132  134.9681  156.0108 O   0  0  0  0  0  0  0  0  0  0  0  0
  149.3579  134.5194  154.0906 N   0  0  0  0  0  0  0  0  0  0  0  0
  149.0395  133.1431  154.2601 C   0  0  0  0  0  0  0  0  0  0  0  0
  149.7571  132.3288  155.1697 C   0  0  0  0  0  0  0  0  0  0  0  0
  149.4582  130.9581  155.2516 C   0  0  0  0  0  0  0  0  0  0  0  0
  148.4602  130.4443  154.4069 C   0  0  0  0  0  0  0  0  0  0  0  0
  147.7768  131.2034  153.5272 N   0  0  0  0  0  0  0  0  0  0  0  0
  148.0433  132.5306  153.4467 C   0  0  0  0  0  0  0  0  0  0  0  0
  147.2824  133.2802  152.5200 N   0  0  0  0  0  0  0  0  0  0  0  0
  146.5275  132.6100  151.4665 C   0  0  0  0  0  0  0  0  0  0  0  0
  145.5536  133.6633  150.9464 C   0  0  0  0  0  0  0  0  0  0  0  0
  145.2049  134.4372  152.2136 C   0  0  0  0  0  0  0  0  0  0  0  0
  146.5052  134.4093  153.0237 C   0  0  0  0  0  0  0  0  0  0  0  0
  150.4810  138.8251  156.9810 H   0  0  0  0  0  0  0  0  0  0  0  0
  150.0205  137.1352  157.1177 H   0  0  0  0  0  0  0  0  0  0  0  0
  148.9688  138.2671  156.2706 H   0  0  0  0  0  0  0  0  0  0  0  0
  151.7787  137.4378  155.3777 H   0  0  0  0  0  0  0  0  0  0  0  0
  151.0066  139.8340  154.7321 H   0  0  0  0  0  0  0  0  0  0  0  0
  151.4779  138.7897  153.4057 H   0  0  0  0  0  0  0  0  0  0  0  0
  149.5990  139.5193  152.7623 H   0  0  0  0  0  0  0  0  0  0  0  0
  149.6672  136.7655  153.5693 H   0  0  0  0  0  0  0  0  0  0  0  0
  148.9315  134.9678  153.2930 H   0  0  0  0  0  0  0  0  0  0  0  0
  150.5466  132.7293  155.7873 H   0  0  0  0  0  0  0  0  0  0  0  0
  149.9912  130.3149  155.9358 H   0  0  0  0  0  0  0  0  0  0  0  0
  148.2073  129.3947  154.4336 H   0  0  0  0  0  0  0  0  0  0  0  0
  147.1856  132.2425  150.6789 H   0  0  0  0  0  0  0  0  0  0  0  0
  145.9660  131.7652  151.8678 H   0  0  0  0  0  0  0  0  0  0  0  0
  146.0570  134.3196  150.2353 H   0  0  0  0  0  0  0  0  0  0  0  0
  144.6818  133.2313  150.4542 H   0  0  0  0  0  0  0  0  0  0  0  0
  144.8522  135.4489  152.0129 H   0  0  0  0  0  0  0  0  0  0  0  0
  144.4216  133.9100  152.7597 H   0  0  0  0  0  0  0  0  0  0  0  0
  146.3067  134.3292  154.0933 H   0  0  0  0  0  0  0  0  0  0  0  0
  147.0680  135.3271  152.8521 H   0  0  0  0  0  0  0  0  0  0  0  0
  1  2  1  0  0  0  0
  1 20  1  0  0  0  0
  1 21  1  0  0  0  0
  1 22  1  0  0  0  0
  2  3  1  0  0  0  0
  2  5  1  0  0  0  0
  2 23  1  0  0  0  0
  3  4  1  0  0  0  0
  3 24  1  0  0  0  0
  3 25  1  0  0  0  0
  4 26  1  0  0  0  0
  5  6  1  0  0  0  0
  5 27  1  0  0  0  0
  6  7  2  0  0  0  0
  6  8  1  0  0  0  0
  8  9  1  0  0  0  0
  8 28  1  0  0  0  0
  9 14  1  0  0  0  0
  9 10  2  0  0  0  0
 10 11  1  0  0  0  0
 10 29  1  0  0  0  0
 11 12  2  0  0  0  0
 11 30  1  0  0  0  0
 12 13  1  0  0  0  0
 12 31  1  0  0  0  0
 13 14  2  0  0  0  0
 14 15  1  0  0  0  0
 15 19  1  0  0  0  0
 15 16  1  0  0  0  0
 16 17  1  0  0  0  0
 16 32  1  0  0  0  0
 16 33  1  0  0  0  0
 17 18  1  0  0  0  0
 17 34  1  0  0  0  0
 17 35  1  0  0  0  0
 18 19  1  0  0  0  0
 18 36  1  0  0  0  0
 18 37  1  0  0  0  0
 19 38  1  0  0  0  0
 19 39  1  0  0  0  0
M  END
> <s_m_source_file>
AV-unprocessed.smi

> <i_m_source_file_index>
317

> <i_lp_mmshare_version>
43012

> <i_f3d_flags>
0

> <s_epik_input>
W09IXVtDSDJdW0NAQEhdKFtDSDNdKVtOSF1DKD1PKVtOSF1jMVtjSF1bY0hdW2NIXW5jMU4yW0NIMl1bQ0gyXVtDSDJdW0NIMl0y

> <s_epik_cmdline>
J2VwaWtfcHl0aG9uJywgJy1waCcsICc3LjAnLCAnLXRuJywgJzgnLCAnLW1hJywgJzIwMCcsICctbWV0YWxfYmluZGluZycsICctaW1hZScsICc8aW5maWxlLm1hZT4nLCAnLW9tYWUnLCAnPG91dGZpbGUubWFlPic=

> <r_lp_tautomer_probability>
1

> <r_epik_Ionization_Penalty>
0.098371

> <r_epik_Ionization_Penalty_Charging>
0

> <r_epik_Ionization_Penalty_Neutral>
0.098371

> <r_epik_State_Penalty>
0.0879016

> <r_epik_Charging_Adjusted_Penalty>
0.0879016

> <i_epik_Tot_Q>
0

> <i_epik_Tot_abs_Q>
0

> <r_epik_Metal_State_Penalty>
0.0753294

> <b_epik_Metal_Only>
0

> <s_lp_Force_Field>
OPLS_2005

> <r_lp_Energy>
32.6275

> <b_lp_Chiralities_Consistent>
1

> <s_lp_Variant>
AV-unprocessed.smi:317-1

> <Gold.Version>
5.8.1

> <Gold.Id.Protein>
6NUR|6NUR_protein|mol2

> <Gold.PLP.Fitness>
38.1659

> <Gold.PLP.PLP>
-29.7936

> <Gold.PLP.part.hbond>
-3.5943

> <Gold.PLP.part.metal>
0.0000

> <Gold.PLP.part.buried>
-3.0554

> <Gold.PLP.part.nonpolar>
-23.1950

> <Gold.PLP.part.repulsive>
0.3904

> <Gold.PLP.ligand.clash>
0.0000

> <Gold.PLP.ligand.torsion>
0.4548

> <Gold.PLP.Chemscore.Hbond>
2.9840

> <Gold.PLP.Chemscore.CHOScore>
0.0000

> <Gold.PLP.Chemscore.Metal>
0.0000

> <Gold.Chemscore.Hbonds>
donor molecule, donor type, donor heavy atom, donor atom, acceptor molecule, acceptor atom, score
      L1  H     4    26       P1  7957  1.00
      L1  H     5    27       P1  7948  1.00
      L1  H     8    28       P1  7948  1.00

> <Gold.PLP.Chemscore.Internal.Correction>
0.3298

> <Gold.Rescore>
     Score         DG    S(hbond)    S(metal)    S(lipo)     H(rot)  DE(clash)    DE(int)     intcor
     12.68     -14.44       2.35        0.00      54.92       2.08       0.00       1.76       ----

> <Gold.Chemscore.Fitness>
12.6769

> <Gold.Chemscore.DG>
-14.4370

> <Gold.Chemscore.ZeroCoef>
-5.4800

> <Gold.Chemscore.Hbond>
2.3502

> <Gold.Chemscore.Metal>
0.0000

> <Gold.Chemscore.Lipo>
54.9162

> <Gold.Chemscore.Internal_Hbond>
0.0000

> <Gold.Chemscore.DEClash>
0.0048

> <Gold.Chemscore.DEInternal>
1.7553

> <Gold.Chemscore.Rot>
2.0773

> <Gold.Chemscore.Internal.Correction>
   9.000000E+99

> <Gold.Chemscore.Hbonds>
donor molecule, donor type, donor heavy atom, donor atom, acceptor molecule, acceptor atom, score
      L1  H     4    26       P1  7957  1.00
      L1  H     5    27       P1  7948  0.63
      L1  H     8    28       P1  7948  0.29

> <Gold.Chemscore.Hbond.Weighted>
-7.8496

> <Gold.Chemscore.Metal.Weighted>
-0.0000

> <Gold.Chemscore.Lipo.Weighted>
-6.4252

> <Gold.Chemscore.Internal_Hbond.Weighted>
0.0000

> <Gold.Chemscore.DEClash.Weighted>
0.0048

> <Gold.Chemscore.DEInternal.Weighted>
1.7553

> <Gold.Chemscore.Rot.Weighted>
5.3178

> <Gold.Chemscore.Internal.Correction.Weighted>
   9.000000E+99

> <Gold.Protein.RotatedTorsions>
[ 6907 6896 6895 6894 ] final  -37.30 input  -60.11 | X-H torsion
[ 7974 7965 7964 7962 ] final   78.27 input  175.53 | X-H torsion
[ 8008 7997 7996 7995 ] final  -96.61 input   59.86 | X-H torsion
[ 10167 10162 10161 10158 ] final  179.08 input  -65.29 | X-H torsion
[ 10718 10713 10712 10709 ] final  -25.49 input   66.30 | X-H torsion
[ 10763 10752 10751 10750 ] final  142.82 input  -60.55 | X-H torsion
[ 11005 11000 10999 10996 ] final  -32.09 input  -57.11 | X-H torsion

> <Gold.Protein.ActiveResidues>
 VAL166  LYS551  ARG553  GLY616  TRP617  ASP618  TYR619  PRO620  LYS621  CYS622 
 ASP623  PHE694  ASN695  SER759  ASP760  ASP761  ALA762  ILE779  LEU786  VAL792 
 PHE793  MET794  SER795  GLU796  ALA797  LYS798  CYS799  TRP800  GLU811  SER814 

> <Gold.Protein.RotatedAtoms>
  151.0164  134.9436  159.8035 H   0  0  0  0  0  0  0  0  0  0  0  0  # atno 6907 bound_to 6896
  152.5315  134.2961  159.9071 H   0  0  0  0  0  0  0  0  0  0  0  0  # atno 6908 bound_to 6896
  151.2968  133.4098  159.2671 H   0  0  0  0  0  0  0  0  0  0  0  0  # atno 6909 bound_to 6896
  145.6793  139.2519  143.1823 H   0  0  0  0  0  0  0  0  0  0  0  0  # atno 7974 bound_to 7965
  154.7768  140.0470  157.1095 H   0  0  0  0  0  0  0  0  0  0  0  0  # atno 8008 bound_to 7997
  154.9754  140.3095  155.4950 H   0  0  0  0  0  0  0  0  0  0  0  0  # atno 8009 bound_to 7997
  156.2930  140.2246  156.4849 H   0  0  0  0  0  0  0  0  0  0  0  0  # atno 8010 bound_to 7997
  139.5321  144.2604  152.0712 H   0  0  0  0  0  0  0  0  0  0  0  0  # atno 10167 bound_to 10162
  156.4637  130.4509  149.6912 H   0  0  0  0  0  0  0  0  0  0  0  0  # atno 10718 bound_to 10713
  153.9621  135.2959  155.3433 H   0  0  0  0  0  0  0  0  0  0  0  0  # atno 10763 bound_to 10752
  154.7369  135.5042  153.9059 H   0  0  0  0  0  0  0  0  0  0  0  0  # atno 10764 bound_to 10752
  153.0941  135.6716  153.9907 H   0  0  0  0  0  0  0  0  0  0  0  0  # atno 10765 bound_to 10752
  140.9523  133.7213  156.1239 H   0  0  0  0  0  0  0  0  0  0  0  0  # atno 11005 bound_to 11000
  146.0978  140.7580  142.9564 LP  0  0  0  0  0  0  0  0  0  0  0  0  # atno 17320 bound_to 7965
  144.7031  140.3739  143.7140 LP  0  0  0  0  0  0  0  0  0  0  0  0  # atno 17321 bound_to 7965
  140.2069  144.4602  150.6404 LP  0  0  0  0  0  0  0  0  0  0  0  0  # atno 17342 bound_to 10162
  140.6505  143.2224  151.6087 LP  0  0  0  0  0  0  0  0  0  0  0  0  # atno 17343 bound_to 10162
  156.3690  130.7520  151.2502 LP  0  0  0  0  0  0  0  0  0  0  0  0  # atno 17370 bound_to 10713
  157.7496  131.0328  150.4245 LP  0  0  0  0  0  0  0  0  0  0  0  0  # atno 17371 bound_to 10713
  140.7585  134.3965  157.5529 LP  0  0  0  0  0  0  0  0  0  0  0  0  # atno 17394 bound_to 11000
  139.8851  134.8946  156.2662 LP  0  0  0  0  0  0  0  0  0  0  0  0  # atno 17395 bound_to 11000

$$$$
