AV-unprocessed.smi:626|AV-procd|sdf|3111|dock4
  -GOLD-   22720 0 33D 1   1.00000     0.00000
 Structure written by MMmdl.
 34 36  0  0  0  0  0  0  0  0  1 V2000
  147.2568  139.6254  153.9162 C   0  0  0  0  0  0  0  0  0  0  0  0
  148.5612  139.2176  154.4150 N   0  0  0  0  0  0  0  0  0  0  0  0
  149.6470  140.0048  154.4204 C   0  0  0  0  0  0  0  0  0  0  0  0
  149.6461  141.1598  153.9938 O   0  0  0  0  0  0  0  0  0  0  0  0
  150.9310  139.3988  154.9921 C   0  0  0  0  0  0  0  0  0  0  0  0
  151.3291  140.0937  156.2547 C   0  0  0  0  0  0  0  0  0  0  0  0
  152.4951  139.8490  156.8406 N   0  0  0  0  0  0  0  0  0  0  0  0
  152.4828  140.7018  157.9534 O   0  0  0  0  0  0  0  0  0  0  0  0
  151.2868  141.3390  157.9250 C   0  0  0  0  0  0  0  0  0  0  0  0
  151.0273  142.4053  158.9492 C   0  0  2  0  0  0  0  0  0  0  0  0
  150.5183  143.7525  158.3877 C   0  0  0  0  0  0  0  0  0  0  0  0
  151.4788  144.7693  159.0348 C   0  0  2  0  0  0  0  0  0  0  0  0
  152.8639  144.6568  158.3690 C   0  0  0  0  0  0  0  0  0  0  0  0
  153.4100  143.3332  158.9376 C   0  0  0  0  0  0  0  0  0  0  0  0
  152.2408  142.8313  159.8093 C   0  0  1  0  0  0  0  0  0  0  0  0
  151.7363  144.1441  160.4016 C   0  0  0  0  0  0  0  0  0  0  0  0
  150.5471  141.0288  156.8607 N   0  0  0  0  0  0  0  0  0  0  0  0
  146.5703  138.7788  153.9354 H   0  0  0  0  0  0  0  0  0  0  0  0
  147.3248  139.9849  152.8885 H   0  0  0  0  0  0  0  0  0  0  0  0
  146.8379  140.4189  154.5362 H   0  0  0  0  0  0  0  0  0  0  0  0
  148.6428  138.2812  154.7843 H   0  0  0  0  0  0  0  0  0  0  0  0
  150.8023  138.3325  155.1848 H   0  0  0  0  0  0  0  0  0  0  0  0
  151.7299  139.4919  154.2554 H   0  0  0  0  0  0  0  0  0  0  0  0
  150.2611  142.0148  159.6212 H   0  0  0  0  0  0  0  0  0  0  0  0
  150.5453  143.8147  157.2992 H   0  0  0  0  0  0  0  0  0  0  0  0
  149.4882  143.9311  158.6985 H   0  0  0  0  0  0  0  0  0  0  0  0
  151.0867  145.7865  159.0581 H   0  0  0  0  0  0  0  0  0  0  0  0
  152.7984  144.6451  157.2804 H   0  0  0  0  0  0  0  0  0  0  0  0
  153.5051  145.4909  158.6569 H   0  0  0  0  0  0  0  0  0  0  0  0
  153.7099  142.6291  158.1626 H   0  0  0  0  0  0  0  0  0  0  0  0
  154.2886  143.5233  159.5555 H   0  0  0  0  0  0  0  0  0  0  0  0
  152.5398  142.0810  160.5419 H   0  0  0  0  0  0  0  0  0  0  0  0
  152.4897  144.6754  160.9860 H   0  0  0  0  0  0  0  0  0  0  0  0
  150.8325  144.0314  161.0029 H   0  0  0  0  0  0  0  0  0  0  0  0
  1  2  1  0  0  0  0
  1 18  1  0  0  0  0
  1 19  1  0  0  0  0
  1 20  1  0  0  0  0
  2  3  1  0  0  0  0
  2 21  1  0  0  0  0
  3  4  2  0  0  0  0
  3  5  1  0  0  0  0
  5  6  1  0  0  0  0
  5 22  1  0  0  0  0
  5 23  1  0  0  0  0
  6 17  1  0  0  0  0
  6  7  2  0  0  0  0
  7  8  1  0  0  0  0
  8  9  1  0  0  0  0
  9 10  1  0  0  0  0
  9 17  2  0  0  0  0
 10 15  1  0  0  0  0
 10 11  1  0  0  0  0
 10 24  1  0  0  0  0
 11 12  1  0  0  0  0
 11 25  1  0  0  0  0
 11 26  1  0  0  0  0
 12 16  1  0  0  0  0
 12 13  1  0  0  0  0
 12 27  1  0  0  0  0
 13 14  1  0  0  0  0
 13 28  1  0  0  0  0
 13 29  1  0  0  0  0
 14 15  1  0  0  0  0
 14 30  1  0  0  0  0
 14 31  1  0  0  0  0
 15 16  1  0  0  0  0
 15 32  1  0  0  0  0
 16 33  1  0  0  0  0
 16 34  1  0  0  0  0
M  END
> <s_m_source_file>
AV-unprocessed.smi

> <i_m_source_file_index>
626

> <i_lp_mmshare_version>
43012

> <i_f3d_flags>
0

> <s_epik_input>
W0NIM11bTkhdQyg9TylbQ0gyXWMxbm9jKG4xKVtDQEhdKFtDSDJdW0NAQEhdMjMpW0NAQEhdKFtDSDJdMylbQ0gyXVtDSDJdMg==

> <s_epik_cmdline>
J2VwaWtfcHl0aG9uJywgJy1waCcsICc3LjAnLCAnLXRuJywgJzgnLCAnLW1hJywgJzIwMCcsICctbWV0YWxfYmluZGluZycsICctaW1hZScsICc8aW5maWxlLm1hZT4nLCAnLW9tYWUnLCAnPG91dGZpbGUubWFlPic=

> <r_lp_tautomer_probability>
1

> <r_epik_Ionization_Penalty>
1.02916e-07

> <r_epik_Ionization_Penalty_Charging>
0

> <r_epik_Ionization_Penalty_Neutral>
1.02916e-07

> <r_epik_State_Penalty>
-0

> <r_epik_Charging_Adjusted_Penalty>
0

> <i_epik_Tot_Q>
0

> <i_epik_Tot_abs_Q>
0

> <r_epik_Metal_State_Penalty>
-0

> <b_epik_Metal_Only>
0

> <s_lp_Force_Field>
OPLS_2005

> <r_lp_Energy>
49.4755

> <b_lp_Chiralities_Consistent>
1

> <s_lp_Variant>
AV-unprocessed.smi:626-3

> <Gold.Version>
5.8.1

> <Gold.Id.Protein>
6NUR|6NUR_protein|mol2

> <Gold.PLP.Fitness>
41.0599

> <Gold.PLP.PLP>
-36.4833

> <Gold.PLP.part.hbond>
-3.6022

> <Gold.PLP.part.metal>
0.0000

> <Gold.PLP.part.buried>
-1.3776

> <Gold.PLP.part.nonpolar>
-30.1695

> <Gold.PLP.part.repulsive>
0.9693

> <Gold.PLP.ligand.clash>
0.0000

> <Gold.PLP.ligand.torsion>
0.4308

> <Gold.PLP.Chemscore.Hbond>
1.7847

> <Gold.PLP.Chemscore.CHOScore>
0.0000

> <Gold.PLP.Chemscore.Metal>
0.0000

> <Gold.Chemscore.Hbonds>
donor molecule, donor type, donor heavy atom, donor atom, acceptor molecule, acceptor atom, score
      P1  H  7989  7998       L1     4  0.16
      P1  H  7997  8009       L1     7  0.85
      P1  H  8011  8017       L1     4  0.70

> <Gold.PLP.Chemscore.Internal.Correction>
0.0841

> <Gold.Rescore>
     Score         DG    S(hbond)    S(metal)    S(lipo)     H(rot)  DE(clash)    DE(int)     intcor
     13.57     -15.72       1.15        0.00      90.10       1.61       0.47       1.69       ----

> <Gold.Chemscore.Fitness>
13.5660

> <Gold.Chemscore.DG>
-15.7249

> <Gold.Chemscore.ZeroCoef>
-5.4800

> <Gold.Chemscore.Hbond>
1.1465

> <Gold.Chemscore.Metal>
0.0000

> <Gold.Chemscore.Lipo>
90.1045

> <Gold.Chemscore.Internal_Hbond>
0.0000

> <Gold.Chemscore.DEClash>
0.4716

> <Gold.Chemscore.DEInternal>
1.6873

> <Gold.Chemscore.Rot>
1.6119

> <Gold.Chemscore.Internal.Correction>
   9.000000E+99

> <Gold.Chemscore.Hbonds>
donor molecule, donor type, donor heavy atom, donor atom, acceptor molecule, acceptor atom, score
      P1  H  7989  7998       L1     4  0.01
      P1  H  7997  8009       L1     7  0.14
      P1  H  8011  8017       L1     4  0.68

> <Gold.Chemscore.Hbond.Weighted>
-3.8293

> <Gold.Chemscore.Metal.Weighted>
-0.0000

> <Gold.Chemscore.Lipo.Weighted>
-10.5422

> <Gold.Chemscore.Internal_Hbond.Weighted>
0.0000

> <Gold.Chemscore.DEClash.Weighted>
0.4716

> <Gold.Chemscore.DEInternal.Weighted>
1.6873

> <Gold.Chemscore.Rot.Weighted>
4.1266

> <Gold.Chemscore.Internal.Correction.Weighted>
   9.000000E+99

> <Gold.Protein.RotatedTorsions>
[ 6907 6896 6895 6894 ] final  -28.63 input  -60.11 | X-H torsion
[ 7974 7965 7964 7962 ] final   76.22 input  175.53 | X-H torsion
[ 8008 7997 7996 7995 ] final -161.08 input   59.86 | X-H torsion
[ 10167 10162 10161 10158 ] final   50.35 input  -65.29 | X-H torsion
[ 10718 10713 10712 10709 ] final -155.84 input   66.30 | X-H torsion
[ 10763 10752 10751 10750 ] final -120.53 input  -60.55 | X-H torsion
[ 11005 11000 10999 10996 ] final  107.79 input  -57.11 | X-H torsion

> <Gold.Protein.ActiveResidues>
 VAL166  LYS551  ARG553  GLY616  TRP617  ASP618  TYR619  PRO620  LYS621  CYS622 
 ASP623  PHE694  ASN695  SER759  ASP760  ASP761  ALA762  ILE779  LEU786  VAL792 
 PHE793  MET794  SER795  GLU796  ALA797  LYS798  CYS799  TRP800  GLU811  SER814 

> <Gold.Protein.RotatedAtoms>
  151.1303  135.0126  159.8578 H   0  0  0  0  0  0  0  0  0  0  0  0  # atno 6907 bound_to 6896
  152.5451  134.1618  159.8571 H   0  0  0  0  0  0  0  0  0  0  0  0  # atno 6908 bound_to 6896
  151.1684  133.4754  159.2627 H   0  0  0  0  0  0  0  0  0  0  0  0  # atno 6909 bound_to 6896
  145.7056  139.2597  143.1680 H   0  0  0  0  0  0  0  0  0  0  0  0  # atno 7974 bound_to 7965
  155.7869  140.0873  157.2029 H   0  0  0  0  0  0  0  0  0  0  0  0  # atno 8008 bound_to 7997
  154.3987  140.1497  156.3175 H   0  0  0  0  0  0  0  0  0  0  0  0  # atno 8009 bound_to 7997
  155.8597  140.3431  155.5751 H   0  0  0  0  0  0  0  0  0  0  0  0  # atno 8010 bound_to 7997
  140.2733  144.3240  150.6284 H   0  0  0  0  0  0  0  0  0  0  0  0  # atno 10167 bound_to 10162
  156.5183  130.8466  151.2672 H   0  0  0  0  0  0  0  0  0  0  0  0  # atno 10718 bound_to 10713
  154.8646  135.4200  154.2473 H   0  0  0  0  0  0  0  0  0  0  0  0  # atno 10763 bound_to 10752
  153.3427  135.6994  153.6859 H   0  0  0  0  0  0  0  0  0  0  0  0  # atno 10764 bound_to 10752
  153.5831  135.3569  155.2855 H   0  0  0  0  0  0  0  0  0  0  0  0  # atno 10765 bound_to 10752
  139.8833  134.9411  156.5873 H   0  0  0  0  0  0  0  0  0  0  0  0  # atno 11005 bound_to 11000
  146.0758  140.7818  142.9665 LP  0  0  0  0  0  0  0  0  0  0  0  0  # atno 17320 bound_to 7965
  144.6956  140.3413  143.7198 LP  0  0  0  0  0  0  0  0  0  0  0  0  # atno 17321 bound_to 7965
  140.5871  143.2169  151.7321 LP  0  0  0  0  0  0  0  0  0  0  0  0  # atno 17342 bound_to 10162
  139.4982  144.3994  152.0197 LP  0  0  0  0  0  0  0  0  0  0  0  0  # atno 17343 bound_to 10162
  157.7440  130.9926  150.2642 LP  0  0  0  0  0  0  0  0  0  0  0  0  # atno 17370 bound_to 10713
  156.3173  130.3780  149.7606 LP  0  0  0  0  0  0  0  0  0  0  0  0  # atno 17371 bound_to 10713
  140.7982  133.8527  155.8703 LP  0  0  0  0  0  0  0  0  0  0  0  0  # atno 17394 bound_to 11000
  140.9617  134.1647  157.4649 LP  0  0  0  0  0  0  0  0  0  0  0  0  # atno 17395 bound_to 11000

$$$$
