AV-unprocessed.smi:109|AV-procd|sdf|1055|dock6
  -GOLD-   2262018113D 1   1.00000     0.00000
 Structure written by MMmdl.
 58 61  0  0  0  0  0  0  0  0  1 V2000
  149.6700  140.9811  153.4569 O   0  0  0  0  0  0  0  0  0  0  0  0
  148.8764  140.8527  154.6166 C   0  0  0  0  0  0  0  0  0  0  0  0
  149.4510  141.7307  155.7415 C   0  0  0  0  0  0  0  0  0  0  0  0
  150.4353  140.9912  156.6803 C   0  0  2  0  0  0  0  0  0  0  0  0
  149.6759  140.2300  157.6751 N   0  0  0  0  0  0  0  0  0  0  0  0
  149.9547  138.9401  157.9682 C   0  0  0  0  0  0  0  0  0  0  0  0
  150.3858  138.5663  159.2013 N   0  0  0  0  0  0  0  0  0  0  0  0
  150.6525  137.2823  159.4579 C   0  0  0  0  0  0  0  0  0  0  0  0
  150.5581  136.2306  158.6405 N   0  0  0  0  0  0  0  0  0  0  0  0
  150.1288  136.6033  157.4002 C   0  0  0  0  0  0  0  0  0  0  0  0
  149.8075  137.9256  156.9879 C   0  0  0  0  0  0  0  0  0  0  0  0
  149.4060  137.9190  155.6584 N   0  0  0  0  0  0  0  0  0  0  0  0
  149.4851  136.6621  155.3112 C   0  0  0  0  0  0  0  0  0  0  0  0
  149.9101  135.8021  156.3015 N   0  0  0  0  0  0  0  0  0  0  0  0
  150.1075  134.3194  156.2454 C   0  0  2  0  0  0  0  0  0  0  0  0
  150.1979  133.9589  154.8988 O   0  0  0  0  0  0  0  0  0  0  0  0
  149.2427  132.9486  154.5802 C   0  0  2  0  0  0  0  0  0  0  0  0
  148.8135  133.0379  153.1051 C   0  0  0  0  0  0  0  0  0  0  0  0
  148.0669  131.8947  152.7478 O   0  0  0  0  0  0  0  0  0  0  0  0
  148.1223  133.1430  155.6113 C   0  0  2  0  0  0  0  0  0  0  0  0
  147.2014  134.1359  155.1892 O   0  0  0  0  0  0  0  0  0  0  0  0
  148.9123  133.5555  156.8466 C   0  0  2  0  0  0  0  0  0  0  0  0
  148.1382  134.2668  157.7980 O   0  0  0  0  0  0  0  0  0  0  0  0
  151.4344  141.9365  157.4076 C   0  0  0  0  0  0  0  0  0  0  0  0
  152.2362  141.2309  158.5302 C   0  0  0  0  0  0  0  0  0  0  0  0
  153.1871  142.1894  159.2664 C   0  0  0  0  0  0  0  0  0  0  0  0
  152.4366  143.3978  159.8386 C   0  0  0  0  0  0  0  0  0  0  0  0
  151.6622  144.1236  158.7325 C   0  0  0  0  0  0  0  0  0  0  0  0
  150.7041  143.1658  158.0080 C   0  0  0  0  0  0  0  0  0  0  0  0
  151.0484  134.1427  156.7679 H   0  0  0  0  0  0  0  0  0  0  0  0
  149.7064  131.9795  154.7752 H   0  0  0  0  0  0  0  0  0  0  0  0
  147.5674  132.2196  155.7804 H   0  0  0  0  0  0  0  0  0  0  0  0
  149.3135  132.6611  157.3253 H   0  0  0  0  0  0  0  0  0  0  0  0
  149.4450  140.2839  152.8600 H   0  0  0  0  0  0  0  0  0  0  0  0
  147.8548  141.1418  154.3698 H   0  0  0  0  0  0  0  0  0  0  0  0
  148.8570  139.8053  154.9187 H   0  0  0  0  0  0  0  0  0  0  0  0
  149.9549  142.5660  155.2585 H   0  0  0  0  0  0  0  0  0  0  0  0
  148.6370  142.1593  156.3276 H   0  0  0  0  0  0  0  0  0  0  0  0
  151.0376  140.3256  156.0628 H   0  0  0  0  0  0  0  0  0  0  0  0
  148.9353  140.7399  158.1348 H   0  0  0  0  0  0  0  0  0  0  0  0
  150.9896  137.0670  160.4611 H   0  0  0  0  0  0  0  0  0  0  0  0
  149.2339  136.3282  154.3150 H   0  0  0  0  0  0  0  0  0  0  0  0
  148.1701  133.9049  152.9523 H   0  0  0  0  0  0  0  0  0  0  0  0
  149.6747  133.1486  152.4454 H   0  0  0  0  0  0  0  0  0  0  0  0
  148.4656  131.5005  151.9871 H   0  0  0  0  0  0  0  0  0  0  0  0
  147.5366  134.5448  154.4062 H   0  0  0  0  0  0  0  0  0  0  0  0
  147.8120  135.0543  157.3900 H   0  0  0  0  0  0  0  0  0  0  0  0
  152.1513  142.2998  156.6693 H   0  0  0  0  0  0  0  0  0  0  0  0
  151.5478  140.7783  159.2452 H   0  0  0  0  0  0  0  0  0  0  0  0
  152.8417  140.4217  158.1257 H   0  0  0  0  0  0  0  0  0  0  0  0
  153.7003  141.6586  160.0686 H   0  0  0  0  0  0  0  0  0  0  0  0
  153.9615  142.5332  158.5794 H   0  0  0  0  0  0  0  0  0  0  0  0
  151.7463  143.0686  160.6163 H   0  0  0  0  0  0  0  0  0  0  0  0
  153.1388  144.0830  160.3147 H   0  0  0  0  0  0  0  0  0  0  0  0
  151.1022  144.9571  159.1572 H   0  0  0  0  0  0  0  0  0  0  0  0
  152.3615  144.5543  158.0148 H   0  0  0  0  0  0  0  0  0  0  0  0
  150.1860  143.7274  157.2306 H   0  0  0  0  0  0  0  0  0  0  0  0
  149.9341  142.8298  158.7038 H   0  0  0  0  0  0  0  0  0  0  0  0
  1  2  1  0  0  0  0
  1 34  1  0  0  0  0
  2  3  1  0  0  0  0
  2 35  1  0  0  0  0
  2 36  1  0  0  0  0
  3  4  1  0  0  0  0
  3 37  1  0  0  0  0
  3 38  1  0  0  0  0
  4  5  1  0  0  0  0
  4 24  1  0  0  0  0
  4 39  1  0  0  0  0
  5  6  1  0  0  0  0
  5 40  1  0  0  0  0
  6 11  1  0  0  0  0
  6  7  2  0  0  0  0
  7  8  1  0  0  0  0
  8  9  2  0  0  0  0
  8 41  1  0  0  0  0
  9 10  1  0  0  0  0
 10 14  1  0  0  0  0
 10 11  2  0  0  0  0
 11 12  1  0  0  0  0
 12 13  2  0  0  0  0
 13 14  1  0  0  0  0
 13 42  1  0  0  0  0
 14 15  1  0  0  0  0
 15 30  1  0  0  0  0
 15 22  1  0  0  0  0
 15 16  1  0  0  0  0
 16 17  1  0  0  0  0
 17 31  1  0  0  0  0
 17 18  1  0  0  0  0
 17 20  1  0  0  0  0
 18 19  1  0  0  0  0
 18 43  1  0  0  0  0
 18 44  1  0  0  0  0
 19 45  1  0  0  0  0
 20 32  1  0  0  0  0
 20 21  1  0  0  0  0
 20 22  1  0  0  0  0
 21 46  1  0  0  0  0
 22 33  1  0  0  0  0
 22 23  1  0  0  0  0
 23 47  1  0  0  0  0
 24 29  1  0  0  0  0
 24 25  1  0  0  0  0
 24 48  1  0  0  0  0
 25 26  1  0  0  0  0
 25 49  1  0  0  0  0
 25 50  1  0  0  0  0
 26 27  1  0  0  0  0
 26 51  1  0  0  0  0
 26 52  1  0  0  0  0
 27 28  1  0  0  0  0
 27 53  1  0  0  0  0
 27 54  1  0  0  0  0
 28 29  1  0  0  0  0
 28 55  1  0  0  0  0
 28 56  1  0  0  0  0
 29 57  1  0  0  0  0
 29 58  1  0  0  0  0
M  END
> <s_m_source_file>
AV-unprocessed.smi

> <i_m_source_file_index>
109

> <i_lp_mmshare_version>
43012

> <i_f3d_flags>
0

> <s_epik_input>
W0NIMl0xW0NIMl1bQ0gyXVtDSDJdW0NIMl1bQ0hdMVtDQEhdKFtDSDJdW0NIMl1bT0hdKVtOSF1jKG5bY0hdbjIpYyhjMjMpbltjSF1uM1tDQEBIXTRPW0NASF0oW0NIMl1bT0hdKVtDQEBIXShbT0hdKVtDQEhdNFtPSF0=

> <s_epik_cmdline>
J2VwaWtfcHl0aG9uJywgJy1waCcsICc3LjAnLCAnLXRuJywgJzgnLCAnLW1hJywgJzIwMCcsICctbWV0YWxfYmluZGluZycsICctaW1hZScsICc8aW5maWxlLm1hZT4nLCAnLW9tYWUnLCAnPG91dGZpbGUubWFlPic=

> <r_lp_tautomer_probability>
1

> <r_epik_Ionization_Penalty>
0.000793976

> <r_epik_Ionization_Penalty_Charging>
0

> <r_epik_Ionization_Penalty_Neutral>
0.000793976

> <r_epik_State_Penalty>
-0

> <r_epik_Charging_Adjusted_Penalty>
0

> <i_epik_Tot_Q>
0

> <i_epik_Tot_abs_Q>
0

> <r_epik_Metal_State_Penalty>
-0

> <b_epik_Metal_Only>
0

> <s_epik_Chemistry_Notes>
This compound contains an acetal/aminal-like group ( X-CH(R)-Y where X, Y are N, S, or O) that may be acid/base labile, releasing an aldehyde.

> <s_lp_Force_Field>
OPLS_2005

> <r_lp_Energy>
59.4654

> <b_lp_Chiralities_Consistent>
1

> <s_lp_Variant>
AV-unprocessed.smi:109-25

> <Gold.Version>
5.8.1

> <Gold.Id.Protein>
6NUR|6NUR_protein|mol2

> <Gold.PLP.Fitness>
51.2772

> <Gold.PLP.PLP>
-40.4381

> <Gold.PLP.part.hbond>
-5.9085

> <Gold.PLP.part.metal>
0.0000

> <Gold.PLP.part.buried>
-4.1658

> <Gold.PLP.part.nonpolar>
-31.6188

> <Gold.PLP.part.repulsive>
0.2820

> <Gold.PLP.ligand.clash>
0.0000

> <Gold.PLP.ligand.torsion>
2.0393

> <Gold.PLP.Chemscore.Hbond>
3.8699

> <Gold.PLP.Chemscore.CHOScore>
1.0000

> <Gold.PLP.Chemscore.Metal>
0.0000

> <Gold.Chemscore.Hbonds>
donor molecule, donor type, donor heavy atom, donor atom, acceptor molecule, acceptor atom, score
      L1  H     1    34       P1  7957  0.69
      L1  H    19    45       P1 10747  1.00
      P1  H  6896  6907       L1     9  0.88
      P1  H  7989  7998       L1     1  0.26
      P1  H  8011  8017       L1     1  1.00
      L1  C    13    42       P1  7948  1.00

> <Gold.PLP.Chemscore.Internal.Correction>
0.3081

> <Gold.Rescore>
     Score         DG    S(hbond)    S(metal)    S(lipo)     H(rot)  DE(clash)    DE(int)     intcor
      8.50     -11.91       2.59        0.00     100.53       5.47       1.07       2.34       ----

> <Gold.Chemscore.Fitness>
8.4987

> <Gold.Chemscore.DG>
-11.9132

> <Gold.Chemscore.ZeroCoef>
-5.4800

> <Gold.Chemscore.Hbond>
2.5943

> <Gold.Chemscore.Metal>
0.0000

> <Gold.Chemscore.Lipo>
100.5265

> <Gold.Chemscore.Internal_Hbond>
0.0000

> <Gold.Chemscore.DEClash>
1.0697

> <Gold.Chemscore.DEInternal>
2.3448

> <Gold.Chemscore.Rot>
5.4662

> <Gold.Chemscore.Internal.Correction>
   9.000000E+99

> <Gold.Chemscore.Hbonds>
donor molecule, donor type, donor heavy atom, donor atom, acceptor molecule, acceptor atom, score
      L1  H     1    34       P1  7957  0.68
      L1  H    19    45       P1 10747  1.00
      P1  H  6896  6907       L1     9  0.43
      P1  H  7989  7998       L1     1  0.09
      P1  H  8011  8017       L1     1  0.34

> <Gold.Chemscore.Hbond.Weighted>
-8.6651

> <Gold.Chemscore.Metal.Weighted>
-0.0000

> <Gold.Chemscore.Lipo.Weighted>
-11.7616

> <Gold.Chemscore.Internal_Hbond.Weighted>
0.0000

> <Gold.Chemscore.DEClash.Weighted>
1.0697

> <Gold.Chemscore.DEInternal.Weighted>
2.3448

> <Gold.Chemscore.Rot.Weighted>
13.9935

> <Gold.Chemscore.Internal.Correction.Weighted>
   9.000000E+99

> <Gold.Protein.RotatedTorsions>
[ 6907 6896 6895 6894 ] final  -52.45 input  -60.11 | X-H torsion
[ 7974 7965 7964 7962 ] final -114.75 input  175.53 | X-H torsion
[ 8008 7997 7996 7995 ] final  -27.75 input   59.86 | X-H torsion
[ 10167 10162 10161 10158 ] final -115.07 input  -65.29 | X-H torsion
[ 10718 10713 10712 10709 ] final  160.62 input   66.30 | X-H torsion
[ 10763 10752 10751 10750 ] final -162.07 input  -60.55 | X-H torsion
[ 11005 11000 10999 10996 ] final   93.81 input  -57.11 | X-H torsion

> <Gold.Protein.ActiveResidues>
 VAL166  LYS551  ARG553  GLY616  TRP617  ASP618  TYR619  PRO620  LYS621  CYS622 
 ASP623  PHE694  ASN695  SER759  ASP760  ASP761  ALA762  ILE779  LEU786  VAL792 
 PHE793  MET794  SER795  GLU796  ALA797  LYS798  CYS799  TRP800  GLU811  SER814 

> <Gold.Protein.RotatedAtoms>
  150.8517  134.7844  159.7013 H   0  0  0  0  0  0  0  0  0  0  0  0  # atno 6907 bound_to 6896
  152.4580  134.5245  159.9802 H   0  0  0  0  0  0  0  0  0  0  0  0  # atno 6908 bound_to 6896
  151.5365  133.3402  159.2963 H   0  0  0  0  0  0  0  0  0  0  0  0  # atno 6909 bound_to 6896
  145.1165  140.8643  143.3839 H   0  0  0  0  0  0  0  0  0  0  0  0  # atno 7974 bound_to 7965
  154.4363  140.1864  156.0982 H   0  0  0  0  0  0  0  0  0  0  0  0  # atno 8008 bound_to 7997
  156.0313  140.3330  155.7117 H   0  0  0  0  0  0  0  0  0  0  0  0  # atno 8009 bound_to 7997
  155.5835  140.0624  157.2768 H   0  0  0  0  0  0  0  0  0  0  0  0  # atno 8010 bound_to 7997
  140.0941  143.4673  152.1852 H   0  0  0  0  0  0  0  0  0  0  0  0  # atno 10167 bound_to 10162
  157.1479  131.0557  151.2294 H   0  0  0  0  0  0  0  0  0  0  0  0  # atno 10718 bound_to 10713
  154.7247  135.3033  154.8989 H   0  0  0  0  0  0  0  0  0  0  0  0  # atno 10763 bound_to 10752
  153.9850  135.6725  153.4755 H   0  0  0  0  0  0  0  0  0  0  0  0  # atno 10764 bound_to 10752
  153.0865  135.4981  154.8525 H   0  0  0  0  0  0  0  0  0  0  0  0  # atno 10765 bound_to 10752
  139.8805  134.8810  156.3772 H   0  0  0  0  0  0  0  0  0  0  0  0  # atno 11005 bound_to 11000
  145.0788  139.2975  143.5794 LP  0  0  0  0  0  0  0  0  0  0  0  0  # atno 17320 bound_to 7965
  146.3523  140.0287  142.8652 LP  0  0  0  0  0  0  0  0  0  0  0  0  # atno 17321 bound_to 7965
  139.5708  144.7461  151.3896 LP  0  0  0  0  0  0  0  0  0  0  0  0  # atno 17342 bound_to 10162
  140.7013  143.7625  150.7408 LP  0  0  0  0  0  0  0  0  0  0  0  0  # atno 17343 bound_to 10162
  157.4247  130.7457  149.6941 LP  0  0  0  0  0  0  0  0  0  0  0  0  # atno 17370 bound_to 10713
  155.9776  130.4061  150.3702 LP  0  0  0  0  0  0  0  0  0  0  0  0  # atno 17371 bound_to 10713
  140.9424  133.7506  156.0163 LP  0  0  0  0  0  0  0  0  0  0  0  0  # atno 17394 bound_to 11000
  140.8204  134.3296  157.5383 LP  0  0  0  0  0  0  0  0  0  0  0  0  # atno 17395 bound_to 11000

$$$$
