AV-unprocessed.smi:550|AV-procd|sdf|2895|dock10
  -GOLD-   2262023393D 1   1.00000     0.00000
 Structure written by MMmdl.
 45 47  0  0  0  0  0  0  0  0  1 V2000
  146.1571  137.1263  154.9350 O   0  0  0  0  0  0  0  0  0  0  0  0
  146.9768  136.8345  154.0640 C   0  0  0  0  0  0  0  0  0  0  0  0
  146.7337  135.9465  153.0909 N   0  0  0  0  0  0  0  0  0  0  0  0
  145.4851  135.2077  152.9432 C   0  0  0  0  0  0  0  0  0  0  0  0
  145.3866  134.5458  151.5580 C   0  0  1  0  0  0  0  0  0  0  0  0
  146.4465  133.4445  151.3593 C   0  0  0  0  0  0  0  0  0  0  0  0
  146.1085  132.6665  150.0844 C   0  0  0  0  0  0  0  0  0  0  0  0
  144.2800  132.6199  150.0114 S   0  0  0  0  0  0  0  0  0  0  0  0
  143.8394  133.0982  148.6922 O   0  0  0  0  0  0  0  0  0  0  0  0
  143.8012  131.3384  150.5511 O   0  0  0  0  0  0  0  0  0  0  0  0
  144.0060  133.9307  151.2654 C   0  0  0  0  0  0  0  0  0  0  0  0
  148.2047  137.3685  153.9457 N   0  0  0  0  0  0  0  0  0  0  0  0
  148.8481  138.2858  154.8197 C   0  0  0  0  0  0  0  0  0  0  0  0
  148.6001  138.3592  156.2097 C   0  0  0  0  0  0  0  0  0  0  0  0
  149.3179  139.2914  156.9827 C   0  0  0  0  0  0  0  0  0  0  0  0
  150.2736  140.1219  156.3510 C   0  0  0  0  0  0  0  0  0  0  0  0
  151.0077  141.0707  157.0901 N   0  0  0  0  0  0  0  0  0  0  0  0
  151.3205  140.8742  158.4969 C   0  0  0  0  0  0  0  0  0  0  0  0
  151.9915  142.1775  158.9279 C   0  0  0  0  0  0  0  0  0  0  0  0
  151.2971  143.2278  158.0610 C   0  0  0  0  0  0  0  0  0  0  0  0
  150.9804  142.4881  156.7558 C   0  0  0  0  0  0  0  0  0  0  0  0
  150.5141  140.0453  155.0202 N   0  0  0  0  0  0  0  0  0  0  0  0
  149.8257  139.1479  154.2840 C   0  0  0  0  0  0  0  0  0  0  0  0
  147.4571  135.7685  152.4098 H   0  0  0  0  0  0  0  0  0  0  0  0
  145.4160  134.4408  153.7167 H   0  0  0  0  0  0  0  0  0  0  0  0
  144.6499  135.8919  153.0987 H   0  0  0  0  0  0  0  0  0  0  0  0
  145.5727  135.3077  150.7992 H   0  0  0  0  0  0  0  0  0  0  0  0
  147.4551  133.8565  151.3179 H   0  0  0  0  0  0  0  0  0  0  0  0
  146.4165  132.7594  152.2077 H   0  0  0  0  0  0  0  0  0  0  0  0
  146.4690  133.1958  149.2020 H   0  0  0  0  0  0  0  0  0  0  0  0
  146.5146  131.6551  150.0775 H   0  0  0  0  0  0  0  0  0  0  0  0
  143.5898  133.4566  152.1548 H   0  0  0  0  0  0  0  0  0  0  0  0
  143.2863  134.6595  150.8926 H   0  0  0  0  0  0  0  0  0  0  0  0
  148.7252  137.1187  153.1174 H   0  0  0  0  0  0  0  0  0  0  0  0
  147.8876  137.7127  156.6983 H   0  0  0  0  0  0  0  0  0  0  0  0
  149.1246  139.3567  158.0429 H   0  0  0  0  0  0  0  0  0  0  0  0
  150.3980  140.7123  159.0562 H   0  0  0  0  0  0  0  0  0  0  0  0
  151.9738  140.0144  158.6483 H   0  0  0  0  0  0  0  0  0  0  0  0
  151.8948  142.3717  159.9964 H   0  0  0  0  0  0  0  0  0  0  0  0
  153.0545  142.1443  158.6850 H   0  0  0  0  0  0  0  0  0  0  0  0
  150.3673  143.5367  158.5405 H   0  0  0  0  0  0  0  0  0  0  0  0
  151.9043  144.1196  157.9043 H   0  0  0  0  0  0  0  0  0  0  0  0
  151.7432  142.6872  156.0026 H   0  0  0  0  0  0  0  0  0  0  0  0
  150.0136  142.7985  156.3577 H   0  0  0  0  0  0  0  0  0  0  0  0
  150.0611  139.1231  153.2300 H   0  0  0  0  0  0  0  0  0  0  0  0
  1  2  2  0  0  0  0
  2  3  1  0  0  0  0
  2 12  1  0  0  0  0
  3  4  1  0  0  0  0
  3 24  1  0  0  0  0
  4  5  1  0  0  0  0
  4 25  1  0  0  0  0
  4 26  1  0  0  0  0
  5 11  1  0  0  0  0
  5  6  1  0  0  0  0
  5 27  1  0  0  0  0
  6  7  1  0  0  0  0
  6 28  1  0  0  0  0
  6 29  1  0  0  0  0
  7  8  1  0  0  0  0
  7 30  1  0  0  0  0
  7 31  1  0  0  0  0
  8  9  2  0  0  0  0
  8 10  2  0  0  0  0
  8 11  1  0  0  0  0
 11 32  1  0  0  0  0
 11 33  1  0  0  0  0
 12 13  1  0  0  0  0
 12 34  1  0  0  0  0
 13 23  1  0  0  0  0
 13 14  2  0  0  0  0
 14 15  1  0  0  0  0
 14 35  1  0  0  0  0
 15 16  2  0  0  0  0
 15 36  1  0  0  0  0
 16 17  1  0  0  0  0
 16 22  1  0  0  0  0
 17 21  1  0  0  0  0
 17 18  1  0  0  0  0
 18 19  1  0  0  0  0
 18 37  1  0  0  0  0
 18 38  1  0  0  0  0
 19 20  1  0  0  0  0
 19 39  1  0  0  0  0
 19 40  1  0  0  0  0
 20 21  1  0  0  0  0
 20 41  1  0  0  0  0
 20 42  1  0  0  0  0
 21 43  1  0  0  0  0
 21 44  1  0  0  0  0
 22 23  2  0  0  0  0
 23 45  1  0  0  0  0
M  END
> <s_m_source_file>
AV-unprocessed.smi

> <i_m_source_file_index>
550

> <i_lp_mmshare_version>
43012

> <i_f3d_flags>
0

> <s_epik_input>
Tz1TMSg9TylbQ0gyXVtDSDJdW0NASF0oW0NIMl0xKVtDSDJdW05IXUMoPU8pW05IXWMyW2NIXVtjSF1jKG5bY0hdMilOM1tDSDJdW0NIMl1bQ0gyXVtDSDJdMw==

> <s_epik_cmdline>
J2VwaWtfcHl0aG9uJywgJy1waCcsICc3LjAnLCAnLXRuJywgJzgnLCAnLW1hJywgJzIwMCcsICctbWV0YWxfYmluZGluZycsICctaW1hZScsICc8aW5maWxlLm1hZT4nLCAnLW9tYWUnLCAnPG91dGZpbGUubWFlPic=

> <r_lp_tautomer_probability>
1

> <r_epik_Ionization_Penalty>
0.0965651

> <r_epik_Ionization_Penalty_Charging>
0

> <r_epik_Ionization_Penalty_Neutral>
0.0965651

> <r_epik_State_Penalty>
0.0861592

> <r_epik_Charging_Adjusted_Penalty>
0.0861592

> <i_epik_Tot_Q>
0

> <i_epik_Tot_abs_Q>
0

> <r_epik_Metal_State_Penalty>
0.0740405

> <b_epik_Metal_Only>
0

> <s_lp_Force_Field>
OPLS_2005

> <r_lp_Energy>
33.1318

> <b_lp_Chiralities_Consistent>
1

> <s_lp_Variant>
AV-unprocessed.smi:550-2

> <Gold.Version>
5.8.1

> <Gold.Id.Protein>
6NUR|6NUR_protein|mol2

> <Gold.PLP.Fitness>
43.5823

> <Gold.PLP.PLP>
-32.7252

> <Gold.PLP.part.hbond>
-3.6943

> <Gold.PLP.part.metal>
0.0000

> <Gold.PLP.part.buried>
-4.8308

> <Gold.PLP.part.nonpolar>
-26.4206

> <Gold.PLP.part.repulsive>
1.6166

> <Gold.PLP.ligand.clash>
0.0000

> <Gold.PLP.ligand.torsion>
0.9838

> <Gold.PLP.Chemscore.Hbond>
3.2107

> <Gold.PLP.Chemscore.CHOScore>
1.0000

> <Gold.PLP.Chemscore.Metal>
0.0000

> <Gold.Chemscore.Hbonds>
donor molecule, donor type, donor heavy atom, donor atom, acceptor molecule, acceptor atom, score
      L1  H     3    24       P1  7948  0.93
      L1  H    12    34       P1  7948  1.00
      P1  H  7989  7998       L1    22  0.83
      P1  H 10785 10796       L1    10  0.34
      L1  C    23    45       P1  7957  1.00

> <Gold.PLP.Chemscore.Internal.Correction>
0.1926

> <Gold.Rescore>
     Score         DG    S(hbond)    S(metal)    S(lipo)     H(rot)  DE(clash)    DE(int)     intcor
     16.60     -18.84       2.21        0.00      78.53       1.25       0.24       2.00       ----

> <Gold.Chemscore.Fitness>
16.6009

> <Gold.Chemscore.DG>
-18.8351

> <Gold.Chemscore.ZeroCoef>
-5.4800

> <Gold.Chemscore.Hbond>
2.2062

> <Gold.Chemscore.Metal>
0.0000

> <Gold.Chemscore.Lipo>
78.5314

> <Gold.Chemscore.Internal_Hbond>
0.0000

> <Gold.Chemscore.DEClash>
0.2355

> <Gold.Chemscore.DEInternal>
1.9987

> <Gold.Chemscore.Rot>
1.2506

> <Gold.Chemscore.Internal.Correction>
   9.000000E+99

> <Gold.Chemscore.Hbonds>
donor molecule, donor type, donor heavy atom, donor atom, acceptor molecule, acceptor atom, score
      L1  H     3    24       P1  7948  0.91
      L1  H    12    34       P1  7948  0.92
      P1  H  7989  7998       L1    22  0.16
      P1  H 10785 10796       L1    10  0.18

> <Gold.Chemscore.Hbond.Weighted>
-7.3685

> <Gold.Chemscore.Metal.Weighted>
-0.0000

> <Gold.Chemscore.Lipo.Weighted>
-9.1882

> <Gold.Chemscore.Internal_Hbond.Weighted>
0.0000

> <Gold.Chemscore.DEClash.Weighted>
0.2355

> <Gold.Chemscore.DEInternal.Weighted>
1.9987

> <Gold.Chemscore.Rot.Weighted>
3.2016

> <Gold.Chemscore.Internal.Correction.Weighted>
   9.000000E+99

> <Gold.Protein.RotatedTorsions>
[ 6907 6896 6895 6894 ] final  -97.65 input  -60.11 | X-H torsion
[ 7974 7965 7964 7962 ] final  141.37 input  175.53 | X-H torsion
[ 8008 7997 7996 7995 ] final   91.34 input   59.86 | X-H torsion
[ 10167 10162 10161 10158 ] final  -99.02 input  -65.29 | X-H torsion
[ 10718 10713 10712 10709 ] final  164.88 input   66.30 | X-H torsion
[ 10763 10752 10751 10750 ] final  159.05 input  -60.55 | X-H torsion
[ 11005 11000 10999 10996 ] final -154.17 input  -57.11 | X-H torsion

> <Gold.Protein.ActiveResidues>
 VAL166  LYS551  ARG553  GLY616  TRP617  ASP618  TYR619  PRO620  LYS621  CYS622 
 ASP623  PHE694  ASN695  SER759  ASP760  ASP761  ALA762  ILE779  LEU786  VAL792 
 PHE793  MET794  SER795  GLU796  ALA797  LYS798  CYS799  TRP800  GLU811  SER814 

> <Gold.Protein.RotatedAtoms>
  150.7022  134.1316  159.4071 H   0  0  0  0  0  0  0  0  0  0  0  0  # atno 6907 bound_to 6896
  151.9302  135.0257  160.0538 H   0  0  0  0  0  0  0  0  0  0  0  0  # atno 6908 bound_to 6896
  152.2182  133.4928  159.5184 H   0  0  0  0  0  0  0  0  0  0  0  0  # atno 6909 bound_to 6896
  144.9103  139.5302  143.5712 H   0  0  0  0  0  0  0  0  0  0  0  0  # atno 7974 bound_to 7965
  156.0226  140.3339  155.7054 H   0  0  0  0  0  0  0  0  0  0  0  0  # atno 8008 bound_to 7997
  155.6001  140.0655  157.2753 H   0  0  0  0  0  0  0  0  0  0  0  0  # atno 8009 bound_to 7997
  154.4322  140.1812  156.1152 H   0  0  0  0  0  0  0  0  0  0  0  0  # atno 8010 bound_to 7997
  140.2668  143.3370  152.0573 H   0  0  0  0  0  0  0  0  0  0  0  0  # atno 10167 bound_to 10162
  157.0881  131.0410  151.2548 H   0  0  0  0  0  0  0  0  0  0  0  0  # atno 10718 bound_to 10713
  154.2257  135.2780  155.2908 H   0  0  0  0  0  0  0  0  0  0  0  0  # atno 10763 bound_to 10752
  154.5665  135.5631  153.7059 H   0  0  0  0  0  0  0  0  0  0  0  0  # atno 10764 bound_to 10752
  153.0031  135.6311  154.2398 H   0  0  0  0  0  0  0  0  0  0  0  0  # atno 10765 bound_to 10752
  140.7002  134.3945  157.5210 H   0  0  0  0  0  0  0  0  0  0  0  0  # atno 11005 bound_to 11000
  146.3155  139.7903  142.8987 LP  0  0  0  0  0  0  0  0  0  0  0  0  # atno 17320 bound_to 7965
  145.3466  141.0299  143.3362 LP  0  0  0  0  0  0  0  0  0  0  0  0  # atno 17321 bound_to 7965
  139.5000  144.6683  151.6304 LP  0  0  0  0  0  0  0  0  0  0  0  0  # atno 17342 bound_to 10162
  140.5922  143.9760  150.6331 LP  0  0  0  0  0  0  0  0  0  0  0  0  # atno 17343 bound_to 10162
  157.4744  130.7728  149.7354 LP  0  0  0  0  0  0  0  0  0  0  0  0  # atno 17370 bound_to 10713
  155.9905  130.3944  150.3025 LP  0  0  0  0  0  0  0  0  0  0  0  0  # atno 17371 bound_to 10713
  139.8899  134.8819  156.2398 LP  0  0  0  0  0  0  0  0  0  0  0  0  # atno 17394 bound_to 11000
  141.0170  133.7063  156.1204 LP  0  0  0  0  0  0  0  0  0  0  0  0  # atno 17395 bound_to 11000

$$$$
