AV-unprocessed.smi:2999|AV-procd|sdf|11426|dock6
  -GOLD-   2272016353D 1   1.00000     0.00000
 Structure written by MMmdl.
 37 39  0  0  0  0  0  0  0  0  3 V2000
  150.7498  134.3629  155.8527 O   0  0  0  0  0  0  0  0  0  0  0  0
  150.5412  134.9250  154.7754 C   0  0  0  0  0  0  0  0  0  0  0  0
  149.3762  134.7445  154.1388 N   0  0  0  0  0  0  0  0  0  0  0  0
  148.2881  133.8689  154.5649 C   0  0  0  0  0  0  0  0  0  0  0  0
  146.9563  134.1652  153.8433 C   0  0  1  0  0  0  0  0  0  0  0  0
  145.9057  133.0371  153.9840 C   0  0  0  0  0  0  0  0  0  0  0  0
  144.6265  133.3998  153.3302 N   0  3  2  0  0  0  0  0  0  0  0  0
  144.6609  133.2723  151.8547 C   0  0  0  0  0  0  0  0  0  0  0  0
  143.3091  132.9946  151.2401 C   0  0  0  0  0  0  0  0  0  0  0  0
  144.3286  131.8841  151.3602 C   0  0  0  0  0  0  0  0  0  0  0  0
  144.1494  134.7227  153.7976 C   0  0  0  0  0  0  0  0  0  0  0  0
  145.2439  135.7949  153.6516 C   0  0  0  0  0  0  0  0  0  0  0  0
  146.4143  135.3831  154.3445 O   0  0  0  0  0  0  0  0  0  0  0  0
  151.3949  135.7400  154.1166 N   0  5  0  0  0  0  0  0  0  0  0  0
  151.7836  136.8977  154.6754 C   0  0  0  0  0  0  0  0  0  0  0  0
  151.0194  137.5855  155.5316 N   0  0  0  0  0  0  0  0  0  0  0  0
  151.6216  138.7568  155.9952 C   0  0  0  0  0  0  0  0  0  0  0  0
  152.8762  138.9618  155.4853 C   0  0  0  0  0  0  0  0  0  0  0  0
  153.3423  137.6814  154.4023 S   0  0  0  0  0  0  0  0  0  0  0  0
  149.2492  135.2376  153.2672 H   0  0  0  0  0  0  0  0  0  0  0  0
  148.5672  132.8213  154.4415 H   0  0  0  0  0  0  0  0  0  0  0  0
  148.1560  134.0226  155.6359 H   0  0  0  0  0  0  0  0  0  0  0  0
  147.1906  134.3128  152.7879 H   0  0  0  0  0  0  0  0  0  0  0  0
  146.2859  132.0997  153.5766 H   0  0  0  0  0  0  0  0  0  0  0  0
  145.6891  132.8519  155.0367 H   0  0  0  0  0  0  0  0  0  0  0  0
  145.3888  133.8828  151.3240 H   0  0  0  0  0  0  0  0  0  0  0  0
  142.4424  132.9539  151.8973 H   0  0  0  0  0  0  0  0  0  0  0  0
  143.1192  133.3909  150.2447 H   0  0  0  0  0  0  0  0  0  0  0  0
  144.8117  131.5488  150.4446 H   0  0  0  0  0  0  0  0  0  0  0  0
  144.1382  131.1057  152.0973 H   0  0  0  0  0  0  0  0  0  0  0  0
  143.2479  135.0135  153.2572 H   0  0  0  0  0  0  0  0  0  0  0  0
  143.8684  134.6356  154.8479 H   0  0  0  0  0  0  0  0  0  0  0  0
  145.4746  135.9881  152.6031 H   0  0  0  0  0  0  0  0  0  0  0  0
  144.9006  136.7379  154.0770 H   0  0  0  0  0  0  0  0  0  0  0  0
  151.0838  139.3862  156.6884 H   0  0  0  0  0  0  0  0  0  0  0  0
  153.5514  139.7811  155.6797 H   0  0  0  0  0  0  0  0  0  0  0  0
  143.9450  132.7233  153.6433 H   0  0  0  0  0  0  0  0  0  0  0  0
  1  2  2  0  0  0  0
  2  3  1  0  0  0  0
  2 14  1  0  0  0  0
  3  4  1  0  0  0  0
  3 20  1  0  0  0  0
  4  5  1  0  0  0  0
  4 21  1  0  0  0  0
  4 22  1  0  0  0  0
  5 13  1  0  0  0  0
  5  6  1  0  0  0  0
  5 23  1  0  0  0  0
  6  7  1  0  0  0  0
  6 24  1  0  0  0  0
  6 25  1  0  0  0  0
  7  8  1  0  0  0  0
  7 11  1  0  0  0  0
  7 37  1  0  0  0  0
  8 10  1  0  0  0  0
  8  9  1  0  0  0  0
  8 26  1  0  0  0  0
  9 10  1  0  0  0  0
  9 27  1  0  0  0  0
  9 28  1  0  0  0  0
 10 29  1  0  0  0  0
 10 30  1  0  0  0  0
 11 12  1  0  0  0  0
 11 31  1  0  0  0  0
 11 32  1  0  0  0  0
 12 13  1  0  0  0  0
 12 33  1  0  0  0  0
 12 34  1  0  0  0  0
 14 15  1  0  0  0  0
 15 19  1  0  0  0  0
 15 16  2  0  0  0  0
 16 17  1  0  0  0  0
 17 18  2  0  0  0  0
 17 35  1  0  0  0  0
 18 19  1  0  0  0  0
 18 36  1  0  0  0  0
M  CHG  1   7   1
M  CHG  1  14  -1
M  END
> <s_m_source_file>
AV-unprocessed.smi

> <i_m_source_file_index>
2999

> <i_lp_mmshare_version>
43012

> <i_f3d_flags>
0

> <s_epik_input>
czFbY0hdW2NIXW5jMVtOSF1DKD1PKVtOSF1bQ0gyXVtDQEBIXTJbQ0gyXU4oW0NIMl1bQ0gyXU8yKVtDSF0zW0NIMl1bQ0gyXTM=

> <s_epik_cmdline>
J2VwaWtfcHl0aG9uJywgJy1waCcsICc3LjAnLCAnLXRuJywgJzgnLCAnLW1hJywgJzIwMCcsICctbWV0YWxfYmluZGluZycsICctaW1hZScsICc8aW5maWxlLm1hZT4nLCAnLW9tYWUnLCAnPG91dGZpbGUubWFlPic=

> <r_lp_tautomer_probability>
0.999

> <r_epik_Ionization_Penalty>
7.79196

> <r_epik_Ionization_Penalty_Charging>
6.93299

> <r_epik_Ionization_Penalty_Neutral>
0.858963

> <r_epik_State_Penalty>
7.05108

> <r_epik_Charging_Adjusted_Penalty>
13.9841

> <i_epik_Tot_Q>
0

> <i_epik_Tot_abs_Q>
2

> <r_epik_Metal_State_Penalty>
3.05936

> <b_epik_Metal_Only>
1

> <s_lp_Force_Field>
OPLS_2005

> <r_lp_Energy>
16.0159

> <b_lp_Chiralities_Consistent>
1

> <s_lp_Variant>
AV-unprocessed.smi:2999-10

> <Gold.Version>
5.8.1

> <Gold.Id.Protein>
6NUR|6NUR_protein|mol2

> <Gold.PLP.Fitness>
39.7068

> <Gold.PLP.PLP>
-26.6574

> <Gold.PLP.part.hbond>
-3.0000

> <Gold.PLP.part.metal>
0.0000

> <Gold.PLP.part.buried>
-4.1701

> <Gold.PLP.part.nonpolar>
-20.9130

> <Gold.PLP.part.repulsive>
1.1143

> <Gold.PLP.ligand.clash>
0.0000

> <Gold.PLP.ligand.torsion>
1.6088

> <Gold.PLP.Chemscore.Hbond>
5.0000

> <Gold.PLP.Chemscore.CHOScore>
0.0000

> <Gold.PLP.Chemscore.Metal>
0.0000

> <Gold.Chemscore.Hbonds>
donor molecule, donor type, donor heavy atom, donor atom, acceptor molecule, acceptor atom, score
      L1  H     3    20       P1  7948  0.85
      L1  H     7    37       P1 10957  2.00

> <Gold.PLP.Chemscore.Internal.Correction>
1.2670

> <Gold.Rescore>
     Score         DG    S(hbond)    S(metal)    S(lipo)     H(rot)  DE(clash)    DE(int)     intcor
     13.13     -14.84       2.17        0.00      52.10       1.55       0.00       1.71       ----

> <Gold.Chemscore.Fitness>
13.1300

> <Gold.Chemscore.DG>
-14.8439

> <Gold.Chemscore.ZeroCoef>
-5.4800

> <Gold.Chemscore.Hbond>
2.1668

> <Gold.Chemscore.Metal>
0.0000

> <Gold.Chemscore.Lipo>
52.1010

> <Gold.Chemscore.Internal_Hbond>
0.0000

> <Gold.Chemscore.DEClash>
0.0000

> <Gold.Chemscore.DEInternal>
1.7139

> <Gold.Chemscore.Rot>
1.5504

> <Gold.Chemscore.Internal.Correction>
   9.000000E+99

> <Gold.Chemscore.Hbonds>
donor molecule, donor type, donor heavy atom, donor atom, acceptor molecule, acceptor atom, score
      L1  H     3    20       P1  7948  0.15
      L1  H     7    37       P1 10957  0.64

> <Gold.Chemscore.Hbond.Weighted>
-7.2371

> <Gold.Chemscore.Metal.Weighted>
-0.0000

> <Gold.Chemscore.Lipo.Weighted>
-6.0958

> <Gold.Chemscore.Internal_Hbond.Weighted>
0.0000

> <Gold.Chemscore.DEClash.Weighted>
0.0000

> <Gold.Chemscore.DEInternal.Weighted>
1.7139

> <Gold.Chemscore.Rot.Weighted>
3.9690

> <Gold.Chemscore.Internal.Correction.Weighted>
   9.000000E+99

> <Gold.Protein.RotatedTorsions>
[ 6907 6896 6895 6894 ] final -142.24 input  -60.11 | X-H torsion
[ 7974 7965 7964 7962 ] final    0.47 input  175.53 | X-H torsion
[ 8008 7997 7996 7995 ] final  -86.65 input   59.86 | X-H torsion
[ 10167 10162 10161 10158 ] final   -3.59 input  -65.29 | X-H torsion
[ 10718 10713 10712 10709 ] final   90.87 input   66.30 | X-H torsion
[ 10763 10752 10751 10750 ] final  -56.46 input  -60.55 | X-H torsion
[ 11005 11000 10999 10996 ] final  125.77 input  -57.11 | X-H torsion

> <Gold.Protein.ActiveResidues>
 VAL166  LYS551  ARG553  GLY616  TRP617  ASP618  TYR619  PRO620  LYS621  CYS622 
 ASP623  PHE694  ASN695  SER759  ASP760  ASP761  ALA762  ILE779  LEU786  VAL792 
 PHE793  MET794  SER795  GLU796  ALA797  LYS798  CYS799  TRP800  GLU811  SER814 

> <Gold.Protein.RotatedAtoms>
  151.0845  133.5364  159.2618 H   0  0  0  0  0  0  0  0  0  0  0  0  # atno 6907 bound_to 6896
  151.2255  135.0534  159.8977 H   0  0  0  0  0  0  0  0  0  0  0  0  # atno 6908 bound_to 6896
  152.5427  134.0641  159.8219 H   0  0  0  0  0  0  0  0  0  0  0  0  # atno 6909 bound_to 6896
  146.2434  140.1133  142.8343 H   0  0  0  0  0  0  0  0  0  0  0  0  # atno 7974 bound_to 7965
  154.6543  140.0576  156.9991 H   0  0  0  0  0  0  0  0  0  0  0  0  # atno 8008 bound_to 7997
  155.1324  140.3258  155.4452 H   0  0  0  0  0  0  0  0  0  0  0  0  # atno 8009 bound_to 7997
  156.2590  140.1978  156.6443 H   0  0  0  0  0  0  0  0  0  0  0  0  # atno 8010 bound_to 7997
  140.6896  143.6522  150.8340 H   0  0  0  0  0  0  0  0  0  0  0  0  # atno 10167 bound_to 10162
  157.6959  131.0387  150.3644 H   0  0  0  0  0  0  0  0  0  0  0  0  # atno 10718 bound_to 10713
  154.2070  135.6401  153.5104 H   0  0  0  0  0  0  0  0  0  0  0  0  # atno 10763 bound_to 10752
  152.9998  135.5465  154.6255 H   0  0  0  0  0  0  0  0  0  0  0  0  # atno 10764 bound_to 10752
  154.5682  135.2914  155.0826 H   0  0  0  0  0  0  0  0  0  0  0  0  # atno 10765 bound_to 10752
  139.9423  134.9634  156.8607 H   0  0  0  0  0  0  0  0  0  0  0  0  # atno 11005 bound_to 11000
  145.0469  140.8988  143.5019 LP  0  0  0  0  0  0  0  0  0  0  0  0  # atno 17320 bound_to 7965
  145.1223  139.2685  143.5582 LP  0  0  0  0  0  0  0  0  0  0  0  0  # atno 17321 bound_to 7965
  140.0233  143.5520  152.2791 LP  0  0  0  0  0  0  0  0  0  0  0  0  # atno 17342 bound_to 10162
  139.6286  144.7641  151.2585 LP  0  0  0  0  0  0  0  0  0  0  0  0  # atno 17343 bound_to 10162
  156.4076  130.3928  149.6914 LP  0  0  0  0  0  0  0  0  0  0  0  0  # atno 17370 bound_to 10713
  156.4210  130.7768  151.2785 LP  0  0  0  0  0  0  0  0  0  0  0  0  # atno 17371 bound_to 10713
  140.5922  134.0251  155.7504 LP  0  0  0  0  0  0  0  0  0  0  0  0  # atno 17394 bound_to 11000
  141.1061  133.9691  157.2994 LP  0  0  0  0  0  0  0  0  0  0  0  0  # atno 17395 bound_to 11000

$$$$
