AV-unprocessed.smi:2394|AV-procd|sdf|9490|dock5
  -GOLD-   2272013123D 1   1.00000     0.00000
 Structure written by MMmdl.
 43 44  0  0  0  0  0  0  0  0  1 V2000
  149.7374  140.5187  157.1987 C   0  0  0  0  0  0  0  0  0  0  0  0
  149.9456  141.0774  155.7807 C   0  0  0  0  0  0  0  0  0  0  0  0
  149.2904  140.2643  154.6328 C   0  0  0  0  0  0  0  0  0  0  0  0
  149.6548  140.8706  153.4064 O   0  0  0  0  0  0  0  0  0  0  0  0
  149.8251  138.8058  154.5939 C   0  0  0  0  0  0  0  0  0  0  0  0
  151.3518  138.6492  154.4859 C   0  0  0  0  0  0  0  0  0  0  0  0
  147.7391  140.2943  154.7446 C   0  0  0  0  0  0  0  0  0  0  0  0
  147.0412  139.5069  153.7386 N   0  0  0  0  0  0  0  0  0  0  0  0
  147.1015  139.6737  152.3725 C   0  0  0  0  0  0  0  0  0  0  0  0
  146.3830  138.8359  151.6754 N   0  0  0  0  0  0  0  0  0  0  0  0
  145.7935  138.0218  152.6341 C   0  0  0  0  0  0  0  0  0  0  0  0
  144.9082  136.9143  152.5741 C   0  0  0  0  0  0  0  0  0  0  0  0
  144.4561  136.4481  151.3884 N   0  0  0  0  0  0  0  0  0  0  0  0
  144.5195  135.0280  151.0536 C   0  0  0  0  0  0  0  0  0  0  0  0
  143.6196  134.1947  151.9816 C   0  0  0  0  0  0  0  0  0  0  0  0
  145.9729  134.5408  151.1180 C   0  0  0  0  0  0  0  0  0  0  0  0
  144.5304  136.3432  153.7481 N   0  0  0  0  0  0  0  0  0  0  0  0
  144.9948  136.8221  154.9065 C   0  0  0  0  0  0  0  0  0  0  0  0
  145.8268  137.8453  155.1133 N   0  0  0  0  0  0  0  0  0  0  0  0
  146.2011  138.4248  153.9365 C   0  0  0  0  0  0  0  0  0  0  0  0
  150.1469  141.2026  157.9419 H   0  0  0  0  0  0  0  0  0  0  0  0
  150.2390  139.5609  157.3357 H   0  0  0  0  0  0  0  0  0  0  0  0
  148.6798  140.3830  157.4255 H   0  0  0  0  0  0  0  0  0  0  0  0
  149.5603  142.0971  155.7760 H   0  0  0  0  0  0  0  0  0  0  0  0
  151.0170  141.1614  155.5958 H   0  0  0  0  0  0  0  0  0  0  0  0
  149.5776  140.2278  152.7183 H   0  0  0  0  0  0  0  0  0  0  0  0
  149.4879  138.2770  155.4862 H   0  0  0  0  0  0  0  0  0  0  0  0
  149.3853  138.2744  153.7497 H   0  0  0  0  0  0  0  0  0  0  0  0
  151.6188  137.5985  154.3707 H   0  0  0  0  0  0  0  0  0  0  0  0
  151.8614  139.0114  155.3783 H   0  0  0  0  0  0  0  0  0  0  0  0
  151.7517  139.1840  153.6244 H   0  0  0  0  0  0  0  0  0  0  0  0
  147.4341  139.9263  155.7252 H   0  0  0  0  0  0  0  0  0  0  0  0
  147.3635  141.3154  154.6742 H   0  0  0  0  0  0  0  0  0  0  0  0
  147.6937  140.4484  151.9073 H   0  0  0  0  0  0  0  0  0  0  0  0
  144.1228  137.0565  150.6546 H   0  0  0  0  0  0  0  0  0  0  0  0
  144.1814  134.8923  150.0255 H   0  0  0  0  0  0  0  0  0  0  0  0
  143.6687  133.1360  151.7258 H   0  0  0  0  0  0  0  0  0  0  0  0
  142.5753  134.4982  151.9078 H   0  0  0  0  0  0  0  0  0  0  0  0
  143.9221  134.2987  153.0241 H   0  0  0  0  0  0  0  0  0  0  0  0
  146.0470  133.4902  150.8364 H   0  0  0  0  0  0  0  0  0  0  0  0
  146.3838  134.6459  152.1229 H   0  0  0  0  0  0  0  0  0  0  0  0
  146.6071  135.1090  150.4366 H   0  0  0  0  0  0  0  0  0  0  0  0
  144.6516  136.3120  155.7943 H   0  0  0  0  0  0  0  0  0  0  0  0
  1  2  1  0  0  0  0
  1 21  1  0  0  0  0
  1 22  1  0  0  0  0
  1 23  1  0  0  0  0
  2  3  1  0  0  0  0
  2 24  1  0  0  0  0
  2 25  1  0  0  0  0
  3  4  1  0  0  0  0
  3  5  1  0  0  0  0
  3  7  1  0  0  0  0
  4 26  1  0  0  0  0
  5  6  1  0  0  0  0
  5 27  1  0  0  0  0
  5 28  1  0  0  0  0
  6 29  1  0  0  0  0
  6 30  1  0  0  0  0
  6 31  1  0  0  0  0
  7  8  1  0  0  0  0
  7 32  1  0  0  0  0
  7 33  1  0  0  0  0
  8 20  1  0  0  0  0
  8  9  1  0  0  0  0
  9 10  2  0  0  0  0
  9 34  1  0  0  0  0
 10 11  1  0  0  0  0
 11 20  2  0  0  0  0
 11 12  1  0  0  0  0
 12 13  1  0  0  0  0
 12 17  2  0  0  0  0
 13 14  1  0  0  0  0
 13 35  1  0  0  0  0
 14 15  1  0  0  0  0
 14 16  1  0  0  0  0
 14 36  1  0  0  0  0
 15 37  1  0  0  0  0
 15 38  1  0  0  0  0
 15 39  1  0  0  0  0
 16 40  1  0  0  0  0
 16 41  1  0  0  0  0
 16 42  1  0  0  0  0
 17 18  1  0  0  0  0
 18 19  2  0  0  0  0
 18 43  1  0  0  0  0
 19 20  1  0  0  0  0
M  END
> <s_m_source_file>
AV-unprocessed.smi

> <i_m_source_file_index>
2394

> <i_lp_mmshare_version>
43012

> <i_f3d_flags>
0

> <s_epik_input>
W0NIM11bQ0gyXUMoW09IXSkoW0NIMl1bQ0gzXSlbQ0gyXW4oW2NIXW4xKWMoYzEyKW5bY0hdbmMyW05IXVtDSF0oW0NIM10pW0NIM10=

> <s_epik_cmdline>
J2VwaWtfcHl0aG9uJywgJy1waCcsICc3LjAnLCAnLXRuJywgJzgnLCAnLW1hJywgJzIwMCcsICctbWV0YWxfYmluZGluZycsICctaW1hZScsICc8aW5maWxlLm1hZT4nLCAnLW9tYWUnLCAnPG91dGZpbGUubWFlPic=

> <r_lp_tautomer_probability>
1

> <r_epik_Ionization_Penalty>
0.0022327

> <r_epik_Ionization_Penalty_Charging>
0

> <r_epik_Ionization_Penalty_Neutral>
0.0022327

> <r_epik_State_Penalty>
-0

> <r_epik_Charging_Adjusted_Penalty>
0

> <i_epik_Tot_Q>
0

> <i_epik_Tot_abs_Q>
0

> <r_epik_Metal_State_Penalty>
-0

> <b_epik_Metal_Only>
0

> <s_lp_Force_Field>
OPLS_2005

> <r_lp_Energy>
13.0667

> <b_lp_Chiralities_Consistent>
1

> <s_lp_Variant>
AV-unprocessed.smi:2394-1

> <Gold.Version>
5.8.1

> <Gold.Id.Protein>
6NUR|6NUR_protein|mol2

> <Gold.PLP.Fitness>
40.5424

> <Gold.PLP.PLP>
-29.6617

> <Gold.PLP.part.hbond>
-3.1603

> <Gold.PLP.part.metal>
0.0000

> <Gold.PLP.part.buried>
-3.1149

> <Gold.PLP.part.nonpolar>
-24.7816

> <Gold.PLP.part.repulsive>
0.4876

> <Gold.PLP.ligand.clash>
0.0000

> <Gold.PLP.ligand.torsion>
0.4898

> <Gold.PLP.Chemscore.Hbond>
3.1208

> <Gold.PLP.Chemscore.CHOScore>
0.7997

> <Gold.PLP.Chemscore.Metal>
0.0000

> <Gold.Chemscore.Hbonds>
donor molecule, donor type, donor heavy atom, donor atom, acceptor molecule, acceptor atom, score
      L1  H     4    26       P1  7957  0.86
      L1  H    13    35       P1 10171  1.00
      P1  H  7989  7998       L1     4  0.22
      P1  H  8011  8017       L1     4  0.90
      L1  C     9    34       P1  7957  0.83

> <Gold.PLP.Chemscore.Internal.Correction>
0.0987

> <Gold.Rescore>
     Score         DG    S(hbond)    S(metal)    S(lipo)     H(rot)  DE(clash)    DE(int)     intcor
     10.49     -13.57       2.32        0.00      58.49       2.54       1.15       1.92       ----

> <Gold.Chemscore.Fitness>
10.4946

> <Gold.Chemscore.DG>
-13.5652

> <Gold.Chemscore.ZeroCoef>
-5.4800

> <Gold.Chemscore.Hbond>
2.3186

> <Gold.Chemscore.Metal>
0.0000

> <Gold.Chemscore.Lipo>
58.4863

> <Gold.Chemscore.Internal_Hbond>
0.0000

> <Gold.Chemscore.DEClash>
1.1518

> <Gold.Chemscore.DEInternal>
1.9188

> <Gold.Chemscore.Rot>
2.5398

> <Gold.Chemscore.Internal.Correction>
   9.000000E+99

> <Gold.Chemscore.Hbonds>
donor molecule, donor type, donor heavy atom, donor atom, acceptor molecule, acceptor atom, score
      L1  H     4    26       P1  7957  0.82
      L1  H    13    35       P1 10171  0.99
      P1  H  7989  7998       L1     4  0.01
      P1  H  8011  8017       L1     4  0.18

> <Gold.Chemscore.Hbond.Weighted>
-7.7443

> <Gold.Chemscore.Metal.Weighted>
-0.0000

> <Gold.Chemscore.Lipo.Weighted>
-6.8429

> <Gold.Chemscore.Internal_Hbond.Weighted>
0.0000

> <Gold.Chemscore.DEClash.Weighted>
1.1518

> <Gold.Chemscore.DEInternal.Weighted>
1.9188

> <Gold.Chemscore.Rot.Weighted>
6.5020

> <Gold.Chemscore.Internal.Correction.Weighted>
   9.000000E+99

> <Gold.Protein.RotatedTorsions>
[ 6907 6896 6895 6894 ] final   -3.00 input  -60.11 | X-H torsion
[ 7974 7965 7964 7962 ] final  168.92 input  175.53 | X-H torsion
[ 8008 7997 7996 7995 ] final -102.51 input   59.86 | X-H torsion
[ 10167 10162 10161 10158 ] final  129.60 input  -65.29 | X-H torsion
[ 10718 10713 10712 10709 ] final  -82.21 input   66.30 | X-H torsion
[ 10763 10752 10751 10750 ] final  -83.96 input  -60.55 | X-H torsion
[ 11005 11000 10999 10996 ] final  113.63 input  -57.11 | X-H torsion

> <Gold.Protein.ActiveResidues>
 VAL166  LYS551  ARG553  GLY616  TRP617  ASP618  TYR619  PRO620  LYS621  CYS622 
 ASP623  PHE694  ASN695  SER759  ASP760  ASP761  ALA762  ILE779  LEU786  VAL792 
 PHE793  MET794  SER795  GLU796  ALA797  LYS798  CYS799  TRP800  GLU811  SER814 

> <Gold.Protein.RotatedAtoms>
  151.5208  135.1067  159.9877 H   0  0  0  0  0  0  0  0  0  0  0  0  # atno 6907 bound_to 6896
  152.4621  133.7840  159.6877 H   0  0  0  0  0  0  0  0  0  0  0  0  # atno 6908 bound_to 6896
  150.8588  133.7610  159.3025 H   0  0  0  0  0  0  0  0  0  0  0  0  # atno 6909 bound_to 6896
  144.7372  139.8978  143.6407 H   0  0  0  0  0  0  0  0  0  0  0  0  # atno 7974 bound_to 7965
  154.8576  140.0428  157.1645 H   0  0  0  0  0  0  0  0  0  0  0  0  # atno 8008 bound_to 7997
  154.8874  140.2981  155.5369 H   0  0  0  0  0  0  0  0  0  0  0  0  # atno 8009 bound_to 7997
  156.2998  140.2400  156.3885 H   0  0  0  0  0  0  0  0  0  0  0  0  # atno 8010 bound_to 7997
  139.5470  144.6781  151.4443 H   0  0  0  0  0  0  0  0  0  0  0  0  # atno 10167 bound_to 10162
  156.0037  130.4627  150.4070 H   0  0  0  0  0  0  0  0  0  0  0  0  # atno 10718 bound_to 10713
  154.5939  135.5537  153.7306 H   0  0  0  0  0  0  0  0  0  0  0  0  # atno 10763 bound_to 10752
  153.0128  135.6350  154.1810 H   0  0  0  0  0  0  0  0  0  0  0  0  # atno 10764 bound_to 10752
  154.1750  135.2890  155.3049 H   0  0  0  0  0  0  0  0  0  0  0  0  # atno 10765 bound_to 10752
  139.8958  134.9553  156.6768 H   0  0  0  0  0  0  0  0  0  0  0  0  # atno 11005 bound_to 11000
  146.1094  139.4097  143.0297 LP  0  0  0  0  0  0  0  0  0  0  0  0  # atno 17320 bound_to 7965
  145.7465  140.9989  143.1273 LP  0  0  0  0  0  0  0  0  0  0  0  0  # atno 17321 bound_to 7965
  140.6721  143.8271  150.7012 LP  0  0  0  0  0  0  0  0  0  0  0  0  # atno 17342 bound_to 10162
  140.1698  143.4204  152.2008 LP  0  0  0  0  0  0  0  0  0  0  0  0  # atno 17343 bound_to 10162
  157.2135  131.0466  151.2586 LP  0  0  0  0  0  0  0  0  0  0  0  0  # atno 17370 bound_to 10713
  157.3866  130.7260  149.6668 LP  0  0  0  0  0  0  0  0  0  0  0  0  # atno 17371 bound_to 10713
  140.7330  133.9042  155.8224 LP  0  0  0  0  0  0  0  0  0  0  0  0  # atno 17394 bound_to 11000
  141.0138  134.0984  157.4193 LP  0  0  0  0  0  0  0  0  0  0  0  0  # atno 17395 bound_to 11000

$$$$
