AV-unprocessed.smi:837|AV-procd|sdf|3895|dock2
  -GOLD-   22720 1353D 1   1.00000     0.00000
 Structure written by MMmdl.
 49 51  0  0  0  0  0  0  0  0  1 V2000
  148.6076  139.1045  154.3838 C   0  0  0  0  0  0  0  0  0  0  0  0
  149.9423  139.6750  154.9100 C   0  0  1  0  0  0  0  0  0  0  0  0
  149.6913  140.9901  155.6797 C   0  0  0  0  0  0  0  0  0  0  0  0
  151.0005  141.6317  156.1654 C   0  0  0  0  0  0  0  0  0  0  0  0
  151.8120  140.6573  157.0303 C   0  0  0  0  0  0  0  0  0  0  0  0
  152.0852  139.3487  156.2719 C   0  0  0  0  0  0  0  0  0  0  0  0
  150.7792  138.6825  155.7757 C   0  0  1  0  0  0  0  0  0  0  0  0
  150.0166  138.1407  156.8886 N   0  0  0  0  0  0  0  0  0  0  0  0
  149.9156  136.8058  156.8520 C   0  0  0  0  0  0  0  0  0  0  0  0
  149.3346  136.1165  157.6887 O   0  0  0  0  0  0  0  0  0  0  0  0
  150.5542  136.3635  155.7534 N   0  0  0  0  0  0  0  0  0  0  0  0
  150.6930  134.9501  155.3818 C   0  0  0  0  0  0  0  0  0  0  0  0
  149.3380  134.2453  155.2355 C   0  0  0  0  0  0  0  0  0  0  0  0
  148.8943  133.5414  156.1436 O   0  0  0  0  0  0  0  0  0  0  0  0
  148.6870  134.4520  154.0816 N   0  0  0  0  0  0  0  0  0  0  0  0
  147.4053  133.8540  153.7194 C   0  0  0  0  0  0  0  0  0  0  0  0
  147.4764  133.0081  152.4313 C   0  0  0  0  0  0  0  0  0  0  0  0
  146.1634  132.9490  151.6691 C   0  0  0  0  0  0  0  0  0  0  0  0
  145.0638  133.7427  152.0569 C   0  0  0  0  0  0  0  0  0  0  0  0
  143.8640  133.6424  151.3274 C   0  0  0  0  0  0  0  0  0  0  0  0
  143.8149  132.7509  150.2373 C   0  0  0  0  0  0  0  0  0  0  0  0
  144.8619  131.9879  149.8550 N   0  0  0  0  0  0  0  0  0  0  0  0
  146.0090  132.0905  150.5602 C   0  0  0  0  0  0  0  0  0  0  0  0
  151.0910  137.3756  155.0582 C   0  0  0  0  0  0  0  0  0  0  0  0
  151.7361  137.2994  154.0122 O   0  0  0  0  0  0  0  0  0  0  0  0
  147.9378  138.8288  155.1986 H   0  0  0  0  0  0  0  0  0  0  0  0
  148.7591  138.2215  153.7627 H   0  0  0  0  0  0  0  0  0  0  0  0
  148.0874  139.8394  153.7692 H   0  0  0  0  0  0  0  0  0  0  0  0
  150.5415  139.9293  154.0338 H   0  0  0  0  0  0  0  0  0  0  0  0
  149.1604  141.6981  155.0424 H   0  0  0  0  0  0  0  0  0  0  0  0
  149.0400  140.8018  156.5342 H   0  0  0  0  0  0  0  0  0  0  0  0
  151.5967  141.9408  155.3061 H   0  0  0  0  0  0  0  0  0  0  0  0
  150.7823  142.5375  156.7318 H   0  0  0  0  0  0  0  0  0  0  0  0
  152.7549  141.1193  157.3239 H   0  0  0  0  0  0  0  0  0  0  0  0
  151.2715  140.4463  157.9538 H   0  0  0  0  0  0  0  0  0  0  0  0
  152.7335  139.5648  155.4211 H   0  0  0  0  0  0  0  0  0  0  0  0
  152.6460  138.6657  156.9124 H   0  0  0  0  0  0  0  0  0  0  0  0
  149.6226  138.7213  157.6147 H   0  0  0  0  0  0  0  0  0  0  0  0
  151.2362  134.8540  154.4404 H   0  0  0  0  0  0  0  0  0  0  0  0
  151.2995  134.4336  156.1285 H   0  0  0  0  0  0  0  0  0  0  0  0
  149.1223  135.0473  153.3919 H   0  0  0  0  0  0  0  0  0  0  0  0
  147.0189  133.2580  154.5473 H   0  0  0  0  0  0  0  0  0  0  0  0
  146.6997  134.6723  153.5739 H   0  0  0  0  0  0  0  0  0  0  0  0
  148.2494  133.4055  151.7723 H   0  0  0  0  0  0  0  0  0  0  0  0
  147.7871  131.9920  152.6766 H   0  0  0  0  0  0  0  0  0  0  0  0
  145.1325  134.4100  152.9040 H   0  0  0  0  0  0  0  0  0  0  0  0
  143.0006  134.2304  151.6009 H   0  0  0  0  0  0  0  0  0  0  0  0
  142.9096  132.6468  149.6577 H   0  0  0  0  0  0  0  0  0  0  0  0
  146.8263  131.4645  150.2333 H   0  0  0  0  0  0  0  0  0  0  0  0
  1  2  1  0  0  0  0
  1 26  1  0  0  0  0
  1 27  1  0  0  0  0
  1 28  1  0  0  0  0
  2  7  1  0  0  0  0
  2  3  1  0  0  0  0
  2 29  1  0  0  0  0
  3  4  1  0  0  0  0
  3 30  1  0  0  0  0
  3 31  1  0  0  0  0
  4  5  1  0  0  0  0
  4 32  1  0  0  0  0
  4 33  1  0  0  0  0
  5  6  1  0  0  0  0
  5 34  1  0  0  0  0
  5 35  1  0  0  0  0
  6  7  1  0  0  0  0
  6 36  1  0  0  0  0
  6 37  1  0  0  0  0
  7 24  1  0  0  0  0
  7  8  1  0  0  0  0
  8  9  1  0  0  0  0
  8 38  1  0  0  0  0
  9 10  2  0  0  0  0
  9 11  1  0  0  0  0
 11 12  1  0  0  0  0
 11 24  1  0  0  0  0
 12 13  1  0  0  0  0
 12 39  1  0  0  0  0
 12 40  1  0  0  0  0
 13 14  2  0  0  0  0
 13 15  1  0  0  0  0
 15 16  1  0  0  0  0
 15 41  1  0  0  0  0
 16 17  1  0  0  0  0
 16 42  1  0  0  0  0
 16 43  1  0  0  0  0
 17 18  1  0  0  0  0
 17 44  1  0  0  0  0
 17 45  1  0  0  0  0
 18 23  1  0  0  0  0
 18 19  2  0  0  0  0
 19 20  1  0  0  0  0
 19 46  1  0  0  0  0
 20 21  2  0  0  0  0
 20 47  1  0  0  0  0
 21 22  1  0  0  0  0
 21 48  1  0  0  0  0
 22 23  2  0  0  0  0
 23 49  1  0  0  0  0
 24 25  2  0  0  0  0
M  END
> <s_m_source_file>
AV-unprocessed.smi

> <i_m_source_file_index>
837

> <i_lp_mmshare_version>
43012

> <i_f3d_flags>
0

> <s_epik_input>
W0NIMl0xW0NIMl1bQ0gyXVtDSDJdW0NAQEhdKFtDSDNdKVtDQEBdMTJbTkhdQyg9TylOKEMyPU8pW0NIMl1DKD1PKVtOSF1bQ0gyXVtDSDJdYzNbY0hdW2NIXVtjSF1uW2NIXTM=

> <s_epik_cmdline>
J2VwaWtfcHl0aG9uJywgJy1waCcsICc3LjAnLCAnLXRuJywgJzgnLCAnLW1hJywgJzIwMCcsICctbWV0YWxfYmluZGluZycsICctaW1hZScsICc8aW5maWxlLm1hZT4nLCAnLW9tYWUnLCAnPG91dGZpbGUubWFlPic=

> <r_lp_tautomer_probability>
1

> <r_epik_Ionization_Penalty>
0.0127837

> <r_epik_Ionization_Penalty_Charging>
0

> <r_epik_Ionization_Penalty_Neutral>
0.0127837

> <r_epik_State_Penalty>
0.00987657

> <r_epik_Charging_Adjusted_Penalty>
0.00987657

> <i_epik_Tot_Q>
0

> <i_epik_Tot_abs_Q>
0

> <r_epik_Metal_State_Penalty>
0.0309865

> <b_epik_Metal_Only>
0

> <s_lp_Force_Field>
OPLS_2005

> <r_lp_Energy>
22.8196

> <b_lp_Chiralities_Consistent>
1

> <s_lp_Variant>
AV-unprocessed.smi:837-4

> <Gold.Version>
5.8.1

> <Gold.Id.Protein>
6NUR|6NUR_protein|mol2

> <Gold.PLP.Fitness>
48.0509

> <Gold.PLP.PLP>
-37.2961

> <Gold.PLP.part.hbond>
-2.0000

> <Gold.PLP.part.metal>
0.0000

> <Gold.PLP.part.buried>
-8.0276

> <Gold.PLP.part.nonpolar>
-30.5240

> <Gold.PLP.part.repulsive>
1.7846

> <Gold.PLP.ligand.clash>
0.0000

> <Gold.PLP.ligand.torsion>
0.5220

> <Gold.PLP.Chemscore.Hbond>
2.0000

> <Gold.PLP.Chemscore.CHOScore>
1.9158

> <Gold.PLP.Chemscore.Metal>
0.0000

> <Gold.Chemscore.Hbonds>
donor molecule, donor type, donor heavy atom, donor atom, acceptor molecule, acceptor atom, score
      L1  H    15    41       P1  7948  0.95
      P1  H 10752 10765       L1    25  0.99
      L1  C    21    48       P1 10186  0.75
      L1  C    23    49       P1 10747  1.00

> <Gold.PLP.Chemscore.Internal.Correction>
0.0516

> <Gold.Rescore>
     Score         DG    S(hbond)    S(metal)    S(lipo)     H(rot)  DE(clash)    DE(int)     intcor
     16.09     -16.81       1.54        0.00      93.43       1.86       0.25       0.47       ----

> <Gold.Chemscore.Fitness>
16.0900

> <Gold.Chemscore.DG>
-16.8099

> <Gold.Chemscore.ZeroCoef>
-5.4800

> <Gold.Chemscore.Hbond>
1.5415

> <Gold.Chemscore.Metal>
0.0000

> <Gold.Chemscore.Lipo>
93.4274

> <Gold.Chemscore.Internal_Hbond>
0.0000

> <Gold.Chemscore.DEClash>
0.2458

> <Gold.Chemscore.DEInternal>
0.4741

> <Gold.Chemscore.Rot>
1.8553

> <Gold.Chemscore.Internal.Correction>
   9.000000E+99

> <Gold.Chemscore.Hbonds>
donor molecule, donor type, donor heavy atom, donor atom, acceptor molecule, acceptor atom, score
      L1  H    15    41       P1  7948  0.20
      P1  H 10752 10765       L1    25  0.55

> <Gold.Chemscore.Hbond.Weighted>
-5.1486

> <Gold.Chemscore.Metal.Weighted>
-0.0000

> <Gold.Chemscore.Lipo.Weighted>
-10.9310

> <Gold.Chemscore.Internal_Hbond.Weighted>
0.0000

> <Gold.Chemscore.DEClash.Weighted>
0.2458

> <Gold.Chemscore.DEInternal.Weighted>
0.4741

> <Gold.Chemscore.Rot.Weighted>
4.7497

> <Gold.Chemscore.Internal.Correction.Weighted>
   9.000000E+99

> <Gold.Protein.RotatedTorsions>
[ 6907 6896 6895 6894 ] final -123.62 input  -60.11 | X-H torsion
[ 7974 7965 7964 7962 ] final  119.77 input  175.53 | X-H torsion
[ 8008 7997 7996 7995 ] final  152.31 input   59.86 | X-H torsion
[ 10167 10162 10161 10158 ] final  -32.76 input  -65.29 | X-H torsion
[ 10718 10713 10712 10709 ] final -105.43 input   66.30 | X-H torsion
[ 10763 10752 10751 10750 ] final  156.79 input  -60.55 | X-H torsion
[ 11005 11000 10999 10996 ] final  -98.43 input  -57.11 | X-H torsion

> <Gold.Protein.ActiveResidues>
 VAL166  LYS551  ARG553  GLY616  TRP617  ASP618  TYR619  PRO620  LYS621  CYS622 
 ASP623  PHE694  ASN695  SER759  ASP760  ASP761  ALA762  ILE779  LEU786  VAL792 
 PHE793  MET794  SER795  GLU796  ALA797  LYS798  CYS799  TRP800  GLU811  SER814 

> <Gold.Protein.RotatedAtoms>
  150.8688  133.7535  159.2967 H   0  0  0  0  0  0  0  0  0  0  0  0  # atno 6907 bound_to 6896
  151.5154  135.1064  159.9874 H   0  0  0  0  0  0  0  0  0  0  0  0  # atno 6908 bound_to 6896
  152.4680  133.7922  159.6963 H   0  0  0  0  0  0  0  0  0  0  0  0  # atno 6909 bound_to 6896
  145.1391  139.3279  143.4625 H   0  0  0  0  0  0  0  0  0  0  0  0  # atno 7974 bound_to 7965
  156.2635  140.2024  156.6313 H   0  0  0  0  0  0  0  0  0  0  0  0  # atno 8008 bound_to 7997
  154.6680  140.0553  157.0159 H   0  0  0  0  0  0  0  0  0  0  0  0  # atno 8009 bound_to 7997
  155.1178  140.3222  155.4508 H   0  0  0  0  0  0  0  0  0  0  0  0  # atno 8010 bound_to 7997
  140.7216  143.3670  151.1851 H   0  0  0  0  0  0  0  0  0  0  0  0  # atno 10167 bound_to 10162
  156.0346  130.5563  150.7538 H   0  0  0  0  0  0  0  0  0  0  0  0  # atno 10718 bound_to 10713
  154.1899  135.2795  155.3025 H   0  0  0  0  0  0  0  0  0  0  0  0  # atno 10763 bound_to 10752
  154.5937  135.5552  153.7307 H   0  0  0  0  0  0  0  0  0  0  0  0  # atno 10764 bound_to 10752
  153.0115  135.6374  154.2038 H   0  0  0  0  0  0  0  0  0  0  0  0  # atno 10765 bound_to 10752
  141.1345  133.8244  157.0838 H   0  0  0  0  0  0  0  0  0  0  0  0  # atno 11005 bound_to 11000
  146.3507  140.1421  142.8594 LP  0  0  0  0  0  0  0  0  0  0  0  0  # atno 17320 bound_to 7965
  145.0552  140.9047  143.4972 LP  0  0  0  0  0  0  0  0  0  0  0  0  # atno 17321 bound_to 7965
  139.7234  143.9187  152.2994 LP  0  0  0  0  0  0  0  0  0  0  0  0  # atno 17342 bound_to 10162
  139.8952  144.6943  150.8726 LP  0  0  0  0  0  0  0  0  0  0  0  0  # atno 17343 bound_to 10162
  157.5075  131.0923  151.0239 LP  0  0  0  0  0  0  0  0  0  0  0  0  # atno 17370 bound_to 10713
  157.0603  130.5823  149.5385 LP  0  0  0  0  0  0  0  0  0  0  0  0  # atno 17371 bound_to 10713
  140.0435  134.9842  157.1006 LP  0  0  0  0  0  0  0  0  0  0  0  0  # atno 17394 bound_to 11000
  140.4099  134.1993  155.7163 LP  0  0  0  0  0  0  0  0  0  0  0  0  # atno 17395 bound_to 11000

$$$$
