AV-unprocessed.smi:2032|AV-procd|sdf|8246|dock7
  -GOLD-   2272010513D 1   1.00000     0.00000
 Structure written by MMmdl.
 41 42  0  0  0  0  0  0  0  0  2 V2000
  152.1768  144.4509  158.4066 C   0  0  0  0  0  0  0  0  0  0  0  0
  151.8542  143.0611  158.9657 C   0  0  1  0  0  0  0  0  0  0  0  0
  151.4538  142.0675  157.8584 C   0  0  0  0  0  0  0  0  0  0  0  0
  151.2175  140.7109  158.3639 N   0  0  0  0  0  0  0  0  0  0  0  0
  150.8500  139.7616  157.2864 C   0  0  2  0  0  0  0  0  0  0  0  0
  149.6093  140.2250  156.4805 C   0  0  0  0  0  0  0  0  0  0  0  0
  150.6078  138.3109  157.7990 C   0  0  0  0  0  0  0  0  0  0  0  0
  149.5950  138.2193  158.8481 N   0  0  0  0  0  0  0  0  0  0  0  0
  149.1174  137.0884  159.3874 C   0  0  0  0  0  0  0  0  0  0  0  0
  149.5436  135.9961  159.0054 O   0  0  0  0  0  0  0  0  0  0  0  0
  148.1723  137.2955  160.3326 N   0  5  0  0  0  0  0  0  0  0  0  0
  147.6346  136.2544  160.9887 C   0  0  0  0  0  0  0  0  0  0  0  0
  147.0071  136.3780  162.1640 N   0  0  0  0  0  0  0  0  0  0  0  0
  146.5124  135.1702  162.6592 C   0  0  0  0  0  0  0  0  0  0  0  0
  146.7611  134.1031  161.8374 C   0  0  0  0  0  0  0  0  0  0  0  0
  147.6315  134.5861  160.4094 S   0  0  0  0  0  0  0  0  0  0  0  0
  152.4108  140.2933  159.1074 C   0  0  0  0  0  0  0  0  0  0  0  0
  152.8062  141.2899  160.2139 C   0  0  1  0  0  0  0  0  0  0  0  0
  154.0951  140.8763  160.9322 C   0  0  0  0  0  0  0  0  0  0  0  0
  153.0089  142.5735  159.6369 O   0  0  0  0  0  0  0  0  0  0  0  0
  151.3174  144.8741  157.8859 H   0  0  0  0  0  0  0  0  0  0  0  0
  153.0084  144.4094  157.7023 H   0  0  0  0  0  0  0  0  0  0  0  0
  152.4521  145.1381  159.2068 H   0  0  0  0  0  0  0  0  0  0  0  0
  151.0385  143.1544  159.6848 H   0  0  0  0  0  0  0  0  0  0  0  0
  150.5556  142.4618  157.3871 H   0  0  0  0  0  0  0  0  0  0  0  0
  152.2295  142.0436  157.0915 H   0  0  0  0  0  0  0  0  0  0  0  0
  151.6839  139.7175  156.5843 H   0  0  0  0  0  0  0  0  0  0  0  0
  149.3184  139.5068  155.7148 H   0  0  0  0  0  0  0  0  0  0  0  0
  149.7884  141.1527  155.9396 H   0  0  0  0  0  0  0  0  0  0  0  0
  148.7492  140.3746  157.1334 H   0  0  0  0  0  0  0  0  0  0  0  0
  150.2876  137.6443  156.9993 H   0  0  0  0  0  0  0  0  0  0  0  0
  151.5366  137.8969  158.1921 H   0  0  0  0  0  0  0  0  0  0  0  0
  149.2173  139.0897  159.1925 H   0  0  0  0  0  0  0  0  0  0  0  0
  145.9919  135.1632  163.6052 H   0  0  0  0  0  0  0  0  0  0  0  0
  146.4863  133.0693  161.9822 H   0  0  0  0  0  0  0  0  0  0  0  0
  152.2428  139.3346  159.5936 H   0  0  0  0  0  0  0  0  0  0  0  0
  153.2462  140.1590  158.4184 H   0  0  0  0  0  0  0  0  0  0  0  0
  152.0026  141.3550  160.9497 H   0  0  0  0  0  0  0  0  0  0  0  0
  153.9845  139.8996  161.4036 H   0  0  0  0  0  0  0  0  0  0  0  0
  154.3544  141.5938  161.7110 H   0  0  0  0  0  0  0  0  0  0  0  0
  154.9336  140.8201  160.2373 H   0  0  0  0  0  0  0  0  0  0  0  0
  1  2  1  0  0  0  0
  1 21  1  0  0  0  0
  1 22  1  0  0  0  0
  1 23  1  0  0  0  0
  2 20  1  0  0  0  0
  2  3  1  0  0  0  0
  2 24  1  0  0  0  0
  3  4  1  0  0  0  0
  3 25  1  0  0  0  0
  3 26  1  0  0  0  0
  4  5  1  0  0  0  0
  4 17  1  0  0  0  0
  5  6  1  0  0  0  0
  5  7  1  0  0  0  0
  5 27  1  0  0  0  0
  6 28  1  0  0  0  0
  6 29  1  0  0  0  0
  6 30  1  0  0  0  0
  7  8  1  0  0  0  0
  7 31  1  0  0  0  0
  7 32  1  0  0  0  0
  8  9  1  0  0  0  0
  8 33  1  0  0  0  0
  9 10  2  0  0  0  0
  9 11  1  0  0  0  0
 11 12  1  0  0  0  0
 12 16  1  0  0  0  0
 12 13  2  0  0  0  0
 13 14  1  0  0  0  0
 14 15  2  0  0  0  0
 14 34  1  0  0  0  0
 15 16  1  0  0  0  0
 15 35  1  0  0  0  0
 17 18  1  0  0  0  0
 17 36  1  0  0  0  0
 17 37  1  0  0  0  0
 18 19  1  0  0  0  0
 18 20  1  0  0  0  0
 18 38  1  0  0  0  0
 19 39  1  0  0  0  0
 19 40  1  0  0  0  0
 19 41  1  0  0  0  0
M  CHG  1  11  -1
M  END
> <s_m_source_file>
AV-unprocessed.smi

> <i_m_source_file_index>
2032

> <i_lp_mmshare_version>
43012

> <i_f3d_flags>
0

> <s_epik_input>
W0NIM11bQ0BASF0xW0NIMl1OKFtDSDJdW0NASF0oTzEpW0NIM10pW0NASF0oW0NIM10pW0NIMl1bTkhdQyg9TylbTkhdYzJuW2NIXVtjSF1zMg==

> <s_epik_cmdline>
J2VwaWtfcHl0aG9uJywgJy1waCcsICc3LjAnLCAnLXRuJywgJzgnLCAnLW1hJywgJzIwMCcsICctbWV0YWxfYmluZGluZycsICctaW1hZScsICc8aW5maWxlLm1hZT4nLCAnLW9tYWUnLCAnPG91dGZpbGUubWFlPic=

> <r_lp_tautomer_probability>
0.999

> <r_epik_Ionization_Penalty>
7.22375

> <r_epik_Ionization_Penalty_Charging>
5.82415

> <r_epik_Ionization_Penalty_Neutral>
1.39959

> <r_epik_State_Penalty>
6.03347

> <r_epik_Charging_Adjusted_Penalty>
11.8576

> <i_epik_Tot_Q>
-1

> <i_epik_Tot_abs_Q>
1

> <r_epik_Metal_State_Penalty>
2.01024

> <b_epik_Metal_Only>
1

> <s_lp_Force_Field>
OPLS_2005

> <r_lp_Energy>
22.7494

> <b_lp_Chiralities_Consistent>
1

> <s_lp_Variant>
AV-unprocessed.smi:2032-16

> <Gold.Version>
5.8.1

> <Gold.Id.Protein>
6NUR|6NUR_protein|mol2

> <Gold.PLP.Fitness>
48.9340

> <Gold.PLP.PLP>
-38.1067

> <Gold.PLP.part.hbond>
-3.0000

> <Gold.PLP.part.metal>
0.0000

> <Gold.PLP.part.buried>
-5.8412

> <Gold.PLP.part.nonpolar>
-30.7314

> <Gold.PLP.part.repulsive>
0.2293

> <Gold.PLP.ligand.clash>
0.0000

> <Gold.PLP.ligand.torsion>
0.1467

> <Gold.PLP.Chemscore.Hbond>
3.6765

> <Gold.PLP.Chemscore.CHOScore>
0.0000

> <Gold.PLP.Chemscore.Metal>
0.0000

> <Gold.Chemscore.Hbonds>
donor molecule, donor type, donor heavy atom, donor atom, acceptor molecule, acceptor atom, score
      P1  H  6896  6908       L1    10  1.00
      P1  H  6931  6943       L1    11  1.31
      P1  H  6934  6947       L1    11  1.19

> <Gold.PLP.Chemscore.Internal.Correction>
0.0911

> <Gold.Rescore>
     Score         DG    S(hbond)    S(metal)    S(lipo)     H(rot)  DE(clash)    DE(int)     intcor
     16.70     -18.37       1.99        0.00      87.09       1.54       0.08       1.59       ----

> <Gold.Chemscore.Fitness>
16.6981

> <Gold.Chemscore.DG>
-18.3691

> <Gold.Chemscore.ZeroCoef>
-5.4800

> <Gold.Chemscore.Hbond>
1.9911

> <Gold.Chemscore.Metal>
0.0000

> <Gold.Chemscore.Lipo>
87.0877

> <Gold.Chemscore.Internal_Hbond>
0.0000

> <Gold.Chemscore.DEClash>
0.0840

> <Gold.Chemscore.DEInternal>
1.5871

> <Gold.Chemscore.Rot>
1.5431

> <Gold.Chemscore.Internal.Correction>
   9.000000E+99

> <Gold.Chemscore.Hbonds>
donor molecule, donor type, donor heavy atom, donor atom, acceptor molecule, acceptor atom, score
      P1  H  6896  6908       L1    10  1.00
      P1  H  6931  6943       L1    11  0.10
      P1  H  6934  6947       L1    11  0.39

> <Gold.Chemscore.Hbond.Weighted>
-6.6501

> <Gold.Chemscore.Metal.Weighted>
-0.0000

> <Gold.Chemscore.Lipo.Weighted>
-10.1893

> <Gold.Chemscore.Internal_Hbond.Weighted>
0.0000

> <Gold.Chemscore.DEClash.Weighted>
0.0840

> <Gold.Chemscore.DEInternal.Weighted>
1.5871

> <Gold.Chemscore.Rot.Weighted>
3.9503

> <Gold.Chemscore.Internal.Correction.Weighted>
   9.000000E+99

> <Gold.Protein.RotatedTorsions>
[ 6907 6896 6895 6894 ] final -179.91 input  -60.11 | X-H torsion
[ 7974 7965 7964 7962 ] final -166.52 input  175.53 | X-H torsion
[ 8008 7997 7996 7995 ] final  134.79 input   59.86 | X-H torsion
[ 10167 10162 10161 10158 ] final  155.58 input  -65.29 | X-H torsion
[ 10718 10713 10712 10709 ] final -123.94 input   66.30 | X-H torsion
[ 10763 10752 10751 10750 ] final -149.32 input  -60.55 | X-H torsion
[ 11005 11000 10999 10996 ] final  159.78 input  -57.11 | X-H torsion

> <Gold.Protein.ActiveResidues>
 VAL166  LYS551  ARG553  GLY616  TRP617  ASP618  TYR619  PRO620  LYS621  CYS622 
 ASP623  PHE694  ASN695  SER759  ASP760  ASP761  ALA762  ILE779  LEU786  VAL792 
 PHE793  MET794  SER795  GLU796  ALA797  LYS798  CYS799  TRP800  GLU811  SER814 

> <Gold.Protein.RotatedAtoms>
  151.6611  133.3317  159.3173 H   0  0  0  0  0  0  0  0  0  0  0  0  # atno 6907 bound_to 6896
  150.7913  134.6943  159.6524 H   0  0  0  0  0  0  0  0  0  0  0  0  # atno 6908 bound_to 6896
  152.3993  134.6316  160.0128 H   0  0  0  0  0  0  0  0  0  0  0  0  # atno 6909 bound_to 6896
  144.7243  140.2654  143.6258 H   0  0  0  0  0  0  0  0  0  0  0  0  # atno 7974 bound_to 7965
  156.3000  140.2487  156.3476 H   0  0  0  0  0  0  0  0  0  0  0  0  # atno 8008 bound_to 7997
  154.8996  140.0406  157.1905 H   0  0  0  0  0  0  0  0  0  0  0  0  # atno 8009 bound_to 7997
  154.8514  140.2906  155.5600 H   0  0  0  0  0  0  0  0  0  0  0  0  # atno 8010 bound_to 7997
  139.4821  144.5085  151.8060 H   0  0  0  0  0  0  0  0  0  0  0  0  # atno 10167 bound_to 10162
  156.1545  130.6558  150.9961 H   0  0  0  0  0  0  0  0  0  0  0  0  # atno 10718 bound_to 10713
  154.8184  135.3312  154.7110 H   0  0  0  0  0  0  0  0  0  0  0  0  # atno 10763 bound_to 10752
  153.7747  135.6923  153.4904 H   0  0  0  0  0  0  0  0  0  0  0  0  # atno 10764 bound_to 10752
  153.2021  135.4512  155.0227 H   0  0  0  0  0  0  0  0  0  0  0  0  # atno 10765 bound_to 10752
  140.1995  134.8348  157.3002 H   0  0  0  0  0  0  0  0  0  0  0  0  # atno 11005 bound_to 11000
  145.8095  139.1997  143.2001 LP  0  0  0  0  0  0  0  0  0  0  0  0  # atno 17320 bound_to 7965
  146.0608  140.7972  142.9735 LP  0  0  0  0  0  0  0  0  0  0  0  0  # atno 17321 bound_to 7965
  140.4586  144.1754  150.5904 LP  0  0  0  0  0  0  0  0  0  0  0  0  # atno 17342 bound_to 10162
  140.4509  143.2487  151.9349 LP  0  0  0  0  0  0  0  0  0  0  0  0  # atno 17343 bound_to 10162
  157.6683  131.0867  150.7673 LP  0  0  0  0  0  0  0  0  0  0  0  0  # atno 17370 bound_to 10713
  156.7740  130.4838  149.5413 LP  0  0  0  0  0  0  0  0  0  0  0  0  # atno 17371 bound_to 10713
  140.2070  134.4185  155.7632 LP  0  0  0  0  0  0  0  0  0  0  0  0  # atno 17394 bound_to 11000
  141.2227  133.7099  156.8276 LP  0  0  0  0  0  0  0  0  0  0  0  0  # atno 17395 bound_to 11000

$$$$
