#       Name:                AV-unprocessed.smi:2923
#       Creating user name   scv26
#       Creation time:       Fri Mar 27 16:09:44 2020


#       File generated by GOLD software.
#

@<TRIPOS>MOLECULE
AV-unprocessed.smi:2923
    51    53     1
SMALL
NO_CHARGES


@<TRIPOS>ATOM
      1 ****        -6.7877  -2.2716  -0.0283 C.3            1 S1                 0.0000
      2 ****        -6.0235  -1.0484   0.1790 N.pl3          1 S1                 0.0000
      3 ****        -6.7082   0.2128   0.4408 C.3            1 S1                 0.0000
      4 ****        -4.6162  -1.0729   0.0695 C.ar           1 S1                 0.0000
      5 ****        -3.8802  -2.2496  -0.2135 C.ar           1 S1                 0.0000
      6 ****        -2.4746  -2.1924  -0.3072 C.ar           1 S1                 0.0000
      7 ****        -1.8078  -0.9627  -0.1276 C.ar           1 S1                 0.0000
      8 ****        -0.3894  -0.9579  -0.2171 N.am           1 S1                 0.0000
      9 ****         0.4344   0.0897  -0.3923 C.2            1 S1                 0.0000
     10 ****         0.0782   1.2558  -0.5591 O.2            1 S1                 0.0000
     11 ****         1.7178  -0.2937  -0.3749 N.am           1 S1                 0.0000
     12 ****         2.8499   0.6136  -0.5348 C.3            1 S1                 0.0000
     13 ****         4.1967  -0.1255  -0.5653 C.3            1 S1                 0.0000
     14 ****         5.0321  -0.1106  -1.8168 C.3            1 S1                 0.0000
     15 ****         6.0079   1.0420  -1.5627 C.3            1 S1                 0.0000
     16 ****         5.3614   1.8508  -0.5828 O.3            1 S1                 0.0000
     17 ****         4.7236   0.9748   0.3435 C.3            1 S1                 0.0000
     18 ****         3.2846   1.3416   0.7635 C.3            1 S1                 0.0000
     19 ****         2.9685   2.8363   0.8362 C.3            1 S1                 0.0000
     20 ****         2.8459   0.7308   2.1023 C.3            1 S1                 0.0000
     21 ****        -2.5857   0.1828   0.1647 C.ar           1 S1                 0.0000
     22 ****        -3.9299   0.0823   0.2472 N.pl3          1 S1                 1.0000
     23 ****        -6.6214  -2.6621  -1.0328 H              1 S1                 0.0000
     24 ****        -7.8571  -2.0953   0.0881 H              1 S1                 0.0000
     25 ****        -6.4958  -3.0332   0.6955 H              1 S1                 0.0000
     26 ****        -6.3833   0.6347   1.3927 H              1 S1                 0.0000
     27 ****        -7.7888   0.0758   0.4883 H              1 S1                 0.0000
     28 ****        -6.4976   0.9344  -0.3495 H              1 S1                 0.0000
     29 ****        -4.3707  -3.2003  -0.3602 H              1 S1                 0.0000
     30 ****        -1.9148  -3.0914  -0.5210 H              1 S1                 0.0000
     31 ****         0.0513  -1.8651  -0.1736 H              1 S1                 0.0000
     32 ****         1.9291  -1.2711  -0.2378 H              1 S1                 0.0000
     33 ****         2.7476   1.2997  -1.3787 H              1 S1                 0.0000
     34 ****         4.1629  -1.0872  -0.0500 H              1 S1                 0.0000
     35 ****         5.5574  -1.0514  -1.9832 H              1 S1                 0.0000
     36 ****         4.4156   0.0888  -2.6938 H              1 S1                 0.0000
     37 ****         6.9453   0.6664  -1.1496 H              1 S1                 0.0000
     38 ****         6.2355   1.6094  -2.4653 H              1 S1                 0.0000
     39 ****         5.3834   0.6201   1.1368 H              1 S1                 0.0000
     40 ****         3.5275   3.3252   1.6345 H              1 S1                 0.0000
     41 ****         1.9078   3.0121   1.0182 H              1 S1                 0.0000
     42 ****         3.2209   3.3465  -0.0937 H              1 S1                 0.0000
     43 ****         3.3813   1.1806   2.9389 H              1 S1                 0.0000
     44 ****         3.0388  -0.3417   2.1406 H              1 S1                 0.0000
     45 ****         1.7803   0.8760   2.2824 H              1 S1                 0.0000
     46 ****        -2.1953   1.1723   0.3483 H              1 S1                 0.0000
     47 ****        -4.4594   0.9283   0.4586 H              1 S1                 0.0000
     48 ****        -0.8952   1.4843  -0.5717 LP             1 S1                 0.0000
     49 ****         0.7623   1.9749  -0.6819 LP             1 S1                 0.0000
     50 ****         4.6812   2.4389  -1.0203 LP             1 S1                 0.0000
     51 ****         6.0357   2.4169  -0.1085 LP             1 S1                 0.0000
@<TRIPOS>BOND
    1    1    2 1     
    2    1   23 1     
    3    1   24 1     
    4    1   25 1     
    5    2    3 1     
    6    2    4 1     
    7    3   26 1     
    8    3   27 1     
    9    3   28 1     
   10    4   22 ar    
   11    4    5 ar    
   12    5    6 ar    
   13    5   29 1     
   14    6    7 ar    
   15    6   30 1     
   16    7    8 1     
   17    7   21 ar    
   18    8    9 am    
   19    8   31 1     
   20    9   10 2     
   21    9   11 am    
   22   11   12 1     
   23   11   32 1     
   24   12   18 1     
   25   12   13 1     
   26   12   33 1     
   27   13   17 1     
   28   13   14 1     
   29   13   34 1     
   30   14   15 1     
   31   14   35 1     
   32   14   36 1     
   33   15   16 1     
   34   15   37 1     
   35   15   38 1     
   36   16   17 1     
   37   17   18 1     
   38   17   39 1     
   39   18   19 1     
   40   18   20 1     
   41   19   40 1     
   42   19   41 1     
   43   19   42 1     
   44   20   43 1     
   45   20   44 1     
   46   20   45 1     
   47   21   22 ar    
   48   21   46 1     
   49   22   47 1     
   50   10   48 1     
   51   10   49 1     
   52   16   50 1     
   53   16   51 1     
@<TRIPOS>SUBSTRUCTURE
      1 S1             1
@<TRIPOS>SET
LONE_PAIRS      STATIC     ATOMS    <user>   **** ""
4 48 49 50 51
DONOR_HYDROGENS      STATIC     ATOMS    <user>   **** ""
3 31 32 47
ATOM$BLUE        STATIC     ATOMS    COLORGROUP SYSTEM
4 48 49 50 51
ATOM$RED        STATIC     ATOMS    COLORGROUP SYSTEM
3 31 32 47
