AV-unprocessed.smi:2556|AV-procd|sdf|10025|dock5
  -GOLD-   2272014 73D 1   1.00000     0.00000
 Structure written by MMmdl.
 34 36  0  0  0  0  0  0  0  0  2 V2000
  149.3839  135.1559  154.8949 C   0  0  0  0  0  0  0  0  0  0  0  0
  149.9446  135.9726  155.9749 N   0  0  0  0  0  0  0  0  0  0  0  0
  150.0641  135.4740  157.2462 C   0  0  0  0  0  0  0  0  0  0  0  0
  149.6858  134.3213  157.4598 O   0  0  0  0  0  0  0  0  0  0  0  0
  150.5969  136.2613  158.2448 N   0  5  0  0  0  0  0  0  0  0  0  0
  151.0444  137.5493  158.1037 C   0  0  0  0  0  0  0  0  0  0  0  0
  151.5260  138.2625  158.9816 O   0  0  0  0  0  0  0  0  0  0  0  0
  150.8896  138.0417  156.7181 C   0  0  0  0  0  0  0  0  0  0  0  0
  150.3704  137.3011  155.6992 C   0  0  0  0  0  0  0  0  0  0  0  0
  150.3511  138.0182  154.5075 N   0  0  0  0  0  0  0  0  0  0  0  0
  150.8748  139.1860  154.8781 C   0  0  0  0  0  0  0  0  0  0  0  0
  151.2240  139.2847  156.1764 N   0  0  0  0  0  0  0  0  0  0  0  0
  151.8166  140.4540  156.8101 C   0  0  0  0  0  0  0  0  0  0  0  0
  150.7720  141.5276  157.1790 C   0  0  2  0  0  0  0  0  0  0  0  0
  150.3236  142.2049  156.0210 O   0  0  0  0  0  0  0  0  0  0  0  0
  151.3149  142.4873  158.2259 C   0  0  0  0  0  0  0  0  0  0  0  0
  151.7673  141.9975  159.4700 C   0  0  0  0  0  0  0  0  0  0  0  0
  152.2746  142.8847  160.4396 C   0  0  0  0  0  0  0  0  0  0  0  0
  152.3343  144.2655  160.1699 C   0  0  0  0  0  0  0  0  0  0  0  0
  151.8881  144.7592  158.9291 C   0  0  0  0  0  0  0  0  0  0  0  0
  151.3812  143.8727  157.9592 C   0  0  0  0  0  0  0  0  0  0  0  0
  149.9822  134.2560  154.7463 H   0  0  0  0  0  0  0  0  0  0  0  0
  149.3482  135.6841  153.9427 H   0  0  0  0  0  0  0  0  0  0  0  0
  148.3647  134.8515  155.1363 H   0  0  0  0  0  0  0  0  0  0  0  0
  151.0115  139.9987  154.1801 H   0  0  0  0  0  0  0  0  0  0  0  0
  152.3312  140.1214  157.7127 H   0  0  0  0  0  0  0  0  0  0  0  0
  152.5925  140.8644  156.1660 H   0  0  0  0  0  0  0  0  0  0  0  0
  149.8971  141.0272  157.5963 H   0  0  0  0  0  0  0  0  0  0  0  0
  149.9112  143.0126  156.2856 H   0  0  0  0  0  0  0  0  0  0  0  0
  151.7281  140.9398  159.6859 H   0  0  0  0  0  0  0  0  0  0  0  0
  152.6191  142.5055  161.3904 H   0  0  0  0  0  0  0  0  0  0  0  0
  152.7236  144.9451  160.9135 H   0  0  0  0  0  0  0  0  0  0  0  0
  151.9353  145.8177  158.7195 H   0  0  0  0  0  0  0  0  0  0  0  0
  151.0448  144.2586  157.0075 H   0  0  0  0  0  0  0  0  0  0  0  0
  1  2  1  0  0  0  0
  1 22  1  0  0  0  0
  1 23  1  0  0  0  0
  1 24  1  0  0  0  0
  2  9  1  0  0  0  0
  2  3  1  0  0  0  0
  3  4  2  0  0  0  0
  3  5  1  0  0  0  0
  5  6  1  0  0  0  0
  6  7  2  0  0  0  0
  6  8  1  0  0  0  0
  8 12  1  0  0  0  0
  8  9  2  0  0  0  0
  9 10  1  0  0  0  0
 10 11  2  0  0  0  0
 11 12  1  0  0  0  0
 11 25  1  0  0  0  0
 12 13  1  0  0  0  0
 13 14  1  0  0  0  0
 13 26  1  0  0  0  0
 13 27  1  0  0  0  0
 14 15  1  0  0  0  0
 14 16  1  0  0  0  0
 14 28  1  0  0  0  0
 15 29  1  0  0  0  0
 16 21  1  0  0  0  0
 16 17  2  0  0  0  0
 17 18  1  0  0  0  0
 17 30  1  0  0  0  0
 18 19  2  0  0  0  0
 18 31  1  0  0  0  0
 19 20  1  0  0  0  0
 19 32  1  0  0  0  0
 20 21  2  0  0  0  0
 20 33  1  0  0  0  0
 21 34  1  0  0  0  0
M  CHG  1   5  -1
M  END
> <s_m_source_file>
AV-unprocessed.smi

> <i_m_source_file_index>
2556

> <i_lp_mmshare_version>
43012

> <i_f3d_flags>
0

> <s_epik_input>
Tz1jMVtuSF1jKD1PKW4oW0NIM10pYyhjMTIpbltjSF1uMltDSDJdW0NASF0oW09IXSljM1tjSF1bY0hdW2NIXVtjSF1bY0hdMw==

> <s_epik_cmdline>
J2VwaWtfcHl0aG9uJywgJy1waCcsICc3LjAnLCAnLXRuJywgJzgnLCAnLW1hJywgJzIwMCcsICctbWV0YWxfYmluZGluZycsICctaW1hZScsICc8aW5maWxlLm1hZT4nLCAnLW9tYWUnLCAnPG91dGZpbGUubWFlPic=

> <r_lp_tautomer_probability>
1

> <r_epik_Ionization_Penalty>
4.84872

> <r_epik_Ionization_Penalty_Charging>
0.03865

> <r_epik_Ionization_Penalty_Neutral>
4.81007

> <r_epik_State_Penalty>
4.80988

> <r_epik_Charging_Adjusted_Penalty>
4.84853

> <i_epik_Tot_Q>
-1

> <i_epik_Tot_abs_Q>
1

> <r_epik_Metal_State_Penalty>
0.994041

> <b_epik_Metal_Only>
1

> <s_lp_Force_Field>
OPLS_2005

> <r_lp_Energy>
33.4055

> <b_lp_Chiralities_Consistent>
1

> <s_lp_Variant>
AV-unprocessed.smi:2556-3

> <Gold.Version>
5.8.1

> <Gold.Id.Protein>
6NUR|6NUR_protein|mol2

> <Gold.PLP.Fitness>
44.6739

> <Gold.PLP.PLP>
-36.9141

> <Gold.PLP.part.hbond>
-3.0000

> <Gold.PLP.part.metal>
0.0000

> <Gold.PLP.part.buried>
-4.2729

> <Gold.PLP.part.nonpolar>
-30.7972

> <Gold.PLP.part.repulsive>
0.1985

> <Gold.PLP.ligand.clash>
0.0000

> <Gold.PLP.ligand.torsion>
0.4381

> <Gold.PLP.Chemscore.Hbond>
2.8675

> <Gold.PLP.Chemscore.CHOScore>
0.0000

> <Gold.PLP.Chemscore.Metal>
0.0000

> <Gold.Chemscore.Hbonds>
donor molecule, donor type, donor heavy atom, donor atom, acceptor molecule, acceptor atom, score
      L1  H    15    29       P1  8028  0.80
      P1  H  6896  6908       L1     4  0.20
      P1  H  6896  6909       L1     5  1.01

> <Gold.PLP.Chemscore.Internal.Correction>
0.0335

> <Gold.Rescore>
     Score         DG    S(hbond)    S(metal)    S(lipo)     H(rot)  DE(clash)    DE(int)     intcor
     15.37     -15.87       1.70        0.00      90.07       2.28       0.03       0.47       ----

> <Gold.Chemscore.Fitness>
15.3704

> <Gold.Chemscore.DG>
-15.8670

> <Gold.Chemscore.ZeroCoef>
-5.4800

> <Gold.Chemscore.Hbond>
1.7043

> <Gold.Chemscore.Metal>
0.0000

> <Gold.Chemscore.Lipo>
90.0651

> <Gold.Chemscore.Internal_Hbond>
0.0000

> <Gold.Chemscore.DEClash>
0.0273

> <Gold.Chemscore.DEInternal>
0.4694

> <Gold.Chemscore.Rot>
2.2824

> <Gold.Chemscore.Internal.Correction>
   9.000000E+99

> <Gold.Chemscore.Hbonds>
donor molecule, donor type, donor heavy atom, donor atom, acceptor molecule, acceptor atom, score
      L1  H    15    29       P1  8028  0.75
      P1  H  6896  6908       L1     4  0.10
      P1  H  6896  6909       L1     5  0.39

> <Gold.Chemscore.Hbond.Weighted>
-5.6925

> <Gold.Chemscore.Metal.Weighted>
-0.0000

> <Gold.Chemscore.Lipo.Weighted>
-10.5376

> <Gold.Chemscore.Internal_Hbond.Weighted>
0.0000

> <Gold.Chemscore.DEClash.Weighted>
0.0273

> <Gold.Chemscore.DEInternal.Weighted>
0.4694

> <Gold.Chemscore.Rot.Weighted>
5.8431

> <Gold.Chemscore.Internal.Correction.Weighted>
   9.000000E+99

> <Gold.Protein.RotatedTorsions>
[ 6907 6896 6895 6894 ] final  101.82 input  -60.11 | X-H torsion
[ 7974 7965 7964 7962 ] final -137.81 input  175.53 | X-H torsion
[ 8008 7997 7996 7995 ] final  168.40 input   59.86 | X-H torsion
[ 10167 10162 10161 10158 ] final -161.68 input  -65.29 | X-H torsion
[ 10718 10713 10712 10709 ] final   11.70 input   66.30 | X-H torsion
[ 10763 10752 10751 10750 ] final   -3.88 input  -60.55 | X-H torsion
[ 11005 11000 10999 10996 ] final  -51.90 input  -57.11 | X-H torsion

> <Gold.Protein.ActiveResidues>
 VAL166  LYS551  ARG553  GLY616  TRP617  ASP618  TYR619  PRO620  LYS621  CYS622 
 ASP623  PHE694  ASN695  SER759  ASP760  ASP761  ALA762  ILE779  LEU786  VAL792 
 PHE793  MET794  SER795  GLU796  ALA797  LYS798  CYS799  TRP800  GLU811  SER814 

> <Gold.Protein.RotatedAtoms>
  152.5339  134.0068  159.7919 H   0  0  0  0  0  0  0  0  0  0  0  0  # atno 6907 bound_to 6896
  151.0277  133.5811  159.2671 H   0  0  0  0  0  0  0  0  0  0  0  0  # atno 6908 bound_to 6896
  151.2827  135.0725  159.9229 H   0  0  0  0  0  0  0  0  0  0  0  0  # atno 6909 bound_to 6896
  144.8810  140.6508  143.5206 H   0  0  0  0  0  0  0  0  0  0  0  0  # atno 7974 bound_to 7965
  156.1550  140.1591  156.8707 H   0  0  0  0  0  0  0  0  0  0  0  0  # atno 8008 bound_to 7997
  154.5106  140.0802  156.8019 H   0  0  0  0  0  0  0  0  0  0  0  0  # atno 8009 bound_to 7997
  155.3821  140.3405  155.4249 H   0  0  0  0  0  0  0  0  0  0  0  0  # atno 8010 bound_to 7997
  139.6447  144.0194  152.2118 H   0  0  0  0  0  0  0  0  0  0  0  0  # atno 10167 bound_to 10162
  156.9994  130.6073  149.5694 H   0  0  0  0  0  0  0  0  0  0  0  0  # atno 10718 bound_to 10713
  153.3773  135.6997  153.6592 H   0  0  0  0  0  0  0  0  0  0  0  0  # atno 10763 bound_to 10752
  153.5217  135.3610  155.2635 H   0  0  0  0  0  0  0  0  0  0  0  0  # atno 10764 bound_to 10752
  154.8688  135.4159  154.3064 H   0  0  0  0  0  0  0  0  0  0  0  0  # atno 10765 bound_to 10752
  141.0896  133.6635  156.3945 H   0  0  0  0  0  0  0  0  0  0  0  0  # atno 11005 bound_to 11000
  145.3954  139.1608  143.4206 LP  0  0  0  0  0  0  0  0  0  0  0  0  # atno 17320 bound_to 7965
  146.2994  140.4046  142.8709 LP  0  0  0  0  0  0  0  0  0  0  0  0  # atno 17321 bound_to 7965
  139.9893  144.6373  150.7829 LP  0  0  0  0  0  0  0  0  0  0  0  0  # atno 17342 bound_to 10162
  140.7509  143.2963  151.3197 LP  0  0  0  0  0  0  0  0  0  0  0  0  # atno 17343 bound_to 10162
  156.0177  130.5271  150.8183 LP  0  0  0  0  0  0  0  0  0  0  0  0  # atno 17370 bound_to 10713
  157.5401  131.0940  150.9839 LP  0  0  0  0  0  0  0  0  0  0  0  0  # atno 17371 bound_to 10713
  140.5284  134.6237  157.5341 LP  0  0  0  0  0  0  0  0  0  0  0  0  # atno 17394 bound_to 11000
  139.9719  134.7278  156.0024 LP  0  0  0  0  0  0  0  0  0  0  0  0  # atno 17395 bound_to 11000

$$$$
