AV-unprocessed.smi:290|AV-procd|sdf|2228|dock5
  -GOLD-   2262022 83D 1   1.00000     0.00000
 Structure written by MMmdl.
 59 62  0  0  0  0  0  0  0  0  2 V2000
  152.2678  145.1231  158.7357 C   0  0  0  0  0  0  0  0  0  0  0  0
  152.4828  143.6283  158.4476 C   0  0  1  0  0  0  0  0  0  0  0  0
  153.1623  143.0074  159.5299 O   0  0  0  0  0  0  0  0  0  0  0  0
  152.9549  141.6121  159.4075 C   0  0  0  0  0  0  0  0  0  0  0  0
  151.4711  141.5248  159.0742 C   0  0  0  0  0  0  0  0  0  0  0  0
  151.2132  142.7656  158.2144 C   0  0  1  0  0  0  0  0  0  0  0  0
  150.0446  143.4046  158.7013 O   0  0  0  0  0  0  0  0  0  0  0  0
  150.9891  142.4025  156.7252 C   0  0  0  0  0  0  0  0  0  0  0  0
  150.0402  141.3175  156.5276 N   0  0  0  0  0  0  0  0  0  0  0  0
  148.7936  141.1946  157.0986 C   0  0  0  0  0  0  0  0  0  0  0  0
  148.1343  140.1183  156.7686 N   0  0  0  0  0  0  0  0  0  0  0  0
  148.9858  139.4499  155.8962 C   0  0  0  0  0  0  0  0  0  0  0  0
  148.9021  138.2280  155.1681 C   0  0  0  0  0  0  0  0  0  0  0  0
  147.8301  137.3948  155.2416 N   0  0  0  0  0  0  0  0  0  0  0  0
  148.0619  136.0675  155.8074 C   0  0  0  0  0  0  0  0  0  0  0  0
  147.1743  135.0960  155.0223 C   0  0  0  0  0  0  0  0  0  0  0  0
  146.0864  136.0123  154.4522 C   0  0  2  0  0  0  0  0  0  0  0  0
  145.3203  135.4705  153.2935 N   0  3  2  0  0  0  0  0  0  0  0  0
  145.3514  133.9894  153.2505 C   0  0  0  0  0  0  0  0  0  0  0  0
  145.6237  136.0879  151.9734 C   0  0  0  0  0  0  0  0  0  0  0  0
  144.8657  135.3908  150.8328 C   0  0  0  0  0  0  0  0  0  0  0  0
  145.1002  136.0657  149.6146 O   0  0  0  0  0  0  0  0  0  0  0  0
  146.8473  137.3135  154.1612 C   0  0  1  0  0  0  0  0  0  0  0  0
  145.9266  138.5458  154.1034 C   0  0  0  0  0  0  0  0  0  0  0  0
  149.9588  137.9036  154.3761 N   0  0  0  0  0  0  0  0  0  0  0  0
  151.0237  138.7070  154.3024 C   0  0  0  0  0  0  0  0  0  0  0  0
  151.2391  139.8649  154.9283 N   0  0  0  0  0  0  0  0  0  0  0  0
  150.1835  140.2003  155.7236 C   0  0  0  0  0  0  0  0  0  0  0  0
  145.3794  136.2257  155.2568 H   0  0  0  0  0  0  0  0  0  0  0  0
  147.3866  137.2300  153.2185 H   0  0  0  0  0  0  0  0  0  0  0  0
  151.7296  145.6073  157.9207 H   0  0  0  0  0  0  0  0  0  0  0  0
  153.2231  145.6352  158.8513 H   0  0  0  0  0  0  0  0  0  0  0  0
  151.7007  145.2765  159.6541 H   0  0  0  0  0  0  0  0  0  0  0  0
  153.1462  143.5342  157.5870 H   0  0  0  0  0  0  0  0  0  0  0  0
  153.5650  141.2164  158.5939 H   0  0  0  0  0  0  0  0  0  0  0  0
  153.2135  141.0826  160.3246 H   0  0  0  0  0  0  0  0  0  0  0  0
  151.2110  140.5884  158.5792 H   0  0  0  0  0  0  0  0  0  0  0  0
  150.9023  141.5691  160.0048 H   0  0  0  0  0  0  0  0  0  0  0  0
  149.6701  143.9204  158.0038 H   0  0  0  0  0  0  0  0  0  0  0  0
  150.6289  143.2736  156.1759 H   0  0  0  0  0  0  0  0  0  0  0  0
  151.9333  142.1194  156.2580 H   0  0  0  0  0  0  0  0  0  0  0  0
  148.3870  141.9294  157.7781 H   0  0  0  0  0  0  0  0  0  0  0  0
  149.1097  135.7675  155.7544 H   0  0  0  0  0  0  0  0  0  0  0  0
  147.7695  136.0839  156.8577 H   0  0  0  0  0  0  0  0  0  0  0  0
  147.7699  134.6366  154.2338 H   0  0  0  0  0  0  0  0  0  0  0  0
  146.7747  134.2966  155.6466 H   0  0  0  0  0  0  0  0  0  0  0  0
  146.3639  133.6239  153.0750 H   0  0  0  0  0  0  0  0  0  0  0  0
  144.7101  133.6026  152.4592 H   0  0  0  0  0  0  0  0  0  0  0  0
  144.9959  133.5673  154.1908 H   0  0  0  0  0  0  0  0  0  0  0  0
  145.3674  137.1462  151.9535 H   0  0  0  0  0  0  0  0  0  0  0  0
  146.6985  136.0419  151.7914 H   0  0  0  0  0  0  0  0  0  0  0  0
  145.2132  134.3628  150.7268 H   0  0  0  0  0  0  0  0  0  0  0  0
  143.7942  135.3454  151.0256 H   0  0  0  0  0  0  0  0  0  0  0  0
  144.9065  136.9838  149.7332 H   0  0  0  0  0  0  0  0  0  0  0  0
  145.1826  138.4384  153.3139 H   0  0  0  0  0  0  0  0  0  0  0  0
  146.4848  139.4594  153.9000 H   0  0  0  0  0  0  0  0  0  0  0  0
  145.3942  138.6877  155.0444 H   0  0  0  0  0  0  0  0  0  0  0  0
  151.8174  138.3738  153.6500 H   0  0  0  0  0  0  0  0  0  0  0  0
  144.3595  135.7166  153.4866 H   0  0  0  0  0  0  0  0  0  0  0  0
  1  2  1  0  0  0  0
  1 31  1  0  0  0  0
  1 32  1  0  0  0  0
  1 33  1  0  0  0  0
  2  6  1  0  0  0  0
  2  3  1  0  0  0  0
  2 34  1  0  0  0  0
  3  4  1  0  0  0  0
  4  5  1  0  0  0  0
  4 35  1  0  0  0  0
  4 36  1  0  0  0  0
  5  6  1  0  0  0  0
  5 37  1  0  0  0  0
  5 38  1  0  0  0  0
  6  7  1  0  0  0  0
  6  8  1  0  0  0  0
  7 39  1  0  0  0  0
  8  9  1  0  0  0  0
  8 40  1  0  0  0  0
  8 41  1  0  0  0  0
  9 28  1  0  0  0  0
  9 10  1  0  0  0  0
 10 11  2  0  0  0  0
 10 42  1  0  0  0  0
 11 12  1  0  0  0  0
 12 28  2  0  0  0  0
 12 13  1  0  0  0  0
 13 14  1  0  0  0  0
 13 25  2  0  0  0  0
 14 23  1  0  0  0  0
 14 15  1  0  0  0  0
 15 16  1  0  0  0  0
 15 43  1  0  0  0  0
 15 44  1  0  0  0  0
 16 17  1  0  0  0  0
 16 45  1  0  0  0  0
 16 46  1  0  0  0  0
 17 29  1  0  0  0  0
 17 18  1  0  0  0  0
 17 23  1  0  0  0  0
 18 19  1  0  0  0  0
 18 20  1  0  0  0  0
 18 59  1  0  0  0  0
 19 47  1  0  0  0  0
 19 48  1  0  0  0  0
 19 49  1  0  0  0  0
 20 21  1  0  0  0  0
 20 50  1  0  0  0  0
 20 51  1  0  0  0  0
 21 22  1  0  0  0  0
 21 52  1  0  0  0  0
 21 53  1  0  0  0  0
 22 54  1  0  0  0  0
 23 30  1  0  0  0  0
 23 24  1  0  0  0  0
 24 55  1  0  0  0  0
 24 56  1  0  0  0  0
 24 57  1  0  0  0  0
 25 26  1  0  0  0  0
 26 27  2  0  0  0  0
 26 58  1  0  0  0  0
 27 28  1  0  0  0  0
M  CHG  1  18   1
M  END
> <s_m_source_file>
AV-unprocessed.smi

> <i_m_source_file_index>
290

> <i_lp_mmshare_version>
43012

> <i_f3d_flags>
0

> <s_epik_input>
W0NIMl0xW0NIMl1PW0NAQEhdKFtDSDNdKVtDQEBdMShbT0hdKVtDSDJdbihbY0hdbjIpYyhjMjMpbltjSF1uYzNONFtDSDJdW0NIMl1bQ0BIXShbQ0BIXTRbQ0gzXSlOKFtDSDNdKVtDSDJdW0NIMl1bT0hd

> <s_epik_cmdline>
J2VwaWtfcHl0aG9uJywgJy1waCcsICc3LjAnLCAnLXRuJywgJzgnLCAnLW1hJywgJzIwMCcsICctbWV0YWxfYmluZGluZycsICctaW1hZScsICc8aW5maWxlLm1hZT4nLCAnLW9tYWUnLCAnPG91dGZpbGUubWFlPic=

> <r_lp_tautomer_probability>
1

> <r_epik_Ionization_Penalty>
0.0036983

> <r_epik_Ionization_Penalty_Charging>
0.0032725

> <r_epik_Ionization_Penalty_Neutral>
0.000425798

> <r_epik_State_Penalty>
-0

> <r_epik_Charging_Adjusted_Penalty>
0.0032725

> <i_epik_Tot_Q>
1

> <i_epik_Tot_abs_Q>
1

> <r_epik_Metal_State_Penalty>
-0

> <b_epik_Metal_Only>
0

> <s_lp_Force_Field>
OPLS_2005

> <r_lp_Energy>
60.2599

> <b_lp_Chiralities_Consistent>
1

> <s_lp_Variant>
AV-unprocessed.smi:290-14

> <Gold.Version>
5.8.1

> <Gold.Id.Protein>
6NUR|6NUR_protein|mol2

> <Gold.PLP.Fitness>
42.6364

> <Gold.PLP.PLP>
-39.6085

> <Gold.PLP.part.hbond>
-3.0000

> <Gold.PLP.part.metal>
0.0000

> <Gold.PLP.part.buried>
-9.3536

> <Gold.PLP.part.nonpolar>
-29.3814

> <Gold.PLP.part.repulsive>
0.3558

> <Gold.PLP.ligand.clash>
0.0000

> <Gold.PLP.ligand.torsion>
1.7126

> <Gold.PLP.Chemscore.Hbond>
1.9500

> <Gold.PLP.Chemscore.CHOScore>
0.0000

> <Gold.PLP.Chemscore.Metal>
0.0000

> <Gold.Chemscore.Hbonds>
donor molecule, donor type, donor heavy atom, donor atom, acceptor molecule, acceptor atom, score
      L1  H    22    54       P1 10171  1.00
      P1  H  7989  7998       L1    27  0.95

> <Gold.PLP.Chemscore.Internal.Correction>
0.6031

> <Gold.Rescore>
     Score         DG    S(hbond)    S(metal)    S(lipo)     H(rot)  DE(clash)    DE(int)     intcor
      9.19     -12.12       1.68        0.00      89.09       3.67       0.25       2.68       ----

> <Gold.Chemscore.Fitness>
9.1918

> <Gold.Chemscore.DG>
-12.1230

> <Gold.Chemscore.ZeroCoef>
-5.4800

> <Gold.Chemscore.Hbond>
1.6779

> <Gold.Chemscore.Metal>
0.0000

> <Gold.Chemscore.Lipo>
89.0886

> <Gold.Chemscore.Internal_Hbond>
0.0000

> <Gold.Chemscore.DEClash>
0.2521

> <Gold.Chemscore.DEInternal>
2.6790

> <Gold.Chemscore.Rot>
3.6658

> <Gold.Chemscore.Internal.Correction>
   9.000000E+99

> <Gold.Chemscore.Hbonds>
donor molecule, donor type, donor heavy atom, donor atom, acceptor molecule, acceptor atom, score
      L1  H    22    54       P1 10171  0.99
      P1  H  7989  7998       L1    27  0.21

> <Gold.Chemscore.Hbond.Weighted>
-5.6041

> <Gold.Chemscore.Metal.Weighted>
-0.0000

> <Gold.Chemscore.Lipo.Weighted>
-10.4234

> <Gold.Chemscore.Internal_Hbond.Weighted>
0.0000

> <Gold.Chemscore.DEClash.Weighted>
0.2521

> <Gold.Chemscore.DEInternal.Weighted>
2.6790

> <Gold.Chemscore.Rot.Weighted>
9.3844

> <Gold.Chemscore.Internal.Correction.Weighted>
   9.000000E+99

> <Gold.Protein.RotatedTorsions>
[ 6907 6896 6895 6894 ] final  -32.20 input  -60.11 | X-H torsion
[ 7974 7965 7964 7962 ] final  169.49 input  175.53 | X-H torsion
[ 8008 7997 7996 7995 ] final  145.14 input   59.86 | X-H torsion
[ 10167 10162 10161 10158 ] final   23.22 input  -65.29 | X-H torsion
[ 10718 10713 10712 10709 ] final  152.52 input   66.30 | X-H torsion
[ 10763 10752 10751 10750 ] final   40.19 input  -60.55 | X-H torsion
[ 11005 11000 10999 10996 ] final  119.58 input  -57.11 | X-H torsion

> <Gold.Protein.ActiveResidues>
 VAL166  LYS551  ARG553  GLY616  TRP617  ASP618  TYR619  PRO620  LYS621  CYS622 
 ASP623  PHE694  ASN695  SER759  ASP760  ASP761  ALA762  ILE779  LEU786  VAL792 
 PHE793  MET794  SER795  GLU796  ALA797  LYS798  CYS799  TRP800  GLU811  SER814 

> <Gold.Protein.RotatedAtoms>
  151.0819  134.9863  159.8359 H   0  0  0  0  0  0  0  0  0  0  0  0  # atno 6907 bound_to 6896
  152.5420  134.2171  159.8783 H   0  0  0  0  0  0  0  0  0  0  0  0  # atno 6908 bound_to 6896
  151.2202  133.4463  159.2634 H   0  0  0  0  0  0  0  0  0  0  0  0  # atno 6909 bound_to 6896
  144.7353  139.9062  143.6412 H   0  0  0  0  0  0  0  0  0  0  0  0  # atno 7974 bound_to 7965
  156.2891  140.2217  156.5166 H   0  0  0  0  0  0  0  0  0  0  0  0  # atno 8008 bound_to 7997
  154.7564  140.0476  157.0958 H   0  0  0  0  0  0  0  0  0  0  0  0  # atno 8009 bound_to 7997
  155.0046  140.3105  155.4857 H   0  0  0  0  0  0  0  0  0  0  0  0  # atno 8010 bound_to 7997
  140.5286  143.9880  150.6453 H   0  0  0  0  0  0  0  0  0  0  0  0  # atno 10167 bound_to 10162
  157.2568  131.0790  151.1693 H   0  0  0  0  0  0  0  0  0  0  0  0  # atno 10718 bound_to 10713
  152.9944  135.6199  154.2585 H   0  0  0  0  0  0  0  0  0  0  0  0  # atno 10763 bound_to 10752
  154.2322  135.2791  155.2887 H   0  0  0  0  0  0  0  0  0  0  0  0  # atno 10764 bound_to 10752
  154.5440  135.5753  153.6922 H   0  0  0  0  0  0  0  0  0  0  0  0  # atno 10765 bound_to 10752
  139.9152  134.9629  156.7677 H   0  0  0  0  0  0  0  0  0  0  0  0  # atno 11005 bound_to 11000
  146.1035  139.4032  143.0332 LP  0  0  0  0  0  0  0  0  0  0  0  0  # atno 17320 bound_to 7965
  145.7545  140.9959  143.1233 LP  0  0  0  0  0  0  0  0  0  0  0  0  # atno 17321 bound_to 7965
  140.3249  143.3114  152.0746 LP  0  0  0  0  0  0  0  0  0  0  0  0  # atno 17342 bound_to 10162
  139.4946  144.6548  151.6595 LP  0  0  0  0  0  0  0  0  0  0  0  0  # atno 17343 bound_to 10162
  157.3219  130.6941  149.6274 LP  0  0  0  0  0  0  0  0  0  0  0  0  # atno 17370 bound_to 10713
  155.9665  130.4333  150.4999 LP  0  0  0  0  0  0  0  0  0  0  0  0  # atno 17371 bound_to 10713
  140.6646  133.9614  155.7823 LP  0  0  0  0  0  0  0  0  0  0  0  0  # atno 17394 bound_to 11000
  141.0619  134.0333  157.3646 LP  0  0  0  0  0  0  0  0  0  0  0  0  # atno 17395 bound_to 11000

$$$$
