AV-unprocessed.smi:1948|AV-procd|sdf|7876|dock10
  -GOLD-   2272010 23D 1   1.00000     0.00000
 Structure written by MMmdl.
 29 30  0  0  0  0  0  0  0  0  2 V2000
  153.5851  139.5857  158.5398 O   0  0  0  0  0  0  0  0  0  0  0  0
  152.4053  139.6476  158.1859 C   0  0  0  0  0  0  0  0  0  0  0  0
  151.6858  138.6512  157.6206 N   0  5  0  0  0  0  0  0  0  0  0  0
  151.2665  138.7630  156.3493 C   0  0  0  0  0  0  0  0  0  0  0  0
  151.2341  139.9406  155.7046 N   0  0  0  0  0  0  0  0  0  0  0  0
  150.7742  139.8360  154.3988 N   0  0  0  0  0  0  0  0  0  0  0  0
  150.4768  138.5744  154.0882 C   0  0  0  0  0  0  0  0  0  0  0  0
  150.7363  137.3994  155.3602 S   0  0  0  0  0  0  0  0  0  0  0  0
  151.7152  140.7858  158.3500 N   0  0  0  0  0  0  0  0  0  0  0  0
  152.2265  142.0285  158.9228 C   0  0  2  0  0  0  0  0  0  0  0  0
  152.5348  141.8515  160.4232 C   0  0  0  0  0  0  0  0  0  0  0  0
  153.0166  143.1674  161.0590 C   0  0  0  0  0  0  0  0  0  0  0  0
  152.0299  144.3272  160.8254 C   0  0  2  0  0  0  0  0  0  0  0  0
  150.8538  144.1264  161.5845 O   0  0  0  0  0  0  0  0  0  0  0  0
  151.6763  144.4794  159.3341 C   0  0  0  0  0  0  0  0  0  0  0  0
  151.2003  143.1560  158.7093 C   0  0  0  0  0  0  0  0  0  0  0  0
  150.1067  138.3335  153.1031 H   0  0  0  0  0  0  0  0  0  0  0  0
  150.7520  140.7882  158.0482 H   0  0  0  0  0  0  0  0  0  0  0  0
  153.1454  142.3067  158.4028 H   0  0  0  0  0  0  0  0  0  0  0  0
  151.6438  141.4982  160.9442 H   0  0  0  0  0  0  0  0  0  0  0  0
  153.2951  141.0822  160.5626 H   0  0  0  0  0  0  0  0  0  0  0  0
  153.1912  143.0266  162.1263 H   0  0  0  0  0  0  0  0  0  0  0  0
  153.9825  143.4320  160.6269 H   0  0  0  0  0  0  0  0  0  0  0  0
  152.4806  145.2546  161.1804 H   0  0  0  0  0  0  0  0  0  0  0  0
  150.1115  144.3946  161.0650 H   0  0  0  0  0  0  0  0  0  0  0  0
  150.9172  145.2512  159.2021 H   0  0  0  0  0  0  0  0  0  0  0  0
  152.5583  144.8262  158.7941 H   0  0  0  0  0  0  0  0  0  0  0  0
  151.0212  143.2998  157.6432 H   0  0  0  0  0  0  0  0  0  0  0  0
  150.2416  142.8715  159.1457 H   0  0  0  0  0  0  0  0  0  0  0  0
  1  2  2  0  0  0  0
  2  3  1  0  0  0  0
  2  9  1  0  0  0  0
  3  4  1  0  0  0  0
  4  8  1  0  0  0  0
  4  5  2  0  0  0  0
  5  6  1  0  0  0  0
  6  7  2  0  0  0  0
  7  8  1  0  0  0  0
  7 17  1  0  0  0  0
  9 10  1  0  0  0  0
  9 18  1  0  0  0  0
 10 16  1  0  0  0  0
 10 11  1  0  0  0  0
 10 19  1  0  0  0  0
 11 12  1  0  0  0  0
 11 20  1  0  0  0  0
 11 21  1  0  0  0  0
 12 13  1  0  0  0  0
 12 22  1  0  0  0  0
 12 23  1  0  0  0  0
 13 14  1  0  0  0  0
 13 15  1  0  0  0  0
 13 24  1  0  0  0  0
 14 25  1  0  0  0  0
 15 16  1  0  0  0  0
 15 26  1  0  0  0  0
 15 27  1  0  0  0  0
 16 28  1  0  0  0  0
 16 29  1  0  0  0  0
M  CHG  1   3  -1
M  END
> <s_m_source_file>
AV-unprocessed.smi

> <i_m_source_file_index>
1948

> <i_lp_mmshare_version>
43012

> <i_f3d_flags>
0

> <s_epik_input>
czFbY0hdbm5jMVtOSF1DKD1PKVtOSF1bQ0BASF0yW0NIMl1bQ0gyXVtDQEBIXShbT0hdKVtDSDJdW0NIMl0y

> <s_epik_cmdline>
J2VwaWtfcHl0aG9uJywgJy1waCcsICc3LjAnLCAnLXRuJywgJzgnLCAnLW1hJywgJzIwMCcsICctbWV0YWxfYmluZGluZycsICctaW1hZScsICc8aW5maWxlLm1hZT4nLCAnLW9tYWUnLCAnPG91dGZpbGUubWFlPic=

> <r_lp_tautomer_probability>
1

> <r_epik_Ionization_Penalty>
4.52057

> <r_epik_Ionization_Penalty_Charging>
4.4725

> <r_epik_Ionization_Penalty_Neutral>
0.048076

> <r_epik_State_Penalty>
4.47218

> <r_epik_Charging_Adjusted_Penalty>
8.94468

> <i_epik_Tot_Q>
-1

> <i_epik_Tot_abs_Q>
1

> <r_epik_Metal_State_Penalty>
0.805713

> <b_epik_Metal_Only>
1

> <s_lp_Force_Field>
OPLS_2005

> <r_lp_Energy>
8.18749

> <b_lp_Chiralities_Consistent>
1

> <s_lp_Variant>
AV-unprocessed.smi:1948-4

> <Gold.Version>
5.8.1

> <Gold.Id.Protein>
6NUR|6NUR_protein|mol2

> <Gold.PLP.Fitness>
41.6613

> <Gold.PLP.PLP>
-32.1959

> <Gold.PLP.part.hbond>
-4.9288

> <Gold.PLP.part.metal>
0.0000

> <Gold.PLP.part.buried>
-6.4064

> <Gold.PLP.part.nonpolar>
-21.3897

> <Gold.PLP.part.repulsive>
0.2322

> <Gold.PLP.ligand.clash>
0.0000

> <Gold.PLP.ligand.torsion>
0.7689

> <Gold.PLP.Chemscore.Hbond>
2.0000

> <Gold.PLP.Chemscore.CHOScore>
1.6654

> <Gold.PLP.Chemscore.Metal>
0.0000

> <Gold.Chemscore.Hbonds>
donor molecule, donor type, donor heavy atom, donor atom, acceptor molecule, acceptor atom, score
      P1  H  7989  7998       L1     6  1.00
      P1  H  7997  8008       L1     1  1.00
      L1  C     7    17       P1  7948  0.70
      L1  C     7    17       P1  7957  0.75

> <Gold.PLP.Chemscore.Internal.Correction>
0.0069

> <Gold.Rescore>
     Score         DG    S(hbond)    S(metal)    S(lipo)     H(rot)  DE(clash)    DE(int)     intcor
     14.37     -15.18       1.33        0.00      78.63       1.53       0.04       0.77       ----

> <Gold.Chemscore.Fitness>
14.3697

> <Gold.Chemscore.DG>
-15.1845

> <Gold.Chemscore.ZeroCoef>
-5.4800

> <Gold.Chemscore.Hbond>
1.3267

> <Gold.Chemscore.Metal>
0.0000

> <Gold.Chemscore.Lipo>
78.6276

> <Gold.Chemscore.Internal_Hbond>
0.0000

> <Gold.Chemscore.DEClash>
0.0417

> <Gold.Chemscore.DEInternal>
0.7731

> <Gold.Chemscore.Rot>
1.5337

> <Gold.Chemscore.Internal.Correction>
   9.000000E+99

> <Gold.Chemscore.Hbonds>
donor molecule, donor type, donor heavy atom, donor atom, acceptor molecule, acceptor atom, score
      P1  H  7989  7998       L1     6  0.65
      P1  H  7997  8008       L1     1  0.78

> <Gold.Chemscore.Hbond.Weighted>
-4.4312

> <Gold.Chemscore.Metal.Weighted>
-0.0000

> <Gold.Chemscore.Lipo.Weighted>
-9.1994

> <Gold.Chemscore.Internal_Hbond.Weighted>
0.0000

> <Gold.Chemscore.DEClash.Weighted>
0.0417

> <Gold.Chemscore.DEInternal.Weighted>
0.7731

> <Gold.Chemscore.Rot.Weighted>
3.9262

> <Gold.Chemscore.Internal.Correction.Weighted>
   9.000000E+99

> <Gold.Protein.RotatedTorsions>
[ 6907 6896 6895 6894 ] final   77.01 input  -60.11 | X-H torsion
[ 7974 7965 7964 7962 ] final  165.28 input  175.53 | X-H torsion
[ 8008 7997 7996 7995 ] final  -95.92 input   59.86 | X-H torsion
[ 10167 10162 10161 10158 ] final    7.80 input  -65.29 | X-H torsion
[ 10718 10713 10712 10709 ] final   78.06 input   66.30 | X-H torsion
[ 10763 10752 10751 10750 ] final  -54.65 input  -60.55 | X-H torsion
[ 11005 11000 10999 10996 ] final    8.76 input  -57.11 | X-H torsion

> <Gold.Protein.ActiveResidues>
 VAL166  LYS551  ARG553  GLY616  TRP617  ASP618  TYR619  PRO620  LYS621  CYS622 
 ASP623  PHE694  ASN695  SER759  ASP760  ASP761  ALA762  ILE779  LEU786  VAL792 
 PHE793  MET794  SER795  GLU796  ALA797  LYS798  CYS799  TRP800  GLU811  SER814 

> <Gold.Protein.RotatedAtoms>
  152.5099  134.3882  159.9374 H   0  0  0  0  0  0  0  0  0  0  0  0  # atno 6907 bound_to 6896
  151.3841  133.3805  159.2721 H   0  0  0  0  0  0  0  0  0  0  0  0  # atno 6908 bound_to 6896
  150.9482  134.8905  159.7714 H   0  0  0  0  0  0  0  0  0  0  0  0  # atno 6909 bound_to 6896
  144.7509  139.8447  143.6366 H   0  0  0  0  0  0  0  0  0  0  0  0  # atno 7974 bound_to 7965
  154.7676  140.0476  157.1025 H   0  0  0  0  0  0  0  0  0  0  0  0  # atno 8008 bound_to 7997
  154.9860  140.3107  155.4906 H   0  0  0  0  0  0  0  0  0  0  0  0  # atno 8009 bound_to 7997
  156.2915  140.2227  156.4962 H   0  0  0  0  0  0  0  0  0  0  0  0  # atno 8010 bound_to 7997
  140.6351  143.7904  150.7348 H   0  0  0  0  0  0  0  0  0  0  0  0  # atno 10167 bound_to 10162
  157.6732  130.9851  150.1732 H   0  0  0  0  0  0  0  0  0  0  0  0  # atno 10718 bound_to 10713
  154.1782  135.6448  153.5027 H   0  0  0  0  0  0  0  0  0  0  0  0  # atno 10763 bound_to 10752
  153.0066  135.5399  154.6542 H   0  0  0  0  0  0  0  0  0  0  0  0  # atno 10764 bound_to 10752
  154.5899  135.2933  155.0618 H   0  0  0  0  0  0  0  0  0  0  0  0  # atno 10765 bound_to 10752
  140.5334  134.0444  155.7880 H   0  0  0  0  0  0  0  0  0  0  0  0  # atno 11005 bound_to 11000
  146.1458  139.4527  143.0080 LP  0  0  0  0  0  0  0  0  0  0  0  0  # atno 17320 bound_to 7965
  145.6948  141.0154  143.1536 LP  0  0  0  0  0  0  0  0  0  0  0  0  # atno 17321 bound_to 7965
  140.1524  143.4346  152.2122 LP  0  0  0  0  0  0  0  0  0  0  0  0  # atno 17342 bound_to 10162
  139.5562  144.7374  151.4287 LP  0  0  0  0  0  0  0  0  0  0  0  0  # atno 17343 bound_to 10162
  156.2481  130.3698  149.8262 LP  0  0  0  0  0  0  0  0  0  0  0  0  # atno 17370 bound_to 10713
  156.6042  130.8559  151.3439 LP  0  0  0  0  0  0  0  0  0  0  0  0  # atno 17371 bound_to 10713
  141.1268  133.9369  157.2618 LP  0  0  0  0  0  0  0  0  0  0  0  0  # atno 17394 bound_to 11000
  139.9542  135.0169  156.9081 LP  0  0  0  0  0  0  0  0  0  0  0  0  # atno 17395 bound_to 11000

$$$$
