#       Name:                AV-unprocessed.smi:283
#       Creating user name   scv26
#       Creation time:       Thu Mar 26 21:46:13 2020


#       File generated by GOLD software.
#

@<TRIPOS>MOLECULE
AV-unprocessed.smi:283
    59    62     1
SMALL
NO_CHARGES


@<TRIPOS>ATOM
      1 ****        -5.0789  -0.2261  -0.9401 C.3            1 S1                 0.0000
      2 ****        -3.6170  -0.2854  -0.4770 C.3            1 S1                 0.0000
      3 ****        -3.0037   1.0334  -0.6160 N.pl3          1 S1                 0.0000
      4 ****        -1.7044   1.2366  -0.3048 C.ar           1 S1                 0.0000
      5 ****        -1.3863   2.4985   0.0674 N.ar           1 S1                 0.0000
      6 ****        -0.1333   2.7977   0.4167 C.ar           1 S1                 0.0000
      7 ****         0.9343   1.9999   0.4490 N.ar           1 S1                 0.0000
      8 ****         0.6338   0.7285   0.0518 C.ar           1 S1                 0.0000
      9 ****        -0.6590   0.2659  -0.3311 C.ar           1 S1                 0.0000
     10 ****        -0.5849  -1.0825  -0.6532 N.2            1 S1                 0.0000
     11 ****         0.6648  -1.3959  -0.4550 C.2            1 S1                 0.0000
     12 ****         1.4859  -0.3565  -0.0713 N.pl3          1 S1                 0.0000
     13 ****         2.9588  -0.4141   0.2526 C.3            1 S1                 0.0000
     14 ****         3.4912   0.8716   0.2312 O.3            1 S1                 0.0000
     15 ****         3.8274   1.2088  -1.1063 C.3            1 S1                 0.0000
     16 ****         4.7935   2.4022  -1.1224 C.3            1 S1                 0.0000
     17 ****         4.0723   3.6090  -0.9954 O.3            1 S1                 0.0000
     18 ****         4.4474  -0.0956  -1.6221 C.3            1 S1                 0.0000
     19 ****         4.1862  -0.2329  -3.0051 O.3            1 S1                 0.0000
     20 ****         3.7374  -1.1952  -0.8258 C.3            1 S1                 0.0000
     21 ****         4.6729  -2.0781  -0.2409 O.3            1 S1                 0.0000
     22 ****        -3.5289  -0.8865   0.9287 C.ar           1 S1                 0.0000
     23 ****        -3.6292  -0.0469   2.0629 C.ar           1 S1                 0.0000
     24 ****        -3.5528  -0.5817   3.3624 C.ar           1 S1                 0.0000
     25 ****        -3.3852  -1.9661   3.5432 C.ar           1 S1                 0.0000
     26 ****        -3.2986  -2.8133   2.4232 C.ar           1 S1                 0.0000
     27 ****        -3.3729  -2.2828   1.1195 C.ar           1 S1                 0.0000
     28 ****        -3.2759  -3.3738  -0.2186 Cl             1 S1                 0.0000
     29 ****         2.9909  -0.8544   1.2501 H              1 S1                 0.0000
     30 ****         2.9171   1.4383  -1.6650 H              1 S1                 0.0000
     31 ****         5.5232  -0.1099  -1.4387 H              1 S1                 0.0000
     32 ****         3.0651  -1.7793  -1.4534 H              1 S1                 0.0000
     33 ****        -5.5347  -1.2166  -0.9278 H              1 S1                 0.0000
     34 ****        -5.1540   0.1561  -1.9587 H              1 S1                 0.0000
     35 ****        -5.6742   0.4216  -0.2956 H              1 S1                 0.0000
     36 ****        -3.0953  -0.9363  -1.1760 H              1 S1                 0.0000
     37 ****        -3.6620   1.7975  -0.6593 H              1 S1                 0.0000
     38 ****         0.0395   3.8219   0.7123 H              1 S1                 0.0000
     39 ****         1.0185  -2.4074  -0.5916 H              1 S1                 0.0000
     40 ****         5.5419   2.3204  -0.3338 H              1 S1                 0.0000
     41 ****         5.3260   2.4389  -2.0731 H              1 S1                 0.0000
     42 ****         3.4463   3.6609  -1.7015 H              1 S1                 0.0000
     43 ****         3.2515  -0.1951  -3.1396 H              1 S1                 0.0000
     44 ****         4.2019  -2.7280   0.2581 H              1 S1                 0.0000
     45 ****        -3.7648   1.0180   1.9436 H              1 S1                 0.0000
     46 ****        -3.6253   0.0710   4.2200 H              1 S1                 0.0000
     47 ****        -3.3288  -2.3787   4.5397 H              1 S1                 0.0000
     48 ****        -3.1775  -3.8770   2.5662 H              1 S1                 0.0000
     49 ****        -2.0912   3.2077   0.0807 LP             1 S1                 0.0000
     50 ****         1.8466   2.2972   0.7306 LP             1 S1                 0.0000
     51 ****        -1.3238  -1.6790  -0.9666 LP             1 S1                 0.0000
     52 ****         4.3118   0.9045   0.8019 LP             1 S1                 0.0000
     53 ****         2.8156   1.5205   0.5812 LP             1 S1                 0.0000
     54 ****         4.7015   4.3846  -1.0450 LP             1 S1                 0.0000
     55 ****         3.5927   3.6244  -0.1180 LP             1 S1                 0.0000
     56 ****         4.5382  -1.1110  -3.3292 LP             1 S1                 0.0000
     57 ****         4.6293   0.5097  -3.5073 LP             1 S1                 0.0000
     58 ****         5.2856  -1.5683   0.3630 LP             1 S1                 0.0000
     59 ****         5.2076  -2.5258  -0.9576 LP             1 S1                 0.0000
@<TRIPOS>BOND
    1    1    2 1     
    2    1   33 1     
    3    1   34 1     
    4    1   35 1     
    5    2    3 1     
    6    2   22 1     
    7    2   36 1     
    8    3    4 1     
    9    3   37 1     
   10    4    9 ar    
   11    4    5 ar    
   12    5    6 ar    
   13    6    7 ar    
   14    6   38 1     
   15    7    8 ar    
   16    8   12 1     
   17    8    9 ar    
   18    9   10 1     
   19   10   11 2     
   20   11   12 1     
   21   11   39 1     
   22   12   13 1     
   23   13   29 1     
   24   13   20 1     
   25   13   14 1     
   26   14   15 1     
   27   15   30 1     
   28   15   16 1     
   29   15   18 1     
   30   16   17 1     
   31   16   40 1     
   32   16   41 1     
   33   17   42 1     
   34   18   31 1     
   35   18   19 1     
   36   18   20 1     
   37   19   43 1     
   38   20   32 1     
   39   20   21 1     
   40   21   44 1     
   41   22   27 ar    
   42   22   23 ar    
   43   23   24 ar    
   44   23   45 1     
   45   24   25 ar    
   46   24   46 1     
   47   25   26 ar    
   48   25   47 1     
   49   26   27 ar    
   50   26   48 1     
   51   27   28 1     
   52    5   49 1     
   53    7   50 1     
   54   10   51 1     
   55   14   52 1     
   56   14   53 1     
   57   17   54 1     
   58   17   55 1     
   59   19   56 1     
   60   19   57 1     
   61   21   58 1     
   62   21   59 1     
@<TRIPOS>SUBSTRUCTURE
      1 S1             1
@<TRIPOS>SET
LONE_PAIRS      STATIC     ATOMS    <user>   **** ""
11 49 50 51 52 53 54 55 56 57 58 59
DONOR_HYDROGENS      STATIC     ATOMS    <user>   **** ""
4 37 42 43 44
ATOM$BLUE        STATIC     ATOMS    COLORGROUP SYSTEM
11 49 50 51 52 53 54 55 56 57 58 59
ATOM$RED        STATIC     ATOMS    COLORGROUP SYSTEM
4 37 42 43 44
