AV-unprocessed.smi:2451|AV-procd|sdf|9676|dock3
  -GOLD-   2272013313D 1   1.00000     0.00000
 Structure written by MMmdl.
 38 39  0  0  0  0  0  0  0  0  1 V2000
  149.0444  141.4556  155.2207 C   0  0  0  0  0  0  0  0  0  0  0  0
  149.9029  140.1885  155.3812 C   0  0  1  0  0  0  0  0  0  0  0  0
  149.9391  139.4103  154.0505 C   0  0  0  0  0  0  0  0  0  0  0  0
  150.7626  138.1211  154.1601 C   0  0  0  0  0  0  0  0  0  0  0  0
  152.1926  138.4137  154.6350 C   0  0  0  0  0  0  0  0  0  0  0  0
  152.2116  139.2097  155.9554 C   0  0  2  0  0  0  0  0  0  0  0  0
  151.7988  138.3622  157.0837 N   0  0  0  0  0  0  0  0  0  0  0  0
  152.9910  137.5194  158.0058 S   0  0  0  0  0  0  0  0  0  0  0  0
  152.8725  136.0895  157.6824 O   0  0  0  0  0  0  0  0  0  0  0  0
  154.2775  138.2112  157.8306 O   0  0  0  0  0  0  0  0  0  0  0  0
  152.4149  137.7922  159.7338 C   0  0  0  0  0  0  0  0  0  0  0  0
  153.3803  137.1551  160.6917 C   0  0  0  0  0  0  0  0  0  0  0  0
  153.9540  137.7106  161.8691 C   0  0  0  0  0  0  0  0  0  0  0  0
  154.7484  136.7057  162.3410 C   0  0  0  0  0  0  0  0  0  0  0  0
  154.6712  135.6192  161.5317 O   0  0  0  0  0  0  0  0  0  0  0  0
  153.7933  135.9150  160.4828 N   0  0  0  0  0  0  0  0  0  0  0  0
  151.3431  140.4918  155.8780 C   0  0  2  0  0  0  0  0  0  0  0  0
  151.3914  141.2870  157.1984 C   0  0  0  0  0  0  0  0  0  0  0  0
  149.5132  142.1700  154.5435 H   0  0  0  0  0  0  0  0  0  0  0  0
  148.8784  141.9551  156.1748 H   0  0  0  0  0  0  0  0  0  0  0  0
  148.0612  141.2130  154.8166 H   0  0  0  0  0  0  0  0  0  0  0  0
  149.4118  139.5565  156.1227 H   0  0  0  0  0  0  0  0  0  0  0  0
  148.9247  139.1625  153.7355 H   0  0  0  0  0  0  0  0  0  0  0  0
  150.3581  140.0414  153.2653 H   0  0  0  0  0  0  0  0  0  0  0  0
  150.2772  137.4322  154.8526 H   0  0  0  0  0  0  0  0  0  0  0  0
  150.7904  137.6158  153.1943 H   0  0  0  0  0  0  0  0  0  0  0  0
  152.7571  137.4858  154.7280 H   0  0  0  0  0  0  0  0  0  0  0  0
  152.7044  138.9950  153.8670 H   0  0  0  0  0  0  0  0  0  0  0  0
  153.2400  139.5216  156.1411 H   0  0  0  0  0  0  0  0  0  0  0  0
  151.0399  137.7379  156.8115 H   0  0  0  0  0  0  0  0  0  0  0  0
  152.3430  138.8657  159.9067 H   0  0  0  0  0  0  0  0  0  0  0  0
  151.4142  137.3708  159.8338 H   0  0  0  0  0  0  0  0  0  0  0  0
  153.8096  138.6921  162.2956 H   0  0  0  0  0  0  0  0  0  0  0  0
  155.3978  136.6136  163.1990 H   0  0  0  0  0  0  0  0  0  0  0  0
  151.8081  141.1289  155.1240 H   0  0  0  0  0  0  0  0  0  0  0  0
  150.8344  140.7857  157.9903 H   0  0  0  0  0  0  0  0  0  0  0  0
  150.9746  142.2870  157.0813 H   0  0  0  0  0  0  0  0  0  0  0  0
  152.4185  141.4112  157.5428 H   0  0  0  0  0  0  0  0  0  0  0  0
  1  2  1  0  0  0  0
  1 19  1  0  0  0  0
  1 20  1  0  0  0  0
  1 21  1  0  0  0  0
  2 17  1  0  0  0  0
  2  3  1  0  0  0  0
  2 22  1  0  0  0  0
  3  4  1  0  0  0  0
  3 23  1  0  0  0  0
  3 24  1  0  0  0  0
  4  5  1  0  0  0  0
  4 25  1  0  0  0  0
  4 26  1  0  0  0  0
  5  6  1  0  0  0  0
  5 27  1  0  0  0  0
  5 28  1  0  0  0  0
  6  7  1  0  0  0  0
  6 17  1  0  0  0  0
  6 29  1  0  0  0  0
  7  8  1  0  0  0  0
  7 30  1  0  0  0  0
  8  9  2  0  0  0  0
  8 10  2  0  0  0  0
  8 11  1  0  0  0  0
 11 12  1  0  0  0  0
 11 31  1  0  0  0  0
 11 32  1  0  0  0  0
 12 16  2  0  0  0  0
 12 13  1  0  0  0  0
 13 14  2  0  0  0  0
 13 33  1  0  0  0  0
 14 15  1  0  0  0  0
 14 34  1  0  0  0  0
 15 16  1  0  0  0  0
 17 18  1  0  0  0  0
 17 35  1  0  0  0  0
 18 36  1  0  0  0  0
 18 37  1  0  0  0  0
 18 38  1  0  0  0  0
M  END
> <s_m_source_file>
AV-unprocessed.smi

> <i_m_source_file_index>
2451

> <i_lp_mmshare_version>
43012

> <i_f3d_flags>
0

> <s_epik_input>
W0NIM11bQ0BASF0xW0NIMl1bQ0gyXVtDSDJdW0NASF0oW0NASF0xW0NIM10pW05IXVMoPU8pKD1PKVtDSDJdYzJbY0hdW2NIXW9uMg==

> <s_epik_cmdline>
J2VwaWtfcHl0aG9uJywgJy1waCcsICc3LjAnLCAnLXRuJywgJzgnLCAnLW1hJywgJzIwMCcsICctbWV0YWxfYmluZGluZycsICctaW1hZScsICc8aW5maWxlLm1hZT4nLCAnLW9tYWUnLCAnPG91dGZpbGUubWFlPic=

> <r_lp_tautomer_probability>
1

> <r_epik_Ionization_Penalty>
8.73668e-05

> <r_epik_Ionization_Penalty_Charging>
0

> <r_epik_Ionization_Penalty_Neutral>
8.73668e-05

> <r_epik_State_Penalty>
-0

> <r_epik_Charging_Adjusted_Penalty>
0

> <i_epik_Tot_Q>
0

> <i_epik_Tot_abs_Q>
0

> <r_epik_Metal_State_Penalty>
0.0716439

> <b_epik_Metal_Only>
0

> <s_lp_Force_Field>
OPLS_2005

> <r_lp_Energy>
8.50206

> <b_lp_Chiralities_Consistent>
1

> <s_lp_Variant>
AV-unprocessed.smi:2451-8

> <Gold.Version>
5.8.1

> <Gold.Id.Protein>
6NUR|6NUR_protein|mol2

> <Gold.PLP.Fitness>
36.2005

> <Gold.PLP.PLP>
-32.2786

> <Gold.PLP.part.hbond>
-2.3812

> <Gold.PLP.part.metal>
0.0000

> <Gold.PLP.part.buried>
-2.2691

> <Gold.PLP.part.nonpolar>
-27.5703

> <Gold.PLP.part.repulsive>
0.0000

> <Gold.PLP.ligand.clash>
0.0000

> <Gold.PLP.ligand.torsion>
0.9819

> <Gold.PLP.Chemscore.Hbond>
1.9120

> <Gold.PLP.Chemscore.CHOScore>
0.0000

> <Gold.PLP.Chemscore.Metal>
0.0000

> <Gold.Chemscore.Hbonds>
donor molecule, donor type, donor heavy atom, donor atom, acceptor molecule, acceptor atom, score
      P1  H  6896  6908       L1    16  1.00
      P1  H  7997  8008       L1    10  0.88

> <Gold.PLP.Chemscore.Internal.Correction>
0.1496

> <Gold.Rescore>
     Score         DG    S(hbond)    S(metal)    S(lipo)     H(rot)  DE(clash)    DE(int)     intcor
     15.98     -17.10       1.79        0.00      84.44       1.66       0.18       0.95       ----

> <Gold.Chemscore.Fitness>
15.9787

> <Gold.Chemscore.DG>
-17.1046

> <Gold.Chemscore.ZeroCoef>
-5.4800

> <Gold.Chemscore.Hbond>
1.7940

> <Gold.Chemscore.Metal>
0.0000

> <Gold.Chemscore.Lipo>
84.4377

> <Gold.Chemscore.Internal_Hbond>
0.0000

> <Gold.Chemscore.DEClash>
0.1769

> <Gold.Chemscore.DEInternal>
0.9489

> <Gold.Chemscore.Rot>
1.6588

> <Gold.Chemscore.Internal.Correction>
   9.000000E+99

> <Gold.Chemscore.Hbonds>
donor molecule, donor type, donor heavy atom, donor atom, acceptor molecule, acceptor atom, score
      P1  H  6896  6908       L1    16  0.43
      P1  H  7997  8008       L1    10  0.85

> <Gold.Chemscore.Hbond.Weighted>
-5.9919

> <Gold.Chemscore.Metal.Weighted>
-0.0000

> <Gold.Chemscore.Lipo.Weighted>
-9.8792

> <Gold.Chemscore.Internal_Hbond.Weighted>
0.0000

> <Gold.Chemscore.DEClash.Weighted>
0.1769

> <Gold.Chemscore.DEInternal.Weighted>
0.9489

> <Gold.Chemscore.Rot.Weighted>
4.2466

> <Gold.Chemscore.Internal.Correction.Weighted>
   9.000000E+99

> <Gold.Protein.RotatedTorsions>
[ 6907 6896 6895 6894 ] final  -85.28 input  -60.11 | X-H torsion
[ 7974 7965 7964 7962 ] final   -9.55 input  175.53 | X-H torsion
[ 8008 7997 7996 7995 ] final  -99.25 input   59.86 | X-H torsion
[ 10167 10162 10161 10158 ] final   21.75 input  -65.29 | X-H torsion
[ 10718 10713 10712 10709 ] final  115.78 input   66.30 | X-H torsion
[ 10763 10752 10751 10750 ] final  -26.02 input  -60.55 | X-H torsion
[ 11005 11000 10999 10996 ] final -166.65 input  -57.11 | X-H torsion

> <Gold.Protein.ActiveResidues>
 VAL166  LYS551  ARG553  GLY616  TRP617  ASP618  TYR619  PRO620  LYS621  CYS622 
 ASP623  PHE694  ASN695  SER759  ASP760  ASP761  ALA762  ILE779  LEU786  VAL792 
 PHE793  MET794  SER795  GLU796  ALA797  LYS798  CYS799  TRP800  GLU811  SER814 

> <Gold.Protein.RotatedAtoms>
  150.6871  134.3229  159.4793 H   0  0  0  0  0  0  0  0  0  0  0  0  # atno 6907 bound_to 6896
  152.1102  134.9277  160.0576 H   0  0  0  0  0  0  0  0  0  0  0  0  # atno 6908 bound_to 6896
  152.0522  133.3989  159.4419 H   0  0  0  0  0  0  0  0  0  0  0  0  # atno 6909 bound_to 6896
  146.2248  140.2633  142.8353 H   0  0  0  0  0  0  0  0  0  0  0  0  # atno 7974 bound_to 7965
  154.8123  140.0449  157.1351 H   0  0  0  0  0  0  0  0  0  0  0  0  # atno 8008 bound_to 7997
  154.9355  140.3045  155.5126 H   0  0  0  0  0  0  0  0  0  0  0  0  # atno 8009 bound_to 7997
  156.2973  140.2315  156.4419 H   0  0  0  0  0  0  0  0  0  0  0  0  # atno 8010 bound_to 7997
  140.5403  143.9689  150.6515 H   0  0  0  0  0  0  0  0  0  0  0  0  # atno 10167 bound_to 10162
  157.6201  131.1017  150.7379 H   0  0  0  0  0  0  0  0  0  0  0  0  # atno 10718 bound_to 10713
  153.7093  135.6951  153.5042 H   0  0  0  0  0  0  0  0  0  0  0  0  # atno 10763 bound_to 10752
  153.2285  135.4346  155.0567 H   0  0  0  0  0  0  0  0  0  0  0  0  # atno 10764 bound_to 10752
  154.8320  135.3478  154.6630 H   0  0  0  0  0  0  0  0  0  0  0  0  # atno 10765 bound_to 10752
  140.5621  134.5323  157.5145 H   0  0  0  0  0  0  0  0  0  0  0  0  # atno 11005 bound_to 11000
  144.9323  140.7988  143.5682 LP  0  0  0  0  0  0  0  0  0  0  0  0  # atno 17320 bound_to 7965
  145.2578  139.2005  143.4908 LP  0  0  0  0  0  0  0  0  0  0  0  0  # atno 17321 bound_to 7965
  140.3088  143.3212  152.0899 LP  0  0  0  0  0  0  0  0  0  0  0  0  # atno 17342 bound_to 10162
  139.4986  144.6650  151.6378 LP  0  0  0  0  0  0  0  0  0  0  0  0  # atno 17343 bound_to 10162
  156.7738  130.4837  149.5413 LP  0  0  0  0  0  0  0  0  0  0  0  0  # atno 17370 bound_to 10713
  156.1342  130.6199  151.0376 LP  0  0  0  0  0  0  0  0  0  0  0  0  # atno 17371 bound_to 10713
  139.9403  134.7800  156.0696 LP  0  0  0  0  0  0  0  0  0  0  0  0  # atno 17394 bound_to 11000
  141.1108  133.6644  156.2975 LP  0  0  0  0  0  0  0  0  0  0  0  0  # atno 17395 bound_to 11000

$$$$
