AV-unprocessed.smi:2784|AV-procd|sdf|10740|dock2
  -GOLD-   2272015173D 1   1.00000     0.00000
 Structure written by MMmdl.
 31 32  0  0  0  0  0  0  0  0  1 V2000
  152.2347  139.7799  159.3450 C   0  0  0  0  0  0  0  0  0  0  0  0
  151.7161  141.0989  159.3903 O   0  0  0  0  0  0  0  0  0  0  0  0
  152.5707  142.0729  158.7968 C   0  0  2  0  0  0  0  0  0  0  0  0
  153.4044  142.6727  159.9303 C   0  0  0  0  0  0  0  0  0  0  0  0
  152.4958  143.7329  160.5457 C   0  0  0  0  0  0  0  0  0  0  0  0
  151.7419  144.3334  159.3566 C   0  0  0  0  0  0  0  0  0  0  0  0
  151.7598  143.2679  158.2423 C   0  0  2  0  0  0  0  0  0  0  0  0
  150.4013  142.9030  157.8439 N   0  0  0  0  0  0  0  0  0  0  0  0
  150.0712  141.8748  157.0484 C   0  0  0  0  0  0  0  0  0  0  0  0
  150.9314  141.1317  156.5653 O   0  0  0  0  0  0  0  0  0  0  0  0
  148.6931  141.8138  156.9011 N   0  0  0  0  0  0  0  0  0  0  0  0
  148.1814  141.2213  155.8668 C   0  0  0  0  0  0  0  0  0  0  0  0
  146.8390  141.0612  155.5632 N   0  0  0  0  0  0  0  0  0  0  0  0
  146.7479  140.3811  154.3803 C   0  0  0  0  0  0  0  0  0  0  0  0
  147.9813  140.1227  153.9557 C   0  0  0  0  0  0  0  0  0  0  0  0
  148.8833  140.6242  154.8449 O   0  0  0  0  0  0  0  0  0  0  0  0
  151.5132  139.0882  159.7794 H   0  0  0  0  0  0  0  0  0  0  0  0
  153.1602  139.7048  159.9173 H   0  0  0  0  0  0  0  0  0  0  0  0
  152.4315  139.4628  158.3205 H   0  0  0  0  0  0  0  0  0  0  0  0
  153.2166  141.6356  158.0325 H   0  0  0  0  0  0  0  0  0  0  0  0
  153.7363  141.9275  160.6540 H   0  0  0  0  0  0  0  0  0  0  0  0
  154.2934  143.1513  159.5171 H   0  0  0  0  0  0  0  0  0  0  0  0
  151.7886  143.2563  161.2259 H   0  0  0  0  0  0  0  0  0  0  0  0
  153.0488  144.4818  161.1132 H   0  0  0  0  0  0  0  0  0  0  0  0
  150.7335  144.6347  159.6441 H   0  0  0  0  0  0  0  0  0  0  0  0
  152.2545  145.2311  159.0088 H   0  0  0  0  0  0  0  0  0  0  0  0
  152.2934  143.6926  157.3899 H   0  0  0  0  0  0  0  0  0  0  0  0
  149.6526  143.4689  158.2163 H   0  0  0  0  0  0  0  0  0  0  0  0
  146.0370  141.3720  156.0922 H   0  0  0  0  0  0  0  0  0  0  0  0
  145.7819  140.1481  153.9569 H   0  0  0  0  0  0  0  0  0  0  0  0
  148.3662  139.6164  153.0830 H   0  0  0  0  0  0  0  0  0  0  0  0
  1  2  1  0  0  0  0
  1 17  1  0  0  0  0
  1 18  1  0  0  0  0
  1 19  1  0  0  0  0
  2  3  1  0  0  0  0
  3  7  1  0  0  0  0
  3  4  1  0  0  0  0
  3 20  1  0  0  0  0
  4  5  1  0  0  0  0
  4 21  1  0  0  0  0
  4 22  1  0  0  0  0
  5  6  1  0  0  0  0
  5 23  1  0  0  0  0
  5 24  1  0  0  0  0
  6  7  1  0  0  0  0
  6 25  1  0  0  0  0
  6 26  1  0  0  0  0
  7  8  1  0  0  0  0
  7 27  1  0  0  0  0
  8 28  1  0  0  0  0
  8  9  1  0  0  0  0
  9 11  1  0  0  0  0
  9 10  2  0  0  0  0
 11 12  2  0  0  0  0
 12 16  1  0  0  0  0
 12 13  1  0  0  0  0
 13 29  1  0  0  0  0
 13 14  1  0  0  0  0
 14 30  1  0  0  0  0
 14 15  2  0  0  0  0
 15 31  1  0  0  0  0
 15 16  1  0  0  0  0
M  END
> <s_m_source_file>
AV-unprocessed.smi

> <i_m_source_file_index>
2784

> <i_lp_mmshare_version>
43012

> <i_f3d_flags>
0

> <s_epik_input>
W0NIM11PW0NAQEhdMVtDSDJdW0NIMl1bQ0gyXVtDQEhdMVtOSF1DKD1PKVtOSF1jMm5bY0hdW2NIXW8y

> <s_epik_cmdline>
J2VwaWtfcHl0aG9uJywgJy1waCcsICc3LjAnLCAnLXRuJywgJzgnLCAnLW1hJywgJzIwMCcsICctbWV0YWxfYmluZGluZycsICctaW1hZScsICc8aW5maWxlLm1hZT4nLCAnLW9tYWUnLCAnPG91dGZpbGUubWFlPic=

> <r_lp_tautomer_probability>
0.107061

> <r_epik_Ionization_Penalty>
1.29244

> <r_epik_Ionization_Penalty_Charging>
1.29208

> <r_epik_Ionization_Penalty_Neutral>
0.000359742

> <r_epik_State_Penalty>
2.59896

> <r_epik_Charging_Adjusted_Penalty>
3.89105

> <i_epik_Tot_Q>
0

> <i_epik_Tot_abs_Q>
0

> <r_epik_Metal_State_Penalty>
3.62496

> <b_epik_Metal_Only>
0

> <s_lp_Force_Field>
OPLS_2005

> <r_lp_Energy>
45.4205

> <b_lp_Chiralities_Consistent>
1

> <s_lp_Variant>
AV-unprocessed.smi:2784-15

> <Gold.Version>
5.8.1

> <Gold.Id.Protein>
6NUR|6NUR_protein|mol2

> <Gold.PLP.Fitness>
31.5736

> <Gold.PLP.PLP>
-26.7869

> <Gold.PLP.part.hbond>
-0.6403

> <Gold.PLP.part.metal>
0.0000

> <Gold.PLP.part.buried>
-4.1320

> <Gold.PLP.part.nonpolar>
-23.2513

> <Gold.PLP.part.repulsive>
1.3418

> <Gold.PLP.ligand.clash>
0.0000

> <Gold.PLP.ligand.torsion>
0.6134

> <Gold.PLP.Chemscore.Hbond>
0.0000

> <Gold.PLP.Chemscore.CHOScore>
2.0000

> <Gold.PLP.Chemscore.Metal>
0.0000

> <Gold.Chemscore.Hbonds>
donor molecule, donor type, donor heavy atom, donor atom, acceptor molecule, acceptor atom, score
      L1  C    14    30       P1 10175  0.85
      L1  C    15    31       P1  7957  1.00

> <Gold.PLP.Chemscore.Internal.Correction>
0.0134

> <Gold.Rescore>
     Score         DG    S(hbond)    S(metal)    S(lipo)     H(rot)  DE(clash)    DE(int)     intcor
      7.32     -13.19       0.65        0.00      76.30       1.32       0.37       5.50       ----

> <Gold.Chemscore.Fitness>
7.3219

> <Gold.Chemscore.DG>
-13.1919

> <Gold.Chemscore.ZeroCoef>
-5.4800

> <Gold.Chemscore.Hbond>
0.6506

> <Gold.Chemscore.Metal>
0.0000

> <Gold.Chemscore.Lipo>
76.3000

> <Gold.Chemscore.Internal_Hbond>
0.0000

> <Gold.Chemscore.DEClash>
0.3697

> <Gold.Chemscore.DEInternal>
5.5003

> <Gold.Chemscore.Rot>
1.3235

> <Gold.Chemscore.Internal.Correction>
   9.000000E+99

> <Gold.Chemscore.Hbond.Weighted>
-2.1730

> <Gold.Chemscore.Metal.Weighted>
-0.0000

> <Gold.Chemscore.Lipo.Weighted>
-8.9271

> <Gold.Chemscore.Internal_Hbond.Weighted>
0.0000

> <Gold.Chemscore.DEClash.Weighted>
0.3697

> <Gold.Chemscore.DEInternal.Weighted>
5.5003

> <Gold.Chemscore.Rot.Weighted>
3.3882

> <Gold.Chemscore.Internal.Correction.Weighted>
   9.000000E+99

> <Gold.Protein.RotatedTorsions>
[ 6907 6896 6895 6894 ] final -134.57 input  -60.11 | X-H torsion
[ 7974 7965 7964 7962 ] final -162.32 input  175.53 | X-H torsion
[ 8008 7997 7996 7995 ] final -166.42 input   59.86 | X-H torsion
[ 10167 10162 10161 10158 ] final -150.40 input  -65.29 | X-H torsion
[ 10718 10713 10712 10709 ] final  -83.76 input   66.30 | X-H torsion
[ 10763 10752 10751 10750 ] final -141.20 input  -60.55 | X-H torsion
[ 11005 11000 10999 10996 ] final  -25.67 input  -57.11 | X-H torsion

> <Gold.Protein.ActiveResidues>
 VAL166  LYS551  ARG553  GLY616  TRP617  ASP618  TYR619  PRO620  LYS621  CYS622 
 ASP623  PHE694  ASN695  SER759  ASP760  ASP761  ALA762  ILE779  LEU786  VAL792 
 PHE793  MET794  SER795  GLU796  ALA797  LYS798  CYS799  TRP800  GLU811  SER814 

> <Gold.Protein.RotatedAtoms>
  150.9874  133.6184  159.2713 H   0  0  0  0  0  0  0  0  0  0  0  0  # atno 6907 bound_to 6896
  151.3417  135.0864  159.9383 H   0  0  0  0  0  0  0  0  0  0  0  0  # atno 6908 bound_to 6896
  152.5235  133.9484  159.7714 H   0  0  0  0  0  0  0  0  0  0  0  0  # atno 6909 bound_to 6896
  144.7361  140.3269  143.6160 H   0  0  0  0  0  0  0  0  0  0  0  0  # atno 7974 bound_to 7965
  155.8636  140.0982  157.1597 H   0  0  0  0  0  0  0  0  0  0  0  0  # atno 8008 bound_to 7997
  154.3992  140.1360  156.4054 H   0  0  0  0  0  0  0  0  0  0  0  0  # atno 8009 bound_to 7997
  155.7829  140.3458  155.5309 H   0  0  0  0  0  0  0  0  0  0  0  0  # atno 8010 bound_to 7997
  139.7358  143.8738  152.2548 H   0  0  0  0  0  0  0  0  0  0  0  0  # atno 10167 bound_to 10162
  156.0014  130.4676  150.4306 H   0  0  0  0  0  0  0  0  0  0  0  0  # atno 10718 bound_to 10713
  154.8553  135.3531  154.5829 H   0  0  0  0  0  0  0  0  0  0  0  0  # atno 10763 bound_to 10752
  153.6440  135.6997  153.5236 H   0  0  0  0  0  0  0  0  0  0  0  0  # atno 10764 bound_to 10752
  153.2948  135.4224  155.1158 H   0  0  0  0  0  0  0  0  0  0  0  0  # atno 10765 bound_to 10752
  140.8959  133.7556  156.0481 H   0  0  0  0  0  0  0  0  0  0  0  0  # atno 11005 bound_to 11000
  145.7511  139.1794  143.2321 LP  0  0  0  0  0  0  0  0  0  0  0  0  # atno 17320 bound_to 7965
  146.1060  140.7487  142.9526 LP  0  0  0  0  0  0  0  0  0  0  0  0  # atno 17321 bound_to 7965
  139.8674  144.7086  150.9027 LP  0  0  0  0  0  0  0  0  0  0  0  0  # atno 17342 bound_to 10162
  140.7778  143.3766  151.1552 LP  0  0  0  0  0  0  0  0  0  0  0  0  # atno 17343 bound_to 10162
  157.2355  131.0513  151.2467 LP  0  0  0  0  0  0  0  0  0  0  0  0  # atno 17370 bound_to 10713
  157.3670  130.7161  149.6540 LP  0  0  0  0  0  0  0  0  0  0  0  0  # atno 17371 bound_to 10713
  140.8289  134.3201  157.5356 LP  0  0  0  0  0  0  0  0  0  0  0  0  # atno 17394 bound_to 11000
  139.8735  134.9352  156.3627 LP  0  0  0  0  0  0  0  0  0  0  0  0  # atno 17395 bound_to 11000

$$$$
