AV-unprocessed.smi:918|AV-procd|sdf|4163|dock7
  -GOLD-   22720 2 73D 1   1.00000     0.00000
 Structure written by MMmdl.
 31 32  0  0  0  0  0  0  0  0  2 V2000
  153.0677  138.9911  155.5754 O   0  0  0  0  0  0  0  0  0  0  0  0
  152.0240  138.6972  154.9503 C   0  0  0  0  0  0  0  0  0  0  0  0
  151.8476  137.6107  154.3612 O   0  5  0  0  0  0  0  0  0  0  0  0
  150.8793  139.8292  154.9427 C   0  0  0  0  0  0  0  0  0  0  0  0
  150.0954  139.9065  153.8446 C   0  0  0  0  0  0  0  0  0  0  0  0
  149.0526  140.8851  153.7553 C   0  0  0  0  0  0  0  0  0  0  0  0
  148.8479  141.7346  154.7674 C   0  0  0  0  0  0  0  0  0  0  0  0
  149.6618  141.7009  155.9806 C   0  0  0  0  0  0  0  0  0  0  0  0
  149.4148  142.5135  156.8693 O   0  0  0  0  0  0  0  0  0  0  0  0
  150.6636  140.7471  156.0450 N   0  0  0  0  0  0  0  0  0  0  0  0
  151.5487  140.6338  157.2443 C   0  0  0  0  0  0  0  0  0  0  0  0
  152.3925  141.8218  157.7552 C   0  0  0  0  0  0  0  0  0  0  0  0
  153.1128  141.3934  158.9029 O   0  0  0  0  0  0  0  0  0  0  0  0
  153.1030  142.1986  160.0232 C   0  0  0  0  0  0  0  0  0  0  0  0
  152.5651  143.5112  160.0478 C   0  0  0  0  0  0  0  0  0  0  0  0
  152.5915  144.2734  161.2316 C   0  0  0  0  0  0  0  0  0  0  0  0
  153.1536  143.7377  162.4045 C   0  0  0  0  0  0  0  0  0  0  0  0
  153.6898  142.4373  162.3917 C   0  0  0  0  0  0  0  0  0  0  0  0
  153.6646  141.6726  161.2086 C   0  0  0  0  0  0  0  0  0  0  0  0
  154.3305  140.0788  161.2231 Cl  0  0  0  0  0  0  0  0  0  0  0  0
  150.2289  139.2387  153.0061 H   0  0  0  0  0  0  0  0  0  0  0  0
  148.4338  140.9356  152.8717 H   0  0  0  0  0  0  0  0  0  0  0  0
  148.0580  142.4670  154.6859 H   0  0  0  0  0  0  0  0  0  0  0  0
  150.9230  140.3417  158.0881 H   0  0  0  0  0  0  0  0  0  0  0  0
  152.2648  139.8350  157.0501 H   0  0  0  0  0  0  0  0  0  0  0  0
  153.1018  142.1423  156.9903 H   0  0  0  0  0  0  0  0  0  0  0  0
  151.7466  142.6565  158.0328 H   0  0  0  0  0  0  0  0  0  0  0  0
  152.1252  143.9580  159.1693 H   0  0  0  0  0  0  0  0  0  0  0  0
  152.1791  145.2715  161.2384 H   0  0  0  0  0  0  0  0  0  0  0  0
  153.1734  144.3231  163.3121 H   0  0  0  0  0  0  0  0  0  0  0  0
  154.1214  142.0257  163.2922 H   0  0  0  0  0  0  0  0  0  0  0  0
  1  2  2  0  0  0  0
  2  3  1  0  0  0  0
  2  4  1  0  0  0  0
  4 10  1  0  0  0  0
  4  5  2  0  0  0  0
  5  6  1  0  0  0  0
  5 21  1  0  0  0  0
  6  7  2  0  0  0  0
  6 22  1  0  0  0  0
  7  8  1  0  0  0  0
  7 23  1  0  0  0  0
  8  9  2  0  0  0  0
  8 10  1  0  0  0  0
 10 11  1  0  0  0  0
 11 12  1  0  0  0  0
 11 24  1  0  0  0  0
 11 25  1  0  0  0  0
 12 13  1  0  0  0  0
 12 26  1  0  0  0  0
 12 27  1  0  0  0  0
 13 14  1  0  0  0  0
 14 19  1  0  0  0  0
 14 15  2  0  0  0  0
 15 16  1  0  0  0  0
 15 28  1  0  0  0  0
 16 17  2  0  0  0  0
 16 29  1  0  0  0  0
 17 18  1  0  0  0  0
 17 30  1  0  0  0  0
 18 19  2  0  0  0  0
 18 31  1  0  0  0  0
 19 20  1  0  0  0  0
M  CHG  1   3  -1
M  END
> <s_m_source_file>
AV-unprocessed.smi

> <i_m_source_file_index>
918

> <i_lp_mmshare_version>
43012

> <i_f3d_flags>
0

> <s_epik_input>
Tz1DKFtPSF0pYzFbY0hdW2NIXVtjSF1jKD1PKW4xW0NIMl1bQ0gyXU9jMltjSF1bY0hdW2NIXVtjSF1jMkNs

> <s_epik_cmdline>
J2VwaWtfcHl0aG9uJywgJy1waCcsICc3LjAnLCAnLXRuJywgJzgnLCAnLW1hJywgJzIwMCcsICctbWV0YWxfYmluZGluZycsICctaW1hZScsICc8aW5maWxlLm1hZT4nLCAnLW9tYWUnLCAnPG91dGZpbGUubWFlPic=

> <r_lp_tautomer_probability>
1

> <r_epik_Ionization_Penalty>
4.91901e-05

> <r_epik_Ionization_Penalty_Charging>
4.91901e-05

> <r_epik_Ionization_Penalty_Neutral>
0

> <r_epik_State_Penalty>
-0

> <r_epik_Charging_Adjusted_Penalty>
4.91901e-05

> <i_epik_Tot_Q>
-1

> <i_epik_Tot_abs_Q>
1

> <r_epik_Metal_State_Penalty>
-0

> <b_epik_Metal_Only>
0

> <s_lp_Force_Field>
OPLS_2005

> <r_lp_Energy>
37.328

> <b_lp_Chiralities_Consistent>
1

> <s_lp_Variant>
AV-unprocessed.smi:918-1

> <Gold.Version>
5.8.1

> <Gold.Id.Protein>
6NUR|6NUR_protein|mol2

> <Gold.PLP.Fitness>
55.4813

> <Gold.PLP.PLP>
-45.5526

> <Gold.PLP.part.hbond>
-2.0000

> <Gold.PLP.part.metal>
0.0000

> <Gold.PLP.part.buried>
-3.6747

> <Gold.PLP.part.nonpolar>
-39.3242

> <Gold.PLP.part.repulsive>
0.2750

> <Gold.PLP.ligand.clash>
0.0000

> <Gold.PLP.ligand.torsion>
0.8410

> <Gold.PLP.Chemscore.Hbond>
3.8240

> <Gold.PLP.Chemscore.CHOScore>
0.0000

> <Gold.PLP.Chemscore.Metal>
0.0000

> <Gold.Chemscore.Hbonds>
donor molecule, donor type, donor heavy atom, donor atom, acceptor molecule, acceptor atom, score
      P1  H  7997  8009       L1     1  2.00
      P1  H 10752 10765       L1     3  0.93

> <Gold.PLP.Chemscore.Internal.Correction>
0.1387

> <Gold.Rescore>
     Score         DG    S(hbond)    S(metal)    S(lipo)     H(rot)  DE(clash)    DE(int)     intcor
     17.55     -21.38       1.86        0.00     118.67       1.64       1.55       2.28       ----

> <Gold.Chemscore.Fitness>
17.5549

> <Gold.Chemscore.DG>
-21.3789

> <Gold.Chemscore.ZeroCoef>
-5.4800

> <Gold.Chemscore.Hbond>
1.8605

> <Gold.Chemscore.Metal>
0.0000

> <Gold.Chemscore.Lipo>
118.6709

> <Gold.Chemscore.Internal_Hbond>
0.0000

> <Gold.Chemscore.DEClash>
1.5490

> <Gold.Chemscore.DEInternal>
2.2750

> <Gold.Chemscore.Rot>
1.6405

> <Gold.Chemscore.Internal.Correction>
   9.000000E+99

> <Gold.Chemscore.Hbonds>
donor molecule, donor type, donor heavy atom, donor atom, acceptor molecule, acceptor atom, score
      P1  H  7997  8009       L1     1  1.00
      P1  H 10752 10765       L1     3  0.45

> <Gold.Chemscore.Hbond.Weighted>
-6.2139

> <Gold.Chemscore.Metal.Weighted>
-0.0000

> <Gold.Chemscore.Lipo.Weighted>
-13.8845

> <Gold.Chemscore.Internal_Hbond.Weighted>
0.0000

> <Gold.Chemscore.DEClash.Weighted>
1.5490

> <Gold.Chemscore.DEInternal.Weighted>
2.2750

> <Gold.Chemscore.Rot.Weighted>
4.1996

> <Gold.Chemscore.Internal.Correction.Weighted>
   9.000000E+99

> <Gold.Protein.RotatedTorsions>
[ 6907 6896 6895 6894 ] final  130.99 input  -60.11 | X-H torsion
[ 7974 7965 7964 7962 ] final   34.73 input  175.53 | X-H torsion
[ 8008 7997 7996 7995 ] final -152.52 input   59.86 | X-H torsion
[ 10167 10162 10161 10158 ] final  -86.97 input  -65.29 | X-H torsion
[ 10718 10713 10712 10709 ] final -106.28 input   66.30 | X-H torsion
[ 10763 10752 10751 10750 ] final  156.30 input  -60.55 | X-H torsion
[ 11005 11000 10999 10996 ] final -173.19 input  -57.11 | X-H torsion

> <Gold.Protein.ActiveResidues>
 VAL166  LYS551  ARG553  GLY616  TRP617  ASP618  TYR619  PRO620  LYS621  CYS622 
 ASP623  PHE694  ASN695  SER759  ASP760  ASP761  ALA762  ILE779  LEU786  VAL792 
 PHE793  MET794  SER795  GLU796  ALA797  LYS798  CYS799  TRP800  GLU811  SER814 

> <Gold.Protein.RotatedAtoms>
  152.3471  133.6136  159.5917 H   0  0  0  0  0  0  0  0  0  0  0  0  # atno 6907 bound_to 6896
  150.7514  133.9631  159.3531 H   0  0  0  0  0  0  0  0  0  0  0  0  # atno 6908 bound_to 6896
  151.7488  135.0838  160.0378 H   0  0  0  0  0  0  0  0  0  0  0  0  # atno 6909 bound_to 6896
  146.1332  139.6232  142.9212 H   0  0  0  0  0  0  0  0  0  0  0  0  # atno 7974 bound_to 7965
  155.6565  140.0718  157.2569 H   0  0  0  0  0  0  0  0  0  0  0  0  # atno 8008 bound_to 7997
  154.4151  140.1724  156.1781 H   0  0  0  0  0  0  0  0  0  0  0  0  # atno 8009 bound_to 7997
  155.9733  140.3360  155.6599 H   0  0  0  0  0  0  0  0  0  0  0  0  # atno 8010 bound_to 7997
  140.3890  143.2713  151.9288 H   0  0  0  0  0  0  0  0  0  0  0  0  # atno 10167 bound_to 10162
  156.0383  130.5605  150.7658 H   0  0  0  0  0  0  0  0  0  0  0  0  # atno 10718 bound_to 10713
  154.1822  135.2799  155.3048 H   0  0  0  0  0  0  0  0  0  0  0  0  # atno 10763 bound_to 10752
  154.5994  135.5534  153.7362 H   0  0  0  0  0  0  0  0  0  0  0  0  # atno 10764 bound_to 10752
  153.0135  135.6388  154.1961 H   0  0  0  0  0  0  0  0  0  0  0  0  # atno 10765 bound_to 10752
  140.4886  134.6007  157.4946 H   0  0  0  0  0  0  0  0  0  0  0  0  # atno 11005 bound_to 11000
  145.5213  141.0431  143.2433 LP  0  0  0  0  0  0  0  0  0  0  0  0  # atno 17320 bound_to 7965
  144.7712  139.6730  143.7194 LP  0  0  0  0  0  0  0  0  0  0  0  0  # atno 17321 bound_to 7965
  139.4790  144.5745  151.8033 LP  0  0  0  0  0  0  0  0  0  0  0  0  # atno 17342 bound_to 10162
  140.4859  144.1381  150.5941 LP  0  0  0  0  0  0  0  0  0  0  0  0  # atno 17343 bound_to 10162
  157.5165  131.0929  151.0133 LP  0  0  0  0  0  0  0  0  0  0  0  0  # atno 17370 bound_to 10713
  157.0474  130.5773  149.5365 LP  0  0  0  0  0  0  0  0  0  0  0  0  # atno 17371 bound_to 10713
  139.9783  134.7179  155.9908 LP  0  0  0  0  0  0  0  0  0  0  0  0  # atno 17394 bound_to 11000
  141.1495  133.6550  156.3971 LP  0  0  0  0  0  0  0  0  0  0  0  0  # atno 17395 bound_to 11000

$$$$
