#       Name:                AV-unprocessed.smi:1561
#       Creating user name   scv26
#       Creation time:       Fri Mar 27 06:48:12 2020


#       File generated by GOLD software.
#

@<TRIPOS>MOLECULE
AV-unprocessed.smi:1561
    38    39     1
SMALL
NO_CHARGES


@<TRIPOS>ATOM
      1 ****        -2.2953  -1.2028  -2.8605 C.3            1 S1                 0.0000
      2 ****        -1.8996  -0.2934  -1.6790 C.3            1 S1                 0.0000
      3 ****        -0.3859  -0.0428  -1.6028 C.2            1 S1                 0.0000
      4 ****         0.4114  -0.8617  -2.0618 O.2            1 S1                 0.0000
      5 ****        -0.0054   1.0924  -0.9947 N.am           1 S1                 0.0000
      6 ****         1.3725   1.4847  -0.7199 C.3            1 S1                 0.0000
      7 ****         1.7763   1.1455   0.7274 C.3            1 S1                 0.0000
      8 ****         3.2004   1.5523   1.0838 C.3            1 S1                 0.0000
      9 ****         3.6809   0.4559   2.0413 C.3            1 S1                 0.0000
     10 ****         2.5611  -0.3950   2.2461 O.3            1 S1                 0.0000
     11 ****         1.7635  -0.3423   1.0764 C.3            1 S1                 0.0000
     12 ****        -2.3837  -0.8015  -0.3999 N.pl3          1 S1                 0.0000
     13 ****        -2.9684  -0.0895   0.6281 C.2            1 S1                 0.0000
     14 ****        -3.2140  -0.9644   1.6472 C.2            1 S1                 0.0000
     15 ****        -2.7257  -2.2049   1.1521 C.2            1 S1                 0.0000
     16 ****        -2.2223  -2.1036  -0.0668 N.2            1 S1                 0.0000
     17 ****        -1.9694  -0.7762  -3.8097 H              1 S1                 0.0000
     18 ****        -3.3778  -1.3227  -2.9118 H              1 S1                 0.0000
     19 ****        -1.8567  -2.1983  -2.7792 H              1 S1                 0.0000
     20 ****        -2.3813   0.6719  -1.8432 H              1 S1                 0.0000
     21 ****        -0.7282   1.7094  -0.6537 H              1 S1                 0.0000
     22 ****         2.0607   1.0230  -1.4302 H              1 S1                 0.0000
     23 ****         1.4500   2.5608  -0.8770 H              1 S1                 0.0000
     24 ****         1.0991   1.6550   1.4149 H              1 S1                 0.0000
     25 ****         3.8424   1.5824   0.2024 H              1 S1                 0.0000
     26 ****         3.2252   2.5394   1.5466 H              1 S1                 0.0000
     27 ****         4.4915  -0.1180   1.5900 H              1 S1                 0.0000
     28 ****         4.0371   0.8583   2.9899 H              1 S1                 0.0000
     29 ****         0.7593  -0.7256   1.2603 H              1 S1                 0.0000
     30 ****         2.2246  -0.9415   0.2893 H              1 S1                 0.0000
     31 ****        -3.1576   0.9710   0.5507 H              1 S1                 0.0000
     32 ****        -3.6673  -0.7496   2.6035 H              1 S1                 0.0000
     33 ****        -2.7173  -3.1682   1.6406 H              1 S1                 0.0000
     34 ****         0.0756  -1.7007  -2.4899 LP             1 S1                 0.0000
     35 ****         1.3946  -0.6876  -2.0064 LP             1 S1                 0.0000
     36 ****         2.0323  -0.0791   3.0339 LP             1 S1                 0.0000
     37 ****         2.8700  -1.3325   2.4062 LP             1 S1                 0.0000
     38 ****        -1.8128  -2.8289  -0.6202 LP             1 S1                 0.0000
@<TRIPOS>BOND
    1    1    2 1     
    2    1   17 1     
    3    1   18 1     
    4    1   19 1     
    5    2    3 1     
    6    2   12 1     
    7    2   20 1     
    8    3    4 2     
    9    3    5 am    
   10    5    6 1     
   11    5   21 1     
   12    6    7 1     
   13    6   22 1     
   14    6   23 1     
   15    7   11 1     
   16    7    8 1     
   17    7   24 1     
   18    8    9 1     
   19    8   25 1     
   20    8   26 1     
   21    9   10 1     
   22    9   27 1     
   23    9   28 1     
   24   10   11 1     
   25   11   29 1     
   26   11   30 1     
   27   12   16 1     
   28   12   13 1     
   29   13   14 2     
   30   13   31 1     
   31   14   15 1     
   32   14   32 1     
   33   15   16 2     
   34   15   33 1     
   35    4   34 1     
   36    4   35 1     
   37   10   36 1     
   38   10   37 1     
   39   16   38 1     
@<TRIPOS>SUBSTRUCTURE
      1 S1             1
@<TRIPOS>SET
LONE_PAIRS      STATIC     ATOMS    <user>   **** ""
5 34 35 36 37 38
DONOR_HYDROGENS      STATIC     ATOMS    <user>   **** ""
1 21
ATOM$BLUE        STATIC     ATOMS    COLORGROUP SYSTEM
5 34 35 36 37 38
ATOM$RED        STATIC     ATOMS    COLORGROUP SYSTEM
1 21
