#       Name:                AV-unprocessed.smi:2140
#       Creating user name   scv26
#       Creation time:       Fri Mar 27 11:48:03 2020


#       File generated by GOLD software.
#

@<TRIPOS>MOLECULE
AV-unprocessed.smi:2140
    45    46     1
SMALL
NO_CHARGES


@<TRIPOS>ATOM
      1 ****        -1.3817   1.7020   1.0139 C.3            1 S1                 0.0000
      2 ****        -0.8115   0.2810   1.2568 C.3            1 S1                 0.0000
      3 ****         0.7432   0.3600   1.2781 C.3            1 S1                 0.0000
      4 ****         1.3121   0.9683   0.0784 N.am           1 S1                 0.0000
      5 ****         1.4229   0.3634  -1.1125 C.2            1 S1                 0.0000
      6 ****         1.0571  -0.7929  -1.3228 O.2            1 S1                 0.0000
      7 ****         1.9565   1.1896  -2.0283 N.am           1 S1                 0.0000
      8 ****         2.2318   0.9298  -3.3978 C.ar           1 S1                 0.0000
      9 ****         2.4350  -0.3633  -3.9377 C.ar           1 S1                 0.0000
     10 ****         2.7205  -0.4890  -5.3110 C.ar           1 S1                 0.0000
     11 ****         2.7994   0.6806  -6.0916 C.ar           1 S1                 0.0000
     12 ****         2.6221   1.9200  -5.5875 N.ar           1 S1                 0.0000
     13 ****         2.3500   2.0327  -4.2700 C.ar           1 S1                 0.0000
     14 ****        -1.3791  -0.3661   2.4627 N.3            1 S1                 0.0000
     15 ****        -2.8452  -0.4271   2.4333 C.3            1 S1                 0.0000
     16 ****        -3.4385  -1.1184   3.6728 C.3            1 S1                 0.0000
     17 ****        -2.9037  -2.4293   3.7897 O.3            1 S1                 0.0000
     18 ****        -1.4872  -2.4184   3.8977 C.3            1 S1                 0.0000
     19 ****        -0.8755  -1.7300   2.6646 C.3            1 S1                 0.0000
     20 ****        -0.9246   2.1943   0.1564 H              1 S1                 0.0000
     21 ****        -1.2251   2.3435   1.8817 H              1 S1                 0.0000
     22 ****        -2.4481   1.6866   0.7936 H              1 S1                 0.0000
     23 ****        -1.0916  -0.3239   0.3929 H              1 S1                 0.0000
     24 ****         1.0722   0.9414   2.1399 H              1 S1                 0.0000
     25 ****         1.2026  -0.6225   1.3774 H              1 S1                 0.0000
     26 ****         1.6342   1.9213   0.1616 H              1 S1                 0.0000
     27 ****         2.1281   2.1370  -1.7248 H              1 S1                 0.0000
     28 ****         2.3928  -1.2531  -3.3290 H              1 S1                 0.0000
     29 ****         2.8799  -1.4605  -5.7551 H              1 S1                 0.0000
     30 ****         3.0165   0.6192  -7.1478 H              1 S1                 0.0000
     31 ****         2.2168   3.0394  -3.9013 H              1 S1                 0.0000
     32 ****        -3.2709   0.5739   2.3941 H              1 S1                 0.0000
     33 ****        -3.1764  -0.9487   1.5339 H              1 S1                 0.0000
     34 ****        -3.2223  -0.5452   4.5760 H              1 S1                 0.0000
     35 ****        -4.5232  -1.1831   3.5873 H              1 S1                 0.0000
     36 ****        -1.1880  -1.9070   4.8140 H              1 S1                 0.0000
     37 ****        -1.1294  -3.4453   3.9737 H              1 S1                 0.0000
     38 ****        -1.0744  -2.3328   1.7772 H              1 S1                 0.0000
     39 ****         0.2024  -1.7268   2.8107 H              1 S1                 0.0000
     40 ****         0.6527  -1.3316  -0.5838 LP             1 S1                 0.0000
     41 ****         1.1643  -1.1936  -2.2327 LP             1 S1                 0.0000
     42 ****         2.6901   2.7290  -6.1714 LP             1 S1                 0.0000
     43 ****        -1.0823   0.2149   3.2205 LP             1 S1                 0.0000
     44 ****        -3.1617  -2.9567   2.9802 LP             1 S1                 0.0000
     45 ****        -3.2864  -2.8626   4.6057 LP             1 S1                 0.0000
@<TRIPOS>BOND
    1    1    2 1     
    2    1   20 1     
    3    1   21 1     
    4    1   22 1     
    5    2    3 1     
    6    2   14 1     
    7    2   23 1     
    8    3    4 1     
    9    3   24 1     
   10    3   25 1     
   11    4    5 am    
   12    4   26 1     
   13    5    6 2     
   14    5    7 am    
   15    7    8 1     
   16    7   27 1     
   17    8   13 ar    
   18    8    9 ar    
   19    9   10 ar    
   20    9   28 1     
   21   10   11 ar    
   22   10   29 1     
   23   11   12 ar    
   24   11   30 1     
   25   12   13 ar    
   26   13   31 1     
   27   14   19 1     
   28   14   15 1     
   29   15   16 1     
   30   15   32 1     
   31   15   33 1     
   32   16   17 1     
   33   16   34 1     
   34   16   35 1     
   35   17   18 1     
   36   18   19 1     
   37   18   36 1     
   38   18   37 1     
   39   19   38 1     
   40   19   39 1     
   41    6   40 1     
   42    6   41 1     
   43   12   42 1     
   44   14   43 1     
   45   17   44 1     
   46   17   45 1     
@<TRIPOS>SUBSTRUCTURE
      1 S1             1
@<TRIPOS>SET
LONE_PAIRS      STATIC     ATOMS    <user>   **** ""
6 40 41 42 43 44 45
DONOR_HYDROGENS      STATIC     ATOMS    <user>   **** ""
2 26 27
ATOM$BLUE        STATIC     ATOMS    COLORGROUP SYSTEM
6 40 41 42 43 44 45
ATOM$RED        STATIC     ATOMS    COLORGROUP SYSTEM
2 26 27
