AV-unprocessed.smi:213|AV-procd|sdf|1636|dock4
  -GOLD-   2262019593D 1   1.00000     0.00000
 Structure written by MMmdl.
 59 62  0  0  0  0  0  0  0  0  2 V2000
  149.4895  133.1798  154.4857 C   0  0  0  0  0  0  0  0  0  0  0  0
  149.3055  134.6752  154.8059 C   0  0  1  0  0  0  0  0  0  0  0  0
  147.8164  135.0950  154.8093 C   0  0  0  0  0  0  0  0  0  0  0  0
  147.1894  134.9987  153.4671 N   0  3  0  0  0  0  0  0  0  0  0  0
  146.8659  133.6014  153.0921 C   0  0  0  0  0  0  0  0  0  0  0  0
  146.2670  133.5474  151.6766 C   0  0  0  0  0  0  0  0  0  0  0  0
  145.1140  134.3772  151.6147 O   0  0  0  0  0  0  0  0  0  0  0  0
  145.4236  135.7386  151.8858 C   0  0  0  0  0  0  0  0  0  0  0  0
  145.9960  135.8670  153.3076 C   0  0  0  0  0  0  0  0  0  0  0  0
  149.9659  135.0268  156.0702 N   0  0  0  0  0  0  0  0  0  0  0  0
  149.4931  134.4517  157.3278 C   0  0  0  0  0  0  0  0  0  0  0  0
  150.6959  136.1746  156.1590 C   0  0  0  0  0  0  0  0  0  0  0  0
  151.2886  136.6784  155.0421 N   0  0  0  0  0  0  0  0  0  0  0  0
  152.0013  137.8071  155.0973 C   0  0  0  0  0  0  0  0  0  0  0  0
  152.2525  138.5833  156.1517 N   0  0  0  0  0  0  0  0  0  0  0  0
  151.6717  138.0844  157.2793 C   0  0  0  0  0  0  0  0  0  0  0  0
  150.8846  136.9003  157.3734 C   0  0  0  0  0  0  0  0  0  0  0  0
  150.4782  136.7155  158.6911 N   0  0  0  0  0  0  0  0  0  0  0  0
  150.9854  137.7322  159.3329 C   0  0  0  0  0  0  0  0  0  0  0  0
  151.7170  138.6039  158.5601 N   0  0  0  0  0  0  0  0  0  0  0  0
  152.3934  139.8091  159.0068 C   0  0  0  0  0  0  0  0  0  0  0  0
  151.9330  141.0640  158.2388 C   0  0  1  0  0  0  0  0  0  0  0  0
  150.5240  141.1699  158.3202 O   0  0  0  0  0  0  0  0  0  0  0  0
  152.5630  142.3521  158.8007 C   0  0  2  0  0  0  0  0  0  0  0  0
  152.2349  142.6339  160.2657 C   0  0  0  0  0  0  0  0  0  0  0  0
  152.5265  144.1162  160.3765 C   0  0  0  0  0  0  0  0  0  0  0  0
  152.2095  144.6427  158.9748 C   0  0  0  0  0  0  0  0  0  0  0  0
  152.0292  143.4961  158.1480 O   0  0  0  0  0  0  0  0  0  0  0  0
  149.1090  132.9394  153.4929 H   0  0  0  0  0  0  0  0  0  0  0  0
  148.9689  132.5400  155.1986 H   0  0  0  0  0  0  0  0  0  0  0  0
  150.5449  132.9054  154.5016 H   0  0  0  0  0  0  0  0  0  0  0  0
  149.8239  135.2065  154.0087 H   0  0  0  0  0  0  0  0  0  0  0  0
  147.2737  134.4546  155.5056 H   0  0  0  0  0  0  0  0  0  0  0  0
  147.6971  136.1129  155.1831 H   0  0  0  0  0  0  0  0  0  0  0  0
  147.7671  132.9882  153.1306 H   0  0  0  0  0  0  0  0  0  0  0  0
  146.1611  133.1829  153.8126 H   0  0  0  0  0  0  0  0  0  0  0  0
  146.9987  133.8626  150.9307 H   0  0  0  0  0  0  0  0  0  0  0  0
  145.9799  132.5253  151.4286 H   0  0  0  0  0  0  0  0  0  0  0  0
  146.1294  136.1187  151.1453 H   0  0  0  0  0  0  0  0  0  0  0  0
  144.5141  136.3324  151.7925 H   0  0  0  0  0  0  0  0  0  0  0  0
  145.2374  135.5856  154.0398 H   0  0  0  0  0  0  0  0  0  0  0  0
  146.2497  136.9092  153.4985 H   0  0  0  0  0  0  0  0  0  0  0  0
  149.3274  135.2227  158.0814 H   0  0  0  0  0  0  0  0  0  0  0  0
  150.2249  133.7421  157.7142 H   0  0  0  0  0  0  0  0  0  0  0  0
  148.5513  133.9196  157.1994 H   0  0  0  0  0  0  0  0  0  0  0  0
  152.4327  138.1354  154.1632 H   0  0  0  0  0  0  0  0  0  0  0  0
  150.8381  137.8754  160.3935 H   0  0  0  0  0  0  0  0  0  0  0  0
  152.2207  139.9299  160.0772 H   0  0  0  0  0  0  0  0  0  0  0  0
  153.4663  139.6604  158.8801 H   0  0  0  0  0  0  0  0  0  0  0  0
  152.2008  140.9612  157.1863 H   0  0  0  0  0  0  0  0  0  0  0  0
  150.1487  140.3226  158.1361 H   0  0  0  0  0  0  0  0  0  0  0  0
  153.6455  142.3439  158.6593 H   0  0  0  0  0  0  0  0  0  0  0  0
  151.1786  142.4462  160.4626 H   0  0  0  0  0  0  0  0  0  0  0  0
  152.8242  142.0330  160.9589 H   0  0  0  0  0  0  0  0  0  0  0  0
  151.9386  144.6031  161.1552 H   0  0  0  0  0  0  0  0  0  0  0  0
  153.5820  144.2722  160.6024 H   0  0  0  0  0  0  0  0  0  0  0  0
  151.2981  145.2407  158.9654 H   0  0  0  0  0  0  0  0  0  0  0  0
  153.0240  145.2601  158.5943 H   0  0  0  0  0  0  0  0  0  0  0  0
  147.8805  135.3170  152.8026 H   0  0  0  0  0  0  0  0  0  0  0  0
  1  2  1  0  0  0  0
  1 29  1  0  0  0  0
  1 30  1  0  0  0  0
  1 31  1  0  0  0  0
  2  3  1  0  0  0  0
  2 10  1  0  0  0  0
  2 32  1  0  0  0  0
  3  4  1  0  0  0  0
  3 33  1  0  0  0  0
  3 34  1  0  0  0  0
  4  9  1  0  0  0  0
  4  5  1  0  0  0  0
  4 59  1  0  0  0  0
  5  6  1  0  0  0  0
  5 35  1  0  0  0  0
  5 36  1  0  0  0  0
  6  7  1  0  0  0  0
  6 37  1  0  0  0  0
  6 38  1  0  0  0  0
  7  8  1  0  0  0  0
  8  9  1  0  0  0  0
  8 39  1  0  0  0  0
  8 40  1  0  0  0  0
  9 41  1  0  0  0  0
  9 42  1  0  0  0  0
 10 11  1  0  0  0  0
 10 12  1  0  0  0  0
 11 43  1  0  0  0  0
 11 44  1  0  0  0  0
 11 45  1  0  0  0  0
 12 17  1  0  0  0  0
 12 13  2  0  0  0  0
 13 14  1  0  0  0  0
 14 15  2  0  0  0  0
 14 46  1  0  0  0  0
 15 16  1  0  0  0  0
 16 20  1  0  0  0  0
 16 17  2  0  0  0  0
 17 18  1  0  0  0  0
 18 19  2  0  0  0  0
 19 20  1  0  0  0  0
 19 47  1  0  0  0  0
 20 21  1  0  0  0  0
 21 22  1  0  0  0  0
 21 48  1  0  0  0  0
 21 49  1  0  0  0  0
 22 23  1  0  0  0  0
 22 24  1  0  0  0  0
 22 50  1  0  0  0  0
 23 51  1  0  0  0  0
 24 28  1  0  0  0  0
 24 25  1  0  0  0  0
 24 52  1  0  0  0  0
 25 26  1  0  0  0  0
 25 53  1  0  0  0  0
 25 54  1  0  0  0  0
 26 27  1  0  0  0  0
 26 55  1  0  0  0  0
 26 56  1  0  0  0  0
 27 28  1  0  0  0  0
 27 57  1  0  0  0  0
 27 58  1  0  0  0  0
M  CHG  1   4   1
M  END
> <s_m_source_file>
AV-unprocessed.smi

> <i_m_source_file_index>
213

> <i_lp_mmshare_version>
43012

> <i_f3d_flags>
0

> <s_epik_input>
W0NIMl0xW0NIMl1PW0NIMl1bQ0gyXU4xW0NIMl1bQ0BASF0oW0NIM10pTihbQ0gzXSljKG5bY0hdbjIpYyhjMjMpbltjSF1uM1tDSDJdW0NASF0oW09IXSlbQ0BASF00W0NIMl1bQ0gyXVtDSDJdTzQ=

> <s_epik_cmdline>
J2VwaWtfcHl0aG9uJywgJy1waCcsICc3LjAnLCAnLXRuJywgJzgnLCAnLW1hJywgJzIwMCcsICctbWV0YWxfYmluZGluZycsICctaW1hZScsICc8aW5maWxlLm1hZT4nLCAnLW9tYWUnLCAnPG91dGZpbGUubWFlPic=

> <r_lp_tautomer_probability>
1

> <r_epik_Ionization_Penalty>
0.399679

> <r_epik_Ionization_Penalty_Charging>
0.399433

> <r_epik_Ionization_Penalty_Neutral>
0.000246213

> <r_epik_State_Penalty>
0.286032

> <r_epik_Charging_Adjusted_Penalty>
0.685465

> <i_epik_Tot_Q>
1

> <i_epik_Tot_abs_Q>
1

> <r_epik_Metal_State_Penalty>
0.286072

> <b_epik_Metal_Only>
0

> <s_lp_Force_Field>
OPLS_2005

> <r_lp_Energy>
43.5533

> <b_lp_Chiralities_Consistent>
1

> <s_lp_Variant>
AV-unprocessed.smi:213-4

> <Gold.Version>
5.8.1

> <Gold.Id.Protein>
6NUR|6NUR_protein|mol2

> <Gold.PLP.Fitness>
54.8160

> <Gold.PLP.PLP>
-43.8298

> <Gold.PLP.part.hbond>
-3.0000

> <Gold.PLP.part.metal>
0.0000

> <Gold.PLP.part.buried>
-6.5002

> <Gold.PLP.part.nonpolar>
-34.6609

> <Gold.PLP.part.repulsive>
0.3102

> <Gold.PLP.ligand.clash>
0.0000

> <Gold.PLP.ligand.torsion>
0.7326

> <Gold.PLP.Chemscore.Hbond>
3.9048

> <Gold.PLP.Chemscore.CHOScore>
0.0000

> <Gold.PLP.Chemscore.Metal>
0.0000

> <Gold.Chemscore.Hbonds>
donor molecule, donor type, donor heavy atom, donor atom, acceptor molecule, acceptor atom, score
      L1  H     4    59       P1  7948  2.00
      P1  H  6896  6907       L1    18  0.84
      P1  H 10752 10763       L1    13  0.52

> <Gold.PLP.Chemscore.Internal.Correction>
0.7370

> <Gold.Rescore>
     Score         DG    S(hbond)    S(metal)    S(lipo)     H(rot)  DE(clash)    DE(int)     intcor
     13.60     -16.20       1.96        0.00      97.59       2.83       0.24       2.36       ----

> <Gold.Chemscore.Fitness>
13.5977

> <Gold.Chemscore.DG>
-16.1979

> <Gold.Chemscore.ZeroCoef>
-5.4800

> <Gold.Chemscore.Hbond>
1.9559

> <Gold.Chemscore.Metal>
0.0000

> <Gold.Chemscore.Lipo>
97.5902

> <Gold.Chemscore.Internal_Hbond>
0.0000

> <Gold.Chemscore.DEClash>
0.2377

> <Gold.Chemscore.DEInternal>
2.3626

> <Gold.Chemscore.Rot>
2.8254

> <Gold.Chemscore.Internal.Correction>
   9.000000E+99

> <Gold.Chemscore.Hbonds>
donor molecule, donor type, donor heavy atom, donor atom, acceptor molecule, acceptor atom, score
      L1  H     4    59       P1  7948  1.00
      P1  H  6896  6907       L1    18  0.40
      P1  H 10752 10763       L1    13  0.03

> <Gold.Chemscore.Hbond.Weighted>
-6.5328

> <Gold.Chemscore.Metal.Weighted>
-0.0000

> <Gold.Chemscore.Lipo.Weighted>
-11.4181

> <Gold.Chemscore.Internal_Hbond.Weighted>
0.0000

> <Gold.Chemscore.DEClash.Weighted>
0.2377

> <Gold.Chemscore.DEInternal.Weighted>
2.3626

> <Gold.Chemscore.Rot.Weighted>
7.2330

> <Gold.Chemscore.Internal.Correction.Weighted>
   9.000000E+99

> <Gold.Protein.RotatedTorsions>
[ 6907 6896 6895 6894 ] final  -32.96 input  -60.11 | X-H torsion
[ 7974 7965 7964 7962 ] final -113.90 input  175.53 | X-H torsion
[ 8008 7997 7996 7995 ] final   34.50 input   59.86 | X-H torsion
[ 10167 10162 10161 10158 ] final   44.99 input  -65.29 | X-H torsion
[ 10718 10713 10712 10709 ] final   71.46 input   66.30 | X-H torsion
[ 10763 10752 10751 10750 ] final   45.45 input  -60.55 | X-H torsion
[ 11005 11000 10999 10996 ] final  -85.32 input  -57.11 | X-H torsion

> <Gold.Protein.ActiveResidues>
 VAL166  LYS551  ARG553  GLY616  TRP617  ASP618  TYR619  PRO620  LYS621  CYS622 
 ASP623  PHE694  ASN695  SER759  ASP760  ASP761  ALA762  ILE779  LEU786  VAL792 
 PHE793  MET794  SER795  GLU796  ALA797  LYS798  CYS799  TRP800  GLU811  SER814 

> <Gold.Protein.RotatedAtoms>
  151.0719  134.9803  159.8312 H   0  0  0  0  0  0  0  0  0  0  0  0  # atno 6907 bound_to 6896
  152.5409  134.2289  159.8827 H   0  0  0  0  0  0  0  0  0  0  0  0  # atno 6908 bound_to 6896
  151.2314  133.4405  159.2637 H   0  0  0  0  0  0  0  0  0  0  0  0  # atno 6909 bound_to 6896
  145.1265  140.8699  143.3783 H   0  0  0  0  0  0  0  0  0  0  0  0  # atno 7974 bound_to 7965
  155.1558  140.3279  155.4421 H   0  0  0  0  0  0  0  0  0  0  0  0  # atno 8008 bound_to 7997
  156.2559  140.1969  156.6618 H   0  0  0  0  0  0  0  0  0  0  0  0  # atno 8009 bound_to 7997
  154.6440  140.0566  156.9865 H   0  0  0  0  0  0  0  0  0  0  0  0  # atno 8010 bound_to 7997
  140.3287  144.2616  150.6171 H   0  0  0  0  0  0  0  0  0  0  0  0  # atno 10167 bound_to 10162
  157.6453  130.9529  150.0792 H   0  0  0  0  0  0  0  0  0  0  0  0  # atno 10718 bound_to 10713
  152.9824  135.6039  154.3439 H   0  0  0  0  0  0  0  0  0  0  0  0  # atno 10763 bound_to 10752
  154.3133  135.2771  155.2557 H   0  0  0  0  0  0  0  0  0  0  0  0  # atno 10764 bound_to 10752
  154.4756  135.5930  153.6409 H   0  0  0  0  0  0  0  0  0  0  0  0  # atno 10765 bound_to 10752
  141.1642  133.7393  156.8997 H   0  0  0  0  0  0  0  0  0  0  0  0  # atno 11005 bound_to 11000
  145.0683  139.3052  143.5845 LP  0  0  0  0  0  0  0  0  0  0  0  0  # atno 17320 bound_to 7965
  146.3517  140.0148  142.8664 LP  0  0  0  0  0  0  0  0  0  0  0  0  # atno 17321 bound_to 7965
  140.5417  143.2222  151.8073 LP  0  0  0  0  0  0  0  0  0  0  0  0  # atno 17342 bound_to 10162
  139.4860  144.4591  151.9562 LP  0  0  0  0  0  0  0  0  0  0  0  0  # atno 17343 bound_to 10162
  156.1773  130.3648  149.9082 LP  0  0  0  0  0  0  0  0  0  0  0  0  # atno 17370 bound_to 10713
  156.7043  130.8945  151.3603 LP  0  0  0  0  0  0  0  0  0  0  0  0  # atno 17371 bound_to 10713
  140.1591  134.9178  157.2691 LP  0  0  0  0  0  0  0  0  0  0  0  0  # atno 17394 bound_to 11000
  140.2633  134.3546  155.7399 LP  0  0  0  0  0  0  0  0  0  0  0  0  # atno 17395 bound_to 11000

$$$$
