AV-unprocessed.smi:1607|AV-procd|sdf|6463|dock6
  -GOLD-   22720 7123D 1   1.00000     0.00000
 Structure written by MMmdl.
 39 40  0  0  0  0  0  0  0  0  2 V2000
  153.0959  144.2700  158.4455 C   0  0  0  0  0  0  0  0  0  0  0  0
  151.5792  144.2074  158.2148 C   0  0  2  0  0  0  0  0  0  0  0  0
  150.8032  144.4038  159.5279 C   0  0  0  0  0  0  0  0  0  0  0  0
  149.2942  144.3076  159.2725 C   0  0  0  0  0  0  0  0  0  0  0  0
  148.9390  142.9833  158.5791 C   0  0  0  0  0  0  0  0  0  0  0  0
  149.6961  142.8233  157.3108 N   0  3  2  0  0  0  0  0  0  0  0  0
  149.2720  141.6179  156.5553 C   0  0  0  0  0  0  0  0  0  0  0  0
  150.2013  141.3121  155.3645 C   0  0  0  0  0  0  0  0  0  0  0  0
  150.3642  139.8765  155.1676 N   0  0  0  0  0  0  0  0  0  0  0  0
  151.5294  139.2161  155.2568 C   0  0  0  0  0  0  0  0  0  0  0  0
  152.5993  139.7637  155.5215 O   0  0  0  0  0  0  0  0  0  0  0  0
  151.4821  137.7079  155.0129 C   0  0  0  0  0  0  0  0  0  0  0  0
  151.3357  136.9845  156.2613 N   0  0  0  0  0  0  0  0  0  0  0  0
  150.3858  137.0337  157.1976 C   0  0  0  0  0  0  0  0  0  0  0  0
  150.6414  136.2031  158.1967 N   0  0  0  0  0  0  0  0  0  0  0  0
  151.8386  135.6169  157.8207 N   0  0  0  0  0  0  0  0  0  0  0  0
  152.2562  136.0776  156.6735 N   0  0  0  0  0  0  0  0  0  0  0  0
  151.1651  142.8830  157.5411 C   0  0  0  0  0  0  0  0  0  0  0  0
  153.4296  143.4721  159.1095 H   0  0  0  0  0  0  0  0  0  0  0  0
  153.3861  145.2201  158.8953 H   0  0  0  0  0  0  0  0  0  0  0  0
  153.6414  144.1715  157.5066 H   0  0  0  0  0  0  0  0  0  0  0  0
  151.3158  145.0249  157.5415 H   0  0  0  0  0  0  0  0  0  0  0  0
  151.1005  143.6466  160.2548 H   0  0  0  0  0  0  0  0  0  0  0  0
  151.0435  145.3716  159.9698 H   0  0  0  0  0  0  0  0  0  0  0  0
  148.7507  144.3930  160.2138 H   0  0  0  0  0  0  0  0  0  0  0  0
  148.9720  145.1448  158.6518 H   0  0  0  0  0  0  0  0  0  0  0  0
  149.1511  142.1417  159.2408 H   0  0  0  0  0  0  0  0  0  0  0  0
  147.8676  142.9659  158.3755 H   0  0  0  0  0  0  0  0  0  0  0  0
  149.2063  140.7670  157.2356 H   0  0  0  0  0  0  0  0  0  0  0  0
  148.2660  141.7731  156.1630 H   0  0  0  0  0  0  0  0  0  0  0  0
  149.7824  141.7330  154.4500 H   0  0  0  0  0  0  0  0  0  0  0  0
  151.1838  141.7670  155.4931 H   0  0  0  0  0  0  0  0  0  0  0  0
  149.5347  139.3479  154.9367 H   0  0  0  0  0  0  0  0  0  0  0  0
  150.6392  137.4640  154.3651 H   0  0  0  0  0  0  0  0  0  0  0  0
  152.3868  137.3736  154.5025 H   0  0  0  0  0  0  0  0  0  0  0  0
  149.5168  137.6733  157.1482 H   0  0  0  0  0  0  0  0  0  0  0  0
  151.6956  142.7878  156.5944 H   0  0  0  0  0  0  0  0  0  0  0  0
  151.4700  142.0353  158.1571 H   0  0  0  0  0  0  0  0  0  0  0  0
  149.4543  143.6195  156.7384 H   0  0  0  0  0  0  0  0  0  0  0  0
  1  2  1  0  0  0  0
  1 19  1  0  0  0  0
  1 20  1  0  0  0  0
  1 21  1  0  0  0  0
  2 18  1  0  0  0  0
  2  3  1  0  0  0  0
  2 22  1  0  0  0  0
  3  4  1  0  0  0  0
  3 23  1  0  0  0  0
  3 24  1  0  0  0  0
  4  5  1  0  0  0  0
  4 25  1  0  0  0  0
  4 26  1  0  0  0  0
  5  6  1  0  0  0  0
  5 27  1  0  0  0  0
  5 28  1  0  0  0  0
  6  7  1  0  0  0  0
  6 18  1  0  0  0  0
  6 39  1  0  0  0  0
  7  8  1  0  0  0  0
  7 29  1  0  0  0  0
  7 30  1  0  0  0  0
  8  9  1  0  0  0  0
  8 31  1  0  0  0  0
  8 32  1  0  0  0  0
  9 10  1  0  0  0  0
  9 33  1  0  0  0  0
 10 11  2  0  0  0  0
 10 12  1  0  0  0  0
 12 13  1  0  0  0  0
 12 34  1  0  0  0  0
 12 35  1  0  0  0  0
 13 17  1  0  0  0  0
 13 14  1  0  0  0  0
 14 15  2  0  0  0  0
 14 36  1  0  0  0  0
 15 16  1  0  0  0  0
 16 17  2  0  0  0  0
 18 37  1  0  0  0  0
 18 38  1  0  0  0  0
M  CHG  1   6   1
M  END
> <s_m_source_file>
AV-unprocessed.smi

> <i_m_source_file_index>
1607

> <i_lp_mmshare_version>
43012

> <i_f3d_flags>
0

> <s_epik_input>
W0NIM11bQ0BASF0xW0NIMl1bQ0gyXVtDSDJdTihbQ0gyXTEpW0NIMl1bQ0gyXVtOSF1DKD1PKVtDSDJdbjJbY0hdbm5uMg==

> <s_epik_cmdline>
J2VwaWtfcHl0aG9uJywgJy1waCcsICc3LjAnLCAnLXRuJywgJzgnLCAnLW1hJywgJzIwMCcsICctbWV0YWxfYmluZGluZycsICctaW1hZScsICc8aW5maWxlLm1hZT4nLCAnLW9tYWUnLCAnPG91dGZpbGUubWFlPic=

> <r_lp_tautomer_probability>
1

> <r_epik_Ionization_Penalty>
0.00268321

> <r_epik_Ionization_Penalty_Charging>
0.00267875

> <r_epik_Ionization_Penalty_Neutral>
4.46125e-06

> <r_epik_State_Penalty>
0.00186642

> <r_epik_Charging_Adjusted_Penalty>
0.00454517

> <i_epik_Tot_Q>
1

> <i_epik_Tot_abs_Q>
1

> <r_epik_Metal_State_Penalty>
-0

> <b_epik_Metal_Only>
0

> <s_lp_Force_Field>
OPLS_2005

> <r_lp_Energy>
18.3574

> <b_lp_Chiralities_Consistent>
1

> <s_lp_Variant>
AV-unprocessed.smi:1607-1

> <Gold.Version>
5.8.1

> <Gold.Id.Protein>
6NUR|6NUR_protein|mol2

> <Gold.PLP.Fitness>
44.7499

> <Gold.PLP.PLP>
-32.4785

> <Gold.PLP.part.hbond>
-5.9980

> <Gold.PLP.part.metal>
0.0000

> <Gold.PLP.part.buried>
-3.4413

> <Gold.PLP.part.nonpolar>
-24.1731

> <Gold.PLP.part.repulsive>
0.1250

> <Gold.PLP.ligand.clash>
0.0000

> <Gold.PLP.ligand.torsion>
0.6975

> <Gold.PLP.Chemscore.Hbond>
4.5405

> <Gold.PLP.Chemscore.CHOScore>
0.0000

> <Gold.PLP.Chemscore.Metal>
0.0000

> <Gold.Chemscore.Hbonds>
donor molecule, donor type, donor heavy atom, donor atom, acceptor molecule, acceptor atom, score
      L1  H     6    39       P1  8028  2.00
      P1  H  7997  8008       L1    11  1.00
      P1  H 10752 10763       L1    17  1.00

> <Gold.PLP.Chemscore.Internal.Correction>
0.0450

> <Gold.Rescore>
     Score         DG    S(hbond)    S(metal)    S(lipo)     H(rot)  DE(clash)    DE(int)     intcor
     16.95     -17.60       3.03        0.00      75.96       2.69       0.04       0.60       ----

> <Gold.Chemscore.Fitness>
16.9520

> <Gold.Chemscore.DG>
-17.5990

> <Gold.Chemscore.ZeroCoef>
-5.4800

> <Gold.Chemscore.Hbond>
3.0320

> <Gold.Chemscore.Metal>
0.0000

> <Gold.Chemscore.Lipo>
75.9555

> <Gold.Chemscore.Internal_Hbond>
0.0000

> <Gold.Chemscore.DEClash>
0.0434

> <Gold.Chemscore.DEInternal>
0.6036

> <Gold.Chemscore.Rot>
2.6932

> <Gold.Chemscore.Internal.Correction>
   9.000000E+99

> <Gold.Chemscore.Hbonds>
donor molecule, donor type, donor heavy atom, donor atom, acceptor molecule, acceptor atom, score
      L1  H     6    39       P1  8028  0.97
      P1  H  7997  8008       L1    11  1.00
      P1  H 10752 10763       L1    17  0.85

> <Gold.Chemscore.Hbond.Weighted>
-10.1267

> <Gold.Chemscore.Metal.Weighted>
-0.0000

> <Gold.Chemscore.Lipo.Weighted>
-8.8868

> <Gold.Chemscore.Internal_Hbond.Weighted>
0.0000

> <Gold.Chemscore.DEClash.Weighted>
0.0434

> <Gold.Chemscore.DEInternal.Weighted>
0.6036

> <Gold.Chemscore.Rot.Weighted>
6.8945

> <Gold.Chemscore.Internal.Correction.Weighted>
   9.000000E+99

> <Gold.Protein.RotatedTorsions>
[ 6907 6896 6895 6894 ] final   79.73 input  -60.11 | X-H torsion
[ 7974 7965 7964 7962 ] final -171.63 input  175.53 | X-H torsion
[ 8008 7997 7996 7995 ] final  -22.04 input   59.86 | X-H torsion
[ 10167 10162 10161 10158 ] final  -81.25 input  -65.29 | X-H torsion
[ 10718 10713 10712 10709 ] final -107.41 input   66.30 | X-H torsion
[ 10763 10752 10751 10750 ] final  107.00 input  -60.55 | X-H torsion
[ 11005 11000 10999 10996 ] final   21.21 input  -57.11 | X-H torsion

> <Gold.Protein.ActiveResidues>
 VAL166  LYS551  ARG553  GLY616  TRP617  ASP618  TYR619  PRO620  LYS621  CYS622 
 ASP623  PHE694  ASN695  SER759  ASP760  ASP761  ALA762  ILE779  LEU786  VAL792 
 PHE793  MET794  SER795  GLU796  ALA797  LYS798  CYS799  TRP800  GLU811  SER814 

> <Gold.Protein.RotatedAtoms>
  152.5209  134.3465  159.9235 H   0  0  0  0  0  0  0  0  0  0  0  0  # atno 6907 bound_to 6896
  151.3416  133.3954  159.2679 H   0  0  0  0  0  0  0  0  0  0  0  0  # atno 6908 bound_to 6896
  150.9799  134.9174  159.7896 H   0  0  0  0  0  0  0  0  0  0  0  0  # atno 6909 bound_to 6896
  144.7155  140.1893  143.6350 H   0  0  0  0  0  0  0  0  0  0  0  0  # atno 7974 bound_to 7965
  154.4668  140.2018  156.0096 H   0  0  0  0  0  0  0  0  0  0  0  0  # atno 8008 bound_to 7997
  156.0942  140.3253  155.7826 H   0  0  0  0  0  0  0  0  0  0  0  0  # atno 8009 bound_to 7997
  155.4906  140.0546  157.2945 H   0  0  0  0  0  0  0  0  0  0  0  0  # atno 8010 bound_to 7997
  140.4429  143.2509  151.8600 H   0  0  0  0  0  0  0  0  0  0  0  0  # atno 10167 bound_to 10162
  156.0435  130.5661  150.7817 H   0  0  0  0  0  0  0  0  0  0  0  0  # atno 10718 bound_to 10713
  153.4007  135.3858  155.1985 H   0  0  0  0  0  0  0  0  0  0  0  0  # atno 10763 bound_to 10752
  154.8729  135.3770  154.4622 H   0  0  0  0  0  0  0  0  0  0  0  0  # atno 10764 bound_to 10752
  153.5119  135.7087  153.5838 H   0  0  0  0  0  0  0  0  0  0  0  0  # atno 10765 bound_to 10752
  140.3941  134.1788  155.7663 H   0  0  0  0  0  0  0  0  0  0  0  0  # atno 11005 bound_to 11000
  145.8783  139.2309  143.1620 LP  0  0  0  0  0  0  0  0  0  0  0  0  # atno 17320 bound_to 7965
  146.0019  140.8512  143.0014 LP  0  0  0  0  0  0  0  0  0  0  0  0  # atno 17321 bound_to 7965
  139.4791  144.5209  151.8803 LP  0  0  0  0  0  0  0  0  0  0  0  0  # atno 17342 bound_to 10162
  140.4298  144.2131  150.5888 LP  0  0  0  0  0  0  0  0  0  0  0  0  # atno 17343 bound_to 10162
  157.5283  131.0935  150.9989 LP  0  0  0  0  0  0  0  0  0  0  0  0  # atno 17370 bound_to 10713
  157.0302  130.5708  149.5342 LP  0  0  0  0  0  0  0  0  0  0  0  0  # atno 17371 bound_to 10713
  141.1880  133.8268  157.1010 LP  0  0  0  0  0  0  0  0  0  0  0  0  # atno 17394 bound_to 11000
  140.0385  134.9866  157.0916 LP  0  0  0  0  0  0  0  0  0  0  0  0  # atno 17395 bound_to 11000

$$$$
