AV-unprocessed.smi:1995|AV-procd|sdf|8080|dock1
  -GOLD-   2272010293D 1   1.00000     0.00000
 Structure written by MMmdl.
 41 42  0  0  0  0  0  0  0  0  2 V2000
  151.3566  138.8802  155.0248 C   0  0  0  0  0  0  0  0  0  0  0  0
  151.9528  139.5788  156.2607 C   0  0  0  0  0  0  0  0  0  0  0  0
  151.0388  139.6113  157.5269 C   0  0  1  0  0  0  0  0  0  0  0  0
  149.7046  140.2710  157.0845 C   0  0  0  0  0  0  0  0  0  0  0  0
  150.7313  138.1426  157.9666 C   0  0  0  0  0  0  0  0  0  0  0  0
  149.7712  138.0404  159.0667 N   0  0  0  0  0  0  0  0  0  0  0  0
  149.1734  136.9236  159.5072 C   0  0  0  0  0  0  0  0  0  0  0  0
  149.4244  135.8382  158.9784 O   0  0  0  0  0  0  0  0  0  0  0  0
  148.3109  137.1368  160.5268 N   0  5  0  0  0  0  0  0  0  0  0  0
  147.8740  136.1031  161.2643 C   0  0  0  0  0  0  0  0  0  0  0  0
  147.5839  134.9054  160.7434 N   0  0  0  0  0  0  0  0  0  0  0  0
  147.1547  133.9764  161.6929 C   0  0  0  0  0  0  0  0  0  0  0  0
  147.1246  134.4759  162.9678 C   0  0  0  0  0  0  0  0  0  0  0  0
  147.6384  136.1383  163.0144 S   0  0  0  0  0  0  0  0  0  0  0  0
  151.6765  140.3999  158.6202 N   0  0  0  0  0  0  0  0  0  0  0  0
  152.9800  139.9027  159.0747 C   0  0  0  0  0  0  0  0  0  0  0  0
  153.4968  140.6804  160.2972 C   0  0  0  0  0  0  0  0  0  0  0  0
  153.5715  142.0672  159.9888 O   0  0  0  0  0  0  0  0  0  0  0  0
  152.3151  142.6041  159.5921 C   0  0  0  0  0  0  0  0  0  0  0  0
  151.7900  141.8411  158.3640 C   0  0  0  0  0  0  0  0  0  0  0  0
  152.0640  138.9058  154.1959 H   0  0  0  0  0  0  0  0  0  0  0  0
  150.4416  139.3649  154.6849 H   0  0  0  0  0  0  0  0  0  0  0  0
  151.1290  137.8333  155.2226 H   0  0  0  0  0  0  0  0  0  0  0  0
  152.8910  139.0737  156.4920 H   0  0  0  0  0  0  0  0  0  0  0  0
  152.2513  140.5902  155.9844 H   0  0  0  0  0  0  0  0  0  0  0  0
  149.3368  139.8597  156.1439 H   0  0  0  0  0  0  0  0  0  0  0  0
  149.8130  141.3466  156.9437 H   0  0  0  0  0  0  0  0  0  0  0  0
  148.9117  140.1168  157.8164 H   0  0  0  0  0  0  0  0  0  0  0  0
  150.3894  137.5441  157.1223 H   0  0  0  0  0  0  0  0  0  0  0  0
  151.6382  137.6549  158.3219 H   0  0  0  0  0  0  0  0  0  0  0  0
  149.5292  138.9020  159.5335 H   0  0  0  0  0  0  0  0  0  0  0  0
  146.8915  132.9795  161.3722 H   0  0  0  0  0  0  0  0  0  0  0  0
  146.8355  133.9709  163.8771 H   0  0  0  0  0  0  0  0  0  0  0  0
  152.9218  138.8517  159.3517 H   0  0  0  0  0  0  0  0  0  0  0  0
  153.7157  139.9808  158.2746 H   0  0  0  0  0  0  0  0  0  0  0  0
  152.8424  140.5264  161.1567 H   0  0  0  0  0  0  0  0  0  0  0  0
  154.4873  140.3250  160.5812 H   0  0  0  0  0  0  0  0  0  0  0  0
  151.6058  142.5404  160.4185 H   0  0  0  0  0  0  0  0  0  0  0  0
  152.4385  143.6611  159.3566 H   0  0  0  0  0  0  0  0  0  0  0  0
  152.4638  142.0251  157.5274 H   0  0  0  0  0  0  0  0  0  0  0  0
  150.8266  142.2681  158.0923 H   0  0  0  0  0  0  0  0  0  0  0  0
  1  2  1  0  0  0  0
  1 21  1  0  0  0  0
  1 22  1  0  0  0  0
  1 23  1  0  0  0  0
  2  3  1  0  0  0  0
  2 24  1  0  0  0  0
  2 25  1  0  0  0  0
  3  4  1  0  0  0  0
  3  5  1  0  0  0  0
  3 15  1  0  0  0  0
  4 26  1  0  0  0  0
  4 27  1  0  0  0  0
  4 28  1  0  0  0  0
  5  6  1  0  0  0  0
  5 29  1  0  0  0  0
  5 30  1  0  0  0  0
  6  7  1  0  0  0  0
  6 31  1  0  0  0  0
  7  8  2  0  0  0  0
  7  9  1  0  0  0  0
  9 10  1  0  0  0  0
 10 14  1  0  0  0  0
 10 11  2  0  0  0  0
 11 12  1  0  0  0  0
 12 13  2  0  0  0  0
 12 32  1  0  0  0  0
 13 14  1  0  0  0  0
 13 33  1  0  0  0  0
 15 20  1  0  0  0  0
 15 16  1  0  0  0  0
 16 17  1  0  0  0  0
 16 34  1  0  0  0  0
 16 35  1  0  0  0  0
 17 18  1  0  0  0  0
 17 36  1  0  0  0  0
 17 37  1  0  0  0  0
 18 19  1  0  0  0  0
 19 20  1  0  0  0  0
 19 38  1  0  0  0  0
 19 39  1  0  0  0  0
 20 40  1  0  0  0  0
 20 41  1  0  0  0  0
M  CHG  1   9  -1
M  END
> <s_m_source_file>
AV-unprocessed.smi

> <i_m_source_file_index>
1995

> <i_lp_mmshare_version>
43012

> <i_f3d_flags>
0

> <s_epik_input>
W0NIMl0xW0NIMl1PW0NIMl1bQ0gyXU4xW0NAQF0oW0NIM10pKFtDSDJdW0NIM10pW0NIMl1bTkhdQyg9TylbTkhdYzJuW2NIXVtjSF1zMg==

> <s_epik_cmdline>
J2VwaWtfcHl0aG9uJywgJy1waCcsICc3LjAnLCAnLXRuJywgJzgnLCAnLW1hJywgJzIwMCcsICctbWV0YWxfYmluZGluZycsICctaW1hZScsICc8aW5maWxlLm1hZT4nLCAnLW9tYWUnLCAnPG91dGZpbGUubWFlPic=

> <r_lp_tautomer_probability>
0.999

> <r_epik_Ionization_Penalty>
8.86479

> <r_epik_Ionization_Penalty_Charging>
6.76546

> <r_epik_Ionization_Penalty_Neutral>
2.09933

> <r_epik_State_Penalty>
7.05418

> <r_epik_Charging_Adjusted_Penalty>
13.8196

> <i_epik_Tot_Q>
-1

> <i_epik_Tot_abs_Q>
1

> <r_epik_Metal_State_Penalty>
2.97744

> <b_epik_Metal_Only>
1

> <s_lp_Force_Field>
OPLS_2005

> <r_lp_Energy>
37.7031

> <b_lp_Chiralities_Consistent>
1

> <s_lp_Variant>
AV-unprocessed.smi:1995-5

> <Gold.Version>
5.8.1

> <Gold.Id.Protein>
6NUR|6NUR_protein|mol2

> <Gold.PLP.Fitness>
48.1126

> <Gold.PLP.PLP>
-38.6230

> <Gold.PLP.part.hbond>
-3.0000

> <Gold.PLP.part.metal>
0.0000

> <Gold.PLP.part.buried>
-6.5202

> <Gold.PLP.part.nonpolar>
-31.5568

> <Gold.PLP.part.repulsive>
0.2321

> <Gold.PLP.ligand.clash>
0.0000

> <Gold.PLP.ligand.torsion>
0.4940

> <Gold.PLP.Chemscore.Hbond>
3.3922

> <Gold.PLP.Chemscore.CHOScore>
0.0000

> <Gold.PLP.Chemscore.Metal>
0.0000

> <Gold.Chemscore.Hbonds>
donor molecule, donor type, donor heavy atom, donor atom, acceptor molecule, acceptor atom, score
      P1  H  6896  6908       L1     8  1.00
      P1  H  6931  6943       L1     9  1.57
      P1  H  6934  6947       L1     9  0.65

> <Gold.PLP.Chemscore.Internal.Correction>
0.3011

> <Gold.Rescore>
     Score         DG    S(hbond)    S(metal)    S(lipo)     H(rot)  DE(clash)    DE(int)     intcor
     14.50     -16.47       1.48        0.00      88.90       1.70       0.03       1.94       ----

> <Gold.Chemscore.Fitness>
14.4994

> <Gold.Chemscore.DG>
-16.4667

> <Gold.Chemscore.ZeroCoef>
-5.4800

> <Gold.Chemscore.Hbond>
1.4773

> <Gold.Chemscore.Metal>
0.0000

> <Gold.Chemscore.Lipo>
88.8953

> <Gold.Chemscore.Internal_Hbond>
0.0000

> <Gold.Chemscore.DEClash>
0.0253

> <Gold.Chemscore.DEInternal>
1.9420

> <Gold.Chemscore.Rot>
1.6985

> <Gold.Chemscore.Internal.Correction>
   9.000000E+99

> <Gold.Chemscore.Hbonds>
donor molecule, donor type, donor heavy atom, donor atom, acceptor molecule, acceptor atom, score
      P1  H  6896  6908       L1     8  0.97
      P1  H  6931  6943       L1     9  0.19
      P1  H  6934  6947       L1     9  0.28

> <Gold.Chemscore.Hbond.Weighted>
-4.9342

> <Gold.Chemscore.Metal.Weighted>
-0.0000

> <Gold.Chemscore.Lipo.Weighted>
-10.4008

> <Gold.Chemscore.Internal_Hbond.Weighted>
0.0000

> <Gold.Chemscore.DEClash.Weighted>
0.0253

> <Gold.Chemscore.DEInternal.Weighted>
1.9420

> <Gold.Chemscore.Rot.Weighted>
4.3482

> <Gold.Chemscore.Internal.Correction.Weighted>
   9.000000E+99

> <Gold.Protein.RotatedTorsions>
[ 6907 6896 6895 6894 ] final  161.92 input  -60.11 | X-H torsion
[ 7974 7965 7964 7962 ] final  -98.16 input  175.53 | X-H torsion
[ 8008 7997 7996 7995 ] final  -46.85 input   59.86 | X-H torsion
[ 10167 10162 10161 10158 ] final    6.05 input  -65.29 | X-H torsion
[ 10718 10713 10712 10709 ] final  109.26 input   66.30 | X-H torsion
[ 10763 10752 10751 10750 ] final   26.13 input  -60.55 | X-H torsion
[ 11005 11000 10999 10996 ] final  111.97 input  -57.11 | X-H torsion

> <Gold.Protein.ActiveResidues>
 VAL166  LYS551  ARG553  GLY616  TRP617  ASP618  TYR619  PRO620  LYS621  CYS622 
 ASP623  PHE694  ASN695  SER759  ASP760  ASP761  ALA762  ILE779  LEU786  VAL792 
 PHE793  MET794  SER795  GLU796  ALA797  LYS798  CYS799  TRP800  GLU811  SER814 

> <Gold.Protein.RotatedAtoms>
  151.9483  133.3658  159.3990 H   0  0  0  0  0  0  0  0  0  0  0  0  # atno 6907 bound_to 6896
  150.6985  134.4367  159.5282 H   0  0  0  0  0  0  0  0  0  0  0  0  # atno 6908 bound_to 6896
  152.2036  134.8566  160.0556 H   0  0  0  0  0  0  0  0  0  0  0  0  # atno 6909 bound_to 6896
  145.3242  140.9428  143.2698 H   0  0  0  0  0  0  0  0  0  0  0  0  # atno 7974 bound_to 7965
  154.4011  140.1361  156.4079 H   0  0  0  0  0  0  0  0  0  0  0  0  # atno 8008 bound_to 7997
  155.7762  140.3482  155.5252 H   0  0  0  0  0  0  0  0  0  0  0  0  # atno 8009 bound_to 7997
  155.8719  140.0973  157.1535 H   0  0  0  0  0  0  0  0  0  0  0  0  # atno 8010 bound_to 7997
  140.6449  143.7686  150.7484 H   0  0  0  0  0  0  0  0  0  0  0  0  # atno 10167 bound_to 10162
  157.6549  131.0910  150.6428 H   0  0  0  0  0  0  0  0  0  0  0  0  # atno 10718 bound_to 10713
  153.0644  135.6567  154.0388 H   0  0  0  0  0  0  0  0  0  0  0  0  # atno 10763 bound_to 10752
  154.0049  135.2933  155.3400 H   0  0  0  0  0  0  0  0  0  0  0  0  # atno 10764 bound_to 10752
  154.6996  135.5250  153.8576 H   0  0  0  0  0  0  0  0  0  0  0  0  # atno 10765 bound_to 10752
  139.8916  134.9520  156.6514 H   0  0  0  0  0  0  0  0  0  0  0  0  # atno 11005 bound_to 11000
  144.8915  139.4769  143.6676 LP  0  0  0  0  0  0  0  0  0  0  0  0  # atno 17320 bound_to 7965
  146.3070  139.7615  142.9048 LP  0  0  0  0  0  0  0  0  0  0  0  0  # atno 17321 bound_to 7965
  140.1325  143.4513  152.2245 LP  0  0  0  0  0  0  0  0  0  0  0  0  # atno 17342 bound_to 10162
  139.5659  144.7435  151.4023 LP  0  0  0  0  0  0  0  0  0  0  0  0  # atno 17343 bound_to 10162
  156.6735  130.4546  149.5650 LP  0  0  0  0  0  0  0  0  0  0  0  0  # atno 17370 bound_to 10713
  156.1980  130.6602  151.1136 LP  0  0  0  0  0  0  0  0  0  0  0  0  # atno 17371 bound_to 10713
  140.7518  133.8891  155.8352 LP  0  0  0  0  0  0  0  0  0  0  0  0  # atno 17394 bound_to 11000
  140.9994  134.1170  157.4331 LP  0  0  0  0  0  0  0  0  0  0  0  0  # atno 17395 bound_to 11000

$$$$
