AV-unprocessed.smi:173|AV-procd|sdf|1424|dock6
  -GOLD-   2262019193D 1   1.00000     0.00000
 Structure written by MMmdl.
 60 64  0  0  0  0  0  0  0  0  1 V2000
  145.9760  139.8902  154.1386 O   0  0  0  0  0  0  0  0  0  0  0  0
  146.9992  139.1471  153.5007 C   0  0  0  0  0  0  0  0  0  0  0  0
  148.1387  140.1638  153.2349 C   0  0  0  0  0  0  0  0  0  0  0  0
  148.8938  140.5440  154.4184 N   0  0  0  0  0  0  0  0  0  0  0  0
  148.5150  141.4527  155.3806 C   0  0  0  0  0  0  0  0  0  0  0  0
  149.3673  141.6211  156.3537 N   0  0  0  0  0  0  0  0  0  0  0  0
  150.4212  140.7735  156.0329 C   0  0  0  0  0  0  0  0  0  0  0  0
  151.6636  140.4498  156.6490 C   0  0  0  0  0  0  0  0  0  0  0  0
  152.1087  140.9771  157.8139 N   0  0  0  0  0  0  0  0  0  0  0  0
  151.1251  141.8216  158.4935 C   0  0  0  0  0  0  0  0  0  0  0  0
  151.2917  143.3167  158.1764 C   0  0  1  0  0  0  0  0  0  0  0  0
  150.7255  144.2291  159.2599 C   0  0  0  0  0  0  0  0  0  0  0  0
  151.4370  145.5402  158.9889 C   0  0  0  0  0  0  0  0  0  0  0  0
  152.7550  145.1038  158.3433 C   0  0  0  0  0  0  0  0  0  0  0  0
  152.6615  143.6930  158.1756 O   0  0  0  0  0  0  0  0  0  0  0  0
  153.0080  140.1478  158.6309 C   0  0  0  0  0  0  0  0  0  0  0  0
  152.4132  138.8690  159.2364 C   0  0  0  0  0  0  0  0  0  0  0  0
  153.4694  138.4298  160.2539 C   0  0  0  0  0  0  0  0  0  0  0  0
  154.1732  139.7168  160.7177 C   0  0  0  0  0  0  0  0  0  0  0  0
  153.6236  140.8531  159.8446 C   0  0  0  0  0  0  0  0  0  0  0  0
  152.4719  139.5617  156.0174 N   0  0  0  0  0  0  0  0  0  0  0  0
  152.0870  139.0083  154.8637 C   0  0  0  0  0  0  0  0  0  0  0  0
  150.9567  139.2022  154.1809 N   0  0  0  0  0  0  0  0  0  0  0  0
  150.1449  140.1000  154.8101 C   0  0  0  0  0  0  0  0  0  0  0  0
  147.4247  138.0000  154.4433 C   0  0  0  0  0  0  0  0  0  0  0  0
  146.3079  136.9542  154.6159 C   0  0  0  0  0  0  0  0  0  0  0  0
  145.9088  136.4536  153.3453 O   0  0  0  0  0  0  0  0  0  0  0  0
  145.3591  137.4610  152.5042 C   0  0  0  0  0  0  0  0  0  0  0  0
  146.4213  138.5343  152.2065 C   0  0  0  0  0  0  0  0  0  0  0  0
  145.3526  140.1660  153.4839 H   0  0  0  0  0  0  0  0  0  0  0  0
  148.8402  139.7608  152.5027 H   0  0  0  0  0  0  0  0  0  0  0  0
  147.7312  141.0745  152.7927 H   0  0  0  0  0  0  0  0  0  0  0  0
  147.5749  141.9837  155.3420 H   0  0  0  0  0  0  0  0  0  0  0  0
  150.1271  141.5170  158.1729 H   0  0  0  0  0  0  0  0  0  0  0  0
  151.1652  141.6588  159.5709 H   0  0  0  0  0  0  0  0  0  0  0  0
  150.8386  143.5650  157.2145 H   0  0  0  0  0  0  0  0  0  0  0  0
  149.6396  144.3171  159.2192 H   0  0  0  0  0  0  0  0  0  0  0  0
  151.0000  143.8570  160.2482 H   0  0  0  0  0  0  0  0  0  0  0  0
  150.8603  146.1442  158.2874 H   0  0  0  0  0  0  0  0  0  0  0  0
  151.5853  146.1266  159.8961 H   0  0  0  0  0  0  0  0  0  0  0  0
  152.8917  145.5864  157.3751 H   0  0  0  0  0  0  0  0  0  0  0  0
  153.6155  145.3444  158.9680 H   0  0  0  0  0  0  0  0  0  0  0  0
  153.8232  139.8255  157.9834 H   0  0  0  0  0  0  0  0  0  0  0  0
  151.4868  139.0744  159.7740 H   0  0  0  0  0  0  0  0  0  0  0  0
  152.2062  138.1037  158.4880 H   0  0  0  0  0  0  0  0  0  0  0  0
  153.0284  137.8773  161.0841 H   0  0  0  0  0  0  0  0  0  0  0  0
  154.1929  137.7713  159.7714 H   0  0  0  0  0  0  0  0  0  0  0  0
  153.9905  139.9165  161.7742 H   0  0  0  0  0  0  0  0  0  0  0  0
  155.2516  139.6195  160.5869 H   0  0  0  0  0  0  0  0  0  0  0  0
  154.3939  141.5726  159.5654 H   0  0  0  0  0  0  0  0  0  0  0  0
  152.8577  141.3881  160.4052 H   0  0  0  0  0  0  0  0  0  0  0  0
  152.7838  138.3087  154.4263 H   0  0  0  0  0  0  0  0  0  0  0  0
  148.2961  137.4882  154.0357 H   0  0  0  0  0  0  0  0  0  0  0  0
  147.7251  138.3930  155.4154 H   0  0  0  0  0  0  0  0  0  0  0  0
  146.6685  136.1225  155.2213 H   0  0  0  0  0  0  0  0  0  0  0  0
  145.4486  137.3753  155.1399 H   0  0  0  0  0  0  0  0  0  0  0  0
  145.0283  136.9978  151.5745 H   0  0  0  0  0  0  0  0  0  0  0  0
  144.4747  137.8982  152.9700 H   0  0  0  0  0  0  0  0  0  0  0  0
  146.0025  139.3117  151.5665 H   0  0  0  0  0  0  0  0  0  0  0  0
  147.2175  138.0598  151.6332 H   0  0  0  0  0  0  0  0  0  0  0  0
  1  2  1  0  0  0  0
  1 30  1  0  0  0  0
  2 29  1  0  0  0  0
  2  3  1  0  0  0  0
  2 25  1  0  0  0  0
  3  4  1  0  0  0  0
  3 31  1  0  0  0  0
  3 32  1  0  0  0  0
  4 24  1  0  0  0  0
  4  5  1  0  0  0  0
  5  6  2  0  0  0  0
  5 33  1  0  0  0  0
  6  7  1  0  0  0  0
  7 24  2  0  0  0  0
  7  8  1  0  0  0  0
  8  9  1  0  0  0  0
  8 21  2  0  0  0  0
  9 10  1  0  0  0  0
  9 16  1  0  0  0  0
 10 11  1  0  0  0  0
 10 34  1  0  0  0  0
 10 35  1  0  0  0  0
 11 15  1  0  0  0  0
 11 12  1  0  0  0  0
 11 36  1  0  0  0  0
 12 13  1  0  0  0  0
 12 37  1  0  0  0  0
 12 38  1  0  0  0  0
 13 14  1  0  0  0  0
 13 39  1  0  0  0  0
 13 40  1  0  0  0  0
 14 15  1  0  0  0  0
 14 41  1  0  0  0  0
 14 42  1  0  0  0  0
 16 20  1  0  0  0  0
 16 17  1  0  0  0  0
 16 43  1  0  0  0  0
 17 18  1  0  0  0  0
 17 44  1  0  0  0  0
 17 45  1  0  0  0  0
 18 19  1  0  0  0  0
 18 46  1  0  0  0  0
 18 47  1  0  0  0  0
 19 20  1  0  0  0  0
 19 48  1  0  0  0  0
 19 49  1  0  0  0  0
 20 50  1  0  0  0  0
 20 51  1  0  0  0  0
 21 22  1  0  0  0  0
 22 23  2  0  0  0  0
 22 52  1  0  0  0  0
 23 24  1  0  0  0  0
 25 26  1  0  0  0  0
 25 53  1  0  0  0  0
 25 54  1  0  0  0  0
 26 27  1  0  0  0  0
 26 55  1  0  0  0  0
 26 56  1  0  0  0  0
 27 28  1  0  0  0  0
 28 29  1  0  0  0  0
 28 57  1  0  0  0  0
 28 58  1  0  0  0  0
 29 59  1  0  0  0  0
 29 60  1  0  0  0  0
M  END
> <s_m_source_file>
AV-unprocessed.smi

> <i_m_source_file_index>
173

> <i_lp_mmshare_version>
43012

> <i_f3d_flags>
0

> <s_epik_input>
W0NIMl0xW0NIMl1PW0NIMl1bQ0gyXUMxKFtPSF0pW0NIMl1uKFtjSF1uMiljKGMyMyluW2NIXW5jM04oW0NIMl1bQ0BASF00W0NIMl1bQ0gyXVtDSDJdTzQpW0NIXTVbQ0gyXVtDSDJdW0NIMl1bQ0gyXTU=

> <s_epik_cmdline>
J2VwaWtfcHl0aG9uJywgJy1waCcsICc3LjAnLCAnLXRuJywgJzgnLCAnLW1hJywgJzIwMCcsICctbWV0YWxfYmluZGluZycsICctaW1hZScsICc8aW5maWxlLm1hZT4nLCAnLW9tYWUnLCAnPG91dGZpbGUubWFlPic=

> <r_lp_tautomer_probability>
1

> <r_epik_Ionization_Penalty>
0.0053129

> <r_epik_Ionization_Penalty_Charging>
0

> <r_epik_Ionization_Penalty_Neutral>
0.0053129

> <r_epik_State_Penalty>
0.00367355

> <r_epik_Charging_Adjusted_Penalty>
0.00367355

> <i_epik_Tot_Q>
0

> <i_epik_Tot_abs_Q>
0

> <r_epik_Metal_State_Penalty>
-0

> <b_epik_Metal_Only>
0

> <s_lp_Force_Field>
OPLS_2005

> <r_lp_Energy>
59.0129

> <b_lp_Chiralities_Consistent>
1

> <s_lp_Variant>
AV-unprocessed.smi:173-2

> <Gold.Version>
5.8.1

> <Gold.Id.Protein>
6NUR|6NUR_protein|mol2

> <Gold.PLP.Fitness>
52.4764

> <Gold.PLP.PLP>
-48.6710

> <Gold.PLP.part.hbond>
-3.0000

> <Gold.PLP.part.metal>
0.0000

> <Gold.PLP.part.buried>
-0.2949

> <Gold.PLP.part.nonpolar>
-45.8921

> <Gold.PLP.part.repulsive>
0.4279

> <Gold.PLP.ligand.clash>
0.0000

> <Gold.PLP.ligand.torsion>
1.7932

> <Gold.PLP.Chemscore.Hbond>
2.0825

> <Gold.PLP.Chemscore.CHOScore>
0.0000

> <Gold.PLP.Chemscore.Metal>
0.0000

> <Gold.Chemscore.Hbonds>
donor molecule, donor type, donor heavy atom, donor atom, acceptor molecule, acceptor atom, score
      L1  H     1    30       P1 10175  1.00
      P1  H  7997  8010       L1    21  1.00

> <Gold.PLP.Chemscore.Internal.Correction>
1.1443

> <Gold.Rescore>
     Score         DG    S(hbond)    S(metal)    S(lipo)     H(rot)  DE(clash)    DE(int)     intcor
     13.27     -16.81       1.55        0.00     109.18       2.59       0.15       3.39       ----

> <Gold.Chemscore.Fitness>
13.2675

> <Gold.Chemscore.DG>
-16.8073

> <Gold.Chemscore.ZeroCoef>
-5.4800

> <Gold.Chemscore.Hbond>
1.5534

> <Gold.Chemscore.Metal>
0.0000

> <Gold.Chemscore.Lipo>
109.1753

> <Gold.Chemscore.Internal_Hbond>
0.0000

> <Gold.Chemscore.DEClash>
0.1526

> <Gold.Chemscore.DEInternal>
3.3872

> <Gold.Chemscore.Rot>
2.5916

> <Gold.Chemscore.Internal.Correction>
   9.000000E+99

> <Gold.Chemscore.Hbonds>
donor molecule, donor type, donor heavy atom, donor atom, acceptor molecule, acceptor atom, score
      L1  H     1    30       P1 10175  0.98
      P1  H  7997  8010       L1    21  0.70

> <Gold.Chemscore.Hbond.Weighted>
-5.1884

> <Gold.Chemscore.Metal.Weighted>
-0.0000

> <Gold.Chemscore.Lipo.Weighted>
-12.7735

> <Gold.Chemscore.Internal_Hbond.Weighted>
0.0000

> <Gold.Chemscore.DEClash.Weighted>
0.1526

> <Gold.Chemscore.DEInternal.Weighted>
3.3872

> <Gold.Chemscore.Rot.Weighted>
6.6346

> <Gold.Chemscore.Internal.Correction.Weighted>
   9.000000E+99

> <Gold.Protein.RotatedTorsions>
[ 6907 6896 6895 6894 ] final  -86.22 input  -60.11 | X-H torsion
[ 7974 7965 7964 7962 ] final   70.56 input  175.53 | X-H torsion
[ 8008 7997 7996 7995 ] final   87.67 input   59.86 | X-H torsion
[ 10167 10162 10161 10158 ] final -158.15 input  -65.29 | X-H torsion
[ 10718 10713 10712 10709 ] final  -71.08 input   66.30 | X-H torsion
[ 10763 10752 10751 10750 ] final  -92.01 input  -60.55 | X-H torsion
[ 11005 11000 10999 10996 ] final  -59.73 input  -57.11 | X-H torsion

> <Gold.Protein.ActiveResidues>
 VAL166  LYS551  ARG553  GLY616  TRP617  ASP618  TYR619  PRO620  LYS621  CYS622 
 ASP623  PHE694  ASN695  SER759  ASP760  ASP761  ALA762  ILE779  LEU786  VAL792 
 PHE793  MET794  SER795  GLU796  ALA797  LYS798  CYS799  TRP800  GLU811  SER814 

> <Gold.Protein.RotatedAtoms>
  150.6867  134.3084  159.4735 H   0  0  0  0  0  0  0  0  0  0  0  0  # atno 6907 bound_to 6896
  152.0972  134.9364  160.0579 H   0  0  0  0  0  0  0  0  0  0  0  0  # atno 6908 bound_to 6896
  152.0657  133.4048  159.4474 H   0  0  0  0  0  0  0  0  0  0  0  0  # atno 6909 bound_to 6896
  145.7766  139.2868  143.1290 H   0  0  0  0  0  0  0  0  0  0  0  0  # atno 7974 bound_to 7965
  155.9782  140.3379  155.6638 H   0  0  0  0  0  0  0  0  0  0  0  0  # atno 8008 bound_to 7997
  155.6584  140.0713  157.2581 H   0  0  0  0  0  0  0  0  0  0  0  0  # atno 8009 bound_to 7997
  154.4184  140.1713  156.1737 H   0  0  0  0  0  0  0  0  0  0  0  0  # atno 8010 bound_to 7997
  139.6715  143.9737  152.2286 H   0  0  0  0  0  0  0  0  0  0  0  0  # atno 10167 bound_to 10162
  156.0379  130.4344  150.2391 H   0  0  0  0  0  0  0  0  0  0  0  0  # atno 10718 bound_to 10713
  154.6818  135.5247  153.8273 H   0  0  0  0  0  0  0  0  0  0  0  0  # atno 10763 bound_to 10752
  153.0570  135.6554  154.0564 H   0  0  0  0  0  0  0  0  0  0  0  0  # atno 10764 bound_to 10752
  154.0450  135.2974  155.3329 H   0  0  0  0  0  0  0  0  0  0  0  0  # atno 10765 bound_to 10752
  141.1260  133.6618  156.5116 H   0  0  0  0  0  0  0  0  0  0  0  0  # atno 11005 bound_to 11000
  146.0116  140.8430  142.9968 LP  0  0  0  0  0  0  0  0  0  0  0  0  # atno 17320 bound_to 7965
  144.6803  140.2499  143.7333 LP  0  0  0  0  0  0  0  0  0  0  0  0  # atno 17321 bound_to 7965
  139.9503  144.6625  150.8179 LP  0  0  0  0  0  0  0  0  0  0  0  0  # atno 17342 bound_to 10162
  140.7620  143.3187  151.2673 LP  0  0  0  0  0  0  0  0  0  0  0  0  # atno 17343 bound_to 10162
  157.0489  131.0057  151.3260 LP  0  0  0  0  0  0  0  0  0  0  0  0  # atno 17370 bound_to 10713
  157.5155  130.7965  149.7751 LP  0  0  0  0  0  0  0  0  0  0  0  0  # atno 17371 bound_to 10713
  140.4364  134.7055  157.4969 LP  0  0  0  0  0  0  0  0  0  0  0  0  # atno 17394 bound_to 11000
  140.0258  134.6479  155.9174 LP  0  0  0  0  0  0  0  0  0  0  0  0  # atno 17395 bound_to 11000

$$$$
