AV-unprocessed.smi:1484|AV-procd|sdf|5994|dock9
  -GOLD-   22720 6 93D 1   1.00000     0.00000
 Structure written by MMmdl.
 37 38  0  0  0  0  0  0  0  0  2 V2000
  151.8844  145.1091  159.1753 C   0  0  0  0  0  0  0  0  0  0  0  0
  152.4905  143.7064  159.0244 C   0  0  1  0  0  0  0  0  0  0  0  0
  152.7825  143.0678  160.3959 C   0  0  0  0  0  0  0  0  0  0  0  0
  153.3891  141.6635  160.2467 C   0  0  0  0  0  0  0  0  0  0  0  0
  152.4866  140.7515  159.4016 C   0  0  0  0  0  0  0  0  0  0  0  0
  152.1858  141.3776  158.0272 C   0  0  1  0  0  0  0  0  0  0  0  0
  151.2605  140.5244  157.2866 N   0  0  0  0  0  0  0  0  0  0  0  0
  151.5114  139.9143  156.1176 C   0  0  0  0  0  0  0  0  0  0  0  0
  152.5826  140.0175  155.5174 O   0  0  0  0  0  0  0  0  0  0  0  0
  150.3609  139.0604  155.5603 C   0  0  0  0  0  0  0  0  0  0  0  0
  149.0736  139.7647  155.4622 N   0  0  0  0  0  0  0  0  0  0  0  0
  148.0335  139.2151  156.3276 N   0  5  0  0  0  0  0  0  0  0  0  0
  146.8047  139.7963  156.3381 C   0  0  0  0  0  0  0  0  0  0  0  0
  145.8859  139.3995  157.0511 O   0  0  0  0  0  0  0  0  0  0  0  0
  146.5777  140.9328  155.4607 C   0  0  0  0  0  0  0  0  0  0  0  0
  147.5487  141.4031  154.6533 C   0  0  0  0  0  0  0  0  0  0  0  0
  148.8812  140.8131  154.6115 C   0  0  0  0  0  0  0  0  0  0  0  0
  149.7694  141.2311  153.8683 O   0  0  0  0  0  0  0  0  0  0  0  0
  151.5821  142.7863  158.1852 C   0  0  0  0  0  0  0  0  0  0  0  0
  150.9269  145.0745  159.6960 H   0  0  0  0  0  0  0  0  0  0  0  0
  151.7170  145.5707  158.2017 H   0  0  0  0  0  0  0  0  0  0  0  0
  152.5472  145.7647  159.7408 H   0  0  0  0  0  0  0  0  0  0  0  0
  153.4384  143.8147  158.4951 H   0  0  0  0  0  0  0  0  0  0  0  0
  153.4639  143.7008  160.9653 H   0  0  0  0  0  0  0  0  0  0  0  0
  151.8615  143.0050  160.9772 H   0  0  0  0  0  0  0  0  0  0  0  0
  154.3725  141.7371  159.7808 H   0  0  0  0  0  0  0  0  0  0  0  0
  153.5459  141.2205  161.2305 H   0  0  0  0  0  0  0  0  0  0  0  0
  152.9633  139.7789  159.2732 H   0  0  0  0  0  0  0  0  0  0  0  0
  151.5540  140.5705  159.9383 H   0  0  0  0  0  0  0  0  0  0  0  0
  153.1268  141.4766  157.4829 H   0  0  0  0  0  0  0  0  0  0  0  0
  150.3511  140.3796  157.7005 H   0  0  0  0  0  0  0  0  0  0  0  0
  150.6487  138.6852  154.5768 H   0  0  0  0  0  0  0  0  0  0  0  0
  150.2584  138.1746  156.1900 H   0  0  0  0  0  0  0  0  0  0  0  0
  145.6083  141.4090  155.4543 H   0  0  0  0  0  0  0  0  0  0  0  0
  147.3351  142.2484  154.0164 H   0  0  0  0  0  0  0  0  0  0  0  0
  150.6008  142.7151  158.6569 H   0  0  0  0  0  0  0  0  0  0  0  0
  151.4194  143.2271  157.2006 H   0  0  0  0  0  0  0  0  0  0  0  0
  1  2  1  0  0  0  0
  1 20  1  0  0  0  0
  1 21  1  0  0  0  0
  1 22  1  0  0  0  0
  2 19  1  0  0  0  0
  2  3  1  0  0  0  0
  2 23  1  0  0  0  0
  3  4  1  0  0  0  0
  3 24  1  0  0  0  0
  3 25  1  0  0  0  0
  4  5  1  0  0  0  0
  4 26  1  0  0  0  0
  4 27  1  0  0  0  0
  5  6  1  0  0  0  0
  5 28  1  0  0  0  0
  5 29  1  0  0  0  0
  6  7  1  0  0  0  0
  6 19  1  0  0  0  0
  6 30  1  0  0  0  0
  7  8  1  0  0  0  0
  7 31  1  0  0  0  0
  8  9  2  0  0  0  0
  8 10  1  0  0  0  0
 10 32  1  0  0  0  0
 10 33  1  0  0  0  0
 10 11  1  0  0  0  0
 11 12  1  0  0  0  0
 11 17  1  0  0  0  0
 12 13  1  0  0  0  0
 13 14  2  0  0  0  0
 13 15  1  0  0  0  0
 15 34  1  0  0  0  0
 15 16  2  0  0  0  0
 16 35  1  0  0  0  0
 16 17  1  0  0  0  0
 17 18  2  0  0  0  0
 19 36  1  0  0  0  0
 19 37  1  0  0  0  0
M  CHG  1  12  -1
M  END
> <s_m_source_file>
AV-unprocessed.smi

> <i_m_source_file_index>
1484

> <i_lp_mmshare_version>
43012

> <i_f3d_flags>
0

> <s_epik_input>
W0NIM11bQ0BASF0xW0NIMl1bQ0gyXVtDSDJdW0NASF0oW0NIMl0xKVtOSF1DKD1PKVtDSDJdbjJbbkhdYyg9TylbY0hdW2NIXWMyPU8=

> <s_epik_cmdline>
J2VwaWtfcHl0aG9uJywgJy1waCcsICc3LjAnLCAnLXRuJywgJzgnLCAnLW1hJywgJzIwMCcsICctbWV0YWxfYmluZGluZycsICctaW1hZScsICc8aW5maWxlLm1hZT4nLCAnLW9tYWUnLCAnPG91dGZpbGUubWFlPic=

> <r_lp_tautomer_probability>
1

> <r_epik_Ionization_Penalty>
0.101352

> <r_epik_Ionization_Penalty_Charging>
0.101352

> <r_epik_Ionization_Penalty_Neutral>
1.90469e-08

> <r_epik_State_Penalty>
0.0358555

> <r_epik_Charging_Adjusted_Penalty>
0.137208

> <i_epik_Tot_Q>
-1

> <i_epik_Tot_abs_Q>
1

> <r_epik_Metal_State_Penalty>
0.0358555

> <b_epik_Metal_Only>
0

> <s_lp_Force_Field>
OPLS_2005

> <r_lp_Energy>
25.5617

> <b_lp_Chiralities_Consistent>
1

> <s_lp_Variant>
AV-unprocessed.smi:1484-2

> <Gold.Version>
5.8.1

> <Gold.Id.Protein>
6NUR|6NUR_protein|mol2

> <Gold.PLP.Fitness>
41.0097

> <Gold.PLP.PLP>
-34.6202

> <Gold.PLP.part.hbond>
-2.9142

> <Gold.PLP.part.metal>
0.0000

> <Gold.PLP.part.buried>
-3.8559

> <Gold.PLP.part.nonpolar>
-29.3579

> <Gold.PLP.part.repulsive>
1.8829

> <Gold.PLP.ligand.clash>
0.0000

> <Gold.PLP.ligand.torsion>
0.0836

> <Gold.PLP.Chemscore.Hbond>
2.1840

> <Gold.PLP.Chemscore.CHOScore>
0.0000

> <Gold.PLP.Chemscore.Metal>
0.0000

> <Gold.Chemscore.Hbonds>
donor molecule, donor type, donor heavy atom, donor atom, acceptor molecule, acceptor atom, score
      P1  H  7989  7998       L1    18  0.29
      P1  H  7997  8008       L1     9  1.00
      P1  H  8011  8017       L1    18  0.80

> <Gold.PLP.Chemscore.Internal.Correction>
0.0047

> <Gold.Rescore>
     Score         DG    S(hbond)    S(metal)    S(lipo)     H(rot)  DE(clash)    DE(int)     intcor
     18.06     -18.61       2.11        0.00      88.30       1.65       0.46       0.09       ----

> <Gold.Chemscore.Fitness>
18.0632

> <Gold.Chemscore.DG>
-18.6088

> <Gold.Chemscore.ZeroCoef>
-5.4800

> <Gold.Chemscore.Hbond>
2.1060

> <Gold.Chemscore.Metal>
0.0000

> <Gold.Chemscore.Lipo>
88.3002

> <Gold.Chemscore.Internal_Hbond>
0.0000

> <Gold.Chemscore.DEClash>
0.4605

> <Gold.Chemscore.DEInternal>
0.0851

> <Gold.Chemscore.Rot>
1.6549

> <Gold.Chemscore.Internal.Correction>
   9.000000E+99

> <Gold.Chemscore.Hbonds>
donor molecule, donor type, donor heavy atom, donor atom, acceptor molecule, acceptor atom, score
      P1  H  7989  7998       L1    18  0.30
      P1  H  7997  8008       L1     9  1.00
      P1  H  8011  8017       L1    18  0.79

> <Gold.Chemscore.Hbond.Weighted>
-7.0342

> <Gold.Chemscore.Metal.Weighted>
-0.0000

> <Gold.Chemscore.Lipo.Weighted>
-10.3311

> <Gold.Chemscore.Internal_Hbond.Weighted>
0.0000

> <Gold.Chemscore.DEClash.Weighted>
0.4605

> <Gold.Chemscore.DEInternal.Weighted>
0.0851

> <Gold.Chemscore.Rot.Weighted>
4.2364

> <Gold.Chemscore.Internal.Correction.Weighted>
   9.000000E+99

> <Gold.Protein.RotatedTorsions>
[ 6907 6896 6895 6894 ] final  135.18 input  -60.11 | X-H torsion
[ 7974 7965 7964 7962 ] final  -94.42 input  175.53 | X-H torsion
[ 8008 7997 7996 7995 ] final  -32.50 input   59.86 | X-H torsion
[ 10167 10162 10161 10158 ] final -138.64 input  -65.29 | X-H torsion
[ 10718 10713 10712 10709 ] final  -70.40 input   66.30 | X-H torsion
[ 10763 10752 10751 10750 ] final    1.97 input  -60.55 | X-H torsion
[ 11005 11000 10999 10996 ] final  120.53 input  -57.11 | X-H torsion

> <Gold.Protein.ActiveResidues>
 VAL166  LYS551  ARG553  GLY616  TRP617  ASP618  TYR619  PRO620  LYS621  CYS622 
 ASP623  PHE694  ASN695  SER759  ASP760  ASP761  ALA762  ILE779  LEU786  VAL792 
 PHE793  MET794  SER795  GLU796  ALA797  LYS798  CYS799  TRP800  GLU811  SER814 

> <Gold.Protein.RotatedAtoms>
  152.3033  133.5677  159.5632 H   0  0  0  0  0  0  0  0  0  0  0  0  # atno 6907 bound_to 6896
  150.7287  134.0260  159.3726 H   0  0  0  0  0  0  0  0  0  0  0  0  # atno 6908 bound_to 6896
  151.8158  135.0667  160.0469 H   0  0  0  0  0  0  0  0  0  0  0  0  # atno 6909 bound_to 6896
  145.3735  140.9508  143.2434 H   0  0  0  0  0  0  0  0  0  0  0  0  # atno 7974 bound_to 7965
  154.4178  140.1736  156.1737 H   0  0  0  0  0  0  0  0  0  0  0  0  # atno 8008 bound_to 7997
  155.9739  140.3383  155.6577 H   0  0  0  0  0  0  0  0  0  0  0  0  # atno 8009 bound_to 7997
  155.6589  140.0698  157.2552 H   0  0  0  0  0  0  0  0  0  0  0  0  # atno 8010 bound_to 7997
  139.8458  143.7262  152.2661 H   0  0  0  0  0  0  0  0  0  0  0  0  # atno 10167 bound_to 10162
  156.0410  130.4331  150.2290 H   0  0  0  0  0  0  0  0  0  0  0  0  # atno 10718 bound_to 10713
  153.3014  135.6956  153.7200 H   0  0  0  0  0  0  0  0  0  0  0  0  # atno 10763 bound_to 10752
  153.6112  135.3444  155.2980 H   0  0  0  0  0  0  0  0  0  0  0  0  # atno 10764 bound_to 10752
  154.8551  135.4364  154.2126 H   0  0  0  0  0  0  0  0  0  0  0  0  # atno 10765 bound_to 10752
  139.9189  134.9635  156.7820 H   0  0  0  0  0  0  0  0  0  0  0  0  # atno 11005 bound_to 11000
  144.8559  139.5250  143.6835 LP  0  0  0  0  0  0  0  0  0  0  0  0  # atno 17320 bound_to 7965
  146.2874  139.7044  142.9185 LP  0  0  0  0  0  0  0  0  0  0  0  0  # atno 17321 bound_to 7965
  139.7513  144.7533  151.0502 LP  0  0  0  0  0  0  0  0  0  0  0  0  # atno 17342 bound_to 10162
  140.7793  143.4856  150.9960 LP  0  0  0  0  0  0  0  0  0  0  0  0  # atno 17343 bound_to 10162
  157.0385  131.0028  151.3291 LP  0  0  0  0  0  0  0  0  0  0  0  0  # atno 17370 bound_to 10713
  157.5226  130.8008  149.7826 LP  0  0  0  0  0  0  0  0  0  0  0  0  # atno 17371 bound_to 10713
  140.6536  133.9709  155.7768 LP  0  0  0  0  0  0  0  0  0  0  0  0  # atno 17394 bound_to 11000
  141.0691  134.0232  157.3551 LP  0  0  0  0  0  0  0  0  0  0  0  0  # atno 17395 bound_to 11000

$$$$
