AV-unprocessed.smi:2869|AV-procd|sdf|11028|dock6
  -GOLD-   2272015493D 1   1.00000     0.00000
 Structure written by MMmdl.
 49 51  0  0  0  0  0  0  0  0  1 V2000
  148.4396  136.5259  160.4377 N   0  0  0  0  0  0  0  0  0  0  0  0
  148.9354  136.5593  159.3923 C   0  0  0  0  0  0  0  0  0  0  0  0
  149.5732  136.6007  158.1180 C   0  0  0  0  0  0  0  0  0  0  0  0
  149.9675  137.7624  157.5575 C   0  0  0  0  0  0  0  0  0  0  0  0
  150.5954  137.8185  156.3323 N   0  0  0  0  0  0  0  0  0  0  0  0
  150.8784  139.0735  155.6945 C   0  0  0  0  0  0  0  0  0  0  0  0
  151.8578  140.0499  156.3168 C   0  0  0  0  0  0  0  0  0  0  0  0
  150.3789  140.3493  156.3362 C   0  0  0  0  0  0  0  0  0  0  0  0
  150.7740  136.6425  155.5711 C   0  0  0  0  0  0  0  0  0  0  0  0
  151.2609  136.6833  154.4384 O   0  0  0  0  0  0  0  0  0  0  0  0
  150.3738  135.4129  156.1481 N   0  0  0  0  0  0  0  0  0  0  0  0
  150.6048  134.1633  155.3901 C   0  0  0  0  0  0  0  0  0  0  0  0
  149.3103  133.4506  154.9696 C   0  0  0  0  0  0  0  0  0  0  0  0
  148.9522  132.4059  155.5157 O   0  0  0  0  0  0  0  0  0  0  0  0
  148.6154  134.0432  153.9862 N   0  0  0  0  0  0  0  0  0  0  0  0
  147.3519  133.5677  153.4222 C   0  0  0  0  0  0  0  0  0  0  0  0
  147.6851  132.3863  152.4818 C   0  0  0  0  0  0  0  0  0  0  0  0
  146.6148  131.2852  152.3178 C   0  0  0  0  0  0  0  0  0  0  0  0
  145.2130  131.6980  151.8335 C   0  0  0  0  0  0  0  0  0  0  0  0
  145.1972  132.7635  150.7229 C   0  0  0  0  0  0  0  0  0  0  0  0
  144.6566  134.1326  151.1693 C   0  0  0  0  0  0  0  0  0  0  0  0
  145.1404  134.6601  152.5348 C   0  0  0  0  0  0  0  0  0  0  0  0
  146.6629  134.7701  152.7225 C   0  0  0  0  0  0  0  0  0  0  0  0
  149.7792  135.3265  157.4331 C   0  0  0  0  0  0  0  0  0  0  0  0
  149.4655  134.2370  157.9158 O   0  0  0  0  0  0  0  0  0  0  0  0
  149.7930  138.6860  158.0907 H   0  0  0  0  0  0  0  0  0  0  0  0
  150.8596  139.0532  154.6061 H   0  0  0  0  0  0  0  0  0  0  0  0
  152.3221  139.7821  157.2642 H   0  0  0  0  0  0  0  0  0  0  0  0
  152.4812  140.6325  155.6415 H   0  0  0  0  0  0  0  0  0  0  0  0
  150.0159  141.1342  155.6758 H   0  0  0  0  0  0  0  0  0  0  0  0
  149.8706  140.2771  157.2961 H   0  0  0  0  0  0  0  0  0  0  0  0
  151.1999  134.3582  154.4965 H   0  0  0  0  0  0  0  0  0  0  0  0
  151.2134  133.4605  155.9611 H   0  0  0  0  0  0  0  0  0  0  0  0
  148.9880  134.8978  153.5987 H   0  0  0  0  0  0  0  0  0  0  0  0
  146.7262  133.2010  154.2381 H   0  0  0  0  0  0  0  0  0  0  0  0
  148.0041  132.7651  151.5111 H   0  0  0  0  0  0  0  0  0  0  0  0
  148.5670  131.8726  152.8690 H   0  0  0  0  0  0  0  0  0  0  0  0
  147.0107  130.5519  151.6142 H   0  0  0  0  0  0  0  0  0  0  0  0
  146.5082  130.7488  153.2613 H   0  0  0  0  0  0  0  0  0  0  0  0
  144.7163  130.8013  151.4608 H   0  0  0  0  0  0  0  0  0  0  0  0
  144.6024  132.0056  152.6810 H   0  0  0  0  0  0  0  0  0  0  0  0
  146.1821  132.8788  150.2733 H   0  0  0  0  0  0  0  0  0  0  0  0
  144.5678  132.4086  149.9059 H   0  0  0  0  0  0  0  0  0  0  0  0
  144.8894  134.8667  150.3970 H   0  0  0  0  0  0  0  0  0  0  0  0
  143.5679  134.0792  151.2018 H   0  0  0  0  0  0  0  0  0  0  0  0
  144.7218  135.6616  152.6424 H   0  0  0  0  0  0  0  0  0  0  0  0
  144.7006  134.0963  153.3568 H   0  0  0  0  0  0  0  0  0  0  0  0
  146.8201  135.6528  153.3449 H   0  0  0  0  0  0  0  0  0  0  0  0
  147.1519  135.0048  151.7763 H   0  0  0  0  0  0  0  0  0  0  0  0
  1  2  3  0  0  0  0
  2  3  1  0  0  0  0
  3 24  1  0  0  0  0
  3  4  2  0  0  0  0
  4  5  1  0  0  0  0
  4 26  1  0  0  0  0
  5  6  1  0  0  0  0
  5  9  1  0  0  0  0
  6  8  1  0  0  0  0
  6  7  1  0  0  0  0
  6 27  1  0  0  0  0
  7  8  1  0  0  0  0
  7 28  1  0  0  0  0
  7 29  1  0  0  0  0
  8 30  1  0  0  0  0
  8 31  1  0  0  0  0
  9 10  2  0  0  0  0
  9 11  1  0  0  0  0
 11 12  1  0  0  0  0
 11 24  1  0  0  0  0
 12 13  1  0  0  0  0
 12 32  1  0  0  0  0
 12 33  1  0  0  0  0
 13 14  2  0  0  0  0
 13 15  1  0  0  0  0
 15 16  1  0  0  0  0
 15 34  1  0  0  0  0
 16 23  1  0  0  0  0
 16 17  1  0  0  0  0
 16 35  1  0  0  0  0
 17 18  1  0  0  0  0
 17 36  1  0  0  0  0
 17 37  1  0  0  0  0
 18 19  1  0  0  0  0
 18 38  1  0  0  0  0
 18 39  1  0  0  0  0
 19 20  1  0  0  0  0
 19 40  1  0  0  0  0
 19 41  1  0  0  0  0
 20 21  1  0  0  0  0
 20 42  1  0  0  0  0
 20 43  1  0  0  0  0
 21 22  1  0  0  0  0
 21 44  1  0  0  0  0
 21 45  1  0  0  0  0
 22 23  1  0  0  0  0
 22 46  1  0  0  0  0
 22 47  1  0  0  0  0
 23 48  1  0  0  0  0
 23 49  1  0  0  0  0
 24 25  2  0  0  0  0
M  END
> <s_m_source_file>
AV-unprocessed.smi

> <i_m_source_file_index>
2869

> <i_lp_mmshare_version>
43012

> <i_f3d_flags>
0

> <s_epik_input>
TiNDYzFbY0hdbihbQ0hdMltDSDJdW0NIMl0yKWMoPU8pbihjMT1PKVtDSDJdQyg9TylbTkhdW0NIXTNbQ0gyXVtDSDJdW0NIMl1bQ0gyXVtDSDJdW0NIMl1bQ0gyXTM=

> <s_epik_cmdline>
J2VwaWtfcHl0aG9uJywgJy1waCcsICc3LjAnLCAnLXRuJywgJzgnLCAnLW1hJywgJzIwMCcsICctbWV0YWxfYmluZGluZycsICctaW1hZScsICc8aW5maWxlLm1hZT4nLCAnLW9tYWUnLCAnPG91dGZpbGUubWFlPic=

> <r_lp_tautomer_probability>
1

> <r_epik_Ionization_Penalty>
2.03018e-08

> <r_epik_Ionization_Penalty_Charging>
8.701e-11

> <r_epik_Ionization_Penalty_Neutral>
2.02148e-08

> <r_epik_State_Penalty>
-0

> <r_epik_Charging_Adjusted_Penalty>
8.701e-11

> <i_epik_Tot_Q>
0

> <i_epik_Tot_abs_Q>
0

> <r_epik_Metal_State_Penalty>
-0

> <b_epik_Metal_Only>
0

> <s_lp_Force_Field>
OPLS_2005

> <r_lp_Energy>
47.5685

> <b_lp_Chiralities_Consistent>
1

> <s_lp_Variant>
AV-unprocessed.smi:2869-1

> <Gold.Version>
5.8.1

> <Gold.Id.Protein>
6NUR|6NUR_protein|mol2

> <Gold.PLP.Fitness>
43.8544

> <Gold.PLP.PLP>
-33.7998

> <Gold.PLP.part.hbond>
-5.0000

> <Gold.PLP.part.metal>
0.0000

> <Gold.PLP.part.buried>
-2.8268

> <Gold.PLP.part.nonpolar>
-27.5613

> <Gold.PLP.part.repulsive>
1.2158

> <Gold.PLP.ligand.clash>
0.0000

> <Gold.PLP.ligand.torsion>
0.5610

> <Gold.PLP.Chemscore.Hbond>
3.6526

> <Gold.PLP.Chemscore.CHOScore>
0.0000

> <Gold.PLP.Chemscore.Metal>
0.0000

> <Gold.Chemscore.Hbonds>
donor molecule, donor type, donor heavy atom, donor atom, acceptor molecule, acceptor atom, score
      L1  H    15    34       P1  7948  0.61
      P1  H  6896  6909       L1    25  1.00
      P1  H  6931  6943       L1     1  0.23
      P1  H 10752 10763       L1    10  1.00

> <Gold.PLP.Chemscore.Internal.Correction>
0.2189

> <Gold.Rescore>
     Score         DG    S(hbond)    S(metal)    S(lipo)     H(rot)  DE(clash)    DE(int)     intcor
     17.31     -19.84       3.02        0.00      73.23       1.68       1.90       0.62       ----

> <Gold.Chemscore.Fitness>
17.3090

> <Gold.Chemscore.DG>
-19.8386

> <Gold.Chemscore.ZeroCoef>
-5.4800

> <Gold.Chemscore.Hbond>
3.0235

> <Gold.Chemscore.Metal>
0.0000

> <Gold.Chemscore.Lipo>
73.2288

> <Gold.Chemscore.Internal_Hbond>
0.0000

> <Gold.Chemscore.DEClash>
1.9048

> <Gold.Chemscore.DEInternal>
0.6248

> <Gold.Chemscore.Rot>
1.6826

> <Gold.Chemscore.Internal.Correction>
   9.000000E+99

> <Gold.Chemscore.Hbonds>
donor molecule, donor type, donor heavy atom, donor atom, acceptor molecule, acceptor atom, score
      L1  H    15    34       P1  7948  0.21
      P1  H  6896  6909       L1    25  0.40
      P1  H  6931  6943       L1     1  0.21
      P1  H 10752 10763       L1    10  0.88

> <Gold.Chemscore.Hbond.Weighted>
-10.0984

> <Gold.Chemscore.Metal.Weighted>
-0.0000

> <Gold.Chemscore.Lipo.Weighted>
-8.5678

> <Gold.Chemscore.Internal_Hbond.Weighted>
0.0000

> <Gold.Chemscore.DEClash.Weighted>
1.9048

> <Gold.Chemscore.DEInternal.Weighted>
0.6248

> <Gold.Chemscore.Rot.Weighted>
4.3076

> <Gold.Chemscore.Internal.Correction.Weighted>
   9.000000E+99

> <Gold.Protein.RotatedTorsions>
[ 6907 6896 6895 6894 ] final   16.63 input  -60.11 | X-H torsion
[ 7974 7965 7964 7962 ] final  149.53 input  175.53 | X-H torsion
[ 8008 7997 7996 7995 ] final   68.18 input   59.86 | X-H torsion
[ 10167 10162 10161 10158 ] final  -94.76 input  -65.29 | X-H torsion
[ 10718 10713 10712 10709 ] final   50.97 input   66.30 | X-H torsion
[ 10763 10752 10751 10750 ] final   36.15 input  -60.55 | X-H torsion
[ 11005 11000 10999 10996 ] final   46.09 input  -57.11 | X-H torsion

> <Gold.Protein.ActiveResidues>
 VAL166  LYS551  ARG553  GLY616  TRP617  ASP618  TYR619  PRO620  LYS621  CYS622 
 ASP623  PHE694  ASN695  SER759  ASP760  ASP761  ALA762  ILE779  LEU786  VAL792 
 PHE793  MET794  SER795  GLU796  ALA797  LYS798  CYS799  TRP800  GLU811  SER814 

> <Gold.Protein.RotatedAtoms>
  151.8369  135.0603  160.0443 H   0  0  0  0  0  0  0  0  0  0  0  0  # atno 6907 bound_to 6896
  152.2838  133.5491  159.5523 H   0  0  0  0  0  0  0  0  0  0  0  0  # atno 6908 bound_to 6896
  150.7200  134.0442  159.3818 H   0  0  0  0  0  0  0  0  0  0  0  0  # atno 6909 bound_to 6896
  144.8431  139.6292  143.6007 H   0  0  0  0  0  0  0  0  0  0  0  0  # atno 7974 bound_to 7965
  155.7043  140.3495  155.4946 H   0  0  0  0  0  0  0  0  0  0  0  0  # atno 8008 bound_to 7997
  155.9412  140.1102  157.1076 H   0  0  0  0  0  0  0  0  0  0  0  0  # atno 8009 bound_to 7997
  154.4103  140.1212  156.4916 H   0  0  0  0  0  0  0  0  0  0  0  0  # atno 8010 bound_to 7997
  140.3111  143.3104  152.0147 H   0  0  0  0  0  0  0  0  0  0  0  0  # atno 10167 bound_to 10162
  157.4936  130.8392  149.8231 H   0  0  0  0  0  0  0  0  0  0  0  0  # atno 10718 bound_to 10713
  153.0089  135.6314  154.1939 H   0  0  0  0  0  0  0  0  0  0  0  0  # atno 10763 bound_to 10752
  154.1682  135.2820  155.3090 H   0  0  0  0  0  0  0  0  0  0  0  0  # atno 10764 bound_to 10752
  154.5929  135.5612  153.7357 H   0  0  0  0  0  0  0  0  0  0  0  0  # atno 10765 bound_to 10752
  140.1400  134.4595  155.8457 H   0  0  0  0  0  0  0  0  0  0  0  0  # atno 11005 bound_to 11000
  146.2720  139.6660  142.9289 LP  0  0  0  0  0  0  0  0  0  0  0  0  # atno 17320 bound_to 7965
  145.4652  141.0434  143.2729 LP  0  0  0  0  0  0  0  0  0  0  0  0  # atno 17321 bound_to 7965
  139.4893  144.6384  151.6929 LP  0  0  0  0  0  0  0  0  0  0  0  0  # atno 17342 bound_to 10162
  140.5567  144.0336  150.6151 LP  0  0  0  0  0  0  0  0  0  0  0  0  # atno 17343 bound_to 10162
  156.0187  130.3803  150.2028 LP  0  0  0  0  0  0  0  0  0  0  0  0  # atno 17370 bound_to 10713
  157.0217  130.9981  151.3337 LP  0  0  0  0  0  0  0  0  0  0  0  0  # atno 17371 bound_to 10713
  141.2184  133.6829  156.7229 LP  0  0  0  0  0  0  0  0  0  0  0  0  # atno 17394 bound_to 11000
  140.2734  134.8374  157.3868 LP  0  0  0  0  0  0  0  0  0  0  0  0  # atno 17395 bound_to 11000

$$$$
