AV-unprocessed.smi:1560|AV-procd|sdf|6281|dock8
  -GOLD-   22720 6483D 1   1.00000     0.00000
 Structure written by MMmdl.
 47 48  0  0  0  0  0  0  0  0  3 V2000
  144.7189  135.0168  150.4214 C   0  0  0  0  0  0  0  0  0  0  0  0
  145.8123  135.9438  150.9823 C   0  0  0  0  0  0  0  0  0  0  0  0
  145.6816  136.3043  152.4944 C   0  0  1  0  0  0  0  0  0  0  0  0
  144.2274  136.7930  152.7272 C   0  0  0  0  0  0  0  0  0  0  0  0
  145.9291  135.0342  153.3667 C   0  0  0  0  0  0  0  0  0  0  0  0
  147.3200  134.5819  153.3659 N   0  0  0  0  0  0  0  0  0  0  0  0
  147.8202  133.5912  154.1207 C   0  0  0  0  0  0  0  0  0  0  0  0
  147.1514  132.9655  154.9444 O   0  0  0  0  0  0  0  0  0  0  0  0
  149.3136  133.2904  153.9409 C   0  0  0  0  0  0  0  0  0  0  0  0
  149.9342  132.7614  155.1658 N   0  0  0  0  0  0  0  0  0  0  0  0
  150.4277  131.4449  155.1359 C   0  0  0  0  0  0  0  0  0  0  0  0
  151.0172  130.8829  156.2086 C   0  0  0  0  0  0  0  0  0  0  0  0
  151.1367  131.6765  157.4256 C   0  0  0  0  0  0  0  0  0  0  0  0
  151.6682  131.1782  158.4157 O   0  0  0  0  0  0  0  0  0  0  0  0
  150.6458  132.9504  157.4033 N   0  5  0  0  0  0  0  0  0  0  0  0
  150.0519  133.5101  156.3039 C   0  0  0  0  0  0  0  0  0  0  0  0
  149.6193  134.6635  156.3033 O   0  0  0  0  0  0  0  0  0  0  0  0
  146.6649  137.3930  152.8484 N   0  3  0  0  0  0  0  0  0  0  0  0
  146.4748  138.7010  152.1595 C   0  0  0  0  0  0  0  0  0  0  0  0
  147.6527  139.6444  152.4597 C   0  0  0  0  0  0  0  0  0  0  0  0
  147.7855  139.8219  153.8630 O   0  0  0  0  0  0  0  0  0  0  0  0
  148.0542  138.5944  154.5255 C   0  0  0  0  0  0  0  0  0  0  0  0
  146.8808  137.6267  154.3049 C   0  0  0  0  0  0  0  0  0  0  0  0
  144.8967  134.8178  149.3644 H   0  0  0  0  0  0  0  0  0  0  0  0
  143.7265  135.4596  150.5036 H   0  0  0  0  0  0  0  0  0  0  0  0
  144.7024  134.0541  150.9316 H   0  0  0  0  0  0  0  0  0  0  0  0
  146.7711  135.4565  150.8038 H   0  0  0  0  0  0  0  0  0  0  0  0
  145.8535  136.8491  150.3771 H   0  0  0  0  0  0  0  0  0  0  0  0
  143.4985  136.1212  152.2723 H   0  0  0  0  0  0  0  0  0  0  0  0
  144.0589  137.7833  152.3034 H   0  0  0  0  0  0  0  0  0  0  0  0
  143.9762  136.8412  153.7869 H   0  0  0  0  0  0  0  0  0  0  0  0
  145.6035  135.1933  154.3947 H   0  0  0  0  0  0  0  0  0  0  0  0
  145.3353  134.1990  152.9965 H   0  0  0  0  0  0  0  0  0  0  0  0
  147.9473  135.0398  152.7206 H   0  0  0  0  0  0  0  0  0  0  0  0
  149.4595  132.5918  153.1144 H   0  0  0  0  0  0  0  0  0  0  0  0
  149.8089  134.2105  153.6284 H   0  0  0  0  0  0  0  0  0  0  0  0
  150.3057  130.9284  154.1951 H   0  0  0  0  0  0  0  0  0  0  0  0
  151.3946  129.8717  156.1686 H   0  0  0  0  0  0  0  0  0  0  0  0
  146.4179  138.5837  151.0790 H   0  0  0  0  0  0  0  0  0  0  0  0
  145.5431  139.1655  152.4832 H   0  0  0  0  0  0  0  0  0  0  0  0
  148.5814  139.2526  152.0413 H   0  0  0  0  0  0  0  0  0  0  0  0
  147.4817  140.6165  151.9970 H   0  0  0  0  0  0  0  0  0  0  0  0
  148.9899  138.1638  154.1648 H   0  0  0  0  0  0  0  0  0  0  0  0
  148.1836  138.7906  155.5901 H   0  0  0  0  0  0  0  0  0  0  0  0
  145.9847  138.0499  154.7593 H   0  0  0  0  0  0  0  0  0  0  0  0
  147.1020  136.7010  154.8325 H   0  0  0  0  0  0  0  0  0  0  0  0
  147.5496  137.0473  152.5048 H   0  0  0  0  0  0  0  0  0  0  0  0
  1  2  1  0  0  0  0
  1 24  1  0  0  0  0
  1 25  1  0  0  0  0
  1 26  1  0  0  0  0
  2  3  1  0  0  0  0
  2 27  1  0  0  0  0
  2 28  1  0  0  0  0
  3  4  1  0  0  0  0
  3  5  1  0  0  0  0
  3 18  1  0  0  0  0
  4 29  1  0  0  0  0
  4 30  1  0  0  0  0
  4 31  1  0  0  0  0
  5  6  1  0  0  0  0
  5 32  1  0  0  0  0
  5 33  1  0  0  0  0
  6  7  1  0  0  0  0
  6 34  1  0  0  0  0
  7  8  2  0  0  0  0
  7  9  1  0  0  0  0
  9 10  1  0  0  0  0
  9 35  1  0  0  0  0
  9 36  1  0  0  0  0
 10 16  1  0  0  0  0
 10 11  1  0  0  0  0
 11 12  2  0  0  0  0
 11 37  1  0  0  0  0
 12 13  1  0  0  0  0
 12 38  1  0  0  0  0
 13 14  2  0  0  0  0
 13 15  1  0  0  0  0
 15 16  1  0  0  0  0
 16 17  2  0  0  0  0
 18 23  1  0  0  0  0
 18 19  1  0  0  0  0
 18 47  1  0  0  0  0
 19 20  1  0  0  0  0
 19 39  1  0  0  0  0
 19 40  1  0  0  0  0
 20 21  1  0  0  0  0
 20 41  1  0  0  0  0
 20 42  1  0  0  0  0
 21 22  1  0  0  0  0
 22 23  1  0  0  0  0
 22 43  1  0  0  0  0
 22 44  1  0  0  0  0
 23 45  1  0  0  0  0
 23 46  1  0  0  0  0
M  CHG  1  15  -1
M  CHG  1  18   1
M  END
> <s_m_source_file>
AV-unprocessed.smi

> <i_m_source_file_index>
1560

> <i_lp_mmshare_version>
43012

> <i_f3d_flags>
0

> <s_epik_input>
W0NIMl0xW0NIMl1PW0NIMl1bQ0gyXU4xW0NAQF0oW0NIM10pKFtDSDJdW0NIM10pW0NIMl1bTkhdQyg9TylbQ0gyXW4yW2NIXVtjSF1jKD1PKVtuSF1jMj1P

> <s_epik_cmdline>
J2VwaWtfcHl0aG9uJywgJy1waCcsICc3LjAnLCAnLXRuJywgJzgnLCAnLW1hJywgJzIwMCcsICctbWV0YWxfYmluZGluZycsICctaW1hZScsICc8aW5maWxlLm1hZT4nLCAnLW9tYWUnLCAnPG91dGZpbGUubWFlPic=

> <r_lp_tautomer_probability>
0.999537

> <r_epik_Ionization_Penalty>
3.51944

> <r_epik_Ionization_Penalty_Charging>
0.588852

> <r_epik_Ionization_Penalty_Neutral>
2.93059

> <r_epik_State_Penalty>
3.4987

> <r_epik_Charging_Adjusted_Penalty>
4.08755

> <i_epik_Tot_Q>
0

> <i_epik_Tot_abs_Q>
2

> <r_epik_Metal_State_Penalty>
1.01204

> <b_epik_Metal_Only>
1

> <s_lp_Force_Field>
OPLS_2005

> <r_lp_Energy>
37.4968

> <b_lp_Chiralities_Consistent>
1

> <s_lp_Variant>
AV-unprocessed.smi:1560-7

> <Gold.Version>
5.8.1

> <Gold.Id.Protein>
6NUR|6NUR_protein|mol2

> <Gold.PLP.Fitness>
43.8901

> <Gold.PLP.PLP>
-30.1651

> <Gold.PLP.part.hbond>
-3.0675

> <Gold.PLP.part.metal>
0.0000

> <Gold.PLP.part.buried>
1.0250

> <Gold.PLP.part.nonpolar>
-28.2199

> <Gold.PLP.part.repulsive>
0.2376

> <Gold.PLP.ligand.clash>
0.0000

> <Gold.PLP.ligand.torsion>
0.7101

> <Gold.PLP.Chemscore.Hbond>
4.9840

> <Gold.PLP.Chemscore.CHOScore>
0.0000

> <Gold.PLP.Chemscore.Metal>
0.0000

> <Gold.Chemscore.Hbonds>
donor molecule, donor type, donor heavy atom, donor atom, acceptor molecule, acceptor atom, score
      L1  H     6    34       P1  7948  1.00
      L1  H    18    47       P1  7948  2.00
      P1  H  6896  6907       L1    15  1.80

> <Gold.PLP.Chemscore.Internal.Correction>
0.1930

> <Gold.Rescore>
     Score         DG    S(hbond)    S(metal)    S(lipo)     H(rot)  DE(clash)    DE(int)     intcor
     13.23     -15.65       2.91        0.00      58.42       2.50       1.62       0.81       ----

> <Gold.Chemscore.Fitness>
13.2297

> <Gold.Chemscore.DG>
-15.6514

> <Gold.Chemscore.ZeroCoef>
-5.4800

> <Gold.Chemscore.Hbond>
2.9128

> <Gold.Chemscore.Metal>
0.0000

> <Gold.Chemscore.Lipo>
58.4242

> <Gold.Chemscore.Internal_Hbond>
0.0000

> <Gold.Chemscore.DEClash>
1.6162

> <Gold.Chemscore.DEInternal>
0.8056

> <Gold.Chemscore.Rot>
2.4973

> <Gold.Chemscore.Internal.Correction>
   9.000000E+99

> <Gold.Chemscore.Hbonds>
donor molecule, donor type, donor heavy atom, donor atom, acceptor molecule, acceptor atom, score
      L1  H     6    34       P1  7948  0.96
      L1  H    18    47       P1  7948  1.00
      P1  H  6896  6907       L1    15  0.17

> <Gold.Chemscore.Hbond.Weighted>
-9.7288

> <Gold.Chemscore.Metal.Weighted>
-0.0000

> <Gold.Chemscore.Lipo.Weighted>
-6.8356

> <Gold.Chemscore.Internal_Hbond.Weighted>
0.0000

> <Gold.Chemscore.DEClash.Weighted>
1.6162

> <Gold.Chemscore.DEInternal.Weighted>
0.8056

> <Gold.Chemscore.Rot.Weighted>
6.3930

> <Gold.Chemscore.Internal.Correction.Weighted>
   9.000000E+99

> <Gold.Protein.RotatedTorsions>
[ 6907 6896 6895 6894 ] final -147.42 input  -60.11 | X-H torsion
[ 7974 7965 7964 7962 ] final  153.71 input  175.53 | X-H torsion
[ 8008 7997 7996 7995 ] final   93.63 input   59.86 | X-H torsion
[ 10167 10162 10161 10158 ] final  -91.81 input  -65.29 | X-H torsion
[ 10718 10713 10712 10709 ] final  -70.24 input   66.30 | X-H torsion
[ 10763 10752 10751 10750 ] final  -51.01 input  -60.55 | X-H torsion
[ 11005 11000 10999 10996 ] final   57.39 input  -57.11 | X-H torsion

> <Gold.Protein.ActiveResidues>
 VAL166  LYS551  ARG553  GLY616  TRP617  ASP618  TYR619  PRO620  LYS621  CYS622 
 ASP623  PHE694  ASN695  SER759  ASP760  ASP761  ALA762  ILE779  LEU786  VAL792 
 PHE793  MET794  SER795  GLU796  ALA797  LYS798  CYS799  TRP800  GLU811  SER814 

> <Gold.Protein.RotatedAtoms>
  151.1554  133.4880  159.2594 H   0  0  0  0  0  0  0  0  0  0  0  0  # atno 6907 bound_to 6896
  151.1510  135.0227  159.8678 H   0  0  0  0  0  0  0  0  0  0  0  0  # atno 6908 bound_to 6896
  152.5463  134.1438  159.8543 H   0  0  0  0  0  0  0  0  0  0  0  0  # atno 6909 bound_to 6896
  144.8136  139.6837  143.6131 H   0  0  0  0  0  0  0  0  0  0  0  0  # atno 7974 bound_to 7965
  156.0489  140.3310  155.7328 H   0  0  0  0  0  0  0  0  0  0  0  0  # atno 8008 bound_to 7997
  155.5631  140.0621  157.2841 H   0  0  0  0  0  0  0  0  0  0  0  0  # atno 8009 bound_to 7997
  154.4426  140.1874  156.0791 H   0  0  0  0  0  0  0  0  0  0  0  0  # atno 8010 bound_to 7997
  140.3412  143.2941  151.9833 H   0  0  0  0  0  0  0  0  0  0  0  0  # atno 10167 bound_to 10162
  156.0417  130.4327  150.2266 H   0  0  0  0  0  0  0  0  0  0  0  0  # atno 10718 bound_to 10713
  154.1196  135.6537  153.4900 H   0  0  0  0  0  0  0  0  0  0  0  0  # atno 10763 bound_to 10752
  153.0230  135.5267  154.7110 H   0  0  0  0  0  0  0  0  0  0  0  0  # atno 10764 bound_to 10752
  154.6314  135.2976  155.0182 H   0  0  0  0  0  0  0  0  0  0  0  0  # atno 10765 bound_to 10752
  140.0456  134.5810  155.9326 H   0  0  0  0  0  0  0  0  0  0  0  0  # atno 11005 bound_to 11000
  146.2437  139.6054  142.9474 LP  0  0  0  0  0  0  0  0  0  0  0  0  # atno 17320 bound_to 7965
  145.5266  141.0429  143.2406 LP  0  0  0  0  0  0  0  0  0  0  0  0  # atno 17321 bound_to 7965
  139.4840  144.6155  151.7354 LP  0  0  0  0  0  0  0  0  0  0  0  0  # atno 17342 bound_to 10162
  140.5307  144.0734  150.6053 LP  0  0  0  0  0  0  0  0  0  0  0  0  # atno 17343 bound_to 10162
  157.0360  131.0021  151.3298 LP  0  0  0  0  0  0  0  0  0  0  0  0  # atno 17370 bound_to 10713
  157.5243  130.8018  149.7845 LP  0  0  0  0  0  0  0  0  0  0  0  0  # atno 17371 bound_to 10713
  141.1905  133.6569  156.5416 LP  0  0  0  0  0  0  0  0  0  0  0  0  # atno 17394 bound_to 11000
  140.3998  134.7366  157.4773 LP  0  0  0  0  0  0  0  0  0  0  0  0  # atno 17395 bound_to 11000

$$$$
