#       Name:                AV-unprocessed.smi:798
#       Creating user name   scv26
#       Creation time:       Fri Mar 27 01:21:38 2020


#       File generated by GOLD software.
#

@<TRIPOS>MOLECULE
AV-unprocessed.smi:798
    40    42     1
SMALL
NO_CHARGES


@<TRIPOS>ATOM
      1 ****        -0.6980   2.4332   0.3549 O.2            1 S1                 0.0000
      2 ****        -1.1561   1.4857  -0.2876 C.2            1 S1                 0.0000
      3 ****        -2.4396   1.3331  -0.6852 N.pl3          1 S1                -1.0000
      4 ****        -3.3515   2.2735  -0.3881 C.2            1 S1                 0.0000
      5 ****        -3.7397   3.2029  -1.2760 N.2            1 S1                 0.0000
      6 ****        -4.6948   4.0750  -0.7713 N.2            1 S1                 0.0000
      7 ****        -5.0098   3.7745   0.4884 C.2            1 S1                 0.0000
      8 ****        -4.1709   2.3975   1.1715 S.3            1 S1                 0.0000
      9 ****        -0.3575   0.4708  -0.6474 N.am           1 S1                 0.0000
     10 ****         1.0739   0.3494  -0.3601 C.3            1 S1                 0.0000
     11 ****         1.8238  -0.4692  -1.4405 C.3            1 S1                 0.0000
     12 ****         1.1209  -1.8157  -1.7160 C.3            1 S1                 0.0000
     13 ****         1.3940  -2.6067  -0.4244 C.3            1 S1                 0.0000
     14 ****         2.2439  -1.6248   0.4094 C.3            1 S1                 0.0000
     15 ****         3.0599  -0.9405  -0.6810 C.3            1 S1                 0.0000
     16 ****         1.4061  -0.4363   0.9425 C.3            1 S1                 0.0000
     17 ****         0.2289  -0.8038   1.8743 C.3            1 S1                 0.0000
     18 ****         0.6988  -1.4911   3.0150 O.3            1 S1                 0.0000
     19 ****        -5.7430   4.3648   1.0174 H              1 S1                 0.0000
     20 ****        -0.7791  -0.2834  -1.1694 H              1 S1                 0.0000
     21 ****         1.5243   1.3424  -0.3054 H              1 S1                 0.0000
     22 ****         2.0355   0.1002  -2.3461 H              1 S1                 0.0000
     23 ****         0.0575  -1.7217  -1.9349 H              1 S1                 0.0000
     24 ****         1.5812  -2.3164  -2.5687 H              1 S1                 0.0000
     25 ****         0.4800  -2.9209   0.0774 H              1 S1                 0.0000
     26 ****         1.9642  -3.5087  -0.6499 H              1 S1                 0.0000
     27 ****         2.8415  -2.1135   1.1793 H              1 S1                 0.0000
     28 ****         3.6846  -1.6293  -1.2527 H              1 S1                 0.0000
     29 ****         3.6799  -0.1213  -0.3122 H              1 S1                 0.0000
     30 ****         2.0775   0.1929   1.5298 H              1 S1                 0.0000
     31 ****        -0.2759   0.1011   2.2134 H              1 S1                 0.0000
     32 ****        -0.5216  -1.4120   1.3710 H              1 S1                 0.0000
     33 ****        -0.0395  -1.6808   3.5735 H              1 S1                 0.0000
     34 ****        -1.2959   3.1856   0.6312 LP             1 S1                 0.0000
     35 ****         0.2715   2.4492   0.5996 LP             1 S1                 0.0000
     36 ****        -2.7099   0.5198  -1.2006 LP             1 S1                 0.0000
     37 ****        -3.3776   3.2610  -2.2064 LP             1 S1                 0.0000
     38 ****        -5.0954   4.8322  -1.2873 LP             1 S1                 0.0000
     39 ****         1.3563  -0.9201   3.5065 LP             1 S1                 0.0000
     40 ****         1.1404  -2.3443   2.7373 LP             1 S1                 0.0000
@<TRIPOS>BOND
    1    1    2 2     
    2    2    3 1     
    3    2    9 am    
    4    3    4 1     
    5    4    8 1     
    6    4    5 2     
    7    5    6 1     
    8    6    7 2     
    9    7    8 1     
   10    7   19 1     
   11    9   10 1     
   12    9   20 1     
   13   10   16 1     
   14   10   11 1     
   15   10   21 1     
   16   11   15 1     
   17   11   12 1     
   18   11   22 1     
   19   12   13 1     
   20   12   23 1     
   21   12   24 1     
   22   13   14 1     
   23   13   25 1     
   24   13   26 1     
   25   14   15 1     
   26   14   16 1     
   27   14   27 1     
   28   15   28 1     
   29   15   29 1     
   30   16   17 1     
   31   16   30 1     
   32   17   18 1     
   33   17   31 1     
   34   17   32 1     
   35   18   33 1     
   36    1   34 1     
   37    1   35 1     
   38    3   36 1     
   39    5   37 1     
   40    6   38 1     
   41   18   39 1     
   42   18   40 1     
@<TRIPOS>SUBSTRUCTURE
      1 S1             1
@<TRIPOS>SET
LONE_PAIRS      STATIC     ATOMS    <user>   **** ""
7 34 35 36 37 38 39 40
DONOR_HYDROGENS      STATIC     ATOMS    <user>   **** ""
2 20 33
ATOM$BLUE        STATIC     ATOMS    COLORGROUP SYSTEM
7 34 35 36 37 38 39 40
ATOM$RED        STATIC     ATOMS    COLORGROUP SYSTEM
2 20 33
