#       Name:                AV-unprocessed.smi:2663
#       Creating user name   scv26
#       Creation time:       Fri Mar 27 14:33:57 2020


#       File generated by GOLD software.
#

@<TRIPOS>MOLECULE
AV-unprocessed.smi:2663
    45    46     1
SMALL
NO_CHARGES


@<TRIPOS>ATOM
      1 ****         0.0971  -1.7102  -2.0203 C.3            1 S1                 0.0000
      2 ****         0.6195  -0.7969  -0.8870 C.3            1 S1                 0.0000
      3 ****         2.1766  -0.7914  -0.9299 C.3            1 S1                 0.0000
      4 ****         2.7311  -2.0631  -0.6488 O.3            1 S1                 0.0000
      5 ****         0.1596  -1.4009   0.3756 N.am           1 S1                 0.0000
      6 ****         0.4195  -1.0107   1.6359 C.2            1 S1                 0.0000
      7 ****         1.1048  -0.0307   1.9257 O.2            1 S1                 0.0000
      8 ****        -0.1703  -1.8291   2.5220 N.am           1 S1                 0.0000
      9 ****        -0.1279  -1.7587   3.9371 C.2            1 S1                 0.0000
     10 ****        -0.8006  -2.6832   4.6325 N.2            1 S1                 0.0000
     11 ****        -0.6725  -2.4986   6.0038 N.2            1 S1                 0.0000
     12 ****         0.0931  -1.4411   6.2892 C.2            1 S1                 0.0000
     13 ****         0.7340  -0.5638   4.9114 S.3            1 S1                 0.0000
     14 ****         0.0514   0.6624  -1.0302 C.3            1 S1                 0.0000
     15 ****        -1.4814   0.7748  -0.8098 C.3            1 S1                 0.0000
     16 ****        -1.9564   2.2365  -0.8336 C.3            1 S1                 0.0000
     17 ****        -1.5647   2.9285  -2.1460 C.3            1 S1                 0.0000
     18 ****        -0.0522   2.8297  -2.3861 C.3            1 S1                 0.0000
     19 ****         0.4254   1.3684  -2.3592 C.3            1 S1                 0.0000
     20 ****         0.4508  -1.3870  -2.9990 H              1 S1                 0.0000
     21 ****        -0.9913  -1.7416  -2.0547 H              1 S1                 0.0000
     22 ****         0.4350  -2.7387  -1.8889 H              1 S1                 0.0000
     23 ****         2.5374  -0.4986  -1.9151 H              1 S1                 0.0000
     24 ****         2.5915  -0.0711  -0.2249 H              1 S1                 0.0000
     25 ****         3.6731  -1.9908  -0.6696 H              1 S1                 0.0000
     26 ****        -0.4152  -2.2238   0.2700 H              1 S1                 0.0000
     27 ****        -0.7087  -2.5936   2.1421 H              1 S1                 0.0000
     28 ****         0.2820  -1.1761   7.3188 H              1 S1                 0.0000
     29 ****         0.5146   1.2579  -0.2428 H              1 S1                 0.0000
     30 ****        -2.0164   0.2196  -1.5801 H              1 S1                 0.0000
     31 ****        -1.7755   0.3371   0.1436 H              1 S1                 0.0000
     32 ****        -3.0379   2.2773  -0.7019 H              1 S1                 0.0000
     33 ****        -1.5222   2.7753   0.0094 H              1 S1                 0.0000
     34 ****        -2.0990   2.4671  -2.9774 H              1 S1                 0.0000
     35 ****        -1.8706   3.9747  -2.1224 H              1 S1                 0.0000
     36 ****         0.2009   3.2848  -3.3440 H              1 S1                 0.0000
     37 ****         0.4780   3.4014  -1.6232 H              1 S1                 0.0000
     38 ****         1.5028   1.3620  -2.5146 H              1 S1                 0.0000
     39 ****        -0.0136   0.8406  -3.2058 H              1 S1                 0.0000
     40 ****         2.4281  -2.7227  -1.3367 LP             1 S1                 0.0000
     41 ****         2.4360  -2.3669   0.2570 LP             1 S1                 0.0000
     42 ****         1.5069   0.5300   1.2018 LP             1 S1                 0.0000
     43 ****         1.2596   0.2052   2.8850 LP             1 S1                 0.0000
     44 ****        -1.3326  -3.4197   4.2147 LP             1 S1                 0.0000
     45 ****        -1.1003  -3.0846   6.6919 LP             1 S1                 0.0000
@<TRIPOS>BOND
    1    1    2 1     
    2    1   20 1     
    3    1   21 1     
    4    1   22 1     
    5    2    3 1     
    6    2    5 1     
    7    2   14 1     
    8    3    4 1     
    9    3   23 1     
   10    3   24 1     
   11    4   25 1     
   12    5    6 am    
   13    5   26 1     
   14    6    7 2     
   15    6    8 am    
   16    8    9 1     
   17    8   27 1     
   18    9   13 1     
   19    9   10 2     
   20   10   11 1     
   21   11   12 2     
   22   12   13 1     
   23   12   28 1     
   24   14   19 1     
   25   14   15 1     
   26   14   29 1     
   27   15   16 1     
   28   15   30 1     
   29   15   31 1     
   30   16   17 1     
   31   16   32 1     
   32   16   33 1     
   33   17   18 1     
   34   17   34 1     
   35   17   35 1     
   36   18   19 1     
   37   18   36 1     
   38   18   37 1     
   39   19   38 1     
   40   19   39 1     
   41    4   40 1     
   42    4   41 1     
   43    7   42 1     
   44    7   43 1     
   45   10   44 1     
   46   11   45 1     
@<TRIPOS>SUBSTRUCTURE
      1 S1             1
@<TRIPOS>SET
LONE_PAIRS      STATIC     ATOMS    <user>   **** ""
6 40 41 42 43 44 45
DONOR_HYDROGENS      STATIC     ATOMS    <user>   **** ""
3 25 26 27
ATOM$BLUE        STATIC     ATOMS    COLORGROUP SYSTEM
6 40 41 42 43 44 45
ATOM$RED        STATIC     ATOMS    COLORGROUP SYSTEM
3 25 26 27
