#       Name:                AV-unprocessed.smi:1244
#       Creating user name   scv26
#       Creation time:       Fri Mar 27 04:33:45 2020


#       File generated by GOLD software.
#

@<TRIPOS>MOLECULE
AV-unprocessed.smi:1244
    61    63     1
SMALL
NO_CHARGES


@<TRIPOS>ATOM
      1 ****        -5.3476   3.1531  -2.6249 C.3            1 S1                 0.0000
      2 ****        -3.9202   2.5988  -2.5601 C.3            1 S1                 0.0000
      3 ****        -2.9488   3.5795  -1.8719 C.3            1 S1                 0.0000
      4 ****        -1.5571   3.0664  -1.8947 N.4            1 S1                 1.0000
      5 ****        -1.2954   2.0082  -0.8832 C.3            1 S1                 0.0000
      6 ****         0.1988   1.9017  -0.5215 C.3            1 S1                 0.0000
      7 ****         0.4339   0.8841   0.4969 N.am           1 S1                 0.0000
      8 ****         0.4665  -0.4360   0.2653 C.2            1 S1                 0.0000
      9 ****         0.2871  -0.9343  -0.8459 O.2            1 S1                 0.0000
     10 ****         0.7344  -1.1245   1.3878 N.am           1 S1                 0.0000
     11 ****         0.8819  -2.5333   1.5369 C.ar           1 S1                 0.0000
     12 ****         0.1102  -3.4397   0.7647 C.ar           1 S1                 0.0000
     13 ****         0.2244  -4.8254   0.9840 C.ar           1 S1                 0.0000
     14 ****         1.0970  -5.2858   1.9843 C.ar           1 S1                 0.0000
     15 ****         1.8079  -4.3991   2.7108 N.pl3          1 S1                 1.0000
     16 ****         1.7531  -3.0547   2.5373 C.ar           1 S1                 0.0000
     17 ****         2.5666  -2.2475   3.3646 N.3            1 S1                 0.0000
     18 ****         3.2659  -2.8296   4.5044 C.3            1 S1                 0.0000
     19 ****         4.2958  -1.7805   4.9137 C.3            1 S1                 0.0000
     20 ****         4.7024  -1.1800   3.5712 C.3            1 S1                 0.0000
     21 ****         3.4150  -1.2361   2.7413 C.3            1 S1                 0.0000
     22 ****        -1.1587   2.7142  -3.2819 C.3            1 S1                 0.0000
     23 ****        -2.1839   1.7720  -3.9497 C.3            1 S1                 0.0000
     24 ****        -1.8471   1.5079  -5.4213 C.3            1 S1                 0.0000
     25 ****        -3.4752   2.3684  -3.8926 O.3            1 S1                 0.0000
     26 ****        -5.7421   3.3407  -1.6259 H              1 S1                 0.0000
     27 ****        -6.0172   2.4485  -3.1189 H              1 S1                 0.0000
     28 ****        -5.3830   4.0907  -3.1802 H              1 S1                 0.0000
     29 ****        -3.9443   1.6516  -2.0188 H              1 S1                 0.0000
     30 ****        -2.9667   4.5363  -2.3957 H              1 S1                 0.0000
     31 ****        -3.2637   3.7876  -0.8485 H              1 S1                 0.0000
     32 ****        -1.8431   2.2451   0.0300 H              1 S1                 0.0000
     33 ****        -1.6825   1.0493  -1.2275 H              1 S1                 0.0000
     34 ****         0.8090   1.6768  -1.3967 H              1 S1                 0.0000
     35 ****         0.5549   2.8568  -0.1339 H              1 S1                 0.0000
     36 ****         0.5949   1.2100   1.4390 H              1 S1                 0.0000
     37 ****         0.9541  -0.5755   2.2060 H              1 S1                 0.0000
     38 ****        -0.5891  -3.0925   0.0193 H              1 S1                 0.0000
     39 ****        -0.3593  -5.5233   0.4016 H              1 S1                 0.0000
     40 ****         1.2443  -6.3281   2.2280 H              1 S1                 0.0000
     41 ****         2.5784  -3.0614   5.3185 H              1 S1                 0.0000
     42 ****         3.7774  -3.7475   4.2121 H              1 S1                 0.0000
     43 ****         3.8265  -1.0172   5.5362 H              1 S1                 0.0000
     44 ****         5.1355  -2.2022   5.4672 H              1 S1                 0.0000
     45 ****         5.1057  -0.1709   3.6602 H              1 S1                 0.0000
     46 ****         5.4657  -1.8062   3.1072 H              1 S1                 0.0000
     47 ****         3.6274  -1.4639   1.6958 H              1 S1                 0.0000
     48 ****         2.9037  -0.2740   2.7818 H              1 S1                 0.0000
     49 ****        -1.0947   3.6402  -3.8552 H              1 S1                 0.0000
     50 ****        -0.1619   2.2761  -3.3062 H              1 S1                 0.0000
     51 ****        -2.2100   0.8122  -3.4321 H              1 S1                 0.0000
     52 ****        -0.8669   1.0411  -5.5220 H              1 S1                 0.0000
     53 ****        -1.8379   2.4335  -5.9976 H              1 S1                 0.0000
     54 ****        -2.5801   0.8405  -5.8751 H              1 S1                 0.0000
     55 ****        -0.9752   3.8440  -1.6172 H              1 S1                 0.0000
     56 ****         2.4317  -4.7646   3.4305 H              1 S1                 0.0000
     57 ****         0.1057  -0.3463  -1.6341 LP             1 S1                 0.0000
     58 ****         0.3228  -1.9271  -0.9603 LP             1 S1                 0.0000
     59 ****         1.7643  -1.7887   3.7463 LP             1 S1                 0.0000
     60 ****        -3.4439   3.2440  -4.3745 LP             1 S1                 0.0000
     61 ****        -4.1275   1.7613  -4.3464 LP             1 S1                 0.0000
@<TRIPOS>BOND
    1    1    2 1     
    2    1   26 1     
    3    1   27 1     
    4    1   28 1     
    5    2   25 1     
    6    2    3 1     
    7    2   29 1     
    8    3    4 1     
    9    3   30 1     
   10    3   31 1     
   11    4    5 1     
   12    4   22 1     
   13    4   55 1     
   14    5    6 1     
   15    5   32 1     
   16    5   33 1     
   17    6    7 1     
   18    6   34 1     
   19    6   35 1     
   20    7    8 am    
   21    7   36 1     
   22    8    9 2     
   23    8   10 am    
   24   10   11 1     
   25   10   37 1     
   26   11   16 ar    
   27   11   12 ar    
   28   12   13 ar    
   29   12   38 1     
   30   13   14 ar    
   31   13   39 1     
   32   14   15 ar    
   33   14   40 1     
   34   15   16 ar    
   35   15   56 1     
   36   16   17 1     
   37   17   21 1     
   38   17   18 1     
   39   18   19 1     
   40   18   41 1     
   41   18   42 1     
   42   19   20 1     
   43   19   43 1     
   44   19   44 1     
   45   20   21 1     
   46   20   45 1     
   47   20   46 1     
   48   21   47 1     
   49   21   48 1     
   50   22   23 1     
   51   22   49 1     
   52   22   50 1     
   53   23   24 1     
   54   23   25 1     
   55   23   51 1     
   56   24   52 1     
   57   24   53 1     
   58   24   54 1     
   59    9   57 1     
   60    9   58 1     
   61   17   59 1     
   62   25   60 1     
   63   25   61 1     
@<TRIPOS>SUBSTRUCTURE
      1 S1             1
@<TRIPOS>SET
LONE_PAIRS      STATIC     ATOMS    <user>   **** ""
5 57 58 59 60 61
DONOR_HYDROGENS      STATIC     ATOMS    <user>   **** ""
4 55 36 37 56
ATOM$BLUE        STATIC     ATOMS    COLORGROUP SYSTEM
5 57 58 59 60 61
ATOM$RED        STATIC     ATOMS    COLORGROUP SYSTEM
4 55 36 37 56
