AV-unprocessed.smi:2448|AV-procd|sdf|9661|dock1
  -GOLD-   2272013303D 1   1.00000     0.00000
 Structure written by MMmdl.
 38 39  0  0  0  0  0  0  0  0  2 V2000
  150.3417  142.6521  158.7309 O   0  0  0  0  0  0  0  0  0  0  0  0
  151.4801  142.7596  157.8947 C   0  0  1  0  0  0  0  0  0  0  0  0
  151.1430  142.0791  156.5523 C   0  0  0  0  0  0  0  0  0  0  0  0
  151.4443  140.6462  156.5719 N   0  0  0  0  0  0  0  0  0  0  0  0
  150.7739  139.8224  155.5548 C   0  0  1  0  0  0  0  0  0  0  0  0
  150.3891  140.6270  154.2851 C   0  0  0  0  0  0  0  0  0  0  0  0
  148.8978  140.7378  154.0105 C   0  0  0  0  0  0  0  0  0  0  0  0
  148.2577  141.9979  154.0283 C   0  0  0  0  0  0  0  0  0  0  0  0
  146.8745  142.0728  153.7662 C   0  0  0  0  0  0  0  0  0  0  0  0
  146.1794  140.9467  153.4944 N   0  3  0  0  0  0  0  0  0  0  0  0
  146.7530  139.7240  153.4576 C   0  0  0  0  0  0  0  0  0  0  0  0
  148.1328  139.5875  153.7132 C   0  0  0  0  0  0  0  0  0  0  0  0
  151.6733  138.6206  155.1950 C   0  0  0  0  0  0  0  0  0  0  0  0
  151.0156  137.7888  154.3865 F   0  0  0  0  0  0  0  0  0  0  0  0
  152.7676  139.0372  154.5577 F   0  0  0  0  0  0  0  0  0  0  0  0
  152.0366  137.9572  156.2934 F   0  0  0  0  0  0  0  0  0  0  0  0
  151.9001  144.2358  157.7703 C   0  0  0  0  0  0  0  0  0  0  0  0
  152.5264  144.6586  159.1029 C   0  0  0  0  0  0  0  0  0  0  0  0
  153.3839  143.2194  159.7882 S   0  0  0  0  0  0  0  0  0  0  0  0
  152.6490  142.0570  158.6069 C   0  0  0  0  0  0  0  0  0  0  0  0
  150.1526  141.7352  158.8609 H   0  0  0  0  0  0  0  0  0  0  0  0
  150.0820  142.2170  156.3408 H   0  0  0  0  0  0  0  0  0  0  0  0
  151.6862  142.5842  155.7570 H   0  0  0  0  0  0  0  0  0  0  0  0
  151.2362  140.2724  157.4930 H   0  0  0  0  0  0  0  0  0  0  0  0
  149.8688  139.3955  155.9880 H   0  0  0  0  0  0  0  0  0  0  0  0
  150.8355  141.6216  154.3276 H   0  0  0  0  0  0  0  0  0  0  0  0
  150.8216  140.1512  153.4050 H   0  0  0  0  0  0  0  0  0  0  0  0
  148.8158  142.8970  154.2470 H   0  0  0  0  0  0  0  0  0  0  0  0
  146.3079  142.9925  153.7650 H   0  0  0  0  0  0  0  0  0  0  0  0
  146.0961  138.8985  153.2250 H   0  0  0  0  0  0  0  0  0  0  0  0
  148.5948  138.6115  153.6798 H   0  0  0  0  0  0  0  0  0  0  0  0
  152.6485  144.3323  156.9825 H   0  0  0  0  0  0  0  0  0  0  0  0
  151.0678  144.8866  157.4994 H   0  0  0  0  0  0  0  0  0  0  0  0
  153.2065  145.5027  158.9874 H   0  0  0  0  0  0  0  0  0  0  0  0
  151.7467  144.9546  159.8057 H   0  0  0  0  0  0  0  0  0  0  0  0
  152.3497  141.1310  159.0997 H   0  0  0  0  0  0  0  0  0  0  0  0
  153.4279  141.8016  157.8875 H   0  0  0  0  0  0  0  0  0  0  0  0
  145.1794  141.0234  153.3062 H   0  0  0  0  0  0  0  0  0  0  0  0
  1  2  1  0  0  0  0
  1 21  1  0  0  0  0
  2 20  1  0  0  0  0
  2  3  1  0  0  0  0
  2 17  1  0  0  0  0
  3  4  1  0  0  0  0
  3 22  1  0  0  0  0
  3 23  1  0  0  0  0
  4  5  1  0  0  0  0
  4 24  1  0  0  0  0
  5  6  1  0  0  0  0
  5 13  1  0  0  0  0
  5 25  1  0  0  0  0
  6  7  1  0  0  0  0
  6 26  1  0  0  0  0
  6 27  1  0  0  0  0
  7 12  1  0  0  0  0
  7  8  2  0  0  0  0
  8  9  1  0  0  0  0
  8 28  1  0  0  0  0
  9 10  2  0  0  0  0
  9 29  1  0  0  0  0
 10 11  1  0  0  0  0
 10 38  1  0  0  0  0
 11 12  2  0  0  0  0
 11 30  1  0  0  0  0
 12 31  1  0  0  0  0
 13 14  1  0  0  0  0
 13 15  1  0  0  0  0
 13 16  1  0  0  0  0
 17 18  1  0  0  0  0
 17 32  1  0  0  0  0
 17 33  1  0  0  0  0
 18 19  1  0  0  0  0
 18 34  1  0  0  0  0
 18 35  1  0  0  0  0
 19 20  1  0  0  0  0
 20 36  1  0  0  0  0
 20 37  1  0  0  0  0
M  CHG  1  10   1
M  END
> <s_m_source_file>
AV-unprocessed.smi

> <i_m_source_file_index>
2448

> <i_lp_mmshare_version>
43012

> <i_f3d_flags>
0

> <s_epik_input>
W0NIMl0xU1tDSDJdW0NIMl1bQ0BAXTEoW09IXSlbQ0gyXVtOSF1bQ0BASF0oQyhGKShGKUYpW0NIMl1jMltjSF1bY0hdbltjSF1bY0hdMg==

> <s_epik_cmdline>
J2VwaWtfcHl0aG9uJywgJy1waCcsICc3LjAnLCAnLXRuJywgJzgnLCAnLW1hJywgJzIwMCcsICctbWV0YWxfYmluZGluZycsICctaW1hZScsICc8aW5maWxlLm1hZT4nLCAnLW9tYWUnLCAnPG91dGZpbGUubWFlPic=

> <r_epik_Ionization_Penalty>
1.11129

> <r_epik_Ionization_Penalty_Charging>
1.08366

> <r_epik_Ionization_Penalty_Neutral>
0.0276276

> <r_epik_State_Penalty>
1.93785

> <r_epik_Charging_Adjusted_Penalty>
3.02151

> <i_epik_Tot_Q>
1

> <i_epik_Tot_abs_Q>
1

> <r_epik_Metal_State_Penalty>
5.97911

> <b_epik_Metal_Only>
0

> <s_lp_Force_Field>
OPLS_2005

> <r_lp_Energy>
38.4548

> <b_lp_Chiralities_Consistent>
1

> <s_lp_Variant>
AV-unprocessed.smi:2448-11

> <Gold.Version>
5.8.1

> <Gold.Id.Protein>
6NUR|6NUR_protein|mol2

> <Gold.PLP.Fitness>
48.3094

> <Gold.PLP.PLP>
-45.4952

> <Gold.PLP.part.hbond>
-1.4142

> <Gold.PLP.part.metal>
0.0000

> <Gold.PLP.part.buried>
1.3066

> <Gold.PLP.part.nonpolar>
-44.1866

> <Gold.PLP.part.repulsive>
0.0000

> <Gold.PLP.ligand.clash>
0.0000

> <Gold.PLP.ligand.torsion>
1.8583

> <Gold.PLP.Chemscore.Hbond>
2.0000

> <Gold.PLP.Chemscore.CHOScore>
0.0000

> <Gold.PLP.Chemscore.Metal>
0.0000

> <Gold.Chemscore.Hbonds>
donor molecule, donor type, donor heavy atom, donor atom, acceptor molecule, acceptor atom, score
      L1  H    10    38       P1 10175  2.00

> <Gold.PLP.Chemscore.Internal.Correction>
0.5308

> <Gold.Rescore>
     Score         DG    S(hbond)    S(metal)    S(lipo)     H(rot)  DE(clash)    DE(int)     intcor
     13.52     -16.66       0.98        0.00     120.53       2.42       1.40       1.74       ----

> <Gold.Chemscore.Fitness>
13.5195

> <Gold.Chemscore.DG>
-16.6593

> <Gold.Chemscore.ZeroCoef>
-5.4800

> <Gold.Chemscore.Hbond>
0.9835

> <Gold.Chemscore.Metal>
0.0000

> <Gold.Chemscore.Lipo>
120.5266

> <Gold.Chemscore.Internal_Hbond>
0.0000

> <Gold.Chemscore.DEClash>
1.3982

> <Gold.Chemscore.DEInternal>
1.7416

> <Gold.Chemscore.Rot>
2.4247

> <Gold.Chemscore.Internal.Correction>
   9.000000E+99

> <Gold.Chemscore.Hbonds>
donor molecule, donor type, donor heavy atom, donor atom, acceptor molecule, acceptor atom, score
      L1  H    10    38       P1 10175  0.48

> <Gold.Chemscore.Hbond.Weighted>
-3.2850

> <Gold.Chemscore.Metal.Weighted>
-0.0000

> <Gold.Chemscore.Lipo.Weighted>
-14.1016

> <Gold.Chemscore.Internal_Hbond.Weighted>
0.0000

> <Gold.Chemscore.DEClash.Weighted>
1.3982

> <Gold.Chemscore.DEInternal.Weighted>
1.7416

> <Gold.Chemscore.Rot.Weighted>
6.2072

> <Gold.Chemscore.Internal.Correction.Weighted>
   9.000000E+99

> <Gold.Protein.RotatedTorsions>
[ 6907 6896 6895 6894 ] final   -5.39 input  -60.11 | X-H torsion
[ 7974 7965 7964 7962 ] final -176.31 input  175.53 | X-H torsion
[ 8008 7997 7996 7995 ] final   14.86 input   59.86 | X-H torsion
[ 10167 10162 10161 10158 ] final  101.98 input  -65.29 | X-H torsion
[ 10718 10713 10712 10709 ] final -154.18 input   66.30 | X-H torsion
[ 10763 10752 10751 10750 ] final  -43.76 input  -60.55 | X-H torsion
[ 11005 11000 10999 10996 ] final -132.49 input  -57.11 | X-H torsion

> <Gold.Protein.ActiveResidues>
 VAL166  LYS551  ARG553  GLY616  TRP617  ASP618  TYR619  PRO620  LYS621  CYS622 
 ASP623  PHE694  ASN695  SER759  ASP760  ASP761  ALA762  ILE779  LEU786  VAL792 
 PHE793  MET794  SER795  GLU796  ALA797  LYS798  CYS799  TRP800  GLU811  SER814 

> <Gold.Protein.RotatedAtoms>
  151.4823  135.1053  159.9780 H   0  0  0  0  0  0  0  0  0  0  0  0  # atno 6907 bound_to 6896
  152.4774  133.8167  159.7042 H   0  0  0  0  0  0  0  0  0  0  0  0  # atno 6908 bound_to 6896
  150.8821  133.7296  159.2955 H   0  0  0  0  0  0  0  0  0  0  0  0  # atno 6909 bound_to 6896
  144.7127  140.1189  143.6406 H   0  0  0  0  0  0  0  0  0  0  0  0  # atno 7974 bound_to 7965
  154.8544  140.2934  155.5578 H   0  0  0  0  0  0  0  0  0  0  0  0  # atno 8008 bound_to 7997
  156.3017  140.2490  156.3440 H   0  0  0  0  0  0  0  0  0  0  0  0  # atno 8009 bound_to 7997
  154.8986  140.0392  157.1869 H   0  0  0  0  0  0  0  0  0  0  0  0  # atno 8010 bound_to 7997
  139.7390  144.7016  151.0604 H   0  0  0  0  0  0  0  0  0  0  0  0  # atno 10167 bound_to 10162
  156.4958  130.8368  151.2589 H   0  0  0  0  0  0  0  0  0  0  0  0  # atno 10718 bound_to 10713
  154.0008  135.6694  153.4759 H   0  0  0  0  0  0  0  0  0  0  0  0  # atno 10763 bound_to 10752
  153.0663  135.4999  154.8203 H   0  0  0  0  0  0  0  0  0  0  0  0  # atno 10764 bound_to 10752
  154.7054  135.3087  154.9242 H   0  0  0  0  0  0  0  0  0  0  0  0  # atno 10765 bound_to 10752
  140.9166  134.1499  157.4348 H   0  0  0  0  0  0  0  0  0  0  0  0  # atno 11005 bound_to 11000
  145.9389  139.2655  143.1281 LP  0  0  0  0  0  0  0  0  0  0  0  0  # atno 17320 bound_to 7965
  145.9445  140.8955  143.0291 LP  0  0  0  0  0  0  0  0  0  0  0  0  # atno 17321 bound_to 7965
  140.7783  143.4947  150.9847 LP  0  0  0  0  0  0  0  0  0  0  0  0  # atno 17342 bound_to 10162
  139.8636  143.7283  152.3172 LP  0  0  0  0  0  0  0  0  0  0  0  0  # atno 17343 bound_to 10162
  157.7468  130.9998  150.2903 LP  0  0  0  0  0  0  0  0  0  0  0  0  # atno 17370 bound_to 10713
  156.3381  130.3811  149.7433 LP  0  0  0  0  0  0  0  0  0  0  0  0  # atno 17371 bound_to 10713
  139.8767  134.9956  156.5750 LP  0  0  0  0  0  0  0  0  0  0  0  0  # atno 17394 bound_to 11000
  140.8042  133.8480  155.8753 LP  0  0  0  0  0  0  0  0  0  0  0  0  # atno 17395 bound_to 11000

$$$$
