#       Name:                AV-unprocessed.smi:546
#       Creating user name   scv26
#       Creation time:       Thu Mar 26 23:37:59 2020


#       File generated by GOLD software.
#

@<TRIPOS>MOLECULE
AV-unprocessed.smi:546
    59    61     1
SMALL
NO_CHARGES


@<TRIPOS>ATOM
      1 ****        -2.0469   2.9733   3.3338 C.3            1 S1                 0.0000
      2 ****        -2.4523   2.2740   2.0347 C.3            1 S1                 0.0000
      3 ****        -1.8684   0.9844   2.0180 O.3            1 S1                 0.0000
      4 ****        -2.1853   0.2432   0.8518 C.3            1 S1                 0.0000
      5 ****        -1.4582  -1.1088   0.8887 C.3            1 S1                 0.0000
      6 ****        -0.0123  -0.9367   0.9844 N.pl3          1 S1                 0.0000
      7 ****         0.8862  -0.7467  -0.0201 C.2            1 S1                 0.0000
      8 ****         0.5216  -0.7531  -1.3691 N.pl3          1 S1                 0.0000
      9 ****         0.0339  -1.9373  -2.0842 C.3            1 S1                 0.0000
     10 ****        -0.9980  -1.6222  -3.1926 C.3            1 S1                 0.0000
     11 ****        -2.3904  -1.2631  -2.6491 C.3            1 S1                 0.0000
     12 ****        -0.4495  -0.5544  -4.1536 C.3            1 S1                 0.0000
     13 ****         0.0851   0.6616  -3.3815 C.3            1 S1                 0.0000
     14 ****         0.7043   1.6984  -4.3284 C.3            1 S1                 0.0000
     15 ****         1.0991   0.1950  -2.3220 C.3            1 S1                 0.0000
     16 ****         2.1379  -0.5249   0.3927 N.2            1 S1                 0.0000
     17 ****         2.0362  -0.6042   1.7723 C.2            1 S1                 0.0000
     18 ****         0.7559  -0.8516   2.1485 C.2            1 S1                 0.0000
     19 ****         0.3581  -0.9547   3.5605 C.2            1 S1                 0.0000
     20 ****        -0.7935  -1.1723   3.9302 O.2            1 S1                 0.0000
     21 ****         1.3922  -0.7814   4.4187 N.am           1 S1                 0.0000
     22 ****         2.6997  -0.5304   4.1057 C.2            1 S1                 0.0000
     23 ****         3.5308  -0.3895   5.0027 O.2            1 S1                 0.0000
     24 ****         3.0315  -0.4436   2.7781 N.am           1 S1                 0.0000
     25 ****         4.4154  -0.1701   2.3863 C.3            1 S1                 0.0000
     26 ****         1.1720  -0.8417   5.4021 H              1 S1                 0.0000
     27 ****        -2.4773   3.9730   3.3899 H              1 S1                 0.0000
     28 ****        -0.9632   3.0701   3.4038 H              1 S1                 0.0000
     29 ****        -2.3891   2.4112   4.2029 H              1 S1                 0.0000
     30 ****        -3.5386   2.1975   1.9729 H              1 S1                 0.0000
     31 ****        -2.1100   2.8540   1.1765 H              1 S1                 0.0000
     32 ****        -3.2628   0.0862   0.7883 H              1 S1                 0.0000
     33 ****        -1.8816   0.8030  -0.0341 H              1 S1                 0.0000
     34 ****        -1.8109  -1.7089   1.7252 H              1 S1                 0.0000
     35 ****        -1.7027  -1.6899   0.0060 H              1 S1                 0.0000
     36 ****         0.8994  -2.4237  -2.5363 H              1 S1                 0.0000
     37 ****        -0.3704  -2.6675  -1.3842 H              1 S1                 0.0000
     38 ****        -1.1319  -2.5364  -3.7721 H              1 S1                 0.0000
     39 ****        -2.3681  -0.3613  -2.0396 H              1 S1                 0.0000
     40 ****        -2.7939  -2.0716  -2.0396 H              1 S1                 0.0000
     41 ****        -3.0943  -1.0910  -3.4637 H              1 S1                 0.0000
     42 ****         0.3597  -0.9893  -4.7421 H              1 S1                 0.0000
     43 ****        -1.2166  -0.2509  -4.8670 H              1 S1                 0.0000
     44 ****        -0.7465   1.1452  -2.8679 H              1 S1                 0.0000
     45 ****         1.5503   1.2810  -4.8754 H              1 S1                 0.0000
     46 ****         1.0612   2.5688  -3.7774 H              1 S1                 0.0000
     47 ****        -0.0258   2.0477  -5.0590 H              1 S1                 0.0000
     48 ****         1.4717   1.0628  -1.7761 H              1 S1                 0.0000
     49 ****         1.9656  -0.2642  -2.8003 H              1 S1                 0.0000
     50 ****         5.0912  -0.9105   2.8165 H              1 S1                 0.0000
     51 ****         4.7220   0.8157   2.7378 H              1 S1                 0.0000
     52 ****         4.5580  -0.1922   1.3060 H              1 S1                 0.0000
     53 ****        -2.1951   0.4772   2.8155 LP             1 S1                 0.0000
     54 ****        -0.8748   1.0846   2.0707 LP             1 S1                 0.0000
     55 ****         2.9513  -0.3452  -0.1605 LP             1 S1                 0.0000
     56 ****        -1.5216  -1.2901   3.2549 LP             1 S1                 0.0000
     57 ****        -1.0025  -1.2316   4.9063 LP             1 S1                 0.0000
     58 ****         3.2499  -0.4586   5.9600 LP             1 S1                 0.0000
     59 ****         4.4869  -0.2060   4.7742 LP             1 S1                 0.0000
@<TRIPOS>BOND
    1    1    2 1     
    2    1   27 1     
    3    1   28 1     
    4    1   29 1     
    5    2    3 1     
    6    2   30 1     
    7    2   31 1     
    8    3    4 1     
    9    4    5 1     
   10    4   32 1     
   11    4   33 1     
   12    5    6 1     
   13    5   34 1     
   14    5   35 1     
   15    6   18 1     
   16    6    7 1     
   17    7    8 1     
   18    7   16 2     
   19    8   15 1     
   20    8    9 1     
   21    9   10 1     
   22    9   36 1     
   23    9   37 1     
   24   10   11 1     
   25   10   12 1     
   26   10   38 1     
   27   11   39 1     
   28   11   40 1     
   29   11   41 1     
   30   12   13 1     
   31   12   42 1     
   32   12   43 1     
   33   13   14 1     
   34   13   15 1     
   35   13   44 1     
   36   14   45 1     
   37   14   46 1     
   38   14   47 1     
   39   15   48 1     
   40   15   49 1     
   41   16   17 1     
   42   17   24 1     
   43   17   18 2     
   44   18   19 1     
   45   19   20 2     
   46   19   21 1     
   47   21   26 1     
   48   21   22 1     
   49   22   23 2     
   50   22   24 1     
   51   24   25 1     
   52   25   50 1     
   53   25   51 1     
   54   25   52 1     
   55    3   53 1     
   56    3   54 1     
   57   16   55 1     
   58   20   56 1     
   59   20   57 1     
   60   23   58 1     
   61   23   59 1     
@<TRIPOS>SUBSTRUCTURE
      1 S1             1
@<TRIPOS>SET
LONE_PAIRS      STATIC     ATOMS    <user>   **** ""
7 53 54 55 56 57 58 59
DONOR_HYDROGENS      STATIC     ATOMS    <user>   **** ""
1 26
ATOM$BLUE        STATIC     ATOMS    COLORGROUP SYSTEM
7 53 54 55 56 57 58 59
ATOM$RED        STATIC     ATOMS    COLORGROUP SYSTEM
1 26
