AV-unprocessed.smi:295|AV-procd|sdf|2257|dock6
  -GOLD-   2262022143D 1   1.00000     0.00000
 Structure written by MMmdl.
 35 36  0  0  0  0  0  0  0  0  1 V2000
  150.5893  140.4752  158.3294 C   0  0  0  0  0  0  0  0  0  0  0  0
  150.9018  141.9777  158.4567 C   0  0  1  0  0  0  0  0  0  0  0  0
  152.0242  142.2162  159.4868 C   0  0  0  0  0  0  0  0  0  0  0  0
  152.3471  143.7100  159.6439 C   0  0  0  0  0  0  0  0  0  0  0  0
  152.7199  144.3383  158.2940 C   0  0  0  0  0  0  0  0  0  0  0  0
  151.6055  144.1210  157.2603 C   0  0  0  0  0  0  0  0  0  0  0  0
  151.2654  142.6253  157.0974 C   0  0  2  0  0  0  0  0  0  0  0  0
  150.1596  142.4721  156.1567 N   0  0  0  0  0  0  0  0  0  0  0  0
  149.9918  141.4505  155.3019 C   0  0  0  0  0  0  0  0  0  0  0  0
  150.8037  140.5353  155.1707 O   0  0  0  0  0  0  0  0  0  0  0  0
  148.7132  141.4635  154.4596 C   0  0  0  0  0  0  0  0  0  0  0  0
  147.5219  141.5161  155.2899 N   0  0  0  0  0  0  0  0  0  0  0  0
  146.2279  141.4955  154.9532 C   0  0  0  0  0  0  0  0  0  0  0  0
  145.3999  141.5837  155.9864 N   0  0  0  0  0  0  0  0  0  0  0  0
  146.3213  141.6560  156.9904 C   0  0  0  0  0  0  0  0  0  0  0  0
  145.9201  141.7719  158.3821 C   0  0  0  0  0  0  0  0  0  0  0  0
  145.6007  141.8642  159.4905 N   0  0  0  0  0  0  0  0  0  0  0  0
  147.6050  141.6193  156.6390 N   0  0  0  0  0  0  0  0  0  0  0  0
  151.4411  139.9276  157.9247 H   0  0  0  0  0  0  0  0  0  0  0  0
  149.7362  140.2930  157.6753 H   0  0  0  0  0  0  0  0  0  0  0  0
  150.3480  140.0425  159.3004 H   0  0  0  0  0  0  0  0  0  0  0  0
  150.0018  142.4659  158.8344 H   0  0  0  0  0  0  0  0  0  0  0  0
  151.7362  141.8042  160.4546 H   0  0  0  0  0  0  0  0  0  0  0  0
  152.9244  141.6813  159.1806 H   0  0  0  0  0  0  0  0  0  0  0  0
  151.4848  144.2293  160.0640 H   0  0  0  0  0  0  0  0  0  0  0  0
  153.1638  143.8415  160.3544 H   0  0  0  0  0  0  0  0  0  0  0  0
  152.9093  145.4050  158.4182 H   0  0  0  0  0  0  0  0  0  0  0  0
  153.6492  143.8993  157.9285 H   0  0  0  0  0  0  0  0  0  0  0  0
  150.7151  144.6703  157.5695 H   0  0  0  0  0  0  0  0  0  0  0  0
  151.9102  144.5429  156.3018 H   0  0  0  0  0  0  0  0  0  0  0  0
  152.1454  142.1110  156.7055 H   0  0  0  0  0  0  0  0  0  0  0  0
  149.4418  143.1812  156.1879 H   0  0  0  0  0  0  0  0  0  0  0  0
  148.7228  142.3301  153.7973 H   0  0  0  0  0  0  0  0  0  0  0  0
  148.6669  140.5747  153.8286 H   0  0  0  0  0  0  0  0  0  0  0  0
  145.8863  141.4223  153.9312 H   0  0  0  0  0  0  0  0  0  0  0  0
  1  2  1  0  0  0  0
  1 19  1  0  0  0  0
  1 20  1  0  0  0  0
  1 21  1  0  0  0  0
  2  7  1  0  0  0  0
  2  3  1  0  0  0  0
  2 22  1  0  0  0  0
  3  4  1  0  0  0  0
  3 23  1  0  0  0  0
  3 24  1  0  0  0  0
  4  5  1  0  0  0  0
  4 25  1  0  0  0  0
  4 26  1  0  0  0  0
  5  6  1  0  0  0  0
  5 27  1  0  0  0  0
  5 28  1  0  0  0  0
  6  7  1  0  0  0  0
  6 29  1  0  0  0  0
  6 30  1  0  0  0  0
  7  8  1  0  0  0  0
  7 31  1  0  0  0  0
  8  9  1  0  0  0  0
  8 32  1  0  0  0  0
  9 10  2  0  0  0  0
  9 11  1  0  0  0  0
 11 12  1  0  0  0  0
 11 33  1  0  0  0  0
 11 34  1  0  0  0  0
 12 18  1  0  0  0  0
 12 13  1  0  0  0  0
 13 14  2  0  0  0  0
 13 35  1  0  0  0  0
 14 15  1  0  0  0  0
 15 16  1  0  0  0  0
 15 18  2  0  0  0  0
 16 17  3  0  0  0  0
M  END
> <s_m_source_file>
AV-unprocessed.smi

> <i_m_source_file_index>
295

> <i_lp_mmshare_version>
43012

> <i_f3d_flags>
0

> <s_epik_input>
W0NIM11bQ0BASF0xW0NIMl1bQ0gyXVtDSDJdW0NIMl1bQ0BIXTFbTkhdQyg9TylbQ0gyXW4yW2NIXW5jKG4yKUMjTg==

> <s_epik_cmdline>
J2VwaWtfcHl0aG9uJywgJy1waCcsICc3LjAnLCAnLXRuJywgJzgnLCAnLW1hJywgJzIwMCcsICctbWV0YWxfYmluZGluZycsICctaW1hZScsICc8aW5maWxlLm1hZT4nLCAnLW9tYWUnLCAnPG91dGZpbGUubWFlPic=

> <r_lp_tautomer_probability>
1

> <r_epik_Ionization_Penalty>
5.31112e-08

> <r_epik_Ionization_Penalty_Charging>
0

> <r_epik_Ionization_Penalty_Neutral>
5.31112e-08

> <r_epik_State_Penalty>
-0

> <r_epik_Charging_Adjusted_Penalty>
0

> <i_epik_Tot_Q>
0

> <i_epik_Tot_abs_Q>
0

> <r_epik_Metal_State_Penalty>
-0

> <b_epik_Metal_Only>
0

> <s_lp_Force_Field>
OPLS_2005

> <r_lp_Energy>
13.6203

> <b_lp_Chiralities_Consistent>
1

> <s_lp_Variant>
AV-unprocessed.smi:295-4

> <Gold.Version>
5.8.1

> <Gold.Id.Protein>
6NUR|6NUR_protein|mol2

> <Gold.PLP.Fitness>
43.5013

> <Gold.PLP.PLP>
-34.3753

> <Gold.PLP.part.hbond>
-3.0000

> <Gold.PLP.part.metal>
0.0000

> <Gold.PLP.part.buried>
-4.3056

> <Gold.PLP.part.nonpolar>
-28.0405

> <Gold.PLP.part.repulsive>
0.3524

> <Gold.PLP.ligand.clash>
0.0000

> <Gold.PLP.ligand.torsion>
0.3883

> <Gold.PLP.Chemscore.Hbond>
2.9433

> <Gold.PLP.Chemscore.CHOScore>
0.3556

> <Gold.PLP.Chemscore.Metal>
0.0000

> <Gold.Chemscore.Hbonds>
donor molecule, donor type, donor heavy atom, donor atom, acceptor molecule, acceptor atom, score
      L1  H     8    32       P1  8028  0.96
      P1  H  6934  6946       L1    17  0.96
      P1  H  7989  7998       L1    10  0.98
      L1  C    13    35       P1 10175  0.35

> <Gold.PLP.Chemscore.Internal.Correction>
0.0060

> <Gold.Rescore>
     Score         DG    S(hbond)    S(metal)    S(lipo)     H(rot)  DE(clash)    DE(int)     intcor
     16.42     -18.32       2.58        0.00      78.76       1.95       0.08       1.82       ----

> <Gold.Chemscore.Fitness>
16.4196

> <Gold.Chemscore.DG>
-18.3202

> <Gold.Chemscore.ZeroCoef>
-5.4800

> <Gold.Chemscore.Hbond>
2.5779

> <Gold.Chemscore.Metal>
0.0000

> <Gold.Chemscore.Lipo>
78.7624

> <Gold.Chemscore.Internal_Hbond>
0.0000

> <Gold.Chemscore.DEClash>
0.0839

> <Gold.Chemscore.DEInternal>
1.8166

> <Gold.Chemscore.Rot>
1.9474

> <Gold.Chemscore.Internal.Correction>
   9.000000E+99

> <Gold.Chemscore.Hbonds>
donor molecule, donor type, donor heavy atom, donor atom, acceptor molecule, acceptor atom, score
      L1  H     8    32       P1  8028  0.92
      P1  H  6934  6946       L1    17  0.71
      P1  H  7989  7998       L1    10  0.42

> <Gold.Chemscore.Hbond.Weighted>
-8.6102

> <Gold.Chemscore.Metal.Weighted>
-0.0000

> <Gold.Chemscore.Lipo.Weighted>
-9.2152

> <Gold.Chemscore.Internal_Hbond.Weighted>
0.0000

> <Gold.Chemscore.DEClash.Weighted>
0.0839

> <Gold.Chemscore.DEInternal.Weighted>
1.8166

> <Gold.Chemscore.Rot.Weighted>
4.9852

> <Gold.Chemscore.Internal.Correction.Weighted>
   9.000000E+99

> <Gold.Protein.RotatedTorsions>
[ 6907 6896 6895 6894 ] final  115.52 input  -60.11 | X-H torsion
[ 7974 7965 7964 7962 ] final  135.16 input  175.53 | X-H torsion
[ 8008 7997 7996 7995 ] final  131.01 input   59.86 | X-H torsion
[ 10167 10162 10161 10158 ] final   84.22 input  -65.29 | X-H torsion
[ 10718 10713 10712 10709 ] final   14.15 input   66.30 | X-H torsion
[ 10763 10752 10751 10750 ] final    6.97 input  -60.55 | X-H torsion
[ 11005 11000 10999 10996 ] final  -23.06 input  -57.11 | X-H torsion

> <Gold.Protein.ActiveResidues>
 VAL166  LYS551  ARG553  GLY616  TRP617  ASP618  TYR619  PRO620  LYS621  CYS622 
 ASP623  PHE694  ASN695  SER759  ASP760  ASP761  ALA762  ILE779  LEU786  VAL792 
 PHE793  MET794  SER795  GLU796  ALA797  LYS798  CYS799  TRP800  GLU811  SER814 

> <Gold.Protein.RotatedAtoms>
  152.4736  133.8087  159.6991 H   0  0  0  0  0  0  0  0  0  0  0  0  # atno 6907 bound_to 6896
  150.8740  133.7455  159.2959 H   0  0  0  0  0  0  0  0  0  0  0  0  # atno 6908 bound_to 6896
  151.4981  135.1064  159.9873 H   0  0  0  0  0  0  0  0  0  0  0  0  # atno 6909 bound_to 6896
  144.9691  139.4625  143.5442 H   0  0  0  0  0  0  0  0  0  0  0  0  # atno 7974 bound_to 7965
  156.2963  140.2582  156.2855 H   0  0  0  0  0  0  0  0  0  0  0  0  # atno 8008 bound_to 7997
  154.9560  140.0393  157.2186 H   0  0  0  0  0  0  0  0  0  0  0  0  # atno 8009 bound_to 7997
  154.7991  140.2825  155.5939 H   0  0  0  0  0  0  0  0  0  0  0  0  # atno 8010 bound_to 7997
  139.9103  144.6276  150.8545 H   0  0  0  0  0  0  0  0  0  0  0  0  # atno 10167 bound_to 10162
  157.0349  130.6208  149.5741 H   0  0  0  0  0  0  0  0  0  0  0  0  # atno 10718 bound_to 10713
  153.2416  135.6904  153.7777 H   0  0  0  0  0  0  0  0  0  0  0  0  # atno 10763 bound_to 10752
  153.6905  135.3313  155.3201 H   0  0  0  0  0  0  0  0  0  0  0  0  # atno 10764 bound_to 10752
  154.8357  135.4544  154.1339 H   0  0  0  0  0  0  0  0  0  0  0  0  # atno 10765 bound_to 10752
  140.8716  133.7716  156.0193 H   0  0  0  0  0  0  0  0  0  0  0  0  # atno 11005 bound_to 11000
  146.3377  139.8892  142.8812 LP  0  0  0  0  0  0  0  0  0  0  0  0  # atno 17320 bound_to 7965
  145.2585  141.0069  143.3840 LP  0  0  0  0  0  0  0  0  0  0  0  0  # atno 17321 bound_to 7965
  140.7687  143.3371  151.2286 LP  0  0  0  0  0  0  0  0  0  0  0  0  # atno 17342 bound_to 10162
  139.6949  143.9630  152.2877 LP  0  0  0  0  0  0  0  0  0  0  0  0  # atno 17343 bound_to 10162
  156.0057  130.5143  150.7821 LP  0  0  0  0  0  0  0  0  0  0  0  0  # atno 17370 bound_to 10713
  157.5149  131.0928  151.0152 LP  0  0  0  0  0  0  0  0  0  0  0  0  # atno 17371 bound_to 10713
  140.8567  134.2890  157.5252 LP  0  0  0  0  0  0  0  0  0  0  0  0  # atno 17394 bound_to 11000
  139.8712  134.9496  156.4031 LP  0  0  0  0  0  0  0  0  0  0  0  0  # atno 17395 bound_to 11000

$$$$
