AV-unprocessed.smi:284|AV-procd|sdf|2157|dock5
  -GOLD-   2262021503D 1   1.00000     0.00000
 Structure written by MMmdl.
 60 62  0  0  0  0  0  0  0  0  1 V2000
  159.0757  135.3107  162.7342 C   0  0  0  0  0  0  0  0  0  0  0  0
  157.6742  135.7430  163.1366 C   0  0  0  0  0  0  0  0  0  0  0  0
  156.6777  134.8509  163.3441 C   0  0  0  0  0  0  0  0  0  0  0  0
  155.3941  135.2118  163.7168 N   0  0  0  0  0  0  0  0  0  0  0  0
  154.2980  134.1935  163.9635 C   0  0  2  0  0  0  0  0  0  0  0  0
  154.5725  133.4028  165.2563 C   0  0  0  0  0  0  0  0  0  0  0  0
  154.4366  131.9564  164.8157 C   0  0  1  0  0  0  0  0  0  0  0  0
  153.1122  131.4975  165.0129 O   0  0  0  0  0  0  0  0  0  0  0  0
  154.8079  132.0304  163.3310 C   0  0  1  0  0  0  0  0  0  0  0  0
  154.3354  130.8731  162.4333 C   0  0  0  0  0  0  0  0  0  0  0  0
  154.9734  129.6704  162.8071 O   0  0  0  0  0  0  0  0  0  0  0  0
  154.2488  133.2710  162.9132 O   0  0  0  0  0  0  0  0  0  0  0  0
  155.0772  136.5752  163.8849 C   0  0  0  0  0  0  0  0  0  0  0  0
  153.9411  136.9198  164.2196 O   0  0  0  0  0  0  0  0  0  0  0  0
  156.0940  137.5320  163.6712 N   0  0  0  0  0  0  0  0  0  0  0  0
  155.7721  138.9615  163.8818 C   0  0  0  0  0  0  0  0  0  0  0  0
  155.1126  139.6285  162.6636 C   0  0  0  0  0  0  0  0  0  0  0  0
  155.2656  139.1533  161.5382 O   0  0  0  0  0  0  0  0  0  0  0  0
  154.3823  140.7235  162.9467 N   0  0  0  0  0  0  0  0  0  0  0  0
  153.6525  141.5898  162.0840 C   0  0  0  0  0  0  0  0  0  0  0  0
  153.6317  141.2472  160.7176 C   0  0  0  0  0  0  0  0  0  0  0  0
  152.9360  142.0384  159.7837 C   0  0  0  0  0  0  0  0  0  0  0  0
  152.2386  143.2002  160.1946 C   0  0  0  0  0  0  0  0  0  0  0  0
  151.4632  144.0926  159.2068 C   0  0  0  0  0  0  0  0  0  0  0  0
  152.0522  145.5184  159.2254 C   0  0  0  0  0  0  0  0  0  0  0  0
  149.9594  144.2031  159.5454 C   0  0  0  0  0  0  0  0  0  0  0  0
  151.5804  143.5118  157.7823 C   0  0  0  0  0  0  0  0  0  0  0  0
  152.2642  143.5394  161.5672 C   0  0  0  0  0  0  0  0  0  0  0  0
  152.9591  142.7500  162.5030 C   0  0  0  0  0  0  0  0  0  0  0  0
  157.4143  137.1747  163.3042 C   0  0  0  0  0  0  0  0  0  0  0  0
  158.2787  138.0395  163.1479 O   0  0  0  0  0  0  0  0  0  0  0  0
  159.1547  134.2280  162.6331 H   0  0  0  0  0  0  0  0  0  0  0  0
  159.8017  135.6289  163.4833 H   0  0  0  0  0  0  0  0  0  0  0  0
  159.3527  135.7557  161.7778 H   0  0  0  0  0  0  0  0  0  0  0  0
  156.9168  133.8076  163.2081 H   0  0  0  0  0  0  0  0  0  0  0  0
  153.3655  134.7604  163.9798 H   0  0  0  0  0  0  0  0  0  0  0  0
  155.5922  133.5926  165.5954 H   0  0  0  0  0  0  0  0  0  0  0  0
  153.8840  133.6930  166.0510 H   0  0  0  0  0  0  0  0  0  0  0  0
  155.1119  131.3016  165.3674 H   0  0  0  0  0  0  0  0  0  0  0  0
  152.6272  132.1667  165.4712 H   0  0  0  0  0  0  0  0  0  0  0  0
  155.8927  132.1193  163.2510 H   0  0  0  0  0  0  0  0  0  0  0  0
  153.2537  130.7454  162.4746 H   0  0  0  0  0  0  0  0  0  0  0  0
  154.5892  131.0840  161.3943 H   0  0  0  0  0  0  0  0  0  0  0  0
  155.9063  129.8207  162.8320 H   0  0  0  0  0  0  0  0  0  0  0  0
  155.1161  139.0988  164.7428 H   0  0  0  0  0  0  0  0  0  0  0  0
  156.6711  139.5217  164.1454 H   0  0  0  0  0  0  0  0  0  0  0  0
  154.3518  140.9776  163.9233 H   0  0  0  0  0  0  0  0  0  0  0  0
  154.1540  140.3658  160.3748 H   0  0  0  0  0  0  0  0  0  0  0  0
  152.9556  141.7249  158.7518 H   0  0  0  0  0  0  0  0  0  0  0  0
  151.5098  146.1807  158.5499 H   0  0  0  0  0  0  0  0  0  0  0  0
  153.0976  145.5357  158.9165 H   0  0  0  0  0  0  0  0  0  0  0  0
  151.9984  145.9540  160.2239 H   0  0  0  0  0  0  0  0  0  0  0  0
  149.7986  144.6387  160.5324 H   0  0  0  0  0  0  0  0  0  0  0  0
  149.4670  143.2301  159.5190 H   0  0  0  0  0  0  0  0  0  0  0  0
  149.4402  144.8408  158.8291 H   0  0  0  0  0  0  0  0  0  0  0  0
  151.0210  144.1108  157.0627 H   0  0  0  0  0  0  0  0  0  0  0  0
  151.1872  142.4955  157.7375 H   0  0  0  0  0  0  0  0  0  0  0  0
  152.6129  143.4795  157.4346 H   0  0  0  0  0  0  0  0  0  0  0  0
  151.7452  144.4175  161.9210 H   0  0  0  0  0  0  0  0  0  0  0  0
  152.9360  143.0671  163.5323 H   0  0  0  0  0  0  0  0  0  0  0  0
  1  2  1  0  0  0  0
  1 32  1  0  0  0  0
  1 33  1  0  0  0  0
  1 34  1  0  0  0  0
  2 30  1  0  0  0  0
  2  3  2  0  0  0  0
  3  4  1  0  0  0  0
  3 35  1  0  0  0  0
  4  5  1  0  0  0  0
  4 13  1  0  0  0  0
  5 12  1  0  0  0  0
  5  6  1  0  0  0  0
  5 36  1  0  0  0  0
  6  7  1  0  0  0  0
  6 37  1  0  0  0  0
  6 38  1  0  0  0  0
  7  8  1  0  0  0  0
  7  9  1  0  0  0  0
  7 39  1  0  0  0  0
  8 40  1  0  0  0  0
  9 10  1  0  0  0  0
  9 12  1  0  0  0  0
  9 41  1  0  0  0  0
 10 11  1  0  0  0  0
 10 42  1  0  0  0  0
 10 43  1  0  0  0  0
 11 44  1  0  0  0  0
 13 14  2  0  0  0  0
 13 15  1  0  0  0  0
 15 16  1  0  0  0  0
 15 30  1  0  0  0  0
 16 17  1  0  0  0  0
 16 45  1  0  0  0  0
 16 46  1  0  0  0  0
 17 18  2  0  0  0  0
 17 19  1  0  0  0  0
 19 20  1  0  0  0  0
 19 47  1  0  0  0  0
 20 29  1  0  0  0  0
 20 21  2  0  0  0  0
 21 22  1  0  0  0  0
 21 48  1  0  0  0  0
 22 23  2  0  0  0  0
 22 49  1  0  0  0  0
 23 24  1  0  0  0  0
 23 28  1  0  0  0  0
 24 25  1  0  0  0  0
 24 26  1  0  0  0  0
 24 27  1  0  0  0  0
 25 50  1  0  0  0  0
 25 51  1  0  0  0  0
 25 52  1  0  0  0  0
 26 53  1  0  0  0  0
 26 54  1  0  0  0  0
 26 55  1  0  0  0  0
 27 56  1  0  0  0  0
 27 57  1  0  0  0  0
 27 58  1  0  0  0  0
 28 29  2  0  0  0  0
 28 59  1  0  0  0  0
 29 60  1  0  0  0  0
 30 31  2  0  0  0  0
M  END
> <s_m_source_file>
AV-unprocessed.smi

> <i_m_source_file_index>
284

> <i_lp_mmshare_version>
43012

> <i_f3d_flags>
0

> <s_epik_input>
W09IXVtDSDJdW0NAQEhdKE8xKVtDQEhdKFtPSF0pW0NIMl1bQ0BIXTFuKFtjSF1jMltDSDNdKWMoPU8pbihjMj1PKVtDSDJdQyg9TylbTkhdYzNbY0hdW2NIXWMoQyhbQ0gzXSkoW0NIM10pW0NIM10pW2NIXVtjSF0z

> <s_epik_cmdline>
J2VwaWtfcHl0aG9uJywgJy1waCcsICc3LjAnLCAnLXRuJywgJzgnLCAnLW1hJywgJzIwMCcsICctbWV0YWxfYmluZGluZycsICctaW1hZScsICc8aW5maWxlLm1hZT4nLCAnLW9tYWUnLCAnPG91dGZpbGUubWFlPic=

> <r_lp_tautomer_probability>
1

> <r_epik_Ionization_Penalty>
4.92358e-06

> <r_epik_Ionization_Penalty_Charging>
1.29777e-07

> <r_epik_Ionization_Penalty_Neutral>
4.79381e-06

> <r_epik_State_Penalty>
-0

> <r_epik_Charging_Adjusted_Penalty>
1.29777e-07

> <i_epik_Tot_Q>
0

> <i_epik_Tot_abs_Q>
0

> <r_epik_Metal_State_Penalty>
-0

> <b_epik_Metal_Only>
0

> <s_epik_Chemistry_Notes>
This compound contains an acetal/aminal-like group ( X-CH(R)-Y where X, Y are N, S, or O) that may be acid/base labile, releasing an aldehyde.

> <s_lp_Force_Field>
OPLS_2005

> <r_lp_Energy>
42.5826

> <b_lp_Chiralities_Consistent>
1

> <s_lp_Variant>
AV-unprocessed.smi:284-1

> <Gold.Version>
5.8.1

> <Gold.Id.Protein>
6NUR|6NUR_protein|mol2

> <Gold.PLP.Fitness>
50.5684

> <Gold.PLP.PLP>
-52.3083

> <Gold.PLP.part.hbond>
0.0000

> <Gold.PLP.part.metal>
0.0000

> <Gold.PLP.part.buried>
-5.5754

> <Gold.PLP.part.nonpolar>
-46.2102

> <Gold.PLP.part.repulsive>
0.0757

> <Gold.PLP.ligand.clash>
0.0000

> <Gold.PLP.ligand.torsion>
0.8987

> <Gold.PLP.Chemscore.Hbond>
0.0000

> <Gold.PLP.Chemscore.CHOScore>
0.0000

> <Gold.PLP.Chemscore.Metal>
0.0000

> <Gold.PLP.Chemscore.Internal.Correction>
0.0575

> <Gold.Rescore>
     Score         DG    S(hbond)    S(metal)    S(lipo)     H(rot)  DE(clash)    DE(int)     intcor
     10.89     -13.46       0.00        0.00     139.86       3.27       0.33       2.25       ----

> <Gold.Chemscore.Fitness>
10.8917

> <Gold.Chemscore.DG>
-13.4632

> <Gold.Chemscore.ZeroCoef>
-5.4800

> <Gold.Chemscore.Hbond>
0.0000

> <Gold.Chemscore.Metal>
0.0000

> <Gold.Chemscore.Lipo>
139.8567

> <Gold.Chemscore.Internal_Hbond>
0.0000

> <Gold.Chemscore.DEClash>
0.3256

> <Gold.Chemscore.DEInternal>
2.2458

> <Gold.Chemscore.Rot>
3.2735

> <Gold.Chemscore.Internal.Correction>
   9.000000E+99

> <Gold.Chemscore.Hbond.Weighted>
-0.0000

> <Gold.Chemscore.Metal.Weighted>
-0.0000

> <Gold.Chemscore.Lipo.Weighted>
-16.3632

> <Gold.Chemscore.Internal_Hbond.Weighted>
0.0000

> <Gold.Chemscore.DEClash.Weighted>
0.3256

> <Gold.Chemscore.DEInternal.Weighted>
2.2458

> <Gold.Chemscore.Rot.Weighted>
8.3801

> <Gold.Chemscore.Internal.Correction.Weighted>
   9.000000E+99

> <Gold.Protein.RotatedTorsions>
[ 6907 6896 6895 6894 ] final   84.57 input  -60.11 | X-H torsion
[ 7974 7965 7964 7962 ] final  165.50 input  175.53 | X-H torsion
[ 8008 7997 7996 7995 ] final  142.35 input   59.86 | X-H torsion
[ 10167 10162 10161 10158 ] final   16.17 input  -65.29 | X-H torsion
[ 10718 10713 10712 10709 ] final  163.67 input   66.30 | X-H torsion
[ 10763 10752 10751 10750 ] final  176.33 input  -60.55 | X-H torsion
[ 11005 11000 10999 10996 ] final  -63.34 input  -57.11 | X-H torsion

> <Gold.Protein.ActiveResidues>
 VAL166  LYS551  ARG553  GLY616  TRP617  ASP618  TYR619  PRO620  LYS621  CYS622 
 ASP623  PHE694  ASN695  SER759  ASP760  ASP761  ALA762  ILE779  LEU786  VAL792 
 PHE793  MET794  SER795  GLU796  ALA797  LYS798  CYS799  TRP800  GLU811  SER814 

> <Gold.Protein.RotatedAtoms>
  152.5355  134.2720  159.8974 H   0  0  0  0  0  0  0  0  0  0  0  0  # atno 6907 bound_to 6896
  151.2677  133.4264  159.2627 H   0  0  0  0  0  0  0  0  0  0  0  0  # atno 6908 bound_to 6896
  151.0396  134.9612  159.8211 H   0  0  0  0  0  0  0  0  0  0  0  0  # atno 6909 bound_to 6896
  144.7500  139.8480  143.6369 H   0  0  0  0  0  0  0  0  0  0  0  0  # atno 7974 bound_to 7965
  156.2951  140.2291  156.4714 H   0  0  0  0  0  0  0  0  0  0  0  0  # atno 8008 bound_to 7997
  154.7932  140.0453  157.1238 H   0  0  0  0  0  0  0  0  0  0  0  0  # atno 8009 bound_to 7997
  154.9621  140.3055  155.5029 H   0  0  0  0  0  0  0  0  0  0  0  0  # atno 8010 bound_to 7997
  140.5816  143.8970  150.6794 H   0  0  0  0  0  0  0  0  0  0  0  0  # atno 10167 bound_to 10162
  157.1052  131.0453  151.2481 H   0  0  0  0  0  0  0  0  0  0  0  0  # atno 10718 bound_to 10713
  154.4796  135.2774  155.1580 H   0  0  0  0  0  0  0  0  0  0  0  0  # atno 10763 bound_to 10752
  154.3296  135.6193  153.5549 H   0  0  0  0  0  0  0  0  0  0  0  0  # atno 10764 bound_to 10752
  152.9873  135.5762  154.5194 H   0  0  0  0  0  0  0  0  0  0  0  0  # atno 10765 bound_to 10752
  141.1390  133.6651  156.5666 H   0  0  0  0  0  0  0  0  0  0  0  0  # atno 11005 bound_to 11000
  146.1436  139.4499  143.0093 LP  0  0  0  0  0  0  0  0  0  0  0  0  # atno 17320 bound_to 7965
  145.6980  141.0144  143.1520 LP  0  0  0  0  0  0  0  0  0  0  0  0  # atno 17321 bound_to 7965
  140.2470  143.3621  152.1438 LP  0  0  0  0  0  0  0  0  0  0  0  0  # atno 17342 bound_to 10162
  139.5173  144.6990  151.5549 LP  0  0  0  0  0  0  0  0  0  0  0  0  # atno 17343 bound_to 10162
  157.4606  130.7651  149.7233 LP  0  0  0  0  0  0  0  0  0  0  0  0  # atno 17370 bound_to 10713
  155.9864  130.3975  150.3216 LP  0  0  0  0  0  0  0  0  0  0  0  0  # atno 17371 bound_to 10713
  140.3946  134.7410  157.4743 LP  0  0  0  0  0  0  0  0  0  0  0  0  # atno 17394 bound_to 11000
  140.0541  134.6089  155.8827 LP  0  0  0  0  0  0  0  0  0  0  0  0  # atno 17395 bound_to 11000

$$$$
