#       Name:                AV-unprocessed.smi:2331
#       Creating user name   scv26
#       Creation time:       Fri Mar 27 12:53:42 2020


#       File generated by GOLD software.
#

@<TRIPOS>MOLECULE
AV-unprocessed.smi:2331
    54    55     1
SMALL
NO_CHARGES


@<TRIPOS>ATOM
      1 ****        -2.9055   1.6337  -0.8431 C.3            1 S1                 0.0000
      2 ****        -3.0079   0.7806   0.4449 C.3            1 S1                 0.0000
      3 ****        -4.5130   0.5847   0.7273 C.3            1 S1                 0.0000
      4 ****        -2.3660  -0.6097   0.1817 C.3            1 S1                 0.0000
      5 ****        -0.9057  -0.5645   0.1364 N.am           1 S1                 0.0000
      6 ****        -0.1511  -0.5088  -0.9740 C.2            1 S1                 0.0000
      7 ****        -0.6277  -0.5795  -2.1061 O.2            1 S1                 0.0000
      8 ****         1.1763  -0.4543  -0.7176 N.am           1 S1                 0.0000
      9 ****         1.7266   0.2792   0.4290 C.3            1 S1                 0.0000
     10 ****         3.0348   0.8832  -0.0626 C.3            1 S1                 0.0000
     11 ****         3.5114  -0.1219  -1.0938 C.3            1 S1                 0.0000
     12 ****         2.2259  -0.6830  -1.7329 C.3            1 S1                 0.0000
     13 ****         2.3729  -2.1725  -2.1936 C.3            1 S1                 0.0000
     14 ****         3.6716  -2.4009  -2.9946 C.3            1 S1                 0.0000
     15 ****         2.2565  -3.1957  -1.0455 C.3            1 S1                 0.0000
     16 ****         1.3542  -2.4586  -3.1314 O.3            1 S1                 0.0000
     17 ****        -2.3384   1.4576   1.6586 C.ar           1 S1                 0.0000
     18 ****        -1.6362   2.6870   1.5581 C.ar           1 S1                 0.0000
     19 ****        -1.0269   3.2420   2.7016 C.ar           1 S1                 0.0000
     20 ****        -1.1132   2.6055   3.8880 N.pl3          1 S1                 1.0000
     21 ****        -1.7683   1.4362   4.0396 C.ar           1 S1                 0.0000
     22 ****        -2.3944   0.8338   2.9300 C.ar           1 S1                 0.0000
     23 ****        -3.3811   1.1315  -1.6863 H              1 S1                 0.0000
     24 ****        -1.8728   1.8249  -1.1336 H              1 S1                 0.0000
     25 ****        -3.4007   2.5984  -0.7261 H              1 S1                 0.0000
     26 ****        -5.0191   0.1276  -0.1240 H              1 S1                 0.0000
     27 ****        -5.0053   1.5373   0.9263 H              1 S1                 0.0000
     28 ****        -4.6920  -0.0619   1.5862 H              1 S1                 0.0000
     29 ****        -2.6266  -1.2979   0.9863 H              1 S1                 0.0000
     30 ****        -2.7732  -1.0588  -0.7260 H              1 S1                 0.0000
     31 ****        -0.4262  -0.5481   1.0246 H              1 S1                 0.0000
     32 ****         1.0645   1.0619   0.8043 H              1 S1                 0.0000
     33 ****         1.9096  -0.4267   1.2402 H              1 S1                 0.0000
     34 ****         2.8420   1.8428  -0.5446 H              1 S1                 0.0000
     35 ****         3.7557   1.0457   0.7390 H              1 S1                 0.0000
     36 ****         4.1865   0.3210  -1.8267 H              1 S1                 0.0000
     37 ****         4.0598  -0.9076  -0.5736 H              1 S1                 0.0000
     38 ****         1.9985  -0.0565  -2.5983 H              1 S1                 0.0000
     39 ****         4.5597  -2.3054  -2.3700 H              1 S1                 0.0000
     40 ****         3.7647  -1.6855  -3.8129 H              1 S1                 0.0000
     41 ****         3.7008  -3.4007  -3.4301 H              1 S1                 0.0000
     42 ****         3.0138  -3.0235  -0.2811 H              1 S1                 0.0000
     43 ****         2.3889  -4.2149  -1.4103 H              1 S1                 0.0000
     44 ****         1.2819  -3.1553  -0.5590 H              1 S1                 0.0000
     45 ****         1.4585  -3.3496  -3.4281 H              1 S1                 0.0000
     46 ****        -1.5451   3.2197   0.6242 H              1 S1                 0.0000
     47 ****        -0.4753   4.1709   2.7013 H              1 S1                 0.0000
     48 ****        -1.7701   1.0185   5.0359 H              1 S1                 0.0000
     49 ****        -2.9088  -0.1065   3.0616 H              1 S1                 0.0000
     50 ****        -0.6650   3.0253   4.7030 H              1 S1                 0.0000
     51 ****        -1.6149  -0.6829  -2.2275 LP             1 S1                 0.0000
     52 ****        -0.0278  -0.5336  -2.9049 LP             1 S1                 0.0000
     53 ****         1.4272  -1.8340  -3.9090 LP             1 S1                 0.0000
     54 ****         0.4588  -2.3501  -2.6996 LP             1 S1                 0.0000
@<TRIPOS>BOND
    1    1    2 1     
    2    1   23 1     
    3    1   24 1     
    4    1   25 1     
    5    2    3 1     
    6    2    4 1     
    7    2   17 1     
    8    3   26 1     
    9    3   27 1     
   10    3   28 1     
   11    4    5 1     
   12    4   29 1     
   13    4   30 1     
   14    5    6 am    
   15    5   31 1     
   16    6    7 2     
   17    6    8 am    
   18    8   12 1     
   19    8    9 1     
   20    9   10 1     
   21    9   32 1     
   22    9   33 1     
   23   10   11 1     
   24   10   34 1     
   25   10   35 1     
   26   11   12 1     
   27   11   36 1     
   28   11   37 1     
   29   12   13 1     
   30   12   38 1     
   31   13   14 1     
   32   13   15 1     
   33   13   16 1     
   34   14   39 1     
   35   14   40 1     
   36   14   41 1     
   37   15   42 1     
   38   15   43 1     
   39   15   44 1     
   40   16   45 1     
   41   17   22 ar    
   42   17   18 ar    
   43   18   19 ar    
   44   18   46 1     
   45   19   20 ar    
   46   19   47 1     
   47   20   21 ar    
   48   20   50 1     
   49   21   22 ar    
   50   21   48 1     
   51   22   49 1     
   52    7   51 1     
   53    7   52 1     
   54   16   53 1     
   55   16   54 1     
@<TRIPOS>SUBSTRUCTURE
      1 S1             1
@<TRIPOS>SET
LONE_PAIRS      STATIC     ATOMS    <user>   **** ""
4 51 52 53 54
DONOR_HYDROGENS      STATIC     ATOMS    <user>   **** ""
3 31 45 50
ATOM$BLUE        STATIC     ATOMS    COLORGROUP SYSTEM
4 51 52 53 54
ATOM$RED        STATIC     ATOMS    COLORGROUP SYSTEM
3 31 45 50
