AV-unprocessed.smi:1036|AV-procd|sdf|4516|dock7
  -GOLD-   22720 2523D 1   1.00000     0.00000
 Structure written by MMmdl.
 42 44  0  0  0  0  0  0  0  0  2 V2000
  152.6744  136.1062  156.8115 O   0  0  0  0  0  0  0  0  0  0  0  0
  151.3113  135.9549  156.4841 C   0  0  0  0  0  0  0  0  0  0  0  0
  151.0421  136.5916  155.1164 C   0  0  0  0  0  0  0  0  0  0  0  0
  151.2049  138.0348  155.1627 N   0  0  0  0  0  0  0  0  0  0  0  0
  150.1536  138.8310  154.6960 C   0  0  0  0  0  0  0  0  0  0  0  0
  149.1603  138.4333  153.8567 N   0  3  0  0  0  0  0  0  0  0  0  0
  148.2985  139.5152  153.6530 C   0  0  0  0  0  0  0  0  0  0  0  0
  147.1401  139.6220  152.8895 C   0  0  0  0  0  0  0  0  0  0  0  0
  146.4865  140.8717  152.9013 C   0  0  0  0  0  0  0  0  0  0  0  0
  146.9858  141.9563  153.6516 C   0  0  0  0  0  0  0  0  0  0  0  0
  148.1609  141.8399  154.4225 C   0  0  0  0  0  0  0  0  0  0  0  0
  148.8039  140.6028  154.4055 C   0  0  0  0  0  0  0  0  0  0  0  0
  149.9613  140.1317  155.0371 N   0  0  0  0  0  0  0  0  0  0  0  0
  150.7204  141.0180  155.9319 C   0  0  0  0  0  0  0  0  0  0  0  0
  150.5713  140.6198  157.4143 C   0  0  2  0  0  0  0  0  0  0  0  0
  149.2003  140.6833  157.7489 O   0  0  0  0  0  0  0  0  0  0  0  0
  151.4346  141.4829  158.3286 C   0  0  0  0  0  0  0  0  0  0  0  0
  151.3344  142.8916  158.2835 C   0  0  0  0  0  0  0  0  0  0  0  0
  152.1577  143.6910  159.0994 C   0  0  0  0  0  0  0  0  0  0  0  0
  152.0583  145.0400  159.0450 F   0  0  0  0  0  0  0  0  0  0  0  0
  153.0897  143.0883  159.9649 C   0  0  0  0  0  0  0  0  0  0  0  0
  153.1971  141.6857  160.0141 C   0  0  0  0  0  0  0  0  0  0  0  0
  152.3740  140.8840  159.1996 C   0  0  0  0  0  0  0  0  0  0  0  0
  152.5061  139.5364  159.2453 F   0  0  0  0  0  0  0  0  0  0  0  0
  152.8005  135.8344  157.7081 H   0  0  0  0  0  0  0  0  0  0  0  0
  151.0646  134.8929  156.4746 H   0  0  0  0  0  0  0  0  0  0  0  0
  150.7043  136.4266  157.2577 H   0  0  0  0  0  0  0  0  0  0  0  0
  151.7248  136.1777  154.3731 H   0  0  0  0  0  0  0  0  0  0  0  0
  150.0268  136.3575  154.7922 H   0  0  0  0  0  0  0  0  0  0  0  0
  151.8409  138.4227  155.8448 H   0  0  0  0  0  0  0  0  0  0  0  0
  146.7527  138.7932  152.3152 H   0  0  0  0  0  0  0  0  0  0  0  0
  145.5823  141.0008  152.3242 H   0  0  0  0  0  0  0  0  0  0  0  0
  146.4560  142.8977  153.6363 H   0  0  0  0  0  0  0  0  0  0  0  0
  148.5334  142.6760  154.9957 H   0  0  0  0  0  0  0  0  0  0  0  0
  151.7675  140.9862  155.6279 H   0  0  0  0  0  0  0  0  0  0  0  0
  150.3844  142.0422  155.7646 H   0  0  0  0  0  0  0  0  0  0  0  0
  150.8615  139.5757  157.5342 H   0  0  0  0  0  0  0  0  0  0  0  0
  148.7200  140.1252  157.1561 H   0  0  0  0  0  0  0  0  0  0  0  0
  150.6321  143.3660  157.6138 H   0  0  0  0  0  0  0  0  0  0  0  0
  153.7245  143.7011  160.5878 H   0  0  0  0  0  0  0  0  0  0  0  0
  153.9165  141.2239  160.6741 H   0  0  0  0  0  0  0  0  0  0  0  0
  149.0781  137.5049  153.4629 H   0  0  0  0  0  0  0  0  0  0  0  0
  1  2  1  0  0  0  0
  1 25  1  0  0  0  0
  2  3  1  0  0  0  0
  2 26  1  0  0  0  0
  2 27  1  0  0  0  0
  3  4  1  0  0  0  0
  3 28  1  0  0  0  0
  3 29  1  0  0  0  0
  4  5  1  0  0  0  0
  4 30  1  0  0  0  0
  5 13  1  0  0  0  0
  5  6  2  0  0  0  0
  6  7  1  0  0  0  0
  6 42  1  0  0  0  0
  7 12  2  0  0  0  0
  7  8  1  0  0  0  0
  8  9  2  0  0  0  0
  8 31  1  0  0  0  0
  9 10  1  0  0  0  0
  9 32  1  0  0  0  0
 10 11  2  0  0  0  0
 10 33  1  0  0  0  0
 11 12  1  0  0  0  0
 11 34  1  0  0  0  0
 12 13  1  0  0  0  0
 13 14  1  0  0  0  0
 14 15  1  0  0  0  0
 14 35  1  0  0  0  0
 14 36  1  0  0  0  0
 15 16  1  0  0  0  0
 15 17  1  0  0  0  0
 15 37  1  0  0  0  0
 16 38  1  0  0  0  0
 17 23  1  0  0  0  0
 17 18  2  0  0  0  0
 18 19  1  0  0  0  0
 18 39  1  0  0  0  0
 19 20  1  0  0  0  0
 19 21  2  0  0  0  0
 21 22  1  0  0  0  0
 21 40  1  0  0  0  0
 22 23  2  0  0  0  0
 22 41  1  0  0  0  0
 23 24  1  0  0  0  0
M  CHG  1   6   1
M  END
> <s_m_source_file>
AV-unprocessed.smi

> <i_m_source_file_index>
1036

> <i_lp_mmshare_version>
43012

> <i_f3d_flags>
0

> <s_epik_input>
W09IXVtDSDJdW0NIMl1bTkhdYyhuMSluKGMoYzEyKVtjSF1bY0hdW2NIXVtjSF0yKVtDSDJdW0NASF0oW09IXSljM1tjSF1jKEYpW2NIXVtjSF1jM0Y=

> <s_epik_cmdline>
J2VwaWtfcHl0aG9uJywgJy1waCcsICc3LjAnLCAnLXRuJywgJzgnLCAnLW1hJywgJzIwMCcsICctbWV0YWxfYmluZGluZycsICctaW1hZScsICc8aW5maWxlLm1hZT4nLCAnLW9tYWUnLCAnPG91dGZpbGUubWFlPic=

> <r_epik_Ionization_Penalty>
0.0688114

> <r_epik_Ionization_Penalty_Charging>
0.0688055

> <r_epik_Ionization_Penalty_Neutral>
5.85933e-06

> <r_epik_State_Penalty>
0.0602293

> <r_epik_Charging_Adjusted_Penalty>
0.129035

> <i_epik_Tot_Q>
1

> <i_epik_Tot_abs_Q>
1

> <r_epik_Metal_State_Penalty>
2.77411

> <b_epik_Metal_Only>
0

> <s_lp_Force_Field>
OPLS_2005

> <r_lp_Energy>
18.4992

> <b_lp_Chiralities_Consistent>
1

> <s_lp_Variant>
AV-unprocessed.smi:1036-1

> <Gold.Version>
5.8.1

> <Gold.Id.Protein>
6NUR|6NUR_protein|mol2

> <Gold.PLP.Fitness>
58.0400

> <Gold.PLP.PLP>
-49.4505

> <Gold.PLP.part.hbond>
-2.5389

> <Gold.PLP.part.metal>
0.0000

> <Gold.PLP.part.buried>
0.4023

> <Gold.PLP.part.nonpolar>
-47.9728

> <Gold.PLP.part.repulsive>
0.1322

> <Gold.PLP.ligand.clash>
0.0000

> <Gold.PLP.ligand.torsion>
0.2233

> <Gold.PLP.Chemscore.Hbond>
3.0000

> <Gold.PLP.Chemscore.CHOScore>
0.0000

> <Gold.PLP.Chemscore.Metal>
0.0000

> <Gold.Chemscore.Hbonds>
donor molecule, donor type, donor heavy atom, donor atom, acceptor molecule, acceptor atom, score
      L1  H     6    42       P1  7948  2.00
      P1  H 10752 10764       L1     1  0.95

> <Gold.PLP.Chemscore.Internal.Correction>
0.0362

> <Gold.Rescore>
     Score         DG    S(hbond)    S(metal)    S(lipo)     H(rot)  DE(clash)    DE(int)     intcor
     15.60     -17.07       1.84        0.00     118.41       3.29       1.35       0.12       ----

> <Gold.Chemscore.Fitness>
15.6036

> <Gold.Chemscore.DG>
-17.0735

> <Gold.Chemscore.ZeroCoef>
-5.4800

> <Gold.Chemscore.Hbond>
1.8430

> <Gold.Chemscore.Metal>
0.0000

> <Gold.Chemscore.Lipo>
118.4092

> <Gold.Chemscore.Internal_Hbond>
0.0000

> <Gold.Chemscore.DEClash>
1.3461

> <Gold.Chemscore.DEInternal>
0.1239

> <Gold.Chemscore.Rot>
3.2874

> <Gold.Chemscore.Internal.Correction>
   9.000000E+99

> <Gold.Chemscore.Hbonds>
donor molecule, donor type, donor heavy atom, donor atom, acceptor molecule, acceptor atom, score
      L1  H     6    42       P1  7948  0.89
      P1  H 10752 10764       L1     1  0.22

> <Gold.Chemscore.Hbond.Weighted>
-6.1555

> <Gold.Chemscore.Metal.Weighted>
-0.0000

> <Gold.Chemscore.Lipo.Weighted>
-13.8539

> <Gold.Chemscore.Internal_Hbond.Weighted>
0.0000

> <Gold.Chemscore.DEClash.Weighted>
1.3461

> <Gold.Chemscore.DEInternal.Weighted>
0.1239

> <Gold.Chemscore.Rot.Weighted>
8.4158

> <Gold.Chemscore.Internal.Correction.Weighted>
   9.000000E+99

> <Gold.Protein.RotatedTorsions>
[ 6907 6896 6895 6894 ] final    1.21 input  -60.11 | X-H torsion
[ 7974 7965 7964 7962 ] final  121.57 input  175.53 | X-H torsion
[ 8008 7997 7996 7995 ] final  -71.77 input   59.86 | X-H torsion
[ 10167 10162 10161 10158 ] final -159.91 input  -65.29 | X-H torsion
[ 10718 10713 10712 10709 ] final  -56.51 input   66.30 | X-H torsion
[ 10763 10752 10751 10750 ] final   -9.83 input  -60.55 | X-H torsion
[ 11005 11000 10999 10996 ] final  116.03 input  -57.11 | X-H torsion

> <Gold.Protein.ActiveResidues>
 VAL166  LYS551  ARG553  GLY616  TRP617  ASP618  TYR619  PRO620  LYS621  CYS622 
 ASP623  PHE694  ASN695  SER759  ASP760  ASP761  ALA762  ILE779  LEU786  VAL792 
 PHE793  MET794  SER795  GLU796  ALA797  LYS798  CYS799  TRP800  GLU811  SER814 

> <Gold.Protein.RotatedAtoms>
  151.5889  135.1054  160.0034 H   0  0  0  0  0  0  0  0  0  0  0  0  # atno 6907 bound_to 6896
  152.4316  133.7284  159.6584 H   0  0  0  0  0  0  0  0  0  0  0  0  # atno 6908 bound_to 6896
  150.8209  133.8183  159.3162 H   0  0  0  0  0  0  0  0  0  0  0  0  # atno 6909 bound_to 6896
  145.1178  139.3409  143.4730 H   0  0  0  0  0  0  0  0  0  0  0  0  # atno 7974 bound_to 7965
  154.5113  140.0809  156.7996 H   0  0  0  0  0  0  0  0  0  0  0  0  # atno 8008 bound_to 7997
  155.3778  140.3426  155.4227 H   0  0  0  0  0  0  0  0  0  0  0  0  # atno 8009 bound_to 7997
  156.1577  140.1578  156.8653 H   0  0  0  0  0  0  0  0  0  0  0  0  # atno 8010 bound_to 7997
  139.6579  143.9966  152.2206 H   0  0  0  0  0  0  0  0  0  0  0  0  # atno 10167 bound_to 10162
  156.1283  130.4161  150.0315 H   0  0  0  0  0  0  0  0  0  0  0  0  # atno 10718 bound_to 10713
  153.4605  135.7016  153.6053 H   0  0  0  0  0  0  0  0  0  0  0  0  # atno 10763 bound_to 10752
  153.4350  135.3793  155.2194 H   0  0  0  0  0  0  0  0  0  0  0  0  # atno 10764 bound_to 10752
  154.8727  135.3960  154.4029 H   0  0  0  0  0  0  0  0  0  0  0  0  # atno 10765 bound_to 10752
  139.9028  134.9592  156.7136 H   0  0  0  0  0  0  0  0  0  0  0  0  # atno 11005 bound_to 11000
  146.3523  140.1124  142.8603 LP  0  0  0  0  0  0  0  0  0  0  0  0  # atno 17320 bound_to 7965
  145.0774  140.9198  143.4845 LP  0  0  0  0  0  0  0  0  0  0  0  0  # atno 17321 bound_to 7965
  139.9697  144.6502  150.8001 LP  0  0  0  0  0  0  0  0  0  0  0  0  # atno 17342 bound_to 10162
  140.7567  143.3071  151.2934 LP  0  0  0  0  0  0  0  0  0  0  0  0  # atno 17343 bound_to 10162
  156.8234  130.9367  151.3640 LP  0  0  0  0  0  0  0  0  0  0  0  0  # atno 17370 bound_to 10713
  157.6463  130.8847  149.9545 LP  0  0  0  0  0  0  0  0  0  0  0  0  # atno 17371 bound_to 10713
  140.7056  133.9268  155.8052 LP  0  0  0  0  0  0  0  0  0  0  0  0  # atno 17394 bound_to 11000
  141.0339  134.0717  157.3982 LP  0  0  0  0  0  0  0  0  0  0  0  0  # atno 17395 bound_to 11000

$$$$
