AV-unprocessed.smi:537|AV-procd|sdf|2865|dock3
  -GOLD-   2262023353D 1   1.00000     0.00000
 Structure written by MMmdl.
 32 33  0  0  0  0  0  0  0  0  2 V2000
  148.1673  142.0970  154.1141 C   0  0  0  0  0  0  0  0  0  0  0  0
  149.0024  142.1187  155.2985 N   0  0  0  0  0  0  0  0  0  0  0  0
  149.9914  141.2518  155.7474 C   0  0  0  0  0  0  0  0  0  0  0  0
  150.3771  140.1502  155.1019 N   0  0  0  0  0  0  0  0  0  0  0  0
  151.3705  139.6488  155.9313 C   0  0  0  0  0  0  0  0  0  0  0  0
  151.5533  140.4387  157.0239 C   0  0  0  0  0  0  0  0  0  0  0  0
  152.5529  140.1630  158.0787 C   0  0  0  0  0  0  0  0  0  0  0  0
  152.6856  140.9139  159.0429 O   0  0  0  0  0  0  0  0  0  0  0  0
  153.2622  139.0167  157.8294 N   0  5  0  0  0  0  0  0  0  0  0  0
  153.1068  138.1855  156.7400 C   0  0  0  0  0  0  0  0  0  0  0  0
  153.7918  137.1719  156.6014 O   0  0  0  0  0  0  0  0  0  0  0  0
  152.1703  138.4851  155.7833 N   0  0  0  0  0  0  0  0  0  0  0  0
  151.9434  137.6540  154.5970 C   0  0  0  0  0  0  0  0  0  0  0  0
  150.6427  141.4942  156.9121 N   0  0  0  0  0  0  0  0  0  0  0  0
  150.4281  142.6172  157.8212 C   0  0  0  0  0  0  0  0  0  0  0  0
  151.5627  143.6498  157.7452 C   0  0  0  0  0  0  0  0  0  0  0  0
  151.4185  144.6105  158.7780 O   0  0  0  0  0  0  0  0  0  0  0  0
  152.1128  144.2508  159.9586 C   0  0  0  0  0  0  0  0  0  0  0  0
  147.4890  142.9500  154.1142 H   0  0  0  0  0  0  0  0  0  0  0  0
  147.5755  141.1820  154.0851 H   0  0  0  0  0  0  0  0  0  0  0  0
  148.7825  142.1413  153.2153 H   0  0  0  0  0  0  0  0  0  0  0  0
  148.8291  142.9069  155.9050 H   0  0  0  0  0  0  0  0  0  0  0  0
  152.5749  136.7672  154.5388 H   0  0  0  0  0  0  0  0  0  0  0  0
  152.1224  138.2397  153.6950 H   0  0  0  0  0  0  0  0  0  0  0  0
  150.9074  137.3149  154.5757 H   0  0  0  0  0  0  0  0  0  0  0  0
  149.4777  143.0929  157.5784 H   0  0  0  0  0  0  0  0  0  0  0  0
  150.3104  142.2492  158.8386 H   0  0  0  0  0  0  0  0  0  0  0  0
  152.5270  143.1481  157.8401 H   0  0  0  0  0  0  0  0  0  0  0  0
  151.5465  144.1428  156.7723 H   0  0  0  0  0  0  0  0  0  0  0  0
  151.9710  145.0223  160.7154 H   0  0  0  0  0  0  0  0  0  0  0  0
  153.1830  144.1538  159.7722 H   0  0  0  0  0  0  0  0  0  0  0  0
  151.7403  143.3091  160.3636 H   0  0  0  0  0  0  0  0  0  0  0  0
  1  2  1  0  0  0  0
  1 19  1  0  0  0  0
  1 20  1  0  0  0  0
  1 21  1  0  0  0  0
  2  3  1  0  0  0  0
  2 22  1  0  0  0  0
  3 14  1  0  0  0  0
  3  4  2  0  0  0  0
  4  5  1  0  0  0  0
  5 12  1  0  0  0  0
  5  6  2  0  0  0  0
  6  7  1  0  0  0  0
  6 14  1  0  0  0  0
  7  8  2  0  0  0  0
  7  9  1  0  0  0  0
  9 10  1  0  0  0  0
 10 11  2  0  0  0  0
 10 12  1  0  0  0  0
 12 13  1  0  0  0  0
 13 23  1  0  0  0  0
 13 24  1  0  0  0  0
 13 25  1  0  0  0  0
 14 15  1  0  0  0  0
 15 16  1  0  0  0  0
 15 26  1  0  0  0  0
 15 27  1  0  0  0  0
 16 17  1  0  0  0  0
 16 28  1  0  0  0  0
 16 29  1  0  0  0  0
 17 18  1  0  0  0  0
 18 30  1  0  0  0  0
 18 31  1  0  0  0  0
 18 32  1  0  0  0  0
M  CHG  1   9  -1
M  END
> <s_m_source_file>
AV-unprocessed.smi

> <i_m_source_file_index>
537

> <i_lp_mmshare_version>
43012

> <i_f3d_flags>
0

> <s_epik_input>
W0NIM11PW0NIMl1bQ0gyXW4oYyhuMSlbTkhdW0NIM10pYyhjMTIpYyg9TylbbkhdYyg9TyluMltDSDNd

> <s_epik_cmdline>
J2VwaWtfcHl0aG9uJywgJy1waCcsICc3LjAnLCAnLXRuJywgJzgnLCAnLW1hJywgJzIwMCcsICctbWV0YWxfYmluZGluZycsICctaW1hZScsICc8aW5maWxlLm1hZT4nLCAnLW9tYWUnLCAnPG91dGZpbGUubWFlPic=

> <r_lp_tautomer_probability>
1

> <r_epik_Ionization_Penalty>
6.3083

> <r_epik_Ionization_Penalty_Charging>
1.44173e-08

> <r_epik_Ionization_Penalty_Neutral>
6.3083

> <r_epik_State_Penalty>
6.30819

> <r_epik_Charging_Adjusted_Penalty>
6.30819

> <i_epik_Tot_Q>
-1

> <i_epik_Tot_abs_Q>
1

> <r_epik_Metal_State_Penalty>
2.24297

> <b_epik_Metal_Only>
1

> <s_lp_Force_Field>
OPLS_2005

> <r_lp_Energy>
24.4874

> <b_lp_Chiralities_Consistent>
1

> <s_lp_Variant>
AV-unprocessed.smi:537-2

> <Gold.Version>
5.8.1

> <Gold.Id.Protein>
6NUR|6NUR_protein|mol2

> <Gold.PLP.Fitness>
39.7100

> <Gold.PLP.PLP>
-32.4044

> <Gold.PLP.part.hbond>
-3.9712

> <Gold.PLP.part.metal>
0.0000

> <Gold.PLP.part.buried>
-0.6634

> <Gold.PLP.part.nonpolar>
-28.3601

> <Gold.PLP.part.repulsive>
0.3638

> <Gold.PLP.ligand.clash>
0.0000

> <Gold.PLP.ligand.torsion>
0.3767

> <Gold.PLP.Chemscore.Hbond>
2.6852

> <Gold.PLP.Chemscore.CHOScore>
0.0000

> <Gold.PLP.Chemscore.Metal>
0.0000

> <Gold.Chemscore.Hbonds>
donor molecule, donor type, donor heavy atom, donor atom, acceptor molecule, acceptor atom, score
      L1  H     2    22       P1  8028  0.67
      P1  H  7989  7998       L1     4  0.65
      P1  H  7997  8009       L1     9  0.58
      P1  H 10752 10765       L1    11  0.42

> <Gold.PLP.Chemscore.Internal.Correction>
0.0032

> <Gold.Rescore>
     Score         DG    S(hbond)    S(metal)    S(lipo)     H(rot)  DE(clash)    DE(int)     intcor
     11.38     -12.90       1.55        0.00      55.04       1.64       1.19       0.33       ----

> <Gold.Chemscore.Fitness>
11.3801

> <Gold.Chemscore.DG>
-12.8971

> <Gold.Chemscore.ZeroCoef>
-5.4800

> <Gold.Chemscore.Hbond>
1.5526

> <Gold.Chemscore.Metal>
0.0000

> <Gold.Chemscore.Lipo>
55.0420

> <Gold.Chemscore.Internal_Hbond>
0.0000

> <Gold.Chemscore.DEClash>
1.1864

> <Gold.Chemscore.DEInternal>
0.3306

> <Gold.Chemscore.Rot>
1.6439

> <Gold.Chemscore.Internal.Correction>
   9.000000E+99

> <Gold.Chemscore.Hbonds>
donor molecule, donor type, donor heavy atom, donor atom, acceptor molecule, acceptor atom, score
      L1  H     2    22       P1  8028  0.66
      P1  H  7989  7998       L1     4  0.07
      P1  H 10752 10765       L1    11  0.41

> <Gold.Chemscore.Hbond.Weighted>
-5.1856

> <Gold.Chemscore.Metal.Weighted>
-0.0000

> <Gold.Chemscore.Lipo.Weighted>
-6.4399

> <Gold.Chemscore.Internal_Hbond.Weighted>
0.0000

> <Gold.Chemscore.DEClash.Weighted>
1.1864

> <Gold.Chemscore.DEInternal.Weighted>
0.3306

> <Gold.Chemscore.Rot.Weighted>
4.2085

> <Gold.Chemscore.Internal.Correction.Weighted>
   9.000000E+99

> <Gold.Protein.RotatedTorsions>
[ 6907 6896 6895 6894 ] final    1.71 input  -60.11 | X-H torsion
[ 7974 7965 7964 7962 ] final  126.97 input  175.53 | X-H torsion
[ 8008 7997 7996 7995 ] final  157.77 input   59.86 | X-H torsion
[ 10167 10162 10161 10158 ] final  179.31 input  -65.29 | X-H torsion
[ 10718 10713 10712 10709 ] final   62.59 input   66.30 | X-H torsion
[ 10763 10752 10751 10750 ] final -118.78 input  -60.55 | X-H torsion
[ 11005 11000 10999 10996 ] final -164.25 input  -57.11 | X-H torsion

> <Gold.Protein.ActiveResidues>
 VAL166  LYS551  ARG553  GLY616  TRP617  ASP618  TYR619  PRO620  LYS621  CYS622 
 ASP623  PHE694  ASN695  SER759  ASP760  ASP761  ALA762  ILE779  LEU786  VAL792 
 PHE793  MET794  SER795  GLU796  ALA797  LYS798  CYS799  TRP800  GLU811  SER814 

> <Gold.Protein.RotatedAtoms>
  151.5971  135.1050  160.0051 H   0  0  0  0  0  0  0  0  0  0  0  0  # atno 6907 bound_to 6896
  152.4277  133.7219  159.6549 H   0  0  0  0  0  0  0  0  0  0  0  0  # atno 6908 bound_to 6896
  150.8167  133.8254  159.3180 H   0  0  0  0  0  0  0  0  0  0  0  0  # atno 6909 bound_to 6896
  145.0558  139.3845  143.5031 H   0  0  0  0  0  0  0  0  0  0  0  0  # atno 7974 bound_to 7965
  156.2343  140.1876  156.7160 H   0  0  0  0  0  0  0  0  0  0  0  0  # atno 8008 bound_to 7997
  154.6079  140.0626  156.9482 H   0  0  0  0  0  0  0  0  0  0  0  0  # atno 8009 bound_to 7997
  155.2065  140.3296  155.4338 H   0  0  0  0  0  0  0  0  0  0  0  0  # atno 8010 bound_to 7997
  139.5331  144.2577  152.0733 H   0  0  0  0  0  0  0  0  0  0  0  0  # atno 10167 bound_to 10162
  157.5911  130.9058  149.9607 H   0  0  0  0  0  0  0  0  0  0  0  0  # atno 10718 bound_to 10713
  154.8598  135.4261  154.2194 H   0  0  0  0  0  0  0  0  0  0  0  0  # atno 10763 bound_to 10752
  153.3202  135.6981  153.7043 H   0  0  0  0  0  0  0  0  0  0  0  0  # atno 10764 bound_to 10752
  153.6101  135.3521  155.2949 H   0  0  0  0  0  0  0  0  0  0  0  0  # atno 10765 bound_to 10752
  140.5890  134.5064  157.5190 H   0  0  0  0  0  0  0  0  0  0  0  0  # atno 11005 bound_to 11000
  146.3521  140.0231  142.8657 LP  0  0  0  0  0  0  0  0  0  0  0  0  # atno 17320 bound_to 7965
  145.1470  140.9602  143.4455 LP  0  0  0  0  0  0  0  0  0  0  0  0  # atno 17321 bound_to 7965
  140.2043  144.4626  150.6416 LP  0  0  0  0  0  0  0  0  0  0  0  0  # atno 17342 bound_to 10162
  140.6521  143.2227  151.6053 LP  0  0  0  0  0  0  0  0  0  0  0  0  # atno 17343 bound_to 10162
  156.0966  130.3659  150.0295 LP  0  0  0  0  0  0  0  0  0  0  0  0  # atno 17370 bound_to 10713
  156.8417  130.9428  151.3631 LP  0  0  0  0  0  0  0  0  0  0  0  0  # atno 17371 bound_to 10713
  139.9283  134.8013  156.1005 LP  0  0  0  0  0  0  0  0  0  0  0  0  # atno 17394 bound_to 11000
  141.0947  133.6700  156.2619 LP  0  0  0  0  0  0  0  0  0  0  0  0  # atno 17395 bound_to 11000

$$$$
