AV-unprocessed.smi:2881|AV-procd|sdf|11059|dock10
  -GOLD-   2272015533D 1   1.00000     0.00000
 Structure written by MMmdl.
 40 42  0  0  0  0  0  0  0  0  1 V2000
  144.2118  142.2237  155.4352 C   0  0  0  0  0  0  0  0  0  0  0  0
  145.5956  141.7617  155.1271 C   0  0  0  0  0  0  0  0  0  0  0  0
  146.8121  142.1835  155.5840 C   0  0  0  0  0  0  0  0  0  0  0  0
  147.7525  141.3502  154.9084 C   0  0  0  0  0  0  0  0  0  0  0  0
  149.2532  141.3718  155.0178 C   0  0  0  0  0  0  0  0  0  0  0  0
  149.6668  141.3538  156.4893 C   0  0  0  0  0  0  0  0  0  0  0  0
  149.5842  140.3127  157.1407 O   0  0  0  0  0  0  0  0  0  0  0  0
  150.1084  142.5141  156.9994 N   0  0  0  0  0  0  0  0  0  0  0  0
  150.4881  142.7391  158.3943 C   0  0  2  0  0  0  0  0  0  0  0  0
  151.0161  144.1792  158.5718 C   0  0  1  0  0  0  0  0  0  0  0  0
  151.0354  144.5284  160.0711 C   0  0  0  0  0  0  0  0  0  0  0  0
  152.2049  143.6749  160.5977 C   0  0  0  0  0  0  0  0  0  0  0  0
  152.7016  142.9527  159.3293 C   0  0  2  0  0  0  0  0  0  0  0  0
  152.5023  144.0293  158.2700 C   0  0  0  0  0  0  0  0  0  0  0  0
  151.6730  141.8704  158.9175 C   0  0  2  0  0  0  0  0  0  0  0  0
  152.2464  140.8266  157.9323 C   0  0  0  0  0  0  0  0  0  0  0  0
  153.3250  140.1314  158.5224 O   0  0  0  0  0  0  0  0  0  0  0  0
  147.1640  140.4764  154.1025 N   0  0  0  0  0  0  0  0  0  0  0  0
  145.8513  140.7386  154.2431 N   0  0  0  0  0  0  0  0  0  0  0  0
  145.1497  140.2184  153.7357 H   0  0  0  0  0  0  0  0  0  0  0  0
  144.2184  142.9701  156.2299 H   0  0  0  0  0  0  0  0  0  0  0  0
  143.5873  141.3915  155.7607 H   0  0  0  0  0  0  0  0  0  0  0  0
  143.7490  142.6726  154.5559 H   0  0  0  0  0  0  0  0  0  0  0  0
  147.0055  142.9753  156.2926 H   0  0  0  0  0  0  0  0  0  0  0  0
  149.6823  140.5051  154.5138 H   0  0  0  0  0  0  0  0  0  0  0  0
  149.6709  142.2522  154.5266 H   0  0  0  0  0  0  0  0  0  0  0  0
  150.1419  143.3158  156.3859 H   0  0  0  0  0  0  0  0  0  0  0  0
  149.6063  142.5948  159.0218 H   0  0  0  0  0  0  0  0  0  0  0  0
  150.4951  144.9217  157.9657 H   0  0  0  0  0  0  0  0  0  0  0  0
  151.2393  145.5894  160.2198 H   0  0  0  0  0  0  0  0  0  0  0  0
  150.0922  144.2965  160.5669 H   0  0  0  0  0  0  0  0  0  0  0  0
  152.9866  144.3128  161.0120 H   0  0  0  0  0  0  0  0  0  0  0  0
  151.8954  142.9795  161.3786 H   0  0  0  0  0  0  0  0  0  0  0  0
  153.7245  142.5865  159.4212 H   0  0  0  0  0  0  0  0  0  0  0  0
  152.7083  143.6879  157.2545 H   0  0  0  0  0  0  0  0  0  0  0  0
  153.0765  144.9374  158.4618 H   0  0  0  0  0  0  0  0  0  0  0  0
  151.3420  141.3273  159.8044 H   0  0  0  0  0  0  0  0  0  0  0  0
  151.4867  140.0904  157.6700 H   0  0  0  0  0  0  0  0  0  0  0  0
  152.5846  141.2916  157.0063 H   0  0  0  0  0  0  0  0  0  0  0  0
  153.0260  139.7427  159.3303 H   0  0  0  0  0  0  0  0  0  0  0  0
  1  2  1  0  0  0  0
  1 21  1  0  0  0  0
  1 22  1  0  0  0  0
  1 23  1  0  0  0  0
  2 19  1  0  0  0  0
  2  3  2  0  0  0  0
  3  4  1  0  0  0  0
  3 24  1  0  0  0  0
  4  5  1  0  0  0  0
  4 18  2  0  0  0  0
  5  6  1  0  0  0  0
  5 25  1  0  0  0  0
  5 26  1  0  0  0  0
  6  7  2  0  0  0  0
  6  8  1  0  0  0  0
  8  9  1  0  0  0  0
  8 27  1  0  0  0  0
  9 15  1  0  0  0  0
  9 10  1  0  0  0  0
  9 28  1  0  0  0  0
 10 14  1  0  0  0  0
 10 11  1  0  0  0  0
 10 29  1  0  0  0  0
 11 12  1  0  0  0  0
 11 30  1  0  0  0  0
 11 31  1  0  0  0  0
 12 13  1  0  0  0  0
 12 32  1  0  0  0  0
 12 33  1  0  0  0  0
 13 14  1  0  0  0  0
 13 15  1  0  0  0  0
 13 34  1  0  0  0  0
 14 35  1  0  0  0  0
 14 36  1  0  0  0  0
 15 16  1  0  0  0  0
 15 37  1  0  0  0  0
 16 17  1  0  0  0  0
 16 38  1  0  0  0  0
 16 39  1  0  0  0  0
 17 40  1  0  0  0  0
 18 19  1  0  0  0  0
 19 20  1  0  0  0  0
M  END
> <s_m_source_file>
AV-unprocessed.smi

> <i_m_source_file_index>
2881

> <i_lp_mmshare_version>
43012

> <i_f3d_flags>
0

> <s_epik_input>
W0NIM11jMVtjSF1jKG5bbkhdMSlbQ0gyXUMoPU8pW05IXVtDQEhdKFtDQEBIXTIzKVtDQEhdKFtDSDJdW09IXSlbQ0BASF0oW0NIMl0zKVtDSDJdW0NIMl0y

> <s_epik_cmdline>
J2VwaWtfcHl0aG9uJywgJy1waCcsICc3LjAnLCAnLXRuJywgJzgnLCAnLW1hJywgJzIwMCcsICctbWV0YWxfYmluZGluZycsICctaW1hZScsICc8aW5maWxlLm1hZT4nLCAnLW9tYWUnLCAnPG91dGZpbGUubWFlPic=

> <r_lp_tautomer_probability>
0.5

> <r_epik_Ionization_Penalty>
9.4349e-05

> <r_epik_Ionization_Penalty_Charging>
0

> <r_epik_Ionization_Penalty_Neutral>
9.4349e-05

> <r_epik_State_Penalty>
0.41068

> <r_epik_Charging_Adjusted_Penalty>
0.41068

> <i_epik_Tot_Q>
0

> <i_epik_Tot_abs_Q>
0

> <r_epik_Metal_State_Penalty>
0.4107

> <b_epik_Metal_Only>
0

> <s_lp_Force_Field>
OPLS_2005

> <r_lp_Energy>
48.9716

> <b_lp_Chiralities_Consistent>
1

> <s_lp_Variant>
AV-unprocessed.smi:2881-5

> <Gold.Version>
5.8.1

> <Gold.Id.Protein>
6NUR|6NUR_protein|mol2

> <Gold.PLP.Fitness>
45.0700

> <Gold.PLP.PLP>
-37.4597

> <Gold.PLP.part.hbond>
-3.0000

> <Gold.PLP.part.metal>
0.0000

> <Gold.PLP.part.buried>
-4.6643

> <Gold.PLP.part.nonpolar>
-31.0377

> <Gold.PLP.part.repulsive>
0.1776

> <Gold.PLP.ligand.clash>
0.0000

> <Gold.PLP.ligand.torsion>
0.2936

> <Gold.PLP.Chemscore.Hbond>
2.7280

> <Gold.PLP.Chemscore.CHOScore>
0.0000

> <Gold.PLP.Chemscore.Metal>
0.0000

> <Gold.Chemscore.Hbonds>
donor molecule, donor type, donor heavy atom, donor atom, acceptor molecule, acceptor atom, score
      L1  H     8    27       P1  8028  0.78
      L1  H    19    20       P1 10175  0.82
      P1  H  7997  8008       L1    17  0.99

> <Gold.PLP.Chemscore.Internal.Correction>
0.0135

> <Gold.Rescore>
     Score         DG    S(hbond)    S(metal)    S(lipo)     H(rot)  DE(clash)    DE(int)     intcor
     19.33     -19.75       2.41        0.00     103.07       2.28       0.27       0.16       ----

> <Gold.Chemscore.Fitness>
19.3277

> <Gold.Chemscore.DG>
-19.7549

> <Gold.Chemscore.ZeroCoef>
-5.4800

> <Gold.Chemscore.Hbond>
2.4075

> <Gold.Chemscore.Metal>
0.0000

> <Gold.Chemscore.Lipo>
103.0684

> <Gold.Chemscore.Internal_Hbond>
0.0000

> <Gold.Chemscore.DEClash>
0.2697

> <Gold.Chemscore.DEInternal>
0.1575

> <Gold.Chemscore.Rot>
2.2755

> <Gold.Chemscore.Internal.Correction>
   9.000000E+99

> <Gold.Chemscore.Hbonds>
donor molecule, donor type, donor heavy atom, donor atom, acceptor molecule, acceptor atom, score
      L1  H     8    27       P1  8028  0.73
      L1  H    19    20       P1 10175  0.81
      P1  H  7997  8008       L1    17  0.37

> <Gold.Chemscore.Hbond.Weighted>
-8.0411

> <Gold.Chemscore.Metal.Weighted>
-0.0000

> <Gold.Chemscore.Lipo.Weighted>
-12.0590

> <Gold.Chemscore.Internal_Hbond.Weighted>
0.0000

> <Gold.Chemscore.DEClash.Weighted>
0.2697

> <Gold.Chemscore.DEInternal.Weighted>
0.1575

> <Gold.Chemscore.Rot.Weighted>
5.8252

> <Gold.Chemscore.Internal.Correction.Weighted>
   9.000000E+99

> <Gold.Protein.RotatedTorsions>
[ 6907 6896 6895 6894 ] final   16.75 input  -60.11 | X-H torsion
[ 7974 7965 7964 7962 ] final  142.70 input  175.53 | X-H torsion
[ 8008 7997 7996 7995 ] final  -89.11 input   59.86 | X-H torsion
[ 10167 10162 10161 10158 ] final -165.90 input  -65.29 | X-H torsion
[ 10718 10713 10712 10709 ] final -107.23 input   66.30 | X-H torsion
[ 10763 10752 10751 10750 ] final  109.03 input  -60.55 | X-H torsion
[ 11005 11000 10999 10996 ] final -115.90 input  -57.11 | X-H torsion

> <Gold.Protein.ActiveResidues>
 VAL166  LYS551  ARG553  GLY616  TRP617  ASP618  TYR619  PRO620  LYS621  CYS622 
 ASP623  PHE694  ASN695  SER759  ASP760  ASP761  ALA762  ILE779  LEU786  VAL792 
 PHE793  MET794  SER795  GLU796  ALA797  LYS798  CYS799  TRP800  GLU811  SER814 

> <Gold.Protein.RotatedAtoms>
  151.8388  135.0597  160.0445 H   0  0  0  0  0  0  0  0  0  0  0  0  # atno 6907 bound_to 6896
  152.2825  133.5479  159.5515 H   0  0  0  0  0  0  0  0  0  0  0  0  # atno 6908 bound_to 6896
  150.7195  134.0460  159.3824 H   0  0  0  0  0  0  0  0  0  0  0  0  # atno 6909 bound_to 6896
  144.8985  139.5456  143.5765 H   0  0  0  0  0  0  0  0  0  0  0  0  # atno 7974 bound_to 7965
  154.6827  140.0545  157.0283 H   0  0  0  0  0  0  0  0  0  0  0  0  # atno 8008 bound_to 7997
  155.0928  140.3221  155.4550 H   0  0  0  0  0  0  0  0  0  0  0  0  # atno 8009 bound_to 7997
  156.2700  140.2045  156.6055 H   0  0  0  0  0  0  0  0  0  0  0  0  # atno 8010 bound_to 7997
  139.6151  144.0736  152.1880 H   0  0  0  0  0  0  0  0  0  0  0  0  # atno 10167 bound_to 10162
  156.0427  130.5652  150.7793 H   0  0  0  0  0  0  0  0  0  0  0  0  # atno 10718 bound_to 10713
  153.4290  135.3793  155.2158 H   0  0  0  0  0  0  0  0  0  0  0  0  # atno 10763 bound_to 10752
  154.8749  135.3835  154.4291 H   0  0  0  0  0  0  0  0  0  0  0  0  # atno 10764 bound_to 10752
  153.4821  135.7088  153.5995 H   0  0  0  0  0  0  0  0  0  0  0  0  # atno 10765 bound_to 10752
  141.0457  133.9766  157.2921 H   0  0  0  0  0  0  0  0  0  0  0  0  # atno 11005 bound_to 11000
  146.3095  139.7696  142.9031 LP  0  0  0  0  0  0  0  0  0  0  0  0  # atno 17320 bound_to 7965
  145.3658  141.0334  143.3259 LP  0  0  0  0  0  0  0  0  0  0  0  0  # atno 17321 bound_to 7965
  140.0364  144.6041  150.7446 LP  0  0  0  0  0  0  0  0  0  0  0  0  # atno 17342 bound_to 10162
  140.7345  143.2730  151.3829 LP  0  0  0  0  0  0  0  0  0  0  0  0  # atno 17343 bound_to 10162
  157.5265  131.0934  151.0011 LP  0  0  0  0  0  0  0  0  0  0  0  0  # atno 17370 bound_to 10713
  157.0328  130.5718  149.5345 LP  0  0  0  0  0  0  0  0  0  0  0  0  # atno 17371 bound_to 10713
  139.9310  135.0200  156.8400 LP  0  0  0  0  0  0  0  0  0  0  0  0  # atno 17394 bound_to 11000
  140.6151  134.0046  155.7593 LP  0  0  0  0  0  0  0  0  0  0  0  0  # atno 17395 bound_to 11000

$$$$
