AV-unprocessed.smi:2817|AV-procd|sdf|10847|dock3
  -GOLD-   2272015293D 1   1.00000     0.00000
 Structure written by MMmdl.
 42 44  0  0  0  0  0  0  0  0  1 V2000
  151.6307  139.4857  154.8961 O   0  0  0  0  0  0  0  0  0  0  0  0
  151.2129  140.2193  155.7922 C   0  0  0  0  0  0  0  0  0  0  0  0
  151.8458  140.2938  157.1093 C   0  0  0  0  0  0  0  0  0  0  0  0
  151.3527  141.1106  158.0708 C   0  0  0  0  0  0  0  0  0  0  0  0
  151.9753  141.1904  159.4579 C   0  0  0  0  0  0  0  0  0  0  0  0
  152.7333  142.4881  159.7832 C   0  0  0  0  0  0  0  0  0  0  0  0
  153.7640  141.6258  160.5204 C   0  0  0  0  0  0  0  0  0  0  0  0
  153.3123  140.4529  159.6433 C   0  0  0  0  0  0  0  0  0  0  0  0
  150.2188  141.8940  157.8266 N   0  0  0  0  0  0  0  0  0  0  0  0
  149.6406  141.8468  156.6689 C   0  0  0  0  0  0  0  0  0  0  0  0
  150.1199  141.0213  155.6341 N   0  0  0  0  0  0  0  0  0  0  0  0
  149.3701  141.0579  154.3681 C   0  0  0  0  0  0  0  0  0  0  0  0
  147.9072  140.5914  154.5407 C   0  0  1  0  0  0  0  0  0  0  0  0
  147.8145  139.6177  155.5615 O   0  0  0  0  0  0  0  0  0  0  0  0
  146.9460  141.7383  154.8974 C   0  0  0  0  0  0  0  0  0  0  0  0
  146.9591  142.7224  153.8698 O   0  0  0  0  0  0  0  0  0  0  0  0
  146.0935  143.7896  153.9743 C   0  0  0  0  0  0  0  0  0  0  0  0
  146.0494  144.6853  152.8859 C   0  0  0  0  0  0  0  0  0  0  0  0
  145.1945  145.8039  152.9064 C   0  0  0  0  0  0  0  0  0  0  0  0
  144.3707  146.0390  154.0225 C   0  0  0  0  0  0  0  0  0  0  0  0
  144.4039  145.1532  155.1155 C   0  0  0  0  0  0  0  0  0  0  0  0
  145.2587  144.0340  155.0945 C   0  0  0  0  0  0  0  0  0  0  0  0
  152.7164  139.6859  157.3080 H   0  0  0  0  0  0  0  0  0  0  0  0
  151.2577  140.9320  160.2386 H   0  0  0  0  0  0  0  0  0  0  0  0
  153.1555  142.9792  158.9043 H   0  0  0  0  0  0  0  0  0  0  0  0
  152.1883  143.1897  160.4153 H   0  0  0  0  0  0  0  0  0  0  0  0
  154.8011  141.9308  160.3786 H   0  0  0  0  0  0  0  0  0  0  0  0
  153.5222  141.4844  161.5752 H   0  0  0  0  0  0  0  0  0  0  0  0
  153.2388  139.4962  160.1611 H   0  0  0  0  0  0  0  0  0  0  0  0
  153.8985  140.3718  158.7259 H   0  0  0  0  0  0  0  0  0  0  0  0
  148.7529  142.4341  156.4278 H   0  0  0  0  0  0  0  0  0  0  0  0
  149.4032  142.0451  153.9022 H   0  0  0  0  0  0  0  0  0  0  0  0
  149.8728  140.4056  153.6514 H   0  0  0  0  0  0  0  0  0  0  0  0
  147.5458  140.1310  153.6203 H   0  0  0  0  0  0  0  0  0  0  0  0
  147.5479  138.7985  155.1733 H   0  0  0  0  0  0  0  0  0  0  0  0
  145.9362  141.3338  154.9846 H   0  0  0  0  0  0  0  0  0  0  0  0
  147.2136  142.1711  155.8630 H   0  0  0  0  0  0  0  0  0  0  0  0
  146.6788  144.5124  152.0252 H   0  0  0  0  0  0  0  0  0  0  0  0
  145.1718  146.4813  152.0656 H   0  0  0  0  0  0  0  0  0  0  0  0
  143.7149  146.8969  154.0405 H   0  0  0  0  0  0  0  0  0  0  0  0
  143.7720  145.3317  155.9730 H   0  0  0  0  0  0  0  0  0  0  0  0
  145.2552  143.3779  155.9516 H   0  0  0  0  0  0  0  0  0  0  0  0
  1  2  2  0  0  0  0
  2 11  1  0  0  0  0
  2  3  1  0  0  0  0
  3  4  2  0  0  0  0
  3 23  1  0  0  0  0
  4  5  1  0  0  0  0
  4  9  1  0  0  0  0
  5  8  1  0  0  0  0
  5  6  1  0  0  0  0
  5 24  1  0  0  0  0
  6  7  1  0  0  0  0
  6 25  1  0  0  0  0
  6 26  1  0  0  0  0
  7  8  1  0  0  0  0
  7 27  1  0  0  0  0
  7 28  1  0  0  0  0
  8 29  1  0  0  0  0
  8 30  1  0  0  0  0
  9 10  2  0  0  0  0
 10 11  1  0  0  0  0
 10 31  1  0  0  0  0
 11 12  1  0  0  0  0
 12 13  1  0  0  0  0
 12 32  1  0  0  0  0
 12 33  1  0  0  0  0
 13 14  1  0  0  0  0
 13 15  1  0  0  0  0
 13 34  1  0  0  0  0
 14 35  1  0  0  0  0
 15 16  1  0  0  0  0
 15 36  1  0  0  0  0
 15 37  1  0  0  0  0
 16 17  1  0  0  0  0
 17 22  1  0  0  0  0
 17 18  2  0  0  0  0
 18 19  1  0  0  0  0
 18 38  1  0  0  0  0
 19 20  2  0  0  0  0
 19 39  1  0  0  0  0
 20 21  1  0  0  0  0
 20 40  1  0  0  0  0
 21 22  2  0  0  0  0
 21 41  1  0  0  0  0
 22 42  1  0  0  0  0
M  END
> <s_m_source_file>
AV-unprocessed.smi

> <i_m_source_file_index>
2817

> <i_lp_mmshare_version>
43012

> <i_f3d_flags>
0

> <s_epik_input>
W0NIMl0xW0NIMl1bQ0gyXVtDSF0xYyhbY0hdYzI9TyluW2NIXW4yW0NIMl1bQ0BIXShbT0hdKVtDSDJdT2MzW2NIXVtjSF1bY0hdW2NIXVtjSF0z

> <s_epik_cmdline>
J2VwaWtfcHl0aG9uJywgJy1waCcsICc3LjAnLCAnLXRuJywgJzgnLCAnLW1hJywgJzIwMCcsICctbWV0YWxfYmluZGluZycsICctaW1hZScsICc8aW5maWxlLm1hZT4nLCAnLW9tYWUnLCAnPG91dGZpbGUubWFlPic=

> <r_lp_tautomer_probability>
1

> <r_epik_Ionization_Penalty>
2.12778e-05

> <r_epik_Ionization_Penalty_Charging>
7.42033e-08

> <r_epik_Ionization_Penalty_Neutral>
2.12036e-05

> <r_epik_State_Penalty>
-0

> <r_epik_Charging_Adjusted_Penalty>
7.42033e-08

> <i_epik_Tot_Q>
0

> <i_epik_Tot_abs_Q>
0

> <r_epik_Metal_State_Penalty>
-0

> <b_epik_Metal_Only>
0

> <s_lp_Force_Field>
OPLS_2005

> <r_lp_Energy>
33.1228

> <b_lp_Chiralities_Consistent>
1

> <s_lp_Variant>
AV-unprocessed.smi:2817-2

> <Gold.Version>
5.8.1

> <Gold.Id.Protein>
6NUR|6NUR_protein|mol2

> <Gold.PLP.Fitness>
51.2825

> <Gold.PLP.PLP>
-46.9396

> <Gold.PLP.part.hbond>
-1.0000

> <Gold.PLP.part.metal>
0.0000

> <Gold.PLP.part.buried>
-3.5939

> <Gold.PLP.part.nonpolar>
-41.8871

> <Gold.PLP.part.repulsive>
0.3130

> <Gold.PLP.ligand.clash>
0.0000

> <Gold.PLP.ligand.torsion>
0.5755

> <Gold.PLP.Chemscore.Hbond>
1.0000

> <Gold.PLP.Chemscore.CHOScore>
0.6649

> <Gold.PLP.Chemscore.Metal>
0.0000

> <Gold.Chemscore.Hbonds>
donor molecule, donor type, donor heavy atom, donor atom, acceptor molecule, acceptor atom, score
      P1  H  7989  7998       L1     1  0.80
      L1  C    10    31       P1  8028  0.86

> <Gold.PLP.Chemscore.Internal.Correction>
0.4992

> <Gold.Rescore>
     Score         DG    S(hbond)    S(metal)    S(lipo)     H(rot)  DE(clash)    DE(int)     intcor
     13.72     -14.83       0.79        0.00     110.51       2.42       0.21       0.90       ----

> <Gold.Chemscore.Fitness>
13.7192

> <Gold.Chemscore.DG>
-14.8318

> <Gold.Chemscore.ZeroCoef>
-5.4800

> <Gold.Chemscore.Hbond>
0.7870

> <Gold.Chemscore.Metal>
0.0000

> <Gold.Chemscore.Lipo>
110.5111

> <Gold.Chemscore.Internal_Hbond>
0.0000

> <Gold.Chemscore.DEClash>
0.2107

> <Gold.Chemscore.DEInternal>
0.9019

> <Gold.Chemscore.Rot>
2.4245

> <Gold.Chemscore.Internal.Correction>
   9.000000E+99

> <Gold.Chemscore.Hbonds>
donor molecule, donor type, donor heavy atom, donor atom, acceptor molecule, acceptor atom, score
      P1  H  7989  7998       L1     1  0.12

> <Gold.Chemscore.Hbond.Weighted>
-2.6286

> <Gold.Chemscore.Metal.Weighted>
-0.0000

> <Gold.Chemscore.Lipo.Weighted>
-12.9298

> <Gold.Chemscore.Internal_Hbond.Weighted>
0.0000

> <Gold.Chemscore.DEClash.Weighted>
0.2107

> <Gold.Chemscore.DEInternal.Weighted>
0.9019

> <Gold.Chemscore.Rot.Weighted>
6.2066

> <Gold.Chemscore.Internal.Correction.Weighted>
   9.000000E+99

> <Gold.Protein.RotatedTorsions>
[ 6907 6896 6895 6894 ] final  -57.08 input  -60.11 | X-H torsion
[ 7974 7965 7964 7962 ] final -147.01 input  175.53 | X-H torsion
[ 8008 7997 7996 7995 ] final -134.49 input   59.86 | X-H torsion
[ 10167 10162 10161 10158 ] final -133.79 input  -65.29 | X-H torsion
[ 10718 10713 10712 10709 ] final  -50.18 input   66.30 | X-H torsion
[ 10763 10752 10751 10750 ] final -111.69 input  -60.55 | X-H torsion
[ 11005 11000 10999 10996 ] final -125.28 input  -57.11 | X-H torsion

> <Gold.Protein.ActiveResidues>
 VAL166  LYS551  ARG553  GLY616  TRP617  ASP618  TYR619  PRO620  LYS621  CYS622 
 ASP623  PHE694  ASN695  SER759  ASP760  ASP761  ALA762  ILE779  LEU786  VAL792 
 PHE793  MET794  SER795  GLU796  ALA797  LYS798  CYS799  TRP800  GLU811  SER814 

> <Gold.Protein.RotatedAtoms>
  150.8115  134.7272  159.6691 H   0  0  0  0  0  0  0  0  0  0  0  0  # atno 6907 bound_to 6896
  152.4234  134.5909  159.9984 H   0  0  0  0  0  0  0  0  0  0  0  0  # atno 6908 bound_to 6896
  151.6118  133.3309  159.3105 H   0  0  0  0  0  0  0  0  0  0  0  0  # atno 6909 bound_to 6896
  144.8121  140.5382  143.5635 H   0  0  0  0  0  0  0  0  0  0  0  0  # atno 7974 bound_to 7965
  155.3630  140.0484  157.3046 H   0  0  0  0  0  0  0  0  0  0  0  0  # atno 8008 bound_to 7997
  154.5168  140.2211  155.9013 H   0  0  0  0  0  0  0  0  0  0  0  0  # atno 8009 bound_to 7997
  156.1646  140.3109  155.8872 H   0  0  0  0  0  0  0  0  0  0  0  0  # atno 8010 bound_to 7997
  139.8947  143.6680  152.2606 H   0  0  0  0  0  0  0  0  0  0  0  0  # atno 10167 bound_to 10162
  156.1825  130.4151  149.9487 H   0  0  0  0  0  0  0  0  0  0  0  0  # atno 10718 bound_to 10713
  154.8313  135.4518  154.1079 H   0  0  0  0  0  0  0  0  0  0  0  0  # atno 10763 bound_to 10752
  153.2349  135.6910  153.7854 H   0  0  0  0  0  0  0  0  0  0  0  0  # atno 10764 bound_to 10752
  153.7223  135.3340  155.3245 H   0  0  0  0  0  0  0  0  0  0  0  0  # atno 10765 bound_to 10752
  140.9774  134.0721  157.3803 H   0  0  0  0  0  0  0  0  0  0  0  0  # atno 11005 bound_to 11000
  145.5299  139.1475  143.3505 LP  0  0  0  0  0  0  0  0  0  0  0  0  # atno 17320 bound_to 7965
  146.2421  140.5440  142.8930 LP  0  0  0  0  0  0  0  0  0  0  0  0  # atno 17321 bound_to 7965
  139.7079  144.7625  151.1162 LP  0  0  0  0  0  0  0  0  0  0  0  0  # atno 17342 bound_to 10162
  140.7719  143.5370  150.9356 LP  0  0  0  0  0  0  0  0  0  0  0  0  # atno 17343 bound_to 10162
  156.7253  130.9022  151.3621 LP  0  0  0  0  0  0  0  0  0  0  0  0  # atno 17370 bound_to 10713
  157.6877  130.9202  150.0430 LP  0  0  0  0  0  0  0  0  0  0  0  0  # atno 17371 bound_to 10713
  139.8936  135.0131  156.6908 LP  0  0  0  0  0  0  0  0  0  0  0  0  # atno 17394 bound_to 11000
  140.7238  133.9118  155.8165 LP  0  0  0  0  0  0  0  0  0  0  0  0  # atno 17395 bound_to 11000

$$$$
