AV-unprocessed.smi:1612|AV-procd|sdf|6476|dock6
  -GOLD-   22720 7133D 1   1.00000     0.00000
 Structure written by MMmdl.
 37 38  0  0  0  0  0  0  0  0  1 V2000
  152.2145  138.2790  154.4593 C   0  0  0  0  0  0  0  0  0  0  0  0
  151.2547  137.8920  155.5972 C   0  0  2  0  0  0  0  0  0  0  0  0
  151.4799  138.8176  156.7076 N   0  0  0  0  0  0  0  0  0  0  0  0
  151.5317  140.1540  156.5996 C   0  0  0  0  0  0  0  0  0  0  0  0
  151.4166  140.7519  155.5290 O   0  0  0  0  0  0  0  0  0  0  0  0
  151.7182  140.7322  157.7992 N   0  0  0  0  0  0  0  0  0  0  0  0
  151.8304  142.1161  158.0987 C   0  0  0  0  0  0  0  0  0  0  0  0
  152.6474  142.4233  159.2104 C   0  0  0  0  0  0  0  0  0  0  0  0
  152.8250  143.7679  159.5893 C   0  0  0  0  0  0  0  0  0  0  0  0
  152.1802  144.7726  158.8461 C   0  0  0  0  0  0  0  0  0  0  0  0
  151.3845  144.3814  157.7536 C   0  0  0  0  0  0  0  0  0  0  0  0
  151.2135  143.0933  157.3881 N   0  0  0  0  0  0  0  0  0  0  0  0
  151.5792  136.4431  156.0240 C   0  0  0  0  0  0  0  0  0  0  0  0
  152.6320  136.2142  156.6234 O   0  0  0  0  0  0  0  0  0  0  0  0
  150.7100  135.4571  155.7145 N   0  0  0  0  0  0  0  0  0  0  0  0
  150.9204  134.0585  156.0853 C   0  0  0  0  0  0  0  0  0  0  0  0
  149.6028  133.3454  155.7831 C   0  0  0  0  0  0  0  0  0  0  0  0
  148.9678  134.1898  154.6877 C   0  0  0  0  0  0  0  0  0  0  0  0
  149.4526  135.6095  154.9828 C   0  0  0  0  0  0  0  0  0  0  0  0
  152.0871  137.6289  153.5930 H   0  0  0  0  0  0  0  0  0  0  0  0
  153.2591  138.2182  154.7694 H   0  0  0  0  0  0  0  0  0  0  0  0
  152.0296  139.3005  154.1256 H   0  0  0  0  0  0  0  0  0  0  0  0
  150.2236  137.9955  155.2584 H   0  0  0  0  0  0  0  0  0  0  0  0
  151.5772  138.4088  157.6253 H   0  0  0  0  0  0  0  0  0  0  0  0
  151.7865  140.1100  158.5910 H   0  0  0  0  0  0  0  0  0  0  0  0
  153.1352  141.6389  159.7710 H   0  0  0  0  0  0  0  0  0  0  0  0
  153.4452  144.0233  160.4359 H   0  0  0  0  0  0  0  0  0  0  0  0
  152.2921  145.8150  159.1055 H   0  0  0  0  0  0  0  0  0  0  0  0
  150.8726  145.1219  157.1569 H   0  0  0  0  0  0  0  0  0  0  0  0
  151.7271  133.6479  155.4763 H   0  0  0  0  0  0  0  0  0  0  0  0
  151.1977  133.9482  157.1350 H   0  0  0  0  0  0  0  0  0  0  0  0
  149.7424  132.3044  155.4901 H   0  0  0  0  0  0  0  0  0  0  0  0
  148.9673  133.3611  156.6696 H   0  0  0  0  0  0  0  0  0  0  0  0
  149.3449  133.8687  153.7157 H   0  0  0  0  0  0  0  0  0  0  0  0
  147.8806  134.1098  154.6670 H   0  0  0  0  0  0  0  0  0  0  0  0
  148.7336  136.1314  155.6163 H   0  0  0  0  0  0  0  0  0  0  0  0
  149.5754  136.1795  154.0609 H   0  0  0  0  0  0  0  0  0  0  0  0
  1  2  1  0  0  0  0
  1 20  1  0  0  0  0
  1 21  1  0  0  0  0
  1 22  1  0  0  0  0
  2  3  1  0  0  0  0
  2 13  1  0  0  0  0
  2 23  1  0  0  0  0
  3  4  1  0  0  0  0
  3 24  1  0  0  0  0
  4  5  2  0  0  0  0
  4  6  1  0  0  0  0
  6  7  1  0  0  0  0
  6 25  1  0  0  0  0
  7 12  1  0  0  0  0
  7  8  2  0  0  0  0
  8  9  1  0  0  0  0
  8 26  1  0  0  0  0
  9 10  2  0  0  0  0
  9 27  1  0  0  0  0
 10 11  1  0  0  0  0
 10 28  1  0  0  0  0
 11 12  2  0  0  0  0
 11 29  1  0  0  0  0
 13 14  2  0  0  0  0
 13 15  1  0  0  0  0
 15 19  1  0  0  0  0
 15 16  1  0  0  0  0
 16 17  1  0  0  0  0
 16 30  1  0  0  0  0
 16 31  1  0  0  0  0
 17 18  1  0  0  0  0
 17 32  1  0  0  0  0
 17 33  1  0  0  0  0
 18 19  1  0  0  0  0
 18 34  1  0  0  0  0
 18 35  1  0  0  0  0
 19 36  1  0  0  0  0
 19 37  1  0  0  0  0
M  END
> <s_m_source_file>
AV-unprocessed.smi

> <i_m_source_file_index>
1612

> <i_lp_mmshare_version>
43012

> <i_f3d_flags>
0

> <s_epik_input>
W0NIMl0xW0NIMl1bQ0gyXVtDSDJdTjFDKD1PKVtDQEhdKFtDSDNdKVtOSF1DKD1PKVtOSF1jMltjSF1bY0hdW2NIXVtjSF1uMg==

> <s_epik_cmdline>
J2VwaWtfcHl0aG9uJywgJy1waCcsICc3LjAnLCAnLXRuJywgJzgnLCAnLW1hJywgJzIwMCcsICctbWV0YWxfYmluZGluZycsICctaW1hZScsICc8aW5maWxlLm1hZT4nLCAnLW9tYWUnLCAnPG91dGZpbGUubWFlPic=

> <r_lp_tautomer_probability>
1

> <r_epik_Ionization_Penalty>
3.95281e-05

> <r_epik_Ionization_Penalty_Charging>
0

> <r_epik_Ionization_Penalty_Neutral>
3.95281e-05

> <r_epik_State_Penalty>
-0

> <r_epik_Charging_Adjusted_Penalty>
0

> <i_epik_Tot_Q>
0

> <i_epik_Tot_abs_Q>
0

> <r_epik_Metal_State_Penalty>
-0

> <b_epik_Metal_Only>
0

> <s_lp_Force_Field>
OPLS_2005

> <r_lp_Energy>
30.1614

> <b_lp_Chiralities_Consistent>
1

> <s_lp_Variant>
AV-unprocessed.smi:1612-1

> <Gold.Version>
5.8.1

> <Gold.Id.Protein>
6NUR|6NUR_protein|mol2

> <Gold.PLP.Fitness>
42.2345

> <Gold.PLP.PLP>
-35.3211

> <Gold.PLP.part.hbond>
-2.0000

> <Gold.PLP.part.metal>
0.0000

> <Gold.PLP.part.buried>
-2.4002

> <Gold.PLP.part.nonpolar>
-30.6520

> <Gold.PLP.part.repulsive>
0.2704

> <Gold.PLP.ligand.clash>
0.0000

> <Gold.PLP.ligand.torsion>
0.5823

> <Gold.PLP.Chemscore.Hbond>
1.7296

> <Gold.PLP.Chemscore.CHOScore>
0.9596

> <Gold.PLP.Chemscore.Metal>
0.0000

> <Gold.Chemscore.Hbonds>
donor molecule, donor type, donor heavy atom, donor atom, acceptor molecule, acceptor atom, score
      P1  H  7989  7998       L1     5  0.71
      P1  H 10752 10765       L1    14  1.00
      L1  C    11    29       P1  8028  0.96

> <Gold.PLP.Chemscore.Internal.Correction>
0.0105

> <Gold.Rescore>
     Score         DG    S(hbond)    S(metal)    S(lipo)     H(rot)  DE(clash)    DE(int)     intcor
     14.99     -17.94       1.82        0.00      83.07       1.30       0.07       2.89       ----

> <Gold.Chemscore.Fitness>
14.9923

> <Gold.Chemscore.DG>
-17.9431

> <Gold.Chemscore.ZeroCoef>
-5.4800

> <Gold.Chemscore.Hbond>
1.8193

> <Gold.Chemscore.Metal>
0.0000

> <Gold.Chemscore.Lipo>
83.0667

> <Gold.Chemscore.Internal_Hbond>
0.0000

> <Gold.Chemscore.DEClash>
0.0655

> <Gold.Chemscore.DEInternal>
2.8852

> <Gold.Chemscore.Rot>
1.3016

> <Gold.Chemscore.Internal.Correction>
   9.000000E+99

> <Gold.Chemscore.Hbonds>
donor molecule, donor type, donor heavy atom, donor atom, acceptor molecule, acceptor atom, score
      P1  H  7989  7998       L1     5  0.66
      P1  H 10752 10765       L1    14  0.29

> <Gold.Chemscore.Hbond.Weighted>
-6.0764

> <Gold.Chemscore.Metal.Weighted>
-0.0000

> <Gold.Chemscore.Lipo.Weighted>
-9.7188

> <Gold.Chemscore.Internal_Hbond.Weighted>
0.0000

> <Gold.Chemscore.DEClash.Weighted>
0.0655

> <Gold.Chemscore.DEInternal.Weighted>
2.8852

> <Gold.Chemscore.Rot.Weighted>
3.3322

> <Gold.Chemscore.Internal.Correction.Weighted>
   9.000000E+99

> <Gold.Protein.RotatedTorsions>
[ 6907 6896 6895 6894 ] final -136.72 input  -60.11 | X-H torsion
[ 7974 7965 7964 7962 ] final -170.25 input  175.53 | X-H torsion
[ 8008 7997 7996 7995 ] final -129.59 input   59.86 | X-H torsion
[ 10167 10162 10161 10158 ] final -179.33 input  -65.29 | X-H torsion
[ 10718 10713 10712 10709 ] final  167.38 input   66.30 | X-H torsion
[ 10763 10752 10751 10750 ] final -118.18 input  -60.55 | X-H torsion
[ 11005 11000 10999 10996 ] final -150.11 input  -57.11 | X-H torsion

> <Gold.Protein.ActiveResidues>
 VAL166  LYS551  ARG553  GLY616  TRP617  ASP618  TYR619  PRO620  LYS621  CYS622 
 ASP623  PHE694  ASN695  SER759  ASP760  ASP761  ALA762  ILE779  LEU786  VAL792 
 PHE793  MET794  SER795  GLU796  ALA797  LYS798  CYS799  TRP800  GLU811  SER814 

> <Gold.Protein.RotatedAtoms>
  151.0136  133.5942  159.2679 H   0  0  0  0  0  0  0  0  0  0  0  0  # atno 6907 bound_to 6896
  151.3084  135.0787  159.9273 H   0  0  0  0  0  0  0  0  0  0  0  0  # atno 6908 bound_to 6896
  152.5306  133.9805  159.7858 H   0  0  0  0  0  0  0  0  0  0  0  0  # atno 6909 bound_to 6896
  144.7173  140.2100  143.6328 H   0  0  0  0  0  0  0  0  0  0  0  0  # atno 7974 bound_to 7965
  155.2818  140.0444  157.3016 H   0  0  0  0  0  0  0  0  0  0  0  0  # atno 8008 bound_to 7997
  154.5592  140.2341  155.8329 H   0  0  0  0  0  0  0  0  0  0  0  0  # atno 8009 bound_to 7997
  156.2033  140.3019  155.9581 H   0  0  0  0  0  0  0  0  0  0  0  0  # atno 8010 bound_to 7997
  139.5391  144.2413  152.0858 H   0  0  0  0  0  0  0  0  0  0  0  0  # atno 10167 bound_to 10162
  157.0524  131.0317  151.2676 H   0  0  0  0  0  0  0  0  0  0  0  0  # atno 10718 bound_to 10713
  154.8579  135.4283  154.2098 H   0  0  0  0  0  0  0  0  0  0  0  0  # atno 10763 bound_to 10752
  153.3126  135.6977  153.7107 H   0  0  0  0  0  0  0  0  0  0  0  0  # atno 10764 bound_to 10752
  153.6194  135.3505  155.2979 H   0  0  0  0  0  0  0  0  0  0  0  0  # atno 10765 bound_to 10752
  140.7436  134.3486  157.5142 H   0  0  0  0  0  0  0  0  0  0  0  0  # atno 11005 bound_to 11000
  145.8600  139.2218  143.1722 LP  0  0  0  0  0  0  0  0  0  0  0  0  # atno 17320 bound_to 7965
  146.0182  140.8372  142.9936 LP  0  0  0  0  0  0  0  0  0  0  0  0  # atno 17321 bound_to 7965
  140.1888  144.4772  150.6490 LP  0  0  0  0  0  0  0  0  0  0  0  0  # atno 17342 bound_to 10162
  140.6613  143.2253  151.5849 LP  0  0  0  0  0  0  0  0  0  0  0  0  # atno 17343 bound_to 10162
  157.5020  130.7885  149.7614 LP  0  0  0  0  0  0  0  0  0  0  0  0  # atno 17370 bound_to 10713
  156.0003  130.3884  150.2630 LP  0  0  0  0  0  0  0  0  0  0  0  0  # atno 17371 bound_to 10713
  139.8801  134.9097  156.2996 LP  0  0  0  0  0  0  0  0  0  0  0  0  # atno 17394 bound_to 11000
  140.9814  133.7265  156.0678 LP  0  0  0  0  0  0  0  0  0  0  0  0  # atno 17395 bound_to 11000

$$$$
