AV-unprocessed.smi:1326|AV-procd|sdf|5475|dock7
  -GOLD-   22720 5 43D 1   1.00000     0.00000
 Structure written by MMmdl.
 39 39  0  0  0  0  0  0  0  0  1 V2000
  147.0051  138.8215  152.7560 C   0  0  0  0  0  0  0  0  0  0  0  0
  148.1391  139.2932  153.6399 C   0  0  0  0  0  0  0  0  0  0  0  0
  149.2740  138.5038  153.5570 N   0  0  0  0  0  0  0  0  0  0  0  0
  150.3685  138.8602  154.3249 C   0  0  0  0  0  0  0  0  0  0  0  0
  151.5705  137.9447  154.1722 C   0  0  0  0  0  0  0  0  0  0  0  0
  150.3326  139.9463  155.1380 C   0  0  0  0  0  0  0  0  0  0  0  0
  151.5206  140.3741  155.9992 C   0  0  0  0  0  0  0  0  0  0  0  0
  151.1933  140.7538  157.4447 C   0  0  0  0  0  0  0  0  0  0  0  0
  150.0741  140.5243  157.9023 O   0  0  0  0  0  0  0  0  0  0  0  0
  152.1806  141.3212  158.1552 N   0  0  0  0  0  0  0  0  0  0  0  0
  152.0811  141.7341  159.5498 C   0  0  0  0  0  0  0  0  0  0  0  0
  152.5632  143.1842  159.7369 C   0  0  0  0  0  0  0  0  0  0  0  0
  151.6242  144.2450  159.1276 C   0  0  0  0  0  0  0  0  0  0  0  0
  151.7021  144.2883  157.5920 C   0  0  0  0  0  0  0  0  0  0  0  0
  151.9199  145.6324  159.7180 C   0  0  0  0  0  0  0  0  0  0  0  0
  149.0864  140.7475  155.1908 C   0  0  0  0  0  0  0  0  0  0  0  0
  148.9842  141.7326  155.9208 O   0  0  0  0  0  0  0  0  0  0  0  0
  148.0071  140.3474  154.3862 N   0  0  0  0  0  0  0  0  0  0  0  0
  149.3442  137.6887  152.9647 H   0  0  0  0  0  0  0  0  0  0  0  0
  146.1002  139.4024  152.9391 H   0  0  0  0  0  0  0  0  0  0  0  0
  146.7803  137.7724  152.9506 H   0  0  0  0  0  0  0  0  0  0  0  0
  147.2745  138.9302  151.7049 H   0  0  0  0  0  0  0  0  0  0  0  0
  151.8419  137.5080  155.1334 H   0  0  0  0  0  0  0  0  0  0  0  0
  152.4271  138.5006  153.7912 H   0  0  0  0  0  0  0  0  0  0  0  0
  151.3681  137.1267  153.4799 H   0  0  0  0  0  0  0  0  0  0  0  0
  152.0554  141.2052  155.5383 H   0  0  0  0  0  0  0  0  0  0  0  0
  152.2449  139.5591  156.0152 H   0  0  0  0  0  0  0  0  0  0  0  0
  153.0692  141.4688  157.6983 H   0  0  0  0  0  0  0  0  0  0  0  0
  151.0371  141.6369  159.8455 H   0  0  0  0  0  0  0  0  0  0  0  0
  152.6499  141.0547  160.1868 H   0  0  0  0  0  0  0  0  0  0  0  0
  152.6630  143.3797  160.8056 H   0  0  0  0  0  0  0  0  0  0  0  0
  153.5640  143.2951  159.3169 H   0  0  0  0  0  0  0  0  0  0  0  0
  150.6005  143.9890  159.4038 H   0  0  0  0  0  0  0  0  0  0  0  0
  152.7173  144.4962  157.2522 H   0  0  0  0  0  0  0  0  0  0  0  0
  151.0524  145.0659  157.1893 H   0  0  0  0  0  0  0  0  0  0  0  0
  151.3863  143.3460  157.1454 H   0  0  0  0  0  0  0  0  0  0  0  0
  152.9389  145.9493  159.4931 H   0  0  0  0  0  0  0  0  0  0  0  0
  151.8034  145.6326  160.8022 H   0  0  0  0  0  0  0  0  0  0  0  0
  151.2410  146.3852  159.3167 H   0  0  0  0  0  0  0  0  0  0  0  0
  1 20  1  0  0  0  0
  1 21  1  0  0  0  0
  1 22  1  0  0  0  0
  1  2  1  0  0  0  0
  2  3  1  0  0  0  0
  2 18  2  0  0  0  0
  3  4  1  0  0  0  0
  3 19  1  0  0  0  0
  4  6  2  0  0  0  0
  4  5  1  0  0  0  0
  5 23  1  0  0  0  0
  5 24  1  0  0  0  0
  5 25  1  0  0  0  0
  6 16  1  0  0  0  0
  6  7  1  0  0  0  0
  7  8  1  0  0  0  0
  7 26  1  0  0  0  0
  7 27  1  0  0  0  0
  8  9  2  0  0  0  0
  8 10  1  0  0  0  0
 10 11  1  0  0  0  0
 10 28  1  0  0  0  0
 11 12  1  0  0  0  0
 11 29  1  0  0  0  0
 11 30  1  0  0  0  0
 12 13  1  0  0  0  0
 12 31  1  0  0  0  0
 12 32  1  0  0  0  0
 13 14  1  0  0  0  0
 13 15  1  0  0  0  0
 13 33  1  0  0  0  0
 14 34  1  0  0  0  0
 14 35  1  0  0  0  0
 14 36  1  0  0  0  0
 15 37  1  0  0  0  0
 15 38  1  0  0  0  0
 15 39  1  0  0  0  0
 16 17  2  0  0  0  0
 16 18  1  0  0  0  0
M  END
> <s_m_source_file>
AV-unprocessed.smi

> <i_m_source_file_index>
1326

> <i_lp_mmshare_version>
43012

> <i_f3d_flags>
0

> <s_epik_input>
W0NIM11jMW5jKFtDSDNdKWMoYyg9TylbbkhdMSlbQ0gyXUMoPU8pW05IXVtDSDJdW0NIMl1bQ0hdKFtDSDNdKVtDSDNd

> <s_epik_cmdline>
J2VwaWtfcHl0aG9uJywgJy1waCcsICc3LjAnLCAnLXRuJywgJzgnLCAnLW1hJywgJzIwMCcsICctbWV0YWxfYmluZGluZycsICctaW1hZScsICc8aW5maWxlLm1hZT4nLCAnLW9tYWUnLCAnPG91dGZpbGUubWFlPic=

> <r_lp_tautomer_probability>
0.156392

> <r_epik_Ionization_Penalty>
0.0135605

> <r_epik_Ionization_Penalty_Charging>
0.013428

> <r_epik_Ionization_Penalty_Neutral>
0.000132491

> <r_epik_State_Penalty>
1.15342

> <r_epik_Charging_Adjusted_Penalty>
1.16684

> <i_epik_Tot_Q>
0

> <i_epik_Tot_abs_Q>
0

> <r_epik_Metal_State_Penalty>
1.31299

> <b_epik_Metal_Only>
0

> <s_lp_Force_Field>
OPLS_2005

> <r_lp_Energy>
9.03726

> <b_lp_Chiralities_Consistent>
1

> <s_lp_Variant>
AV-unprocessed.smi:1326-2

> <Gold.Version>
5.8.1

> <Gold.Id.Protein>
6NUR|6NUR_protein|mol2

> <Gold.PLP.Fitness>
42.6908

> <Gold.PLP.PLP>
-40.5997

> <Gold.PLP.part.hbond>
-2.0000

> <Gold.PLP.part.metal>
0.0000

> <Gold.PLP.part.buried>
-3.7462

> <Gold.PLP.part.nonpolar>
-36.1232

> <Gold.PLP.part.repulsive>
1.0524

> <Gold.PLP.ligand.clash>
0.0000

> <Gold.PLP.ligand.torsion>
0.4718

> <Gold.PLP.Chemscore.Hbond>
1.0000

> <Gold.PLP.Chemscore.CHOScore>
0.0000

> <Gold.PLP.Chemscore.Metal>
0.0000

> <Gold.Chemscore.Hbonds>
donor molecule, donor type, donor heavy atom, donor atom, acceptor molecule, acceptor atom, score
      L1  H     3    19       P1  7948  1.00

> <Gold.PLP.Chemscore.Internal.Correction>
0.0347

> <Gold.Rescore>
     Score         DG    S(hbond)    S(metal)    S(lipo)     H(rot)  DE(clash)    DE(int)     intcor
     10.05     -15.33       1.00        0.00      97.07       1.89       0.09       5.19       ----

> <Gold.Chemscore.Fitness>
10.0543

> <Gold.Chemscore.DG>
-15.3337

> <Gold.Chemscore.ZeroCoef>
-5.4800

> <Gold.Chemscore.Hbond>
0.9997

> <Gold.Chemscore.Metal>
0.0000

> <Gold.Chemscore.Lipo>
97.0702

> <Gold.Chemscore.Internal_Hbond>
0.0000

> <Gold.Chemscore.DEClash>
0.0920

> <Gold.Chemscore.DEInternal>
5.1874

> <Gold.Chemscore.Rot>
1.8916

> <Gold.Chemscore.Internal.Correction>
   9.000000E+99

> <Gold.Chemscore.Hbonds>
donor molecule, donor type, donor heavy atom, donor atom, acceptor molecule, acceptor atom, score
      L1  H     3    19       P1  7948  0.94

> <Gold.Chemscore.Hbond.Weighted>
-3.3390

> <Gold.Chemscore.Metal.Weighted>
-0.0000

> <Gold.Chemscore.Lipo.Weighted>
-11.3572

> <Gold.Chemscore.Internal_Hbond.Weighted>
0.0000

> <Gold.Chemscore.DEClash.Weighted>
0.0920

> <Gold.Chemscore.DEInternal.Weighted>
5.1874

> <Gold.Chemscore.Rot.Weighted>
4.8424

> <Gold.Chemscore.Internal.Correction.Weighted>
   9.000000E+99

> <Gold.Protein.RotatedTorsions>
[ 6907 6896 6895 6894 ] final  -26.26 input  -60.11 | X-H torsion
[ 7974 7965 7964 7962 ] final  110.25 input  175.53 | X-H torsion
[ 8008 7997 7996 7995 ] final  -40.05 input   59.86 | X-H torsion
[ 10167 10162 10161 10158 ] final    1.87 input  -65.29 | X-H torsion
[ 10718 10713 10712 10709 ] final  167.62 input   66.30 | X-H torsion
[ 10763 10752 10751 10750 ] final   63.73 input  -60.55 | X-H torsion
[ 11005 11000 10999 10996 ] final   20.42 input  -57.11 | X-H torsion

> <Gold.Protein.ActiveResidues>
 VAL166  LYS551  ARG553  GLY616  TRP617  ASP618  TYR619  PRO620  LYS621  CYS622 
 ASP623  PHE694  ASN695  SER759  ASP760  ASP761  ALA762  ILE779  LEU786  VAL792 
 PHE793  MET794  SER795  GLU796  ALA797  LYS798  CYS799  TRP800  GLU811  SER814 

> <Gold.Protein.RotatedAtoms>
  151.1635  135.0284  159.8720 H   0  0  0  0  0  0  0  0  0  0  0  0  # atno 6907 bound_to 6896
  152.5451  134.1252  159.8426 H   0  0  0  0  0  0  0  0  0  0  0  0  # atno 6908 bound_to 6896
  151.1350  133.4964  159.2630 H   0  0  0  0  0  0  0  0  0  0  0  0  # atno 6909 bound_to 6896
  145.2574  139.2716  143.4035 H   0  0  0  0  0  0  0  0  0  0  0  0  # atno 7974 bound_to 7965
  154.4016  140.1535  156.2964 H   0  0  0  0  0  0  0  0  0  0  0  0  # atno 8008 bound_to 7997
  155.8740  140.3447  155.5819 H   0  0  0  0  0  0  0  0  0  0  0  0  # atno 8009 bound_to 7997
  155.7742  140.0834  157.2083 H   0  0  0  0  0  0  0  0  0  0  0  0  # atno 8010 bound_to 7997
  140.6662  143.7172  150.7832 H   0  0  0  0  0  0  0  0  0  0  0  0  # atno 10167 bound_to 10162
  157.0488  131.0307  151.2688 H   0  0  0  0  0  0  0  0  0  0  0  0  # atno 10718 bound_to 10713
  153.0029  135.5418  154.6398 H   0  0  0  0  0  0  0  0  0  0  0  0  # atno 10763 bound_to 10752
  154.5656  135.2837  155.0879 H   0  0  0  0  0  0  0  0  0  0  0  0  # atno 10764 bound_to 10752
  154.2065  135.6475  153.5155 H   0  0  0  0  0  0  0  0  0  0  0  0  # atno 10765 bound_to 10752
  140.4028  134.1700  155.7664 H   0  0  0  0  0  0  0  0  0  0  0  0  # atno 11005 bound_to 11000
  146.3285  140.2981  142.8619 LP  0  0  0  0  0  0  0  0  0  0  0  0  # atno 17320 bound_to 7965
  144.9449  140.8117  143.5607 LP  0  0  0  0  0  0  0  0  0  0  0  0  # atno 17321 bound_to 7965
  140.0850  143.4932  152.2510 LP  0  0  0  0  0  0  0  0  0  0  0  0  # atno 17342 bound_to 10162
  139.5912  144.7550  151.3396 LP  0  0  0  0  0  0  0  0  0  0  0  0  # atno 17343 bound_to 10162
  157.5046  130.7901  149.7640 LP  0  0  0  0  0  0  0  0  0  0  0  0  # atno 17370 bound_to 10713
  156.0014  130.3878  150.2592 LP  0  0  0  0  0  0  0  0  0  0  0  0  # atno 17371 bound_to 10713
  141.1850  133.8332  157.1119 LP  0  0  0  0  0  0  0  0  0  0  0  0  # atno 17394 bound_to 11000
  140.0324  134.9895  157.0805 LP  0  0  0  0  0  0  0  0  0  0  0  0  # atno 17395 bound_to 11000

$$$$
