AV-unprocessed.smi:3068|AV-procd|sdf|11709|dock3
  -GOLD-   2272017113D 1   1.00000     0.00000
 Structure written by MMmdl.
 39 41  0  0  0  0  0  0  0  0  1 V2000
  153.6706  136.9575  164.9459 N   0  0  0  0  0  0  0  0  0  0  0  0
  154.0245  136.3895  164.0018 C   0  0  0  0  0  0  0  0  0  0  0  0
  154.4708  135.6742  162.8131 C   0  0  0  0  0  0  0  0  0  0  0  0
  154.7683  134.3632  162.9690 N   0  0  0  0  0  0  0  0  0  0  0  0
  155.1834  133.6891  161.8755 C   0  0  0  0  0  0  0  0  0  0  0  0
  155.3020  134.3190  160.6216 C   0  0  0  0  0  0  0  0  0  0  0  0
  155.0060  135.6256  160.4569 N   0  0  0  0  0  0  0  0  0  0  0  0
  154.5910  136.3166  161.5483 C   0  0  0  0  0  0  0  0  0  0  0  0
  154.2770  137.6796  161.3925 N   0  0  0  0  0  0  0  0  0  0  0  0
  154.3977  138.3520  160.1041 C   0  0  0  0  0  0  0  0  0  0  0  0
  153.3773  139.4899  159.9369 C   0  0  1  0  0  0  0  0  0  0  0  0
  153.7055  140.6857  160.8494 C   0  0  0  0  0  0  0  0  0  0  0  0
  152.7848  141.7961  160.6415 N   0  0  0  0  0  0  0  0  0  0  0  0
  153.1111  142.9271  161.5084 C   0  0  0  0  0  0  0  0  0  0  0  0
  152.1328  144.0995  161.3341 C   0  0  0  0  0  0  0  0  0  0  0  0
  152.0948  144.5483  159.8663 C   0  0  0  0  0  0  0  0  0  0  0  0
  151.8061  143.3457  158.9546 C   0  0  0  0  0  0  0  0  0  0  0  0
  152.7946  142.1937  159.2305 C   0  0  2  0  0  0  0  0  0  0  0  0
  152.4951  140.9883  158.3162 C   0  0  0  0  0  0  0  0  0  0  0  0
  153.4167  139.9361  158.5836 O   0  0  0  0  0  0  0  0  0  0  0  0
  155.4207  132.6430  162.0013 H   0  0  0  0  0  0  0  0  0  0  0  0
  155.6340  133.7748  159.7500 H   0  0  0  0  0  0  0  0  0  0  0  0
  154.1748  138.2543  162.2169 H   0  0  0  0  0  0  0  0  0  0  0  0
  155.4131  138.7317  159.9856 H   0  0  0  0  0  0  0  0  0  0  0  0
  154.2580  137.6125  159.3150 H   0  0  0  0  0  0  0  0  0  0  0  0
  152.3746  139.1280  160.1706 H   0  0  0  0  0  0  0  0  0  0  0  0
  153.6656  140.3675  161.8919 H   0  0  0  0  0  0  0  0  0  0  0  0
  154.7292  141.0142  160.6629 H   0  0  0  0  0  0  0  0  0  0  0  0
  153.0985  142.6052  162.5504 H   0  0  0  0  0  0  0  0  0  0  0  0
  154.1266  143.2695  161.3038 H   0  0  0  0  0  0  0  0  0  0  0  0
  151.1352  143.7941  161.6522 H   0  0  0  0  0  0  0  0  0  0  0  0
  152.4240  144.9318  161.9751 H   0  0  0  0  0  0  0  0  0  0  0  0
  151.3398  145.3218  159.7250 H   0  0  0  0  0  0  0  0  0  0  0  0
  153.0535  144.9916  159.5944 H   0  0  0  0  0  0  0  0  0  0  0  0
  150.7842  143.0016  159.1204 H   0  0  0  0  0  0  0  0  0  0  0  0
  151.8651  143.6525  157.9098 H   0  0  0  0  0  0  0  0  0  0  0  0
  153.7955  142.5501  158.9803 H   0  0  0  0  0  0  0  0  0  0  0  0
  151.4752  140.6291  158.4634 H   0  0  0  0  0  0  0  0  0  0  0  0
  152.5853  141.2734  157.2679 H   0  0  0  0  0  0  0  0  0  0  0  0
  1  2  3  0  0  0  0
  2  3  1  0  0  0  0
  3  8  1  0  0  0  0
  3  4  2  0  0  0  0
  4  5  1  0  0  0  0
  5  6  2  0  0  0  0
  5 21  1  0  0  0  0
  6  7  1  0  0  0  0
  6 22  1  0  0  0  0
  7  8  2  0  0  0  0
  8  9  1  0  0  0  0
  9 10  1  0  0  0  0
  9 23  1  0  0  0  0
 10 11  1  0  0  0  0
 10 24  1  0  0  0  0
 10 25  1  0  0  0  0
 11 20  1  0  0  0  0
 11 12  1  0  0  0  0
 11 26  1  0  0  0  0
 12 13  1  0  0  0  0
 12 27  1  0  0  0  0
 12 28  1  0  0  0  0
 13 18  1  0  0  0  0
 13 14  1  0  0  0  0
 14 15  1  0  0  0  0
 14 29  1  0  0  0  0
 14 30  1  0  0  0  0
 15 16  1  0  0  0  0
 15 31  1  0  0  0  0
 15 32  1  0  0  0  0
 16 17  1  0  0  0  0
 16 33  1  0  0  0  0
 16 34  1  0  0  0  0
 17 18  1  0  0  0  0
 17 35  1  0  0  0  0
 17 36  1  0  0  0  0
 18 19  1  0  0  0  0
 18 37  1  0  0  0  0
 19 20  1  0  0  0  0
 19 38  1  0  0  0  0
 19 39  1  0  0  0  0
M  END
> <s_m_source_file>
AV-unprocessed.smi

> <i_m_source_file_index>
3068

> <i_lp_mmshare_version>
43012

> <i_f3d_flags>
0

> <s_epik_input>
TiNDYzFuW2NIXVtjSF1uYzFbTkhdW0NIMl1bQ0BIXShbQ0gyXTIpT1tDSDJdW0NAQEhdKE4yMylbQ0gyXVtDSDJdW0NIMl1bQ0gyXTM=

> <s_epik_cmdline>
J2VwaWtfcHl0aG9uJywgJy1waCcsICc3LjAnLCAnLXRuJywgJzgnLCAnLW1hJywgJzIwMCcsICctbWV0YWxfYmluZGluZycsICctaW1hZScsICc8aW5maWxlLm1hZT4nLCAnLW9tYWUnLCAnPG91dGZpbGUubWFlPic=

> <r_epik_Ionization_Penalty>
1.22359

> <r_epik_Ionization_Penalty_Charging>
0

> <r_epik_Ionization_Penalty_Neutral>
1.22359

> <r_epik_State_Penalty>
1.29103

> <r_epik_Charging_Adjusted_Penalty>
1.29103

> <i_epik_Tot_Q>
0

> <i_epik_Tot_abs_Q>
0

> <r_epik_Metal_State_Penalty>
1.29103

> <b_epik_Metal_Only>
0

> <s_lp_Force_Field>
OPLS_2005

> <r_lp_Energy>
45.8407

> <b_lp_Chiralities_Consistent>
1

> <s_lp_Variant>
AV-unprocessed.smi:3068-12

> <Gold.Version>
5.8.1

> <Gold.Id.Protein>
6NUR|6NUR_protein|mol2

> <Gold.PLP.Fitness>
40.4825

> <Gold.PLP.PLP>
-37.9565

> <Gold.PLP.part.hbond>
-1.7707

> <Gold.PLP.part.metal>
0.0000

> <Gold.PLP.part.buried>
-5.4901

> <Gold.PLP.part.nonpolar>
-29.9474

> <Gold.PLP.part.repulsive>
0.3506

> <Gold.PLP.ligand.clash>
0.0000

> <Gold.PLP.ligand.torsion>
0.2376

> <Gold.PLP.Chemscore.Hbond>
1.0000

> <Gold.PLP.Chemscore.CHOScore>
0.0000

> <Gold.PLP.Chemscore.Metal>
0.0000

> <Gold.Chemscore.Hbonds>
donor molecule, donor type, donor heavy atom, donor atom, acceptor molecule, acceptor atom, score
      P1  H  7997  8010       L1    20  1.00

> <Gold.PLP.Chemscore.Internal.Correction>
0.0011

> <Gold.Rescore>
     Score         DG    S(hbond)    S(metal)    S(lipo)     H(rot)  DE(clash)    DE(int)     intcor
     15.93     -16.21       0.83        0.00      96.40       1.30       0.06       0.21       ----

> <Gold.Chemscore.Fitness>
15.9344

> <Gold.Chemscore.DG>
-16.2068

> <Gold.Chemscore.ZeroCoef>
-5.4800

> <Gold.Chemscore.Hbond>
0.8327

> <Gold.Chemscore.Metal>
0.0000

> <Gold.Chemscore.Lipo>
96.3953

> <Gold.Chemscore.Internal_Hbond>
0.0000

> <Gold.Chemscore.DEClash>
0.0580

> <Gold.Chemscore.DEInternal>
0.2144

> <Gold.Chemscore.Rot>
1.3019

> <Gold.Chemscore.Internal.Correction>
   9.000000E+99

> <Gold.Chemscore.Hbonds>
donor molecule, donor type, donor heavy atom, donor atom, acceptor molecule, acceptor atom, score
      P1  H  7997  8010       L1    20  0.57

> <Gold.Chemscore.Hbond.Weighted>
-2.7813

> <Gold.Chemscore.Metal.Weighted>
-0.0000

> <Gold.Chemscore.Lipo.Weighted>
-11.2782

> <Gold.Chemscore.Internal_Hbond.Weighted>
0.0000

> <Gold.Chemscore.DEClash.Weighted>
0.0580

> <Gold.Chemscore.DEInternal.Weighted>
0.2144

> <Gold.Chemscore.Rot.Weighted>
3.3327

> <Gold.Chemscore.Internal.Correction.Weighted>
   9.000000E+99

> <Gold.Protein.RotatedTorsions>
[ 6907 6896 6895 6894 ] final -170.21 input  -60.11 | X-H torsion
[ 7974 7965 7964 7962 ] final  143.21 input  175.53 | X-H torsion
[ 8008 7997 7996 7995 ] final   16.53 input   59.86 | X-H torsion
[ 10167 10162 10161 10158 ] final   -2.07 input  -65.29 | X-H torsion
[ 10718 10713 10712 10709 ] final  168.71 input   66.30 | X-H torsion
[ 10763 10752 10751 10750 ] final  179.89 input  -60.55 | X-H torsion
[ 11005 11000 10999 10996 ] final  125.84 input  -57.11 | X-H torsion

> <Gold.Protein.ActiveResidues>
 VAL166  LYS551  ARG553  GLY616  TRP617  ASP618  TYR619  PRO620  LYS621  CYS622 
 ASP623  PHE694  ASN695  SER759  ASP760  ASP761  ALA762  ILE779  LEU786  VAL792 
 PHE793  MET794  SER795  GLU796  ALA797  LYS798  CYS799  TRP800  GLU811  SER814 

> <Gold.Protein.RotatedAtoms>
  151.5040  133.3498  159.2873 H   0  0  0  0  0  0  0  0  0  0  0  0  # atno 6907 bound_to 6896
  150.8755  134.8139  159.7197 H   0  0  0  0  0  0  0  0  0  0  0  0  # atno 6908 bound_to 6896
  152.4727  134.4930  159.9753 H   0  0  0  0  0  0  0  0  0  0  0  0  # atno 6909 bound_to 6896
  144.8940  139.5517  143.5785 H   0  0  0  0  0  0  0  0  0  0  0  0  # atno 7974 bound_to 7965
  154.8783  140.2969  155.5440 H   0  0  0  0  0  0  0  0  0  0  0  0  # atno 8008 bound_to 7997
  156.3022  140.2447  156.3716 H   0  0  0  0  0  0  0  0  0  0  0  0  # atno 8009 bound_to 7997
  154.8744  140.0400  157.1733 H   0  0  0  0  0  0  0  0  0  0  0  0  # atno 8010 bound_to 7997
  140.6836  143.6701  150.8192 H   0  0  0  0  0  0  0  0  0  0  0  0  # atno 10167 bound_to 10162
  157.0332  131.0265  151.2738 H   0  0  0  0  0  0  0  0  0  0  0  0  # atno 10718 bound_to 10713
  154.5265  135.2797  155.1217 H   0  0  0  0  0  0  0  0  0  0  0  0  # atno 10763 bound_to 10752
  154.2754  135.6295  153.5330 H   0  0  0  0  0  0  0  0  0  0  0  0  # atno 10764 bound_to 10752
  152.9947  135.5638  154.5767 H   0  0  0  0  0  0  0  0  0  0  0  0  # atno 10765 bound_to 10752
  139.9426  134.9633  156.8618 H   0  0  0  0  0  0  0  0  0  0  0  0  # atno 11005 bound_to 11000
  146.3071  139.7616  142.9048 LP  0  0  0  0  0  0  0  0  0  0  0  0  # atno 17320 bound_to 7965
  145.3732  141.0346  143.3219 LP  0  0  0  0  0  0  0  0  0  0  0  0  # atno 17321 bound_to 7965
  140.0405  143.5351  152.2720 LP  0  0  0  0  0  0  0  0  0  0  0  0  # atno 17342 bound_to 10162
  139.6176  144.7623  151.2810 LP  0  0  0  0  0  0  0  0  0  0  0  0  # atno 17343 bound_to 10162
  157.5161  130.7969  149.7758 LP  0  0  0  0  0  0  0  0  0  0  0  0  # atno 17370 bound_to 10713
  156.0062  130.3854  150.2422 LP  0  0  0  0  0  0  0  0  0  0  0  0  # atno 17371 bound_to 10713
  140.5913  134.0259  155.7501 LP  0  0  0  0  0  0  0  0  0  0  0  0  # atno 17394 bound_to 11000
  141.1066  133.9683  157.2985 LP  0  0  0  0  0  0  0  0  0  0  0  0  # atno 17395 bound_to 11000

$$$$
