AV-unprocessed.smi:807|AV-procd|sdf|3802|dock1
  -GOLD-   22720 1233D 1   1.00000     0.00000
 Structure written by MMmdl.
 35 37  0  0  0  0  0  0  0  0  1 V2000
  149.9544  137.2615  159.1706 C   0  0  0  0  0  0  0  0  0  0  0  0
  150.8316  138.0688  158.3381 N   0  0  0  0  0  0  0  0  0  0  0  0
  150.5766  138.2141  156.9673 C   0  0  0  0  0  0  0  0  0  0  0  0
  150.4328  137.1185  156.1861 N   0  0  0  0  0  0  0  0  0  0  0  0
  150.1911  137.3068  154.8820 C   0  0  0  0  0  0  0  0  0  0  0  0
  150.0622  138.4573  154.2030 N   0  0  0  0  0  0  0  0  0  0  0  0
  150.2034  139.5482  154.9683 C   0  0  0  0  0  0  0  0  0  0  0  0
  150.1246  140.8606  154.5353 N   0  0  0  0  0  0  0  0  0  0  0  0
  150.3388  141.5311  155.6644 C   0  0  0  0  0  0  0  0  0  0  0  0
  150.5516  140.8120  156.7841 N   0  0  0  0  0  0  0  0  0  0  0  0
  150.8230  141.3353  158.1116 C   0  0  0  0  0  0  0  0  0  0  0  0
  152.3330  141.4994  158.3786 C   0  0  2  0  0  0  0  0  0  0  0  0
  152.9487  140.2409  158.1931 O   0  0  0  0  0  0  0  0  0  0  0  0
  152.6186  142.0860  159.7610 C   0  0  0  0  0  0  0  0  0  0  0  0
  153.3954  141.3411  160.6779 C   0  0  0  0  0  0  0  0  0  0  0  0
  153.6662  141.8420  161.9649 C   0  0  0  0  0  0  0  0  0  0  0  0
  153.1592  143.0952  162.3515 C   0  0  0  0  0  0  0  0  0  0  0  0
  152.3798  143.8433  161.4504 C   0  0  0  0  0  0  0  0  0  0  0  0
  152.1043  143.3475  160.1600 C   0  0  0  0  0  0  0  0  0  0  0  0
  151.1247  144.3105  159.1090 Cl  0  0  0  0  0  0  0  0  0  0  0  0
  150.4643  139.4850  156.3701 C   0  0  0  0  0  0  0  0  0  0  0  0
  150.3283  137.2419  160.1942 H   0  0  0  0  0  0  0  0  0  0  0  0
  149.9102  136.2354  158.8044 H   0  0  0  0  0  0  0  0  0  0  0  0
  148.9449  137.6736  159.1834 H   0  0  0  0  0  0  0  0  0  0  0  0
  151.6804  138.4427  158.7375 H   0  0  0  0  0  0  0  0  0  0  0  0
  150.0841  136.4067  154.2952 H   0  0  0  0  0  0  0  0  0  0  0  0
  150.3519  142.6113  155.6769 H   0  0  0  0  0  0  0  0  0  0  0  0
  150.3057  142.2891  158.2267 H   0  0  0  0  0  0  0  0  0  0  0  0
  150.3779  140.6554  158.8386 H   0  0  0  0  0  0  0  0  0  0  0  0
  152.7634  142.1372  157.6088 H   0  0  0  0  0  0  0  0  0  0  0  0
  152.3397  139.6698  157.7507 H   0  0  0  0  0  0  0  0  0  0  0  0
  153.7863  140.3739  160.3988 H   0  0  0  0  0  0  0  0  0  0  0  0
  154.2615  141.2633  162.6561 H   0  0  0  0  0  0  0  0  0  0  0  0
  153.3648  143.4808  163.3393 H   0  0  0  0  0  0  0  0  0  0  0  0
  151.9878  144.8032  161.7533 H   0  0  0  0  0  0  0  0  0  0  0  0
  1  2  1  0  0  0  0
  1 22  1  0  0  0  0
  1 23  1  0  0  0  0
  1 24  1  0  0  0  0
  2  3  1  0  0  0  0
  2 25  1  0  0  0  0
  3 21  1  0  0  0  0
  3  4  2  0  0  0  0
  4  5  1  0  0  0  0
  5  6  2  0  0  0  0
  5 26  1  0  0  0  0
  6  7  1  0  0  0  0
  7 21  2  0  0  0  0
  7  8  1  0  0  0  0
  8  9  2  0  0  0  0
  9 10  1  0  0  0  0
  9 27  1  0  0  0  0
 10 11  1  0  0  0  0
 10 21  1  0  0  0  0
 11 12  1  0  0  0  0
 11 28  1  0  0  0  0
 11 29  1  0  0  0  0
 12 13  1  0  0  0  0
 12 14  1  0  0  0  0
 12 30  1  0  0  0  0
 13 31  1  0  0  0  0
 14 19  1  0  0  0  0
 14 15  2  0  0  0  0
 15 16  1  0  0  0  0
 15 32  1  0  0  0  0
 16 17  2  0  0  0  0
 16 33  1  0  0  0  0
 17 18  1  0  0  0  0
 17 34  1  0  0  0  0
 18 19  2  0  0  0  0
 18 35  1  0  0  0  0
 19 20  1  0  0  0  0
M  END
> <s_m_source_file>
AV-unprocessed.smi

> <i_m_source_file_index>
807

> <i_lp_mmshare_version>
43012

> <i_f3d_flags>
0

> <s_epik_input>
bjFbY0hdbmMoW05IXVtDSDNdKWMoYzEyKW4oW2NIXW4yKVtDSDJdW0NASF0oW09IXSljM1tjSF1bY0hdW2NIXVtjSF1jM0Ns

> <s_epik_cmdline>
J2VwaWtfcHl0aG9uJywgJy1waCcsICc3LjAnLCAnLXRuJywgJzgnLCAnLW1hJywgJzIwMCcsICctbWV0YWxfYmluZGluZycsICctaW1hZScsICc8aW5maWxlLm1hZT4nLCAnLW9tYWUnLCAnPG91dGZpbGUubWFlPic=

> <r_lp_tautomer_probability>
1

> <r_epik_Ionization_Penalty>
0.00695285

> <r_epik_Ionization_Penalty_Charging>
0

> <r_epik_Ionization_Penalty_Neutral>
0.00695285

> <r_epik_State_Penalty>
-0

> <r_epik_Charging_Adjusted_Penalty>
0

> <i_epik_Tot_Q>
0

> <i_epik_Tot_abs_Q>
0

> <r_epik_Metal_State_Penalty>
-0

> <b_epik_Metal_Only>
0

> <s_lp_Force_Field>
OPLS_2005

> <r_lp_Energy>
11.3951

> <b_lp_Chiralities_Consistent>
1

> <s_lp_Variant>
AV-unprocessed.smi:807-1

> <Gold.Version>
5.8.1

> <Gold.Id.Protein>
6NUR|6NUR_protein|mol2

> <Gold.PLP.Fitness>
51.0224

> <Gold.PLP.PLP>
-42.0574

> <Gold.PLP.part.hbond>
-2.0000

> <Gold.PLP.part.metal>
0.0000

> <Gold.PLP.part.buried>
-4.8369

> <Gold.PLP.part.nonpolar>
-34.9127

> <Gold.PLP.part.repulsive>
0.4962

> <Gold.PLP.ligand.clash>
0.0000

> <Gold.PLP.ligand.torsion>
0.8696

> <Gold.PLP.Chemscore.Hbond>
1.5136

> <Gold.PLP.Chemscore.CHOScore>
2.0074

> <Gold.PLP.Chemscore.Metal>
0.0000

> <Gold.Chemscore.Hbonds>
donor molecule, donor type, donor heavy atom, donor atom, acceptor molecule, acceptor atom, score
      P1  H  7989  7998       L1     8  0.67
      P1  H  7997  8009       L1    13  0.96
      L1  C     5    26       P1  7948  0.65
      L1  C     9    27       P1  8028  0.91

> <Gold.PLP.Chemscore.Internal.Correction>
0.1414

> <Gold.Rescore>
     Score         DG    S(hbond)    S(metal)    S(lipo)     H(rot)  DE(clash)    DE(int)     intcor
     12.65     -13.49       0.77        0.00      97.03       2.31       0.06       0.79       ----

> <Gold.Chemscore.Fitness>
12.6461

> <Gold.Chemscore.DG>
-13.4928

> <Gold.Chemscore.ZeroCoef>
-5.4800

> <Gold.Chemscore.Hbond>
0.7717

> <Gold.Chemscore.Metal>
0.0000

> <Gold.Chemscore.Lipo>
97.0302

> <Gold.Chemscore.Internal_Hbond>
0.0000

> <Gold.Chemscore.DEClash>
0.0557

> <Gold.Chemscore.DEInternal>
0.7910

> <Gold.Chemscore.Rot>
2.3115

> <Gold.Chemscore.Internal.Correction>
   9.000000E+99

> <Gold.Chemscore.Hbonds>
donor molecule, donor type, donor heavy atom, donor atom, acceptor molecule, acceptor atom, score
      P1  H  7989  7998       L1     8  0.11
      P1  H  7997  8009       L1    13  0.22

> <Gold.Chemscore.Hbond.Weighted>
-2.5776

> <Gold.Chemscore.Metal.Weighted>
-0.0000

> <Gold.Chemscore.Lipo.Weighted>
-11.3525

> <Gold.Chemscore.Internal_Hbond.Weighted>
0.0000

> <Gold.Chemscore.DEClash.Weighted>
0.0557

> <Gold.Chemscore.DEInternal.Weighted>
0.7910

> <Gold.Chemscore.Rot.Weighted>
5.9174

> <Gold.Chemscore.Internal.Correction.Weighted>
   9.000000E+99

> <Gold.Protein.RotatedTorsions>
[ 6907 6896 6895 6894 ] final   28.79 input  -60.11 | X-H torsion
[ 7974 7965 7964 7962 ] final -179.37 input  175.53 | X-H torsion
[ 8008 7997 7996 7995 ] final  159.87 input   59.86 | X-H torsion
[ 10167 10162 10161 10158 ] final   66.04 input  -65.29 | X-H torsion
[ 10718 10713 10712 10709 ] final   17.50 input   66.30 | X-H torsion
[ 10763 10752 10751 10750 ] final  -24.60 input  -60.55 | X-H torsion
[ 11005 11000 10999 10996 ] final -121.70 input  -57.11 | X-H torsion

> <Gold.Protein.ActiveResidues>
 VAL166  LYS551  ARG553  GLY616  TRP617  ASP618  TYR619  PRO620  LYS621  CYS622 
 ASP623  PHE694  ASN695  SER759  ASP760  ASP761  ALA762  ILE779  LEU786  VAL792 
 PHE793  MET794  SER795  GLU796  ALA797  LYS798  CYS799  TRP800  GLU811  SER814 

> <Gold.Protein.RotatedAtoms>
  152.0222  134.9816  160.0570 H   0  0  0  0  0  0  0  0  0  0  0  0  # atno 6907 bound_to 6896
  152.1326  133.4412  159.4736 H   0  0  0  0  0  0  0  0  0  0  0  0  # atno 6908 bound_to 6896
  150.6857  134.2320  159.4481 H   0  0  0  0  0  0  0  0  0  0  0  0  # atno 6909 bound_to 6896
  144.7136  140.0728  143.6428 H   0  0  0  0  0  0  0  0  0  0  0  0  # atno 7974 bound_to 7965
  156.2210  140.1819  156.7476 H   0  0  0  0  0  0  0  0  0  0  0  0  # atno 8008 bound_to 7997
  154.5866  140.0657  156.9208 H   0  0  0  0  0  0  0  0  0  0  0  0  # atno 8009 bound_to 7997
  155.2410  140.3322  155.4295 H   0  0  0  0  0  0  0  0  0  0  0  0  # atno 8010 bound_to 7997
  140.1047  144.4872  150.7015 H   0  0  0  0  0  0  0  0  0  0  0  0  # atno 10167 bound_to 10162
  157.0830  130.6395  149.5831 H   0  0  0  0  0  0  0  0  0  0  0  0  # atno 10718 bound_to 10713
  153.6863  135.6964  153.5103 H   0  0  0  0  0  0  0  0  0  0  0  0  # atno 10763 bound_to 10752
  153.2446  135.4294  155.0734 H   0  0  0  0  0  0  0  0  0  0  0  0  # atno 10764 bound_to 10752
  154.8385  135.3516  154.6406 H   0  0  0  0  0  0  0  0  0  0  0  0  # atno 10765 bound_to 10752
  141.0051  134.0347  157.3488 H   0  0  0  0  0  0  0  0  0  0  0  0  # atno 11005 bound_to 11000
  145.9769  139.2911  143.1065 LP  0  0  0  0  0  0  0  0  0  0  0  0  # atno 17320 bound_to 7965
  145.9054  140.9215  143.0481 LP  0  0  0  0  0  0  0  0  0  0  0  0  # atno 17321 bound_to 7965
  140.6958  143.2403  151.5004 LP  0  0  0  0  0  0  0  0  0  0  0  0  # atno 17342 bound_to 10162
  139.5652  144.2060  152.1753 LP  0  0  0  0  0  0  0  0  0  0  0  0  # atno 17343 bound_to 10162
  155.9918  130.4974  150.7316 LP  0  0  0  0  0  0  0  0  0  0  0  0  # atno 17370 bound_to 10713
  157.4785  131.0900  151.0563 LP  0  0  0  0  0  0  0  0  0  0  0  0  # atno 17371 bound_to 10713
  139.9059  135.0179  156.7482 LP  0  0  0  0  0  0  0  0  0  0  0  0  # atno 17394 bound_to 11000
  140.6826  133.9461  155.7919 LP  0  0  0  0  0  0  0  0  0  0  0  0  # atno 17395 bound_to 11000

$$$$
