#       Name:                AV-unprocessed.smi:2178
#       Creating user name   scv26
#       Creation time:       Fri Mar 27 12:04:54 2020


#       File generated by GOLD software.
#

@<TRIPOS>MOLECULE
AV-unprocessed.smi:2178
    53    55     1
SMALL
NO_CHARGES


@<TRIPOS>ATOM
      1 ****        -3.0237   2.1080  -2.2689 C.3            1 S1                 0.0000
      2 ****        -3.7784   1.8671  -0.9744 C.ar           1 S1                 0.0000
      3 ****        -5.1856   1.9586  -0.9690 C.ar           1 S1                 0.0000
      4 ****        -5.9054   1.7600   0.2235 C.ar           1 S1                 0.0000
      5 ****        -5.2207   1.4737   1.4189 C.ar           1 S1                 0.0000
      6 ****        -3.8139   1.3763   1.4253 C.ar           1 S1                 0.0000
      7 ****        -3.0875   1.0744   2.7226 C.3            1 S1                 0.0000
      8 ****        -3.0899   1.5588   0.2238 C.ar           1 S1                 0.0000
      9 ****        -1.7220   1.4626   0.2361 O.3            1 S1                 0.0000
     10 ****        -1.2364   0.1817  -0.1382 C.3            1 S1                 0.0000
     11 ****         0.2984   0.1928  -0.0744 C.3            1 S1                 0.0000
     12 ****         0.7942   0.7880  -1.2574 O.3            1 S1                 0.0000
     13 ****         0.8792  -1.2289   0.0605 C.3            1 S1                 0.0000
     14 ****         2.3429  -1.2342   0.2180 N.pl3          1 S1                 0.0000
     15 ****         3.1004  -1.0794   1.3421 C.2            1 S1                 0.0000
     16 ****         2.6044  -0.8638   2.7338 C.3            1 S1                 0.0000
     17 ****         2.1926  -2.0646   3.3483 O.3            1 S1                 0.0000
     18 ****         4.4067  -1.1676   0.9647 N.pl3          1 S1                 1.0000
     19 ****         4.4877  -1.3764  -0.4123 C.ar           1 S1                 0.0000
     20 ****         5.5915  -1.5251  -1.2463 C.ar           1 S1                 0.0000
     21 ****         5.3267  -1.7232  -2.6173 C.ar           1 S1                 0.0000
     22 ****         4.0066  -1.7685  -3.1105 C.ar           1 S1                 0.0000
     23 ****         2.8955  -1.6183  -2.2548 C.ar           1 S1                 0.0000
     24 ****         3.1652  -1.4216  -0.9002 C.ar           1 S1                 0.0000
     25 ****        -3.5891   2.7636  -2.9317 H              1 S1                 0.0000
     26 ****        -2.8533   1.1649  -2.7878 H              1 S1                 0.0000
     27 ****        -2.0584   2.5791  -2.0809 H              1 S1                 0.0000
     28 ****        -5.7186   2.1864  -1.8806 H              1 S1                 0.0000
     29 ****        -6.9828   1.8336   0.2226 H              1 S1                 0.0000
     30 ****        -5.7808   1.3306   2.3314 H              1 S1                 0.0000
     31 ****        -2.2457   1.7540   2.8583 H              1 S1                 0.0000
     32 ****        -2.7074   0.0529   2.7147 H              1 S1                 0.0000
     33 ****        -3.7491   1.1846   3.5823 H              1 S1                 0.0000
     34 ****        -1.6263  -0.5504   0.5707 H              1 S1                 0.0000
     35 ****        -1.5885  -0.1174  -1.1266 H              1 S1                 0.0000
     36 ****         0.6207   0.7893   0.7799 H              1 S1                 0.0000
     37 ****         0.4600   0.3064  -1.9983 H              1 S1                 0.0000
     38 ****         0.4637  -1.7165   0.9433 H              1 S1                 0.0000
     39 ****         0.6006  -1.8560  -0.7867 H              1 S1                 0.0000
     40 ****         3.3926  -0.4094   3.3346 H              1 S1                 0.0000
     41 ****         1.7688  -0.1641   2.7198 H              1 S1                 0.0000
     42 ****         1.8897  -1.8674   4.2217 H              1 S1                 0.0000
     43 ****         6.6036  -1.4903  -0.8703 H              1 S1                 0.0000
     44 ****         6.1523  -1.8422  -3.3040 H              1 S1                 0.0000
     45 ****         3.8424  -1.9209  -4.1674 H              1 S1                 0.0000
     46 ****         1.8900  -1.6513  -2.6463 H              1 S1                 0.0000
     47 ****         5.1850  -1.0918   1.6067 H              1 S1                 0.0000
     48 ****        -1.3996   1.6646   1.1609 LP             1 S1                 0.0000
     49 ****        -1.3522   2.1390  -0.4009 LP             1 S1                 0.0000
     50 ****         1.7937   0.7564  -1.2576 LP             1 S1                 0.0000
     51 ****         0.4909   1.7395  -1.3090 LP             1 S1                 0.0000
     52 ****         2.9627  -2.7009   3.3943 LP             1 S1                 0.0000
     53 ****         1.4508  -2.4767   2.8193 LP             1 S1                 0.0000
@<TRIPOS>BOND
    1    1    2 1     
    2    1   25 1     
    3    1   26 1     
    4    1   27 1     
    5    2    8 ar    
    6    2    3 ar    
    7    3    4 ar    
    8    3   28 1     
    9    4    5 ar    
   10    4   29 1     
   11    5    6 ar    
   12    5   30 1     
   13    6    7 1     
   14    6    8 ar    
   15    7   31 1     
   16    7   32 1     
   17    7   33 1     
   18    8    9 1     
   19    9   10 1     
   20   10   11 1     
   21   10   34 1     
   22   10   35 1     
   23   11   12 1     
   24   11   13 1     
   25   11   36 1     
   26   12   37 1     
   27   13   14 1     
   28   13   38 1     
   29   13   39 1     
   30   14   24 1     
   31   14   15 1     
   32   15   16 1     
   33   15   18 2     
   34   16   17 1     
   35   16   40 1     
   36   16   41 1     
   37   17   42 1     
   38   18   19 1     
   39   18   47 1     
   40   19   24 ar    
   41   19   20 ar    
   42   20   21 ar    
   43   20   43 1     
   44   21   22 ar    
   45   21   44 1     
   46   22   23 ar    
   47   22   45 1     
   48   23   24 ar    
   49   23   46 1     
   50    9   48 1     
   51    9   49 1     
   52   12   50 1     
   53   12   51 1     
   54   17   52 1     
   55   17   53 1     
@<TRIPOS>SUBSTRUCTURE
      1 S1             1
@<TRIPOS>SET
LONE_PAIRS      STATIC     ATOMS    <user>   **** ""
6 48 49 50 51 52 53
DONOR_HYDROGENS      STATIC     ATOMS    <user>   **** ""
3 37 42 47
ATOM$BLUE        STATIC     ATOMS    COLORGROUP SYSTEM
6 48 49 50 51 52 53
ATOM$RED        STATIC     ATOMS    COLORGROUP SYSTEM
3 37 42 47
