AV-unprocessed.smi:1573|AV-procd|sdf|6334|dock4
  -GOLD-   22720 6543D 1   1.00000     0.00000
 Structure written by MMmdl.
 41 41  0  0  0  0  0  0  0  0  1 V2000
  149.9186  137.4943  159.0211 C   0  0  0  0  0  0  0  0  0  0  0  0
  149.0106  136.4071  158.4303 C   0  0  0  0  0  0  0  0  0  0  0  0
  149.3494  136.1247  157.0408 N   0  0  0  0  0  0  0  0  0  0  0  0
  149.8795  134.9758  156.5941 C   0  0  0  0  0  0  0  0  0  0  0  0
  150.1583  134.0290  157.3321 O   0  0  0  0  0  0  0  0  0  0  0  0
  150.1446  134.8938  155.0823 C   0  0  1  0  0  0  0  0  0  0  0  0
  148.9424  134.1984  154.4224 C   0  0  0  0  0  0  0  0  0  0  0  0
  150.2578  136.2332  154.5099 N   0  0  0  0  0  0  0  0  0  0  0  0
  151.1522  137.1647  154.8781 C   0  0  0  0  0  0  0  0  0  0  0  0
  151.9970  136.9865  155.7554 O   0  0  0  0  0  0  0  0  0  0  0  0
  151.0816  138.5022  154.1420 C   0  0  0  0  0  0  0  0  0  0  0  0
  150.7324  139.6006  155.1143 C   0  0  0  0  0  0  0  0  0  0  0  0
  149.6363  140.5108  155.0427 C   0  0  0  0  0  0  0  0  0  0  0  0
  148.5708  140.6048  153.9879 C   0  0  0  0  0  0  0  0  0  0  0  0
  149.6183  141.3595  156.0570 N   0  0  0  0  0  0  0  0  0  0  0  0
  150.6881  141.0246  156.8057 N   0  0  0  0  0  0  0  0  0  0  0  0
  150.9691  141.7686  158.0181 C   0  0  0  0  0  0  0  0  0  0  0  0
  151.3868  139.9652  156.2607 C   0  0  0  0  0  0  0  0  0  0  0  0
  152.6190  139.4105  156.8994 C   0  0  0  0  0  0  0  0  0  0  0  0
  149.6794  137.6702  160.0701 H   0  0  0  0  0  0  0  0  0  0  0  0
  149.8020  138.4408  158.4923 H   0  0  0  0  0  0  0  0  0  0  0  0
  150.9685  137.2049  158.9636 H   0  0  0  0  0  0  0  0  0  0  0  0
  149.1220  135.4852  159.0016 H   0  0  0  0  0  0  0  0  0  0  0  0
  147.9627  136.6996  158.5138 H   0  0  0  0  0  0  0  0  0  0  0  0
  149.1536  136.8504  156.3664 H   0  0  0  0  0  0  0  0  0  0  0  0
  151.0539  134.3227  154.8842 H   0  0  0  0  0  0  0  0  0  0  0  0
  148.8073  133.1877  154.8098 H   0  0  0  0  0  0  0  0  0  0  0  0
  149.0861  134.1153  153.3445 H   0  0  0  0  0  0  0  0  0  0  0  0
  148.0131  134.7463  154.5884 H   0  0  0  0  0  0  0  0  0  0  0  0
  149.5987  136.4731  153.7837 H   0  0  0  0  0  0  0  0  0  0  0  0
  152.0379  138.6883  153.6523 H   0  0  0  0  0  0  0  0  0  0  0  0
  150.3456  138.4307  153.3403 H   0  0  0  0  0  0  0  0  0  0  0  0
  148.9508  141.1016  153.0951 H   0  0  0  0  0  0  0  0  0  0  0  0
  147.7050  141.1680  154.3381 H   0  0  0  0  0  0  0  0  0  0  0  0
  148.2209  139.6152  153.6940 H   0  0  0  0  0  0  0  0  0  0  0  0
  151.0627  141.0799  158.8581 H   0  0  0  0  0  0  0  0  0  0  0  0
  150.1665  142.4759  158.2314 H   0  0  0  0  0  0  0  0  0  0  0  0
  151.9032  142.3186  157.9013 H   0  0  0  0  0  0  0  0  0  0  0  0
  153.1005  138.6739  156.2563 H   0  0  0  0  0  0  0  0  0  0  0  0
  152.3790  138.9247  157.8453 H   0  0  0  0  0  0  0  0  0  0  0  0
  153.3437  140.2005  157.0977 H   0  0  0  0  0  0  0  0  0  0  0  0
  1  2  1  0  0  0  0
  1 20  1  0  0  0  0
  1 21  1  0  0  0  0
  1 22  1  0  0  0  0
  2  3  1  0  0  0  0
  2 23  1  0  0  0  0
  2 24  1  0  0  0  0
  3  4  1  0  0  0  0
  3 25  1  0  0  0  0
  4  5  2  0  0  0  0
  4  6  1  0  0  0  0
  6  7  1  0  0  0  0
  6  8  1  0  0  0  0
  6 26  1  0  0  0  0
  7 27  1  0  0  0  0
  7 28  1  0  0  0  0
  7 29  1  0  0  0  0
  8  9  1  0  0  0  0
  8 30  1  0  0  0  0
  9 10  2  0  0  0  0
  9 11  1  0  0  0  0
 11 12  1  0  0  0  0
 11 31  1  0  0  0  0
 11 32  1  0  0  0  0
 12 18  2  0  0  0  0
 12 13  1  0  0  0  0
 13 14  1  0  0  0  0
 13 15  2  0  0  0  0
 14 33  1  0  0  0  0
 14 34  1  0  0  0  0
 14 35  1  0  0  0  0
 15 16  1  0  0  0  0
 16 17  1  0  0  0  0
 16 18  1  0  0  0  0
 17 36  1  0  0  0  0
 17 37  1  0  0  0  0
 17 38  1  0  0  0  0
 18 19  1  0  0  0  0
 19 39  1  0  0  0  0
 19 40  1  0  0  0  0
 19 41  1  0  0  0  0
M  END
> <s_m_source_file>
AV-unprocessed.smi

> <i_m_source_file_index>
1573

> <i_lp_mmshare_version>
43012

> <i_f3d_flags>
0

> <s_epik_input>
W0NIM11bQ0gyXVtOSF1DKD1PKVtDQEhdKFtDSDNdKVtOSF1DKD1PKVtDSDJdYzFjKFtDSDNdKW5uKFtDSDNdKWMxW0NIM10=

> <s_epik_cmdline>
J2VwaWtfcHl0aG9uJywgJy1waCcsICc3LjAnLCAnLXRuJywgJzgnLCAnLW1hJywgJzIwMCcsICctbWV0YWxfYmluZGluZycsICctaW1hZScsICc8aW5maWxlLm1hZT4nLCAnLW9tYWUnLCAnPG91dGZpbGUubWFlPic=

> <r_lp_tautomer_probability>
1

> <r_epik_Ionization_Penalty>
0.00278414

> <r_epik_Ionization_Penalty_Charging>
0

> <r_epik_Ionization_Penalty_Neutral>
0.00278414

> <r_epik_State_Penalty>
0.00194489

> <r_epik_Charging_Adjusted_Penalty>
0.00194489

> <i_epik_Tot_Q>
0

> <i_epik_Tot_abs_Q>
0

> <r_epik_Metal_State_Penalty>
-0

> <b_epik_Metal_Only>
0

> <s_lp_Force_Field>
OPLS_2005

> <r_lp_Energy>
-3.15373

> <b_lp_Chiralities_Consistent>
1

> <s_lp_Variant>
AV-unprocessed.smi:1573-2

> <Gold.Version>
5.8.1

> <Gold.Id.Protein>
6NUR|6NUR_protein|mol2

> <Gold.PLP.Fitness>
36.4595

> <Gold.PLP.PLP>
-29.3876

> <Gold.PLP.part.hbond>
-3.5706

> <Gold.PLP.part.metal>
0.0000

> <Gold.PLP.part.buried>
-0.3269

> <Gold.PLP.part.nonpolar>
-25.9191

> <Gold.PLP.part.repulsive>
0.2201

> <Gold.PLP.ligand.clash>
0.0000

> <Gold.PLP.ligand.torsion>
0.7245

> <Gold.PLP.Chemscore.Hbond>
2.8322

> <Gold.PLP.Chemscore.CHOScore>
0.0000

> <Gold.PLP.Chemscore.Metal>
0.0000

> <Gold.Chemscore.Hbonds>
donor molecule, donor type, donor heavy atom, donor atom, acceptor molecule, acceptor atom, score
      L1  H     8    30       P1  7948  0.94
      P1  H  6896  6908       L1     5  0.88
      P1  H 10752 10764       L1    10  1.00

> <Gold.PLP.Chemscore.Internal.Correction>
0.0245

> <Gold.Rescore>
     Score         DG    S(hbond)    S(metal)    S(lipo)     H(rot)  DE(clash)    DE(int)     intcor
     13.79     -16.05       2.46        0.00      61.80       1.91       0.06       2.21       ----

> <Gold.Chemscore.Fitness>
13.7881

> <Gold.Chemscore.DG>
-16.0517

> <Gold.Chemscore.ZeroCoef>
-5.4800

> <Gold.Chemscore.Hbond>
2.4644

> <Gold.Chemscore.Metal>
0.0000

> <Gold.Chemscore.Lipo>
61.7981

> <Gold.Chemscore.Internal_Hbond>
0.0000

> <Gold.Chemscore.DEClash>
0.0556

> <Gold.Chemscore.DEInternal>
2.2080

> <Gold.Chemscore.Rot>
1.9100

> <Gold.Chemscore.Internal.Correction>
   9.000000E+99

> <Gold.Chemscore.Hbonds>
donor molecule, donor type, donor heavy atom, donor atom, acceptor molecule, acceptor atom, score
      L1  H     8    30       P1  7948  0.57
      P1  H  6896  6908       L1     5  0.81
      P1  H 10752 10764       L1    10  0.24

> <Gold.Chemscore.Hbond.Weighted>
-8.2309

> <Gold.Chemscore.Metal.Weighted>
-0.0000

> <Gold.Chemscore.Lipo.Weighted>
-7.2304

> <Gold.Chemscore.Internal_Hbond.Weighted>
0.0000

> <Gold.Chemscore.DEClash.Weighted>
0.0556

> <Gold.Chemscore.DEInternal.Weighted>
2.2080

> <Gold.Chemscore.Rot.Weighted>
4.8896

> <Gold.Chemscore.Internal.Correction.Weighted>
   9.000000E+99

> <Gold.Protein.RotatedTorsions>
[ 6907 6896 6895 6894 ] final  124.27 input  -60.11 | X-H torsion
[ 7974 7965 7964 7962 ] final  -96.22 input  175.53 | X-H torsion
[ 8008 7997 7996 7995 ] final -114.51 input   59.86 | X-H torsion
[ 10167 10162 10161 10158 ] final -157.13 input  -65.29 | X-H torsion
[ 10718 10713 10712 10709 ] final   28.97 input   66.30 | X-H torsion
[ 10763 10752 10751 10750 ] final  -38.32 input  -60.55 | X-H torsion
[ 11005 11000 10999 10996 ] final   41.97 input  -57.11 | X-H torsion

> <Gold.Protein.ActiveResidues>
 VAL166  LYS551  ARG553  GLY616  TRP617  ASP618  TYR619  PRO620  LYS621  CYS622 
 ASP623  PHE694  ASN695  SER759  ASP760  ASP761  ALA762  ILE779  LEU786  VAL792 
 PHE793  MET794  SER795  GLU796  ALA797  LYS798  CYS799  TRP800  GLU811  SER814 

> <Gold.Protein.RotatedAtoms>
  152.4092  133.6937  159.6383 H   0  0  0  0  0  0  0  0  0  0  0  0  # atno 6907 bound_to 6896
  150.7974  133.8654  159.3252 H   0  0  0  0  0  0  0  0  0  0  0  0  # atno 6908 bound_to 6896
  151.6400  135.1015  160.0191 H   0  0  0  0  0  0  0  0  0  0  0  0  # atno 6909 bound_to 6896
  145.3498  140.9474  143.2561 H   0  0  0  0  0  0  0  0  0  0  0  0  # atno 7974 bound_to 7965
  155.0375  140.0392  157.2497 H   0  0  0  0  0  0  0  0  0  0  0  0  # atno 8008 bound_to 7997
  154.7244  140.2718  155.6488 H   0  0  0  0  0  0  0  0  0  0  0  0  # atno 8009 bound_to 7997
  156.2825  140.2696  156.1926 H   0  0  0  0  0  0  0  0  0  0  0  0  # atno 8010 bound_to 7997
  139.6795  143.9606  152.2329 H   0  0  0  0  0  0  0  0  0  0  0  0  # atno 10167 bound_to 10162
  157.2405  130.7067  149.6356 H   0  0  0  0  0  0  0  0  0  0  0  0  # atno 10718 bound_to 10713
  153.9110  135.6792  153.4751 H   0  0  0  0  0  0  0  0  0  0  0  0  # atno 10763 bound_to 10752
  153.1079  135.4797  154.8980 H   0  0  0  0  0  0  0  0  0  0  0  0  # atno 10764 bound_to 10752
  154.7527  135.3189  154.8483 H   0  0  0  0  0  0  0  0  0  0  0  0  # atno 10765 bound_to 10752
  140.1783  134.4135  155.8215 H   0  0  0  0  0  0  0  0  0  0  0  0  # atno 11005 bound_to 11000
  144.8727  139.5016  143.6760 LP  0  0  0  0  0  0  0  0  0  0  0  0  # atno 17320 bound_to 7965
  146.2973  139.7316  142.9117 LP  0  0  0  0  0  0  0  0  0  0  0  0  # atno 17321 bound_to 7965
  139.9392  144.6692  150.8284 LP  0  0  0  0  0  0  0  0  0  0  0  0  # atno 17342 bound_to 10162
  140.7647  143.3256  151.2523 LP  0  0  0  0  0  0  0  0  0  0  0  0  # atno 17343 bound_to 10162
  155.9670  130.4460  150.5522 LP  0  0  0  0  0  0  0  0  0  0  0  0  # atno 17370 bound_to 10713
  157.3384  131.0712  151.1807 LP  0  0  0  0  0  0  0  0  0  0  0  0  # atno 17371 bound_to 10713
  141.2221  133.6988  156.7886 LP  0  0  0  0  0  0  0  0  0  0  0  0  # atno 17394 bound_to 11000
  140.2296  134.8695  157.3463 LP  0  0  0  0  0  0  0  0  0  0  0  0  # atno 17395 bound_to 11000

$$$$
