#       Name:                AV-unprocessed.smi:249
#       Creating user name   scv26
#       Creation time:       Thu Mar 26 20:58:41 2020


#       File generated by GOLD software.
#

@<TRIPOS>MOLECULE
AV-unprocessed.smi:249
    71    74     1
SMALL
NO_CHARGES


@<TRIPOS>ATOM
      1 ****        -3.7306  -6.2208  -1.0479 C.3            1 S1                 0.0000
      2 ****        -4.4621  -4.9735  -1.5662 C.3            1 S1                 0.0000
      3 ****        -3.7495  -3.7045  -1.2573 N.4            1 S1                 1.0000
      4 ****        -4.2882  -2.5528  -2.0299 C.3            1 S1                 0.0000
      5 ****        -3.3874  -1.3152  -1.8917 C.3            1 S1                 0.0000
      6 ****        -3.1866  -0.9434  -0.4090 C.3            1 S1                 0.0000
      7 ****        -2.3877   0.2721  -0.2026 N.pl3          1 S1                 0.0000
      8 ****        -2.9541   1.5516  -0.6110 C.3            1 S1                 0.0000
      9 ****        -1.0317   0.2508  -0.2401 C.ar           1 S1                 0.0000
     10 ****        -0.3824  -0.4910  -1.1751 N.ar           1 S1                 0.0000
     11 ****         0.9533  -0.4985  -1.2217 C.ar           1 S1                 0.0000
     12 ****         1.8188   0.1529  -0.4427 N.ar           1 S1                 0.0000
     13 ****         1.1715   0.9026   0.4944 C.ar           1 S1                 0.0000
     14 ****        -0.2375   1.0111   0.6619 C.ar           1 S1                 0.0000
     15 ****        -0.5247   1.8629   1.7218 N.2            1 S1                 0.0000
     16 ****         0.6482   2.2376   2.1561 C.2            1 S1                 0.0000
     17 ****         1.7209   1.7103   1.4730 N.pl3          1 S1                 0.0000
     18 ****         3.1281   1.9506   1.7375 C.3            1 S1                 0.0000
     19 ****         3.7865   2.9029   0.7092 C.3            1 S1                 0.0000
     20 ****         3.0225   4.2412   0.5620 C.3            1 S1                 0.0000
     21 ****         3.0171   4.9698   1.7727 O.3            1 S1                 0.0000
     22 ****         5.2923   3.1096   1.0108 C.3            1 S1                 0.0000
     23 ****         6.0421   3.9426  -0.0137 C.3            1 S1                 0.0000
     24 ****         7.4919   3.5760   0.2784 C.3            1 S1                 0.0000
     25 ****         7.4625   2.2105   0.6755 O.3            1 S1                 0.0000
     26 ****         6.1280   1.8241   0.9915 C.3            1 S1                 0.0000
     27 ****        -2.6678  -2.1662   0.3786 C.3            1 S1                 0.0000
     28 ****        -3.5739  -3.4009   0.1975 C.3            1 S1                 0.0000
     29 ****        -4.9036  -3.2721   0.9718 C.3            1 S1                 0.0000
     30 ****        -4.2136  -7.1266  -1.4148 H              1 S1                 0.0000
     31 ****        -3.7352  -6.2757   0.0404 H              1 S1                 0.0000
     32 ****        -2.6939  -6.2399  -1.3857 H              1 S1                 0.0000
     33 ****        -4.5421  -5.0674  -2.6499 H              1 S1                 0.0000
     34 ****        -5.4856  -4.9439  -1.1929 H              1 S1                 0.0000
     35 ****        -4.3535  -2.8195  -3.0853 H              1 S1                 0.0000
     36 ****        -5.3044  -2.3243  -1.7073 H              1 S1                 0.0000
     37 ****        -2.4337  -1.5223  -2.3751 H              1 S1                 0.0000
     38 ****        -3.8322  -0.4810  -2.4350 H              1 S1                 0.0000
     39 ****        -4.1703  -0.7032  -0.0047 H              1 S1                 0.0000
     40 ****        -2.7846   2.3106   0.1528 H              1 S1                 0.0000
     41 ****        -4.0304   1.4725  -0.7662 H              1 S1                 0.0000
     42 ****        -2.5047   1.8952  -1.5437 H              1 S1                 0.0000
     43 ****         1.3917  -1.1117  -1.9952 H              1 S1                 0.0000
     44 ****         0.7645   2.9167   2.9885 H              1 S1                 0.0000
     45 ****         3.2272   2.3539   2.7461 H              1 S1                 0.0000
     46 ****         3.6308   0.9833   1.7433 H              1 S1                 0.0000
     47 ****         3.7229   2.4097  -0.2620 H              1 S1                 0.0000
     48 ****         3.4688   4.8596  -0.2163 H              1 S1                 0.0000
     49 ****         1.9918   4.0715   0.2506 H              1 S1                 0.0000
     50 ****         2.5564   5.7830   1.6319 H              1 S1                 0.0000
     51 ****         5.4086   3.5805   1.9886 H              1 S1                 0.0000
     52 ****         5.7750   3.6360  -1.0260 H              1 S1                 0.0000
     53 ****         5.8574   5.0129   0.0811 H              1 S1                 0.0000
     54 ****         8.1448   3.7303  -0.5807 H              1 S1                 0.0000
     55 ****         7.8744   4.1718   1.1081 H              1 S1                 0.0000
     56 ****         6.0910   1.2909   1.9417 H              1 S1                 0.0000
     57 ****         5.7788   1.1457   0.2119 H              1 S1                 0.0000
     58 ****        -1.6644  -2.4343   0.0486 H              1 S1                 0.0000
     59 ****        -2.5798  -1.9193   1.4374 H              1 S1                 0.0000
     60 ****        -3.0292  -4.2309   0.6460 H              1 S1                 0.0000
     61 ****        -4.7152  -3.0321   2.0186 H              1 S1                 0.0000
     62 ****        -5.4691  -4.2033   0.9629 H              1 S1                 0.0000
     63 ****        -5.5463  -2.4886   0.5722 H              1 S1                 0.0000
     64 ****        -2.8136  -3.8388  -1.6128 H              1 S1                 0.0000
     65 ****        -0.9063  -1.0339  -1.8315 LP             1 S1                 0.0000
     66 ****         2.8131   0.0983  -0.5342 LP             1 S1                 0.0000
     67 ****        -1.4233   2.1279   2.0715 LP             1 S1                 0.0000
     68 ****         3.9571   5.1595   2.0562 LP             1 S1                 0.0000
     69 ****         2.5552   4.4392   2.4834 LP             1 S1                 0.0000
     70 ****         8.0426   2.0871   1.4807 LP             1 S1                 0.0000
     71 ****         7.8042   1.6407  -0.0719 LP             1 S1                 0.0000
@<TRIPOS>BOND
    1    1    2 1     
    2    1   30 1     
    3    1   31 1     
    4    1   32 1     
    5    2    3 1     
    6    2   33 1     
    7    2   34 1     
    8    3   28 1     
    9    3    4 1     
   10    3   64 1     
   11    4    5 1     
   12    4   35 1     
   13    4   36 1     
   14    5    6 1     
   15    5   37 1     
   16    5   38 1     
   17    6    7 1     
   18    6   27 1     
   19    6   39 1     
   20    7    8 1     
   21    7    9 1     
   22    8   40 1     
   23    8   41 1     
   24    8   42 1     
   25    9   14 ar    
   26    9   10 ar    
   27   10   11 ar    
   28   11   12 ar    
   29   11   43 1     
   30   12   13 ar    
   31   13   17 1     
   32   13   14 ar    
   33   14   15 1     
   34   15   16 2     
   35   16   17 1     
   36   16   44 1     
   37   17   18 1     
   38   18   19 1     
   39   18   45 1     
   40   18   46 1     
   41   19   20 1     
   42   19   22 1     
   43   19   47 1     
   44   20   21 1     
   45   20   48 1     
   46   20   49 1     
   47   21   50 1     
   48   22   26 1     
   49   22   23 1     
   50   22   51 1     
   51   23   24 1     
   52   23   52 1     
   53   23   53 1     
   54   24   25 1     
   55   24   54 1     
   56   24   55 1     
   57   25   26 1     
   58   26   56 1     
   59   26   57 1     
   60   27   28 1     
   61   27   58 1     
   62   27   59 1     
   63   28   29 1     
   64   28   60 1     
   65   29   61 1     
   66   29   62 1     
   67   29   63 1     
   68   10   65 1     
   69   12   66 1     
   70   15   67 1     
   71   21   68 1     
   72   21   69 1     
   73   25   70 1     
   74   25   71 1     
@<TRIPOS>SUBSTRUCTURE
      1 S1             1
@<TRIPOS>SET
LONE_PAIRS      STATIC     ATOMS    <user>   **** ""
7 65 66 67 68 69 70 71
DONOR_HYDROGENS      STATIC     ATOMS    <user>   **** ""
2 64 50
ATOM$BLUE        STATIC     ATOMS    COLORGROUP SYSTEM
7 65 66 67 68 69 70 71
ATOM$RED        STATIC     ATOMS    COLORGROUP SYSTEM
2 64 50
