AV-unprocessed.smi:1627|AV-procd|sdf|6519|dock8
  -GOLD-   22720 7193D 1   1.00000     0.00000
 Structure written by MMmdl.
 44 45  0  0  0  0  0  0  0  0  2 V2000
  146.5720  138.7825  151.6479 C   0  0  0  0  0  0  0  0  0  0  0  0
  146.2044  138.0869  152.9668 C   0  0  1  0  0  0  0  0  0  0  0  0
  146.1378  136.6875  152.7068 O   0  0  0  0  0  0  0  0  0  0  0  0
  145.3421  136.3097  151.5882 C   0  0  0  0  0  0  0  0  0  0  0  0
  145.1874  134.7843  151.5675 C   0  0  0  0  0  0  0  0  0  0  0  0
  146.3946  134.2205  151.5857 F   0  0  0  0  0  0  0  0  0  0  0  0
  144.5077  134.3741  152.6381 F   0  0  0  0  0  0  0  0  0  0  0  0
  144.5531  134.4019  150.4596 F   0  0  0  0  0  0  0  0  0  0  0  0
  147.2487  138.3759  154.0575 C   0  0  0  0  0  0  0  0  0  0  0  0
  147.8031  137.4393  154.6320 O   0  0  0  0  0  0  0  0  0  0  0  0
  147.4597  139.6751  154.3394 N   0  0  0  0  0  0  0  0  0  0  0  0
  148.3547  140.2401  155.2878 C   0  0  0  0  0  0  0  0  0  0  0  0
  148.9436  139.5150  156.3523 C   0  0  0  0  0  0  0  0  0  0  0  0
  149.8338  140.1676  157.2297 C   0  0  0  0  0  0  0  0  0  0  0  0
  150.1421  141.5356  157.0381 C   0  0  0  0  0  0  0  0  0  0  0  0
  151.0256  142.2374  157.8870 N   0  0  0  0  0  0  0  0  0  0  0  0
  150.5565  143.5443  158.3535 C   0  0  0  0  0  0  0  0  0  0  0  0
  151.7187  144.3901  158.9019 C   0  0  0  0  0  0  0  0  0  0  0  0
  152.5008  143.6242  159.9787 C   0  0  0  0  0  0  0  0  0  0  0  0
  152.9735  142.2741  159.4215 C   0  0  0  0  0  0  0  0  0  0  0  0
  151.7927  141.4603  158.8645 C   0  0  0  0  0  0  0  0  0  0  0  0
  149.5595  142.1823  155.9981 N   0  3  0  0  0  0  0  0  0  0  0  0
  148.7033  141.5969  155.1333 C   0  0  0  0  0  0  0  0  0  0  0  0
  146.6527  139.8624  151.7773 H   0  0  0  0  0  0  0  0  0  0  0  0
  145.8105  138.5986  150.8899 H   0  0  0  0  0  0  0  0  0  0  0  0
  147.5218  138.4198  151.2530 H   0  0  0  0  0  0  0  0  0  0  0  0
  145.2230  138.4466  153.2821 H   0  0  0  0  0  0  0  0  0  0  0  0
  144.3561  136.7734  151.6333 H   0  0  0  0  0  0  0  0  0  0  0  0
  145.8182  136.6451  150.6656 H   0  0  0  0  0  0  0  0  0  0  0  0
  146.8660  140.3330  153.8550 H   0  0  0  0  0  0  0  0  0  0  0  0
  148.7393  138.4673  156.5096 H   0  0  0  0  0  0  0  0  0  0  0  0
  150.2612  139.6092  158.0491 H   0  0  0  0  0  0  0  0  0  0  0  0
  150.0602  144.1041  157.5624 H   0  0  0  0  0  0  0  0  0  0  0  0
  149.8130  143.3860  159.1360 H   0  0  0  0  0  0  0  0  0  0  0  0
  152.3905  144.6594  158.0857 H   0  0  0  0  0  0  0  0  0  0  0  0
  151.3380  145.3265  159.3108 H   0  0  0  0  0  0  0  0  0  0  0  0
  153.3544  144.2132  160.3155 H   0  0  0  0  0  0  0  0  0  0  0  0
  151.8671  143.4621  160.8517 H   0  0  0  0  0  0  0  0  0  0  0  0
  153.7052  142.4431  158.6301 H   0  0  0  0  0  0  0  0  0  0  0  0
  153.4848  141.7059  160.1991 H   0  0  0  0  0  0  0  0  0  0  0  0
  151.1315  141.1577  159.6777 H   0  0  0  0  0  0  0  0  0  0  0  0
  152.1795  140.5497  158.4053 H   0  0  0  0  0  0  0  0  0  0  0  0
  148.3198  142.2349  154.3502 H   0  0  0  0  0  0  0  0  0  0  0  0
  149.7834  143.1677  155.8580 H   0  0  0  0  0  0  0  0  0  0  0  0
  1  2  1  0  0  0  0
  1 24  1  0  0  0  0
  1 25  1  0  0  0  0
  1 26  1  0  0  0  0
  2  3  1  0  0  0  0
  2  9  1  0  0  0  0
  2 27  1  0  0  0  0
  3  4  1  0  0  0  0
  4  5  1  0  0  0  0
  4 28  1  0  0  0  0
  4 29  1  0  0  0  0
  5  6  1  0  0  0  0
  5  7  1  0  0  0  0
  5  8  1  0  0  0  0
  9 10  2  0  0  0  0
  9 11  1  0  0  0  0
 11 12  1  0  0  0  0
 11 30  1  0  0  0  0
 12 23  1  0  0  0  0
 12 13  2  0  0  0  0
 13 14  1  0  0  0  0
 13 31  1  0  0  0  0
 14 15  2  0  0  0  0
 14 32  1  0  0  0  0
 15 16  1  0  0  0  0
 15 22  1  0  0  0  0
 16 21  1  0  0  0  0
 16 17  1  0  0  0  0
 17 18  1  0  0  0  0
 17 33  1  0  0  0  0
 17 34  1  0  0  0  0
 18 19  1  0  0  0  0
 18 35  1  0  0  0  0
 18 36  1  0  0  0  0
 19 20  1  0  0  0  0
 19 37  1  0  0  0  0
 19 38  1  0  0  0  0
 20 21  1  0  0  0  0
 20 39  1  0  0  0  0
 20 40  1  0  0  0  0
 21 41  1  0  0  0  0
 21 42  1  0  0  0  0
 22 23  2  0  0  0  0
 22 44  1  0  0  0  0
 23 43  1  0  0  0  0
M  CHG  1  22   1
M  END
> <s_m_source_file>
AV-unprocessed.smi

> <i_m_source_file_index>
1627

> <i_lp_mmshare_version>
43012

> <i_f3d_flags>
0

> <s_epik_input>
RkMoRikoRilbQ0gyXU9bQ0BASF0oW0NIM10pQyg9TylbTkhdYzFbY0hdW2NIXWMobltjSF0xKU4yW0NIMl1bQ0gyXVtDSDJdW0NIMl1bQ0gyXTI=

> <s_epik_cmdline>
J2VwaWtfcHl0aG9uJywgJy1waCcsICc3LjAnLCAnLXRuJywgJzgnLCAnLW1hJywgJzIwMCcsICctbWV0YWxfYmluZGluZycsICctaW1hZScsICc8aW5maWxlLm1hZT4nLCAnLW9tYWUnLCAnPG91dGZpbGUubWFlPic=

> <r_lp_tautomer_probability>
0.999994

> <r_epik_Ionization_Penalty>
1.93197

> <r_epik_Ionization_Penalty_Charging>
1.93197

> <r_epik_Ionization_Penalty_Neutral>
3.16684e-06

> <r_epik_State_Penalty>
2.05557

> <r_epik_Charging_Adjusted_Penalty>
3.98754

> <i_epik_Tot_Q>
1

> <i_epik_Tot_abs_Q>
1

> <r_epik_Metal_State_Penalty>
2.08108

> <b_epik_Metal_Only>
0

> <s_lp_Force_Field>
OPLS_2005

> <r_lp_Energy>
31.3841

> <b_lp_Chiralities_Consistent>
1

> <s_lp_Variant>
AV-unprocessed.smi:1627-4

> <Gold.Version>
5.8.1

> <Gold.Id.Protein>
6NUR|6NUR_protein|mol2

> <Gold.PLP.Fitness>
42.4427

> <Gold.PLP.PLP>
-38.6219

> <Gold.PLP.part.hbond>
-1.0000

> <Gold.PLP.part.metal>
0.0000

> <Gold.PLP.part.buried>
-5.8148

> <Gold.PLP.part.nonpolar>
-35.1973

> <Gold.PLP.part.repulsive>
1.1373

> <Gold.PLP.ligand.clash>
0.0000

> <Gold.PLP.ligand.torsion>
0.4171

> <Gold.PLP.Chemscore.Hbond>
1.3760

> <Gold.PLP.Chemscore.CHOScore>
0.0000

> <Gold.PLP.Chemscore.Metal>
0.0000

> <Gold.Chemscore.Hbonds>
donor molecule, donor type, donor heavy atom, donor atom, acceptor molecule, acceptor atom, score
      L1  H    22    44       P1  8028  1.50

> <Gold.PLP.Chemscore.Internal.Correction>
0.5271

> <Gold.Rescore>
     Score         DG    S(hbond)    S(metal)    S(lipo)     H(rot)  DE(clash)    DE(int)     intcor
     12.72     -14.39       0.76        0.00      96.12       1.90       0.04       1.62       ----

> <Gold.Chemscore.Fitness>
12.7231

> <Gold.Chemscore.DG>
-14.3885

> <Gold.Chemscore.ZeroCoef>
-5.4800

> <Gold.Chemscore.Hbond>
0.7569

> <Gold.Chemscore.Metal>
0.0000

> <Gold.Chemscore.Lipo>
96.1198

> <Gold.Chemscore.Internal_Hbond>
0.0000

> <Gold.Chemscore.DEClash>
0.0449

> <Gold.Chemscore.DEInternal>
1.6204

> <Gold.Chemscore.Rot>
1.9007

> <Gold.Chemscore.Internal.Correction>
   9.000000E+99

> <Gold.Chemscore.Hbonds>
donor molecule, donor type, donor heavy atom, donor atom, acceptor molecule, acceptor atom, score
      L1  H    22    44       P1  8028  0.76

> <Gold.Chemscore.Hbond.Weighted>
-2.5282

> <Gold.Chemscore.Metal.Weighted>
-0.0000

> <Gold.Chemscore.Lipo.Weighted>
-11.2460

> <Gold.Chemscore.Internal_Hbond.Weighted>
0.0000

> <Gold.Chemscore.DEClash.Weighted>
0.0449

> <Gold.Chemscore.DEInternal.Weighted>
1.6204

> <Gold.Chemscore.Rot.Weighted>
4.8657

> <Gold.Chemscore.Internal.Correction.Weighted>
   9.000000E+99

> <Gold.Protein.RotatedTorsions>
[ 6907 6896 6895 6894 ] final  164.73 input  -60.11 | X-H torsion
[ 7974 7965 7964 7962 ] final  -95.12 input  175.53 | X-H torsion
[ 8008 7997 7996 7995 ] final  -82.53 input   59.86 | X-H torsion
[ 10167 10162 10161 10158 ] final -112.49 input  -65.29 | X-H torsion
[ 10718 10713 10712 10709 ] final   27.07 input   66.30 | X-H torsion
[ 10763 10752 10751 10750 ] final   41.49 input  -60.55 | X-H torsion
[ 11005 11000 10999 10996 ] final   73.76 input  -57.11 | X-H torsion

> <Gold.Protein.ActiveResidues>
 VAL166  LYS551  ARG553  GLY616  TRP617  ASP618  TYR619  PRO620  LYS621  CYS622 
 ASP623  PHE694  ASN695  SER759  ASP760  ASP761  ALA762  ILE779  LEU786  VAL792 
 PHE793  MET794  SER795  GLU796  ALA797  LYS798  CYS799  TRP800  GLU811  SER814 

> <Gold.Protein.RotatedAtoms>
  151.9053  133.3548  159.3844 H   0  0  0  0  0  0  0  0  0  0  0  0  # atno 6907 bound_to 6896
  150.7070  134.4787  159.5469 H   0  0  0  0  0  0  0  0  0  0  0  0  # atno 6908 bound_to 6896
  152.2383  134.8254  160.0515 H   0  0  0  0  0  0  0  0  0  0  0  0  # atno 6909 bound_to 6896
  145.3642  140.9496  143.2483 H   0  0  0  0  0  0  0  0  0  0  0  0  # atno 7974 bound_to 7965
  154.6096  140.0632  156.9476 H   0  0  0  0  0  0  0  0  0  0  0  0  # atno 8008 bound_to 7997
  155.1995  140.3314  155.4327 H   0  0  0  0  0  0  0  0  0  0  0  0  # atno 8009 bound_to 7997
  156.2368  140.1867  156.7079 H   0  0  0  0  0  0  0  0  0  0  0  0  # atno 8010 bound_to 7997
  140.1221  143.4434  152.1684 H   0  0  0  0  0  0  0  0  0  0  0  0  # atno 10167 bound_to 10162
  157.2153  130.6953  149.6246 H   0  0  0  0  0  0  0  0  0  0  0  0  # atno 10718 bound_to 10713
  152.9907  135.6160  154.2796 H   0  0  0  0  0  0  0  0  0  0  0  0  # atno 10763 bound_to 10752
  154.2526  135.2785  155.2812 H   0  0  0  0  0  0  0  0  0  0  0  0  # atno 10764 bound_to 10752
  154.5275  135.5797  153.6788 H   0  0  0  0  0  0  0  0  0  0  0  0  # atno 10765 bound_to 10752
  139.9424  134.7375  156.1065 H   0  0  0  0  0  0  0  0  0  0  0  0  # atno 11005 bound_to 11000
  144.8624  139.5158  143.6806 LP  0  0  0  0  0  0  0  0  0  0  0  0  # atno 17320 bound_to 7965
  146.2914  139.7150  142.9158 LP  0  0  0  0  0  0  0  0  0  0  0  0  # atno 17321 bound_to 7965
  139.5563  144.7375  151.4285 LP  0  0  0  0  0  0  0  0  0  0  0  0  # atno 17342 bound_to 10162
  140.6866  143.7960  150.7194 LP  0  0  0  0  0  0  0  0  0  0  0  0  # atno 17343 bound_to 10162
  155.9687  130.4537  150.5824 LP  0  0  0  0  0  0  0  0  0  0  0  0  # atno 17370 bound_to 10713
  157.3630  131.0753  151.1620 LP  0  0  0  0  0  0  0  0  0  0  0  0  # atno 17371 bound_to 10713
  141.1063  133.6659  156.2872 LP  0  0  0  0  0  0  0  0  0  0  0  0  # atno 17394 bound_to 11000
  140.5918  134.5642  157.5501 LP  0  0  0  0  0  0  0  0  0  0  0  0  # atno 17395 bound_to 11000

$$$$
