AV-unprocessed.smi:2079|AV-procd|sdf|8482|dock1
  -GOLD-   2272011183D 1   1.00000     0.00000
 Structure written by MMmdl.
 41 42  0  0  0  0  0  0  0  0  3 V2000
  151.6473  140.3538  156.7486 C   0  0  0  0  0  0  0  0  0  0  0  0
  151.8746  139.0737  156.0192 C   0  0  0  0  0  0  0  0  0  0  0  0
  151.1156  137.9489  155.8624 C   0  0  0  0  0  0  0  0  0  0  0  0
  151.9349  137.1140  155.0545 C   0  0  0  0  0  0  0  0  0  0  0  0
  151.6158  135.8876  154.6126 N   0  5  0  0  0  0  0  0  0  0  0  0
  150.5736  135.2179  155.1556 C   0  0  0  0  0  0  0  0  0  0  0  0
  150.4984  134.7869  156.3086 O   0  0  0  0  0  0  0  0  0  0  0  0
  149.5516  135.0363  154.3092 N   0  0  0  0  0  0  0  0  0  0  0  0
  148.3110  134.3446  154.6305 C   0  0  0  0  0  0  0  0  0  0  0  0
  147.1006  135.2084  154.2338 C   0  0  0  0  0  0  0  0  0  0  0  0
  146.6737  135.0041  152.8190 N   0  3  1  0  0  0  0  0  0  0  0  0
  146.2622  133.5911  152.5708 C   0  0  0  0  0  0  0  0  0  0  0  0
  145.9430  133.3309  151.0922 C   0  0  0  0  0  0  0  0  0  0  0  0
  144.8450  134.2762  150.6072 C   0  0  0  0  0  0  0  0  0  0  0  0
  145.2768  135.7217  150.8622 C   0  0  0  0  0  0  0  0  0  0  0  0
  145.6281  135.9723  152.3465 C   0  0  2  0  0  0  0  0  0  0  0  0
  146.0441  137.4502  152.5045 C   0  0  0  0  0  0  0  0  0  0  0  0
  153.0833  137.6877  154.7360 N   0  0  0  0  0  0  0  0  0  0  0  0
  153.0553  138.9424  155.3566 O   0  0  0  0  0  0  0  0  0  0  0  0
  150.6968  140.8004  156.4564 H   0  0  0  0  0  0  0  0  0  0  0  0
  152.4379  141.0739  156.5358 H   0  0  0  0  0  0  0  0  0  0  0  0
  151.6254  140.1840  157.8249 H   0  0  0  0  0  0  0  0  0  0  0  0
  150.1323  137.7524  156.2628 H   0  0  0  0  0  0  0  0  0  0  0  0
  149.6507  135.4037  153.3742 H   0  0  0  0  0  0  0  0  0  0  0  0
  148.2838  133.3915  154.0999 H   0  0  0  0  0  0  0  0  0  0  0  0
  148.3156  134.1246  155.6975 H   0  0  0  0  0  0  0  0  0  0  0  0
  146.2584  135.0215  154.9017 H   0  0  0  0  0  0  0  0  0  0  0  0
  147.4008  136.2393  154.4031 H   0  0  0  0  0  0  0  0  0  0  0  0
  147.0489  132.8991  152.8642 H   0  0  0  0  0  0  0  0  0  0  0  0
  145.3924  133.3541  153.1857 H   0  0  0  0  0  0  0  0  0  0  0  0
  146.8426  133.4649  150.4901 H   0  0  0  0  0  0  0  0  0  0  0  0
  145.6289  132.2956  150.9555 H   0  0  0  0  0  0  0  0  0  0  0  0
  144.6521  134.1198  149.5454 H   0  0  0  0  0  0  0  0  0  0  0  0
  143.9117  134.0668  151.1315 H   0  0  0  0  0  0  0  0  0  0  0  0
  146.1380  135.9574  150.2349 H   0  0  0  0  0  0  0  0  0  0  0  0
  144.4769  136.3930  150.5473 H   0  0  0  0  0  0  0  0  0  0  0  0
  144.7278  135.8090  152.9416 H   0  0  0  0  0  0  0  0  0  0  0  0
  145.3412  138.1081  151.9924 H   0  0  0  0  0  0  0  0  0  0  0  0
  147.0317  137.6347  152.0806 H   0  0  0  0  0  0  0  0  0  0  0  0
  146.0493  137.7755  153.5439 H   0  0  0  0  0  0  0  0  0  0  0  0
  147.4908  135.1749  152.2504 H   0  0  0  0  0  0  0  0  0  0  0  0
  1  2  1  0  0  0  0
  1 20  1  0  0  0  0
  1 21  1  0  0  0  0
  1 22  1  0  0  0  0
  2 19  1  0  0  0  0
  2  3  2  0  0  0  0
  3  4  1  0  0  0  0
  3 23  1  0  0  0  0
  4  5  1  0  0  0  0
  4 18  2  0  0  0  0
  5  6  1  0  0  0  0
  6  7  2  0  0  0  0
  6  8  1  0  0  0  0
  8  9  1  0  0  0  0
  8 24  1  0  0  0  0
  9 10  1  0  0  0  0
  9 25  1  0  0  0  0
  9 26  1  0  0  0  0
 10 11  1  0  0  0  0
 10 27  1  0  0  0  0
 10 28  1  0  0  0  0
 11 16  1  0  0  0  0
 11 12  1  0  0  0  0
 11 41  1  0  0  0  0
 12 13  1  0  0  0  0
 12 29  1  0  0  0  0
 12 30  1  0  0  0  0
 13 14  1  0  0  0  0
 13 31  1  0  0  0  0
 13 32  1  0  0  0  0
 14 15  1  0  0  0  0
 14 33  1  0  0  0  0
 14 34  1  0  0  0  0
 15 16  1  0  0  0  0
 15 35  1  0  0  0  0
 15 36  1  0  0  0  0
 16 17  1  0  0  0  0
 16 37  1  0  0  0  0
 17 38  1  0  0  0  0
 17 39  1  0  0  0  0
 17 40  1  0  0  0  0
 18 19  1  0  0  0  0
M  CHG  1   5  -1
M  CHG  1  11   1
M  END
> <s_m_source_file>
AV-unprocessed.smi

> <i_m_source_file_index>
2079

> <i_lp_mmshare_version>
43012

> <i_f3d_flags>
0

> <s_epik_input>
W0NIM11jMVtjSF1jKG5vMSlbTkhdQyg9TylbTkhdW0NIMl1bQ0gyXU4yW0NIMl1bQ0gyXVtDSDJdW0NIMl1bQ0BIXTJbQ0gzXQ==

> <s_epik_cmdline>
J2VwaWtfcHl0aG9uJywgJy1waCcsICc3LjAnLCAnLXRuJywgJzgnLCAnLW1hJywgJzIwMCcsICctbWV0YWxfYmluZGluZycsICctaW1hZScsICc8aW5maWxlLm1hZT4nLCAnLW9tYWUnLCAnPG91dGZpbGUubWFlPic=

> <r_epik_Ionization_Penalty>
6.22371

> <r_epik_Ionization_Penalty_Charging>
6.22362

> <r_epik_Ionization_Penalty_Neutral>
9.40454e-05

> <r_epik_State_Penalty>
6.22363

> <r_epik_Charging_Adjusted_Penalty>
12.4472

> <i_epik_Tot_Q>
0

> <i_epik_Tot_abs_Q>
2

> <r_epik_Metal_State_Penalty>
2.16675

> <b_epik_Metal_Only>
1

> <s_lp_Force_Field>
OPLS_2005

> <r_lp_Energy>
8.88901

> <b_lp_Chiralities_Consistent>
1

> <s_lp_Variant>
AV-unprocessed.smi:2079-8

> <Gold.Version>
5.8.1

> <Gold.Id.Protein>
6NUR|6NUR_protein|mol2

> <Gold.PLP.Fitness>
48.1349

> <Gold.PLP.PLP>
-31.8361

> <Gold.PLP.part.hbond>
-5.3859

> <Gold.PLP.part.metal>
0.0000

> <Gold.PLP.part.buried>
-5.0373

> <Gold.PLP.part.nonpolar>
-22.2732

> <Gold.PLP.part.repulsive>
0.2446

> <Gold.PLP.ligand.clash>
0.0000

> <Gold.PLP.ligand.torsion>
0.8999

> <Gold.PLP.Chemscore.Hbond>
6.0000

> <Gold.PLP.Chemscore.CHOScore>
0.0000

> <Gold.PLP.Chemscore.Metal>
0.0000

> <Gold.Chemscore.Hbonds>
donor molecule, donor type, donor heavy atom, donor atom, acceptor molecule, acceptor atom, score
      L1  H     8    24       P1  7948  0.50
      L1  H    11    41       P1  7948  2.00
      P1  H  7997  8009       L1    19  1.00
      P1  H 10752 10764       L1     5  0.51

> <Gold.PLP.Chemscore.Internal.Correction>
0.0984

> <Gold.Rescore>
     Score         DG    S(hbond)    S(metal)    S(lipo)     H(rot)  DE(clash)    DE(int)     intcor
     17.82     -18.80       3.32        0.00      52.77       1.54       0.05       0.93       ----

> <Gold.Chemscore.Fitness>
17.8165

> <Gold.Chemscore.DG>
-18.7971

> <Gold.Chemscore.ZeroCoef>
-5.4800

> <Gold.Chemscore.Hbond>
3.3196

> <Gold.Chemscore.Metal>
0.0000

> <Gold.Chemscore.Lipo>
52.7720

> <Gold.Chemscore.Internal_Hbond>
0.0000

> <Gold.Chemscore.DEClash>
0.0480

> <Gold.Chemscore.DEInternal>
0.9326

> <Gold.Chemscore.Rot>
1.5409

> <Gold.Chemscore.Internal.Correction>
   9.000000E+99

> <Gold.Chemscore.Hbonds>
donor molecule, donor type, donor heavy atom, donor atom, acceptor molecule, acceptor atom, score
      L1  H     8    24       P1  7948  0.02
      L1  H    11    41       P1  7948  0.95
      P1  H  7997  8009       L1    19  0.81
      P1  H 10752 10764       L1     5  0.01

> <Gold.Chemscore.Hbond.Weighted>
-11.0874

> <Gold.Chemscore.Metal.Weighted>
-0.0000

> <Gold.Chemscore.Lipo.Weighted>
-6.1743

> <Gold.Chemscore.Internal_Hbond.Weighted>
0.0000

> <Gold.Chemscore.DEClash.Weighted>
0.0480

> <Gold.Chemscore.DEInternal.Weighted>
0.9326

> <Gold.Chemscore.Rot.Weighted>
3.9446

> <Gold.Chemscore.Internal.Correction.Weighted>
   9.000000E+99

> <Gold.Protein.RotatedTorsions>
[ 6907 6896 6895 6894 ] final   23.10 input  -60.11 | X-H torsion
[ 7974 7965 7964 7962 ] final  132.81 input  175.53 | X-H torsion
[ 8008 7997 7996 7995 ] final -143.58 input   59.86 | X-H torsion
[ 10167 10162 10161 10158 ] final  105.58 input  -65.29 | X-H torsion
[ 10718 10713 10712 10709 ] final -133.44 input   66.30 | X-H torsion
[ 10763 10752 10751 10750 ] final  -56.57 input  -60.55 | X-H torsion
[ 11005 11000 10999 10996 ] final   73.05 input  -57.11 | X-H torsion

> <Gold.Protein.ActiveResidues>
 VAL166  LYS551  ARG553  GLY616  TRP617  ASP618  TYR619  PRO620  LYS621  CYS622 
 ASP623  PHE694  ASN695  SER759  ASP760  ASP761  ALA762  ILE779  LEU786  VAL792 
 PHE793  MET794  SER795  GLU796  ALA797  LYS798  CYS799  TRP800  GLU811  SER814 

> <Gold.Protein.RotatedAtoms>
  151.9372  135.0230  160.0533 H   0  0  0  0  0  0  0  0  0  0  0  0  # atno 6907 bound_to 6896
  152.2068  133.4876  159.5096 H   0  0  0  0  0  0  0  0  0  0  0  0  # atno 6908 bound_to 6896
  150.6967  134.1436  159.4157 H   0  0  0  0  0  0  0  0  0  0  0  0  # atno 6909 bound_to 6896
  144.9930  139.4387  143.5330 H   0  0  0  0  0  0  0  0  0  0  0  0  # atno 7974 bound_to 7965
  155.5130  140.0585  157.2920 H   0  0  0  0  0  0  0  0  0  0  0  0  # atno 8008 bound_to 7997
  154.4545  140.1966  156.0368 H   0  0  0  0  0  0  0  0  0  0  0  0  # atno 8009 bound_to 7997
  156.0771  140.3252  155.7652 H   0  0  0  0  0  0  0  0  0  0  0  0  # atno 8010 bound_to 7997
  139.7081  144.7083  151.1073 H   0  0  0  0  0  0  0  0  0  0  0  0  # atno 10167 bound_to 10162
  156.2450  130.7119  151.0995 H   0  0  0  0  0  0  0  0  0  0  0  0  # atno 10718 bound_to 10713
  154.2087  135.6398  153.5109 H   0  0  0  0  0  0  0  0  0  0  0  0  # atno 10763 bound_to 10752
  152.9995  135.5469  154.6238 H   0  0  0  0  0  0  0  0  0  0  0  0  # atno 10764 bound_to 10752
  154.5669  135.2913  155.0838 H   0  0  0  0  0  0  0  0  0  0  0  0  # atno 10765 bound_to 10752
  139.9460  134.7313  156.0979 H   0  0  0  0  0  0  0  0  0  0  0  0  # atno 11005 bound_to 11000
  146.3435  139.9273  142.8758 LP  0  0  0  0  0  0  0  0  0  0  0  0  # atno 17320 bound_to 7965
  145.2259  140.9954  143.4018 LP  0  0  0  0  0  0  0  0  0  0  0  0  # atno 17321 bound_to 7965
  140.7726  143.5331  150.9400 LP  0  0  0  0  0  0  0  0  0  0  0  0  # atno 17342 bound_to 10162
  139.9015  143.6830  152.3130 LP  0  0  0  0  0  0  0  0  0  0  0  0  # atno 17343 bound_to 10162
  157.7191  131.0692  150.6208 LP  0  0  0  0  0  0  0  0  0  0  0  0  # atno 17370 bound_to 10713
  156.6284  130.4425  149.5796 LP  0  0  0  0  0  0  0  0  0  0  0  0  # atno 17371 bound_to 10713
  141.1110  133.6643  156.2978 LP  0  0  0  0  0  0  0  0  0  0  0  0  # atno 17394 bound_to 11000
  140.5835  134.5722  157.5484 LP  0  0  0  0  0  0  0  0  0  0  0  0  # atno 17395 bound_to 11000

$$$$
