AV-unprocessed.smi:1074|AV-procd|sdf|4691|dock1
  -GOLD-   22720 3213D 1   1.00000     0.00000
 Structure written by MMmdl.
 44 45  0  0  0  0  0  0  0  0  1 V2000
  151.5543  144.2337  157.4440 C   0  0  0  0  0  0  0  0  0  0  0  0
  150.6001  143.2968  156.8713 N   0  0  0  0  0  0  0  0  0  0  0  0
  150.6269  141.9717  157.0750 C   0  0  0  0  0  0  0  0  0  0  0  0
  151.4731  141.4161  157.7761 O   0  0  0  0  0  0  0  0  0  0  0  0
  149.5316  141.1495  156.3825 C   0  0  2  0  0  0  0  0  0  0  0  0
  149.5673  141.3529  154.8536 C   0  0  0  0  0  0  0  0  0  0  0  0
  148.4719  140.5309  154.1558 C   0  0  0  0  0  0  0  0  0  0  0  0
  147.0742  140.8681  154.7075 C   0  0  1  0  0  0  0  0  0  0  0  0
  146.0791  140.0147  154.0648 N   0  0  0  0  0  0  0  0  0  0  0  0
  146.2126  138.6999  153.8400 C   0  0  0  0  0  0  0  0  0  0  0  0
  147.2073  138.0527  154.1662 O   0  0  0  0  0  0  0  0  0  0  0  0
  145.1208  138.2006  153.2354 N   0  0  0  0  0  0  0  0  0  0  0  0
  144.8737  136.8721  152.7942 C   0  0  0  0  0  0  0  0  0  0  0  0
  143.6015  136.3723  152.4262 C   0  0  0  0  0  0  0  0  0  0  0  0
  143.4889  135.0273  152.0248 C   0  0  0  0  0  0  0  0  0  0  0  0
  144.6441  134.2209  152.0084 C   0  0  0  0  0  0  0  0  0  0  0  0
  144.5252  132.9043  151.6132 O   0  0  0  0  0  0  0  0  0  0  0  0
  143.5079  132.5696  150.6756 C   0  0  0  0  0  0  0  0  0  0  0  0
  145.8637  134.6897  152.3697 N   0  0  0  0  0  0  0  0  0  0  0  0
  145.9648  135.9792  152.7542 C   0  0  0  0  0  0  0  0  0  0  0  0
  147.0338  140.6921  156.2397 C   0  0  0  0  0  0  0  0  0  0  0  0
  148.1359  141.5113  156.9309 C   0  0  0  0  0  0  0  0  0  0  0  0
  151.3290  145.2459  157.1081 H   0  0  0  0  0  0  0  0  0  0  0  0
  152.5716  143.9905  157.1354 H   0  0  0  0  0  0  0  0  0  0  0  0
  151.5075  144.2178  158.5336 H   0  0  0  0  0  0  0  0  0  0  0  0
  149.8741  143.6776  156.2819 H   0  0  0  0  0  0  0  0  0  0  0  0
  149.7143  140.0931  156.5883 H   0  0  0  0  0  0  0  0  0  0  0  0
  149.4331  142.4081  154.6099 H   0  0  0  0  0  0  0  0  0  0  0  0
  150.5432  141.0671  154.4588 H   0  0  0  0  0  0  0  0  0  0  0  0
  148.5042  140.7158  153.0816 H   0  0  0  0  0  0  0  0  0  0  0  0
  148.6778  139.4683  154.2926 H   0  0  0  0  0  0  0  0  0  0  0  0
  146.8576  141.9107  154.4667 H   0  0  0  0  0  0  0  0  0  0  0  0
  145.2245  140.4619  153.7675 H   0  0  0  0  0  0  0  0  0  0  0  0
  144.3554  138.8457  153.1052 H   0  0  0  0  0  0  0  0  0  0  0  0
  142.7115  136.9809  152.4553 H   0  0  0  0  0  0  0  0  0  0  0  0
  142.5304  134.6203  151.7384 H   0  0  0  0  0  0  0  0  0  0  0  0
  143.5431  131.4996  150.4714 H   0  0  0  0  0  0  0  0  0  0  0  0
  143.6504  133.0917  149.7285 H   0  0  0  0  0  0  0  0  0  0  0  0
  142.5153  132.7987  151.0656 H   0  0  0  0  0  0  0  0  0  0  0  0
  146.9537  136.3096  153.0366 H   0  0  0  0  0  0  0  0  0  0  0  0
  146.0606  140.9935  156.6285 H   0  0  0  0  0  0  0  0  0  0  0  0
  147.1537  139.6381  156.4945 H   0  0  0  0  0  0  0  0  0  0  0  0
  148.0977  141.3366  158.0069 H   0  0  0  0  0  0  0  0  0  0  0  0
  147.9368  142.5742  156.7844 H   0  0  0  0  0  0  0  0  0  0  0  0
  1  2  1  0  0  0  0
  1 23  1  0  0  0  0
  1 24  1  0  0  0  0
  1 25  1  0  0  0  0
  2  3  1  0  0  0  0
  2 26  1  0  0  0  0
  3  4  2  0  0  0  0
  3  5  1  0  0  0  0
  5 22  1  0  0  0  0
  5  6  1  0  0  0  0
  5 27  1  0  0  0  0
  6  7  1  0  0  0  0
  6 28  1  0  0  0  0
  6 29  1  0  0  0  0
  7  8  1  0  0  0  0
  7 30  1  0  0  0  0
  7 31  1  0  0  0  0
  8  9  1  0  0  0  0
  8 21  1  0  0  0  0
  8 32  1  0  0  0  0
  9 10  1  0  0  0  0
  9 33  1  0  0  0  0
 10 11  2  0  0  0  0
 10 12  1  0  0  0  0
 12 13  1  0  0  0  0
 12 34  1  0  0  0  0
 13 20  1  0  0  0  0
 13 14  2  0  0  0  0
 14 15  1  0  0  0  0
 14 35  1  0  0  0  0
 15 16  2  0  0  0  0
 15 36  1  0  0  0  0
 16 17  1  0  0  0  0
 16 19  1  0  0  0  0
 17 18  1  0  0  0  0
 18 37  1  0  0  0  0
 18 38  1  0  0  0  0
 18 39  1  0  0  0  0
 19 20  2  0  0  0  0
 20 40  1  0  0  0  0
 21 22  1  0  0  0  0
 21 41  1  0  0  0  0
 21 42  1  0  0  0  0
 22 43  1  0  0  0  0
 22 44  1  0  0  0  0
M  END
> <s_m_source_file>
AV-unprocessed.smi

> <i_m_source_file_index>
1074

> <i_lp_mmshare_version>
43012

> <i_f3d_flags>
0

> <s_epik_input>
W0NIM11bTkhdQyg9TylbQ0BASF0xW0NIMl1bQ0gyXVtDQEhdKFtDSDJdW0NIMl0xKVtOSF1DKD1PKVtOSF1jMltjSF1bY0hdYyhPW0NIM10pbltjSF0y

> <s_epik_cmdline>
J2VwaWtfcHl0aG9uJywgJy1waCcsICc3LjAnLCAnLXRuJywgJzgnLCAnLW1hJywgJzIwMCcsICctbWV0YWxfYmluZGluZycsICctaW1hZScsICc8aW5maWxlLm1hZT4nLCAnLW9tYWUnLCAnPG91dGZpbGUubWFlPic=

> <r_lp_tautomer_probability>
1

> <r_epik_Ionization_Penalty>
9.85099e-05

> <r_epik_Ionization_Penalty_Charging>
0

> <r_epik_Ionization_Penalty_Neutral>
9.85099e-05

> <r_epik_State_Penalty>
-0

> <r_epik_Charging_Adjusted_Penalty>
0

> <i_epik_Tot_Q>
0

> <i_epik_Tot_abs_Q>
0

> <r_epik_Metal_State_Penalty>
-0

> <b_epik_Metal_Only>
0

> <s_lp_Force_Field>
OPLS_2005

> <r_lp_Energy>
13.3284

> <b_lp_Chiralities_Consistent>
1

> <s_lp_Variant>
AV-unprocessed.smi:1074-1

> <Gold.Version>
5.8.1

> <Gold.Id.Protein>
6NUR|6NUR_protein|mol2

> <Gold.PLP.Fitness>
42.2947

> <Gold.PLP.PLP>
-31.7241

> <Gold.PLP.part.hbond>
-3.0000

> <Gold.PLP.part.metal>
0.0000

> <Gold.PLP.part.buried>
-4.3059

> <Gold.PLP.part.nonpolar>
-25.0477

> <Gold.PLP.part.repulsive>
0.3926

> <Gold.PLP.ligand.clash>
0.0000

> <Gold.PLP.ligand.torsion>
0.6800

> <Gold.PLP.Chemscore.Hbond>
3.0000

> <Gold.PLP.Chemscore.CHOScore>
0.9584

> <Gold.PLP.Chemscore.Metal>
0.0000

> <Gold.Chemscore.Hbonds>
donor molecule, donor type, donor heavy atom, donor atom, acceptor molecule, acceptor atom, score
      L1  H     2    26       P1  8028  1.00
      L1  H     9    33       P1 10175  0.96
      L1  H    12    34       P1 10175  1.00
      L1  C    20    40       P1  7948  0.99

> <Gold.PLP.Chemscore.Internal.Correction>
0.0555

> <Gold.Rescore>
     Score         DG    S(hbond)    S(metal)    S(lipo)     H(rot)  DE(clash)    DE(int)     intcor
     15.49     -18.90       2.94        0.00      66.27       1.62       0.07       3.33       ----

> <Gold.Chemscore.Fitness>
15.4925

> <Gold.Chemscore.DG>
-18.8957

> <Gold.Chemscore.ZeroCoef>
-5.4800

> <Gold.Chemscore.Hbond>
2.9405

> <Gold.Chemscore.Metal>
0.0000

> <Gold.Chemscore.Lipo>
66.2717

> <Gold.Chemscore.Internal_Hbond>
0.0000

> <Gold.Chemscore.DEClash>
0.0736

> <Gold.Chemscore.DEInternal>
3.3296

> <Gold.Chemscore.Rot>
1.6248

> <Gold.Chemscore.Internal.Correction>
   9.000000E+99

> <Gold.Chemscore.Hbonds>
donor molecule, donor type, donor heavy atom, donor atom, acceptor molecule, acceptor atom, score
      L1  H     2    26       P1  8028  0.95
      L1  H     9    33       P1 10175  0.88
      L1  H    12    34       P1 10175  0.96

> <Gold.Chemscore.Hbond.Weighted>
-9.8214

> <Gold.Chemscore.Metal.Weighted>
-0.0000

> <Gold.Chemscore.Lipo.Weighted>
-7.7538

> <Gold.Chemscore.Internal_Hbond.Weighted>
0.0000

> <Gold.Chemscore.DEClash.Weighted>
0.0736

> <Gold.Chemscore.DEInternal.Weighted>
3.3296

> <Gold.Chemscore.Rot.Weighted>
4.1595

> <Gold.Chemscore.Internal.Correction.Weighted>
   9.000000E+99

> <Gold.Protein.RotatedTorsions>
[ 6907 6896 6895 6894 ] final    4.12 input  -60.11 | X-H torsion
[ 7974 7965 7964 7962 ] final  121.21 input  175.53 | X-H torsion
[ 8008 7997 7996 7995 ] final   33.10 input   59.86 | X-H torsion
[ 10167 10162 10161 10158 ] final  -39.60 input  -65.29 | X-H torsion
[ 10718 10713 10712 10709 ] final  -33.17 input   66.30 | X-H torsion
[ 10763 10752 10751 10750 ] final  -89.28 input  -60.55 | X-H torsion
[ 11005 11000 10999 10996 ] final -116.90 input  -57.11 | X-H torsion

> <Gold.Protein.ActiveResidues>
 VAL166  LYS551  ARG553  GLY616  TRP617  ASP618  TYR619  PRO620  LYS621  CYS622 
 ASP623  PHE694  ASN695  SER759  ASP760  ASP761  ALA762  ILE779  LEU786  VAL792 
 PHE793  MET794  SER795  GLU796  ALA797  LYS798  CYS799  TRP800  GLU811  SER814 

> <Gold.Protein.RotatedAtoms>
  151.6362  135.1018  160.0131 H   0  0  0  0  0  0  0  0  0  0  0  0  # atno 6907 bound_to 6896
  152.4079  133.6913  159.6381 H   0  0  0  0  0  0  0  0  0  0  0  0  # atno 6908 bound_to 6896
  150.7972  133.8593  159.3268 H   0  0  0  0  0  0  0  0  0  0  0  0  # atno 6909 bound_to 6896
  145.1220  139.3383  143.4709 H   0  0  0  0  0  0  0  0  0  0  0  0  # atno 7974 bound_to 7965
  155.1331  140.3259  155.4469 H   0  0  0  0  0  0  0  0  0  0  0  0  # atno 8008 bound_to 7997
  156.2628  140.2007  156.6399 H   0  0  0  0  0  0  0  0  0  0  0  0  # atno 8009 bound_to 7997
  154.6597  140.0548  157.0035 H   0  0  0  0  0  0  0  0  0  0  0  0  # atno 8010 bound_to 7997
  140.7059  143.3204  151.2806 H   0  0  0  0  0  0  0  0  0  0  0  0  # atno 10167 bound_to 10162
  156.3659  130.4331  149.7585 H   0  0  0  0  0  0  0  0  0  0  0  0  # atno 10718 bound_to 10713
  154.6536  135.5346  153.7932 H   0  0  0  0  0  0  0  0  0  0  0  0  # atno 10763 bound_to 10752
  153.0400  135.6488  154.0979 H   0  0  0  0  0  0  0  0  0  0  0  0  # atno 10764 bound_to 10752
  154.0894  135.2941  155.3254 H   0  0  0  0  0  0  0  0  0  0  0  0  # atno 10765 bound_to 10752
  141.0391  133.9864  157.3024 H   0  0  0  0  0  0  0  0  0  0  0  0  # atno 11005 bound_to 11000
  146.3520  140.1183  142.8601 LP  0  0  0  0  0  0  0  0  0  0  0  0  # atno 17320 bound_to 7965
  145.0730  140.9168  143.4871 LP  0  0  0  0  0  0  0  0  0  0  0  0  # atno 17321 bound_to 7965
  139.6656  144.0111  152.2721 LP  0  0  0  0  0  0  0  0  0  0  0  0  # atno 17342 bound_to 10162
  139.9693  144.6505  150.8005 LP  0  0  0  0  0  0  0  0  0  0  0  0  # atno 17343 bound_to 10162
  156.4731  130.8006  151.3023 LP  0  0  0  0  0  0  0  0  0  0  0  0  # atno 17370 bound_to 10713
  157.7479  131.0029  150.3020 LP  0  0  0  0  0  0  0  0  0  0  0  0  # atno 17371 bound_to 10713
  139.9262  135.0201  156.8243 LP  0  0  0  0  0  0  0  0  0  0  0  0  # atno 17394 bound_to 11000
  140.6268  133.9943  155.7643 LP  0  0  0  0  0  0  0  0  0  0  0  0  # atno 17395 bound_to 11000

$$$$
