#       Name:                AV-unprocessed.smi:286
#       Creating user name   scv26
#       Creation time:       Thu Mar 26 21:53:57 2020


#       File generated by GOLD software.
#

@<TRIPOS>MOLECULE
AV-unprocessed.smi:286
    54    56     1
SMALL
NO_CHARGES


@<TRIPOS>ATOM
      1 ****        -0.1742   1.4329   3.1960 O.2            1 S1                 0.0000
      2 ****        -0.6185   1.7186   2.0829 C.2            1 S1                 0.0000
      3 ****        -1.1803   3.0254   1.7575 C.2            1 S1                 0.0000
      4 ****        -1.2530   3.9727   2.7079 F              1 S1                 0.0000
      5 ****        -1.6346   3.3005   0.5158 C.2            1 S1                 0.0000
      6 ****        -1.5955   2.3855  -0.5228 N.am           1 S1                 0.0000
      7 ****        -2.1149   2.7393  -1.8979 C.3            1 S1                 0.0000
      8 ****        -3.5991   2.3724  -2.0148 C.3            1 S1                 0.0000
      9 ****        -4.2746   3.6937  -1.7168 C.3            1 S1                 0.0000
     10 ****        -3.2890   4.6845  -2.3243 C.3            1 S1                 0.0000
     11 ****        -2.0025   4.1212  -2.0856 O.3            1 S1                 0.0000
     12 ****        -1.0865   1.0885  -0.2947 C.2            1 S1                 0.0000
     13 ****        -1.0519   0.2527  -1.2013 O.2            1 S1                 0.0000
     14 ****        -0.6194   0.7948   1.0086 N.am           1 S1                 0.0000
     15 ****        -0.0685  -0.5296   1.2455 C.3            1 S1                 0.0000
     16 ****         1.4069  -0.6682   0.8028 C.3            1 S1                 0.0000
     17 ****         2.2459  -0.2438   1.8600 O.3            1 S1                 0.0000
     18 ****         1.7761  -2.1190   0.4068 C.3            1 S1                 0.0000
     19 ****         1.6356  -3.1376   1.5629 C.3            1 S1                 0.0000
     20 ****         1.9622  -4.5667   1.0993 C.3            1 S1                 0.0000
     21 ****         3.3613  -4.6448   0.4694 C.3            1 S1                 0.0000
     22 ****         3.5061  -3.6408  -0.6845 C.3            1 S1                 0.0000
     23 ****         3.1838  -2.2101  -0.2225 C.3            1 S1                 0.0000
     24 ****        -2.0460   4.2831   0.3389 H              1 S1                 0.0000
     25 ****        -1.4742   2.2223  -2.6138 H              1 S1                 0.0000
     26 ****        -3.8008   2.0633  -3.0411 H              1 S1                 0.0000
     27 ****        -3.8839   1.5643  -1.3397 H              1 S1                 0.0000
     28 ****        -5.2747   3.7697  -2.1442 H              1 S1                 0.0000
     29 ****        -4.3502   3.8462  -0.6394 H              1 S1                 0.0000
     30 ****        -3.4436   4.7618  -3.4014 H              1 S1                 0.0000
     31 ****        -3.3756   5.6828  -1.8947 H              1 S1                 0.0000
     32 ****        -0.2191  -0.7952   2.2932 H              1 S1                 0.0000
     33 ****        -0.7104  -1.2250   0.7017 H              1 S1                 0.0000
     34 ****         1.5938  -0.0231  -0.0568 H              1 S1                 0.0000
     35 ****         3.1442  -0.3052   1.5733 H              1 S1                 0.0000
     36 ****         1.0706  -2.4167  -0.3709 H              1 S1                 0.0000
     37 ****         2.3006  -2.8677   2.3842 H              1 S1                 0.0000
     38 ****         0.6237  -3.1179   1.9678 H              1 S1                 0.0000
     39 ****         1.8960  -5.2541   1.9430 H              1 S1                 0.0000
     40 ****         1.2161  -4.8949   0.3745 H              1 S1                 0.0000
     41 ****         4.1166  -4.4400   1.2293 H              1 S1                 0.0000
     42 ****         3.5508  -5.6564   0.1088 H              1 S1                 0.0000
     43 ****         4.5184  -3.6818  -1.0875 H              1 S1                 0.0000
     44 ****         2.8376  -3.9214  -1.4997 H              1 S1                 0.0000
     45 ****         3.2587  -1.5301  -1.0718 H              1 S1                 0.0000
     46 ****         3.9373  -1.8879   0.4971 H              1 S1                 0.0000
     47 ****         0.2027   0.5223   3.3652 LP             1 S1                 0.0000
     48 ****        -0.1905   2.1117   3.9302 LP             1 S1                 0.0000
     49 ****        -1.4105   4.3021  -2.8710 LP             1 S1                 0.0000
     50 ****        -1.6058   4.5359  -1.2667 LP             1 S1                 0.0000
     51 ****        -1.3873   0.4899  -2.1131 LP             1 S1                 0.0000
     52 ****        -0.6885  -0.6620  -1.0245 LP             1 S1                 0.0000
     53 ****         2.1057  -0.8300   2.6579 LP             1 S1                 0.0000
     54 ****         2.0326   0.7032   2.1005 LP             1 S1                 0.0000
@<TRIPOS>BOND
    1    1    2 2     
    2    2   14 am    
    3    2    3 1     
    4    3    4 1     
    5    3    5 2     
    6    5    6 1     
    7    5   24 1     
    8    6    7 1     
    9    6   12 am    
   10    7   11 1     
   11    7    8 1     
   12    7   25 1     
   13    8    9 1     
   14    8   26 1     
   15    8   27 1     
   16    9   10 1     
   17    9   28 1     
   18    9   29 1     
   19   10   11 1     
   20   10   30 1     
   21   10   31 1     
   22   12   13 2     
   23   12   14 am    
   24   14   15 1     
   25   15   16 1     
   26   15   32 1     
   27   15   33 1     
   28   16   17 1     
   29   16   18 1     
   30   16   34 1     
   31   17   35 1     
   32   18   23 1     
   33   18   19 1     
   34   18   36 1     
   35   19   20 1     
   36   19   37 1     
   37   19   38 1     
   38   20   21 1     
   39   20   39 1     
   40   20   40 1     
   41   21   22 1     
   42   21   41 1     
   43   21   42 1     
   44   22   23 1     
   45   22   43 1     
   46   22   44 1     
   47   23   45 1     
   48   23   46 1     
   49    1   47 1     
   50    1   48 1     
   51   11   49 1     
   52   11   50 1     
   53   13   51 1     
   54   13   52 1     
   55   17   53 1     
   56   17   54 1     
@<TRIPOS>SUBSTRUCTURE
      1 S1             1
@<TRIPOS>SET
LONE_PAIRS      STATIC     ATOMS    <user>   **** ""
8 47 48 49 50 51 52 53 54
DONOR_HYDROGENS      STATIC     ATOMS    <user>   **** ""
1 35
ATOM$BLUE        STATIC     ATOMS    COLORGROUP SYSTEM
8 47 48 49 50 51 52 53 54
ATOM$RED        STATIC     ATOMS    COLORGROUP SYSTEM
1 35
