#       Name:                AV-unprocessed.smi:2351
#       Creating user name   scv26
#       Creation time:       Fri Mar 27 13:00:26 2020


#       File generated by GOLD software.
#

@<TRIPOS>MOLECULE
AV-unprocessed.smi:2351
    52    54     1
SMALL
NO_CHARGES


@<TRIPOS>ATOM
      1 ****        -0.7348   3.7308   0.9248 O.2            1 S1                 0.0000
      2 ****        -1.2659   2.6398   1.1284 C.2            1 S1                 0.0000
      3 ****        -2.5840   2.4286   1.2862 N.am           1 S1                 0.0000
      4 ****        -3.6571   3.3587   1.2060 C.ar           1 S1                 0.0000
      5 ****        -3.5662   4.6341   0.5969 C.ar           1 S1                 0.0000
      6 ****        -4.7138   5.4523   0.5691 C.ar           1 S1                 0.0000
      7 ****        -5.9042   5.0830   1.0869 N.ar           1 S1                 0.0000
      8 ****        -5.9905   3.8622   1.6560 C.ar           1 S1                 0.0000
      9 ****        -4.9046   2.9674   1.7366 C.ar           1 S1                 0.0000
     10 ****        -5.0613   1.7530   2.3174 F              1 S1                 0.0000
     11 ****        -0.5770   1.4941   1.2345 N.am           1 S1                 0.0000
     12 ****         0.8760   1.3665   1.1223 C.3            1 S1                 0.0000
     13 ****         1.3518   1.4622  -0.3411 C.3            1 S1                 0.0000
     14 ****         0.9448   0.2253  -1.1605 C.3            1 S1                 0.0000
     15 ****         1.4486  -1.0236  -0.5333 N.4            1 S1                 1.0000
     16 ****         1.1951  -2.2176  -1.3800 C.3            1 S1                 0.0000
     17 ****         2.1645  -3.3775  -1.0784 C.3            1 S1                 0.0000
     18 ****         1.9185  -4.6105  -1.9242 C.3            1 S1                 0.0000
     19 ****         3.2417  -5.3586  -1.7892 C.3            1 S1                 0.0000
     20 ****         4.2389  -4.3567  -1.6099 O.3            1 S1                 0.0000
     21 ****         3.6263  -3.0856  -1.4209 C.3            1 S1                 0.0000
     22 ****         0.9493  -1.1730   0.8600 C.3            1 S1                 0.0000
     23 ****         1.3473   0.0341   1.7298 C.3            1 S1                 0.0000
     24 ****        -2.8560   1.4874   1.5299 H              1 S1                 0.0000
     25 ****        -2.6567   4.9968   0.1445 H              1 S1                 0.0000
     26 ****        -4.6751   6.4298   0.1119 H              1 S1                 0.0000
     27 ****        -6.9552   3.5890   2.0573 H              1 S1                 0.0000
     28 ****        -1.0957   0.6476   1.4175 H              1 S1                 0.0000
     29 ****         1.3279   2.1788   1.6945 H              1 S1                 0.0000
     30 ****         0.9687   2.3666  -0.8146 H              1 S1                 0.0000
     31 ****         2.4386   1.5553  -0.3565 H              1 S1                 0.0000
     32 ****        -0.1406   0.1741  -1.2601 H              1 S1                 0.0000
     33 ****         1.3498   0.3209  -2.1687 H              1 S1                 0.0000
     34 ****         0.1607  -2.5409  -1.2534 H              1 S1                 0.0000
     35 ****         1.3011  -1.9478  -2.4319 H              1 S1                 0.0000
     36 ****         2.0981  -3.6750  -0.0318 H              1 S1                 0.0000
     37 ****         1.0640  -5.1985  -1.5881 H              1 S1                 0.0000
     38 ****         1.7532  -4.3336  -2.9667 H              1 S1                 0.0000
     39 ****         3.2302  -5.9970  -0.9050 H              1 S1                 0.0000
     40 ****         3.4554  -5.9844  -2.6560 H              1 S1                 0.0000
     41 ****         3.7026  -2.5262  -2.3544 H              1 S1                 0.0000
     42 ****         4.1315  -2.5131  -0.6425 H              1 S1                 0.0000
     43 ****        -0.1356  -1.2884   0.8483 H              1 S1                 0.0000
     44 ****         1.3534  -2.0768   1.3138 H              1 S1                 0.0000
     45 ****         2.4331   0.0534   1.8336 H              1 S1                 0.0000
     46 ****         0.9507  -0.0833   2.7392 H              1 S1                 0.0000
     47 ****         2.4521  -0.9218  -0.4781 H              1 S1                 0.0000
     48 ****        -1.2957   4.5564   0.8645 LP             1 S1                 0.0000
     49 ****         0.2578   3.7918   0.8196 LP             1 S1                 0.0000
     50 ****        -6.6955   5.6932   1.0501 LP             1 S1                 0.0000
     51 ****         4.8248  -4.3245  -2.4196 LP             1 S1                 0.0000
     52 ****         4.7918  -4.5802  -0.8071 LP             1 S1                 0.0000
@<TRIPOS>BOND
    1    1    2 2     
    2    2    3 am    
    3    2   11 am    
    4    3    4 1     
    5    3   24 1     
    6    4    9 ar    
    7    4    5 ar    
    8    5    6 ar    
    9    5   25 1     
   10    6    7 ar    
   11    6   26 1     
   12    7    8 ar    
   13    8    9 ar    
   14    8   27 1     
   15    9   10 1     
   16   11   12 1     
   17   11   28 1     
   18   12   23 1     
   19   12   13 1     
   20   12   29 1     
   21   13   14 1     
   22   13   30 1     
   23   13   31 1     
   24   14   15 1     
   25   14   32 1     
   26   14   33 1     
   27   15   16 1     
   28   15   22 1     
   29   15   47 1     
   30   16   17 1     
   31   16   34 1     
   32   16   35 1     
   33   17   21 1     
   34   17   18 1     
   35   17   36 1     
   36   18   19 1     
   37   18   37 1     
   38   18   38 1     
   39   19   20 1     
   40   19   39 1     
   41   19   40 1     
   42   20   21 1     
   43   21   41 1     
   44   21   42 1     
   45   22   23 1     
   46   22   43 1     
   47   22   44 1     
   48   23   45 1     
   49   23   46 1     
   50    1   48 1     
   51    1   49 1     
   52    7   50 1     
   53   20   51 1     
   54   20   52 1     
@<TRIPOS>SUBSTRUCTURE
      1 S1             1
@<TRIPOS>SET
LONE_PAIRS      STATIC     ATOMS    <user>   **** ""
5 48 49 50 51 52
DONOR_HYDROGENS      STATIC     ATOMS    <user>   **** ""
3 24 28 47
ATOM$BLUE        STATIC     ATOMS    COLORGROUP SYSTEM
5 48 49 50 51 52
ATOM$RED        STATIC     ATOMS    COLORGROUP SYSTEM
3 24 28 47
