AV-unprocessed.smi:1605|AV-procd|sdf|6452|dock7
  -GOLD-   22720 7103D 1   1.00000     0.00000
 Structure written by MMmdl.
 51 53  0  0  0  0  0  0  0  0  2 V2000
  142.9605  144.4078  156.6600 C   0  0  0  0  0  0  0  0  0  0  0  0
  144.3284  144.1572  156.9428 O   0  0  0  0  0  0  0  0  0  0  0  0
  144.9096  143.1214  156.1621 C   0  0  2  0  0  0  0  0  0  0  0  0
  146.1671  142.6377  156.8990 C   0  0  0  0  0  0  0  0  0  0  0  0
  146.9283  141.5864  156.0750 C   0  0  0  0  0  0  0  0  0  0  0  0
  147.2907  142.1174  154.7354 N   0  3  1  0  0  0  0  0  0  0  0  0
  148.1545  141.1778  153.9745 C   0  0  0  0  0  0  0  0  0  0  0  0
  149.3302  140.6229  154.8105 C   0  0  1  0  0  0  0  0  0  0  0  0
  150.1927  139.8919  153.9601 O   0  0  0  0  0  0  0  0  0  0  0  0
  150.1439  141.7248  155.5260 C   0  0  0  0  0  0  0  0  0  0  0  0
  151.0426  141.2202  156.5523 N   0  0  0  0  0  0  0  0  0  0  0  0
  151.7356  140.0650  156.5282 C   0  0  0  0  0  0  0  0  0  0  0  0
  152.4969  139.7881  157.5821 N   0  0  0  0  0  0  0  0  0  0  0  0
  152.2862  140.9008  158.3785 C   0  0  0  0  0  0  0  0  0  0  0  0
  152.8093  141.2325  159.6475 C   0  0  0  0  0  0  0  0  0  0  0  0
  152.4532  142.4424  160.2848 C   0  0  0  0  0  0  0  0  0  0  0  0
  153.0389  142.7588  161.6500 C   0  0  0  0  0  0  0  0  0  0  0  0
  151.5620  143.3441  159.6497 C   0  0  0  0  0  0  0  0  0  0  0  0
  151.1671  144.6519  160.3127 C   0  0  0  0  0  0  0  0  0  0  0  0
  151.0283  143.0271  158.3833 C   0  0  0  0  0  0  0  0  0  0  0  0
  151.3868  141.8184  157.7605 C   0  0  0  0  0  0  0  0  0  0  0  0
  146.0847  142.5557  153.9829 C   0  0  0  0  0  0  0  0  0  0  0  0
  145.3040  143.6277  154.7619 C   0  0  0  0  0  0  0  0  0  0  0  0
  142.5889  145.1815  157.3319 H   0  0  0  0  0  0  0  0  0  0  0  0
  142.3546  143.5143  156.8143 H   0  0  0  0  0  0  0  0  0  0  0  0
  142.8142  144.7598  155.6391 H   0  0  0  0  0  0  0  0  0  0  0  0
  144.2143  142.2842  156.0750 H   0  0  0  0  0  0  0  0  0  0  0  0
  146.8243  143.4845  157.1022 H   0  0  0  0  0  0  0  0  0  0  0  0
  145.8926  142.2207  157.8686 H   0  0  0  0  0  0  0  0  0  0  0  0
  147.8305  141.2982  156.6158 H   0  0  0  0  0  0  0  0  0  0  0  0
  146.3245  140.6845  155.9608 H   0  0  0  0  0  0  0  0  0  0  0  0
  147.5513  140.3395  153.6229 H   0  0  0  0  0  0  0  0  0  0  0  0
  148.5257  141.6798  153.0795 H   0  0  0  0  0  0  0  0  0  0  0  0
  148.9676  139.9389  155.5766 H   0  0  0  0  0  0  0  0  0  0  0  0
  149.7385  139.6930  153.1560 H   0  0  0  0  0  0  0  0  0  0  0  0
  150.7384  142.2747  154.7952 H   0  0  0  0  0  0  0  0  0  0  0  0
  149.4736  142.4547  155.9822 H   0  0  0  0  0  0  0  0  0  0  0  0
  151.6694  139.3836  155.6925 H   0  0  0  0  0  0  0  0  0  0  0  0
  153.4907  140.5471  160.1295 H   0  0  0  0  0  0  0  0  0  0  0  0
  153.6646  143.6500  161.5984 H   0  0  0  0  0  0  0  0  0  0  0  0
  153.6539  141.9379  162.0197 H   0  0  0  0  0  0  0  0  0  0  0  0
  152.2456  142.9331  162.3772 H   0  0  0  0  0  0  0  0  0  0  0  0
  150.5213  145.2466  159.6662 H   0  0  0  0  0  0  0  0  0  0  0  0
  152.0506  145.2486  160.5415 H   0  0  0  0  0  0  0  0  0  0  0  0
  150.6275  144.4607  161.2405 H   0  0  0  0  0  0  0  0  0  0  0  0
  150.3460  143.7036  157.8902 H   0  0  0  0  0  0  0  0  0  0  0  0
  146.3651  142.9635  153.0127 H   0  0  0  0  0  0  0  0  0  0  0  0
  145.4435  141.6948  153.7872 H   0  0  0  0  0  0  0  0  0  0  0  0
  144.4196  143.9109  154.1915 H   0  0  0  0  0  0  0  0  0  0  0  0
  145.9139  144.5276  154.8546 H   0  0  0  0  0  0  0  0  0  0  0  0
  147.8504  142.9407  154.9061 H   0  0  0  0  0  0  0  0  0  0  0  0
  1  2  1  0  0  0  0
  1 24  1  0  0  0  0
  1 25  1  0  0  0  0
  1 26  1  0  0  0  0
  2  3  1  0  0  0  0
  3 23  1  0  0  0  0
  3  4  1  0  0  0  0
  3 27  1  0  0  0  0
  4  5  1  0  0  0  0
  4 28  1  0  0  0  0
  4 29  1  0  0  0  0
  5  6  1  0  0  0  0
  5 30  1  0  0  0  0
  5 31  1  0  0  0  0
  6  7  1  0  0  0  0
  6 22  1  0  0  0  0
  6 51  1  0  0  0  0
  7  8  1  0  0  0  0
  7 32  1  0  0  0  0
  7 33  1  0  0  0  0
  8  9  1  0  0  0  0
  8 10  1  0  0  0  0
  8 34  1  0  0  0  0
  9 35  1  0  0  0  0
 10 11  1  0  0  0  0
 10 36  1  0  0  0  0
 10 37  1  0  0  0  0
 11 21  1  0  0  0  0
 11 12  1  0  0  0  0
 12 13  2  0  0  0  0
 12 38  1  0  0  0  0
 13 14  1  0  0  0  0
 14 21  2  0  0  0  0
 14 15  1  0  0  0  0
 15 16  2  0  0  0  0
 15 39  1  0  0  0  0
 16 17  1  0  0  0  0
 16 18  1  0  0  0  0
 17 40  1  0  0  0  0
 17 41  1  0  0  0  0
 17 42  1  0  0  0  0
 18 19  1  0  0  0  0
 18 20  2  0  0  0  0
 19 43  1  0  0  0  0
 19 44  1  0  0  0  0
 19 45  1  0  0  0  0
 20 21  1  0  0  0  0
 20 46  1  0  0  0  0
 22 23  1  0  0  0  0
 22 47  1  0  0  0  0
 22 48  1  0  0  0  0
 23 49  1  0  0  0  0
 23 50  1  0  0  0  0
M  CHG  1   6   1
M  END
> <s_m_source_file>
AV-unprocessed.smi

> <i_m_source_file_index>
1605

> <i_lp_mmshare_version>
43012

> <i_f3d_flags>
0

> <s_epik_input>
W0NIM11PW0NIXTFbQ0gyXVtDSDJdTihbQ0gyXVtDSDJdMSlbQ0gyXVtDQEhdKFtPSF0pW0NIMl1uKFtjSF1uMiljKGMyMylbY0hdYyhbQ0gzXSljKFtjSF0zKVtDSDNd

> <s_epik_cmdline>
J2VwaWtfcHl0aG9uJywgJy1waCcsICc3LjAnLCAnLXRuJywgJzgnLCAnLW1hJywgJzIwMCcsICctbWV0YWxfYmluZGluZycsICctaW1hZScsICc8aW5maWxlLm1hZT4nLCAnLW9tYWUnLCAnPG91dGZpbGUubWFlPic=

> <r_epik_Ionization_Penalty>
0.110943

> <r_epik_Ionization_Penalty_Charging>
0.0229283

> <r_epik_Ionization_Penalty_Neutral>
0.0880146

> <r_epik_State_Penalty>
0.0947554

> <r_epik_Charging_Adjusted_Penalty>
0.117684

> <i_epik_Tot_Q>
1

> <i_epik_Tot_abs_Q>
1

> <r_epik_Metal_State_Penalty>
0.0192456

> <b_epik_Metal_Only>
0

> <s_lp_Force_Field>
OPLS_2005

> <r_lp_Energy>
23.4204

> <b_lp_Chiralities_Consistent>
1

> <s_lp_Variant>
AV-unprocessed.smi:1605-2

> <Gold.Version>
5.8.1

> <Gold.Id.Protein>
6NUR|6NUR_protein|mol2

> <Gold.PLP.Fitness>
61.8767

> <Gold.PLP.PLP>
-48.5185

> <Gold.PLP.part.hbond>
-4.0000

> <Gold.PLP.part.metal>
0.0000

> <Gold.PLP.part.buried>
-5.7126

> <Gold.PLP.part.nonpolar>
-38.0849

> <Gold.PLP.part.repulsive>
0.2009

> <Gold.PLP.ligand.clash>
0.0000

> <Gold.PLP.ligand.torsion>
0.7078

> <Gold.PLP.Chemscore.Hbond>
4.9120

> <Gold.PLP.Chemscore.CHOScore>
0.0000

> <Gold.PLP.Chemscore.Metal>
0.0000

> <Gold.Chemscore.Hbonds>
donor molecule, donor type, donor heavy atom, donor atom, acceptor molecule, acceptor atom, score
      L1  H     6    51       P1  8028  1.37
      L1  H     9    35       P1  7957  0.93
      P1  H  7989  7998       L1     9  0.98
      P1  H  7997  8010       L1    13  0.80

> <Gold.PLP.Chemscore.Internal.Correction>
0.0379

> <Gold.Rescore>
     Score         DG    S(hbond)    S(metal)    S(lipo)     H(rot)  DE(clash)    DE(int)     intcor
     21.52     -24.19       2.99        0.00     123.05       2.22       0.95       1.73       ----

> <Gold.Chemscore.Fitness>
21.5161

> <Gold.Chemscore.DG>
-24.1936

> <Gold.Chemscore.ZeroCoef>
-5.4800

> <Gold.Chemscore.Hbond>
2.9916

> <Gold.Chemscore.Metal>
0.0000

> <Gold.Chemscore.Lipo>
123.0496

> <Gold.Chemscore.Internal_Hbond>
0.0000

> <Gold.Chemscore.DEClash>
0.9472

> <Gold.Chemscore.DEInternal>
1.7302

> <Gold.Chemscore.Rot>
2.2169

> <Gold.Chemscore.Internal.Correction>
   9.000000E+99

> <Gold.Chemscore.Hbonds>
donor molecule, donor type, donor heavy atom, donor atom, acceptor molecule, acceptor atom, score
      L1  H     6    51       P1  8028  0.57
      L1  H     9    35       P1  7957  0.84
      P1  H  7989  7998       L1     9  0.38
      P1  H  7997  8010       L1    13  0.14

> <Gold.Chemscore.Hbond.Weighted>
-9.9921

> <Gold.Chemscore.Metal.Weighted>
-0.0000

> <Gold.Chemscore.Lipo.Weighted>
-14.3968

> <Gold.Chemscore.Internal_Hbond.Weighted>
0.0000

> <Gold.Chemscore.DEClash.Weighted>
0.9472

> <Gold.Chemscore.DEInternal.Weighted>
1.7302

> <Gold.Chemscore.Rot.Weighted>
5.6753

> <Gold.Chemscore.Internal.Correction.Weighted>
   9.000000E+99

> <Gold.Protein.RotatedTorsions>
[ 6907 6896 6895 6894 ] final  -31.05 input  -60.11 | X-H torsion
[ 7974 7965 7964 7962 ] final   39.96 input  175.53 | X-H torsion
[ 8008 7997 7996 7995 ] final   48.03 input   59.86 | X-H torsion
[ 10167 10162 10161 10158 ] final  121.33 input  -65.29 | X-H torsion
[ 10718 10713 10712 10709 ] final  163.82 input   66.30 | X-H torsion
[ 10763 10752 10751 10750 ] final -175.33 input  -60.55 | X-H torsion
[ 11005 11000 10999 10996 ] final   68.58 input  -57.11 | X-H torsion

> <Gold.Protein.ActiveResidues>
 VAL166  LYS551  ARG553  GLY616  TRP617  ASP618  TYR619  PRO620  LYS621  CYS622 
 ASP623  PHE694  ASN695  SER759  ASP760  ASP761  ALA762  ILE779  LEU786  VAL792 
 PHE793  MET794  SER795  GLU796  ALA797  LYS798  CYS799  TRP800  GLU811  SER814 

> <Gold.Protein.RotatedAtoms>
  151.0973  134.9952  159.8431 H   0  0  0  0  0  0  0  0  0  0  0  0  # atno 6907 bound_to 6896
  152.5434  134.1992  159.8715 H   0  0  0  0  0  0  0  0  0  0  0  0  # atno 6908 bound_to 6896
  151.2033  133.4554  159.2630 H   0  0  0  0  0  0  0  0  0  0  0  0  # atno 6909 bound_to 6896
  146.0943  139.5590  142.9455 H   0  0  0  0  0  0  0  0  0  0  0  0  # atno 7974 bound_to 7965
  155.3788  140.3427  155.4246 H   0  0  0  0  0  0  0  0  0  0  0  0  # atno 8008 bound_to 7997
  156.1622  140.1604  156.8627 H   0  0  0  0  0  0  0  0  0  0  0  0  # atno 8009 bound_to 7997
  154.5150  140.0780  156.8046 H   0  0  0  0  0  0  0  0  0  0  0  0  # atno 8010 bound_to 7997
  139.5926  144.7031  151.3252 H   0  0  0  0  0  0  0  0  0  0  0  0  # atno 10167 bound_to 10162
  157.1031  131.0448  151.2489 H   0  0  0  0  0  0  0  0  0  0  0  0  # atno 10718 bound_to 10713
  154.5856  135.2840  155.0688 H   0  0  0  0  0  0  0  0  0  0  0  0  # atno 10763 bound_to 10752
  154.2008  135.6425  153.5090 H   0  0  0  0  0  0  0  0  0  0  0  0  # atno 10764 bound_to 10752
  153.0103  135.5468  154.6524 H   0  0  0  0  0  0  0  0  0  0  0  0  # atno 10765 bound_to 10752
  139.9703  134.6911  156.0460 H   0  0  0  0  0  0  0  0  0  0  0  0  # atno 11005 bound_to 11000
  145.5979  141.0360  143.2034 LP  0  0  0  0  0  0  0  0  0  0  0  0  # atno 17320 bound_to 7965
  144.7383  139.7520  143.7320 LP  0  0  0  0  0  0  0  0  0  0  0  0  # atno 17321 bound_to 7965
  140.7186  143.7198  150.7704 LP  0  0  0  0  0  0  0  0  0  0  0  0  # atno 17342 bound_to 10162
  140.0757  143.5017  152.2556 LP  0  0  0  0  0  0  0  0  0  0  0  0  # atno 17343 bound_to 10162
  157.4624  130.7661  149.7248 LP  0  0  0  0  0  0  0  0  0  0  0  0  # atno 17370 bound_to 10713
  155.9869  130.3971  150.3192 LP  0  0  0  0  0  0  0  0  0  0  0  0  # atno 17371 bound_to 10713
  141.1383  133.6570  156.3656 LP  0  0  0  0  0  0  0  0  0  0  0  0  # atno 17394 bound_to 11000
  140.5307  134.6215  157.5349 LP  0  0  0  0  0  0  0  0  0  0  0  0  # atno 17395 bound_to 11000

$$$$
