AV-unprocessed.smi:35|AV-procd|sdf|254|dock5
  -GOLD-   2262016 13D 1   1.00000     0.00000
 Structure written by MMmdl.
 29 30  0  0  0  0  0  0  0  0  1 V2000
  152.2140  137.0523  159.7755 O   0  0  0  0  0  0  0  0  0  0  0  0
  151.8064  137.5880  158.7471 C   0  0  0  0  0  0  0  0  0  0  0  0
  152.7103  138.0643  157.7935 N   0  0  0  0  0  0  0  0  0  0  0  0
  152.3672  138.6884  156.5926 C   0  0  0  0  0  0  0  0  0  0  0  0
  153.2477  139.0807  155.8280 O   0  0  0  0  0  0  0  0  0  0  0  0
  150.9912  138.8503  156.3159 N   0  0  0  0  0  0  0  0  0  0  0  0
  150.5941  139.5243  155.0149 C   0  0  1  0  0  0  0  0  0  0  0  0
  149.5315  138.8302  154.4283 O   0  0  0  0  0  0  0  0  0  0  0  0
  148.3297  139.5867  154.5391 C   0  0  2  0  0  0  0  0  0  0  0  0
  147.3021  139.1557  153.4790 C   0  0  0  0  0  0  0  0  0  0  0  0
  147.9665  138.7488  152.3023 O   0  0  0  0  0  0  0  0  0  0  0  0
  148.8256  141.0337  154.4334 C   0  0  2  0  0  0  0  0  0  0  0  0
  149.0514  141.4007  153.0841 O   0  0  0  0  0  0  0  0  0  0  0  0
  150.1404  140.9939  155.2010 C   0  0  1  0  0  0  0  0  0  0  0  0
  149.9112  141.3578  156.5520 O   0  0  0  0  0  0  0  0  0  0  0  0
  150.0552  138.3930  157.2362 C   0  0  0  0  0  0  0  0  0  0  0  0
  150.4048  137.7912  158.3975 C   0  0  0  0  0  0  0  0  0  0  0  0
  148.9214  137.2116  159.5757 Br  0  0  0  0  0  0  0  0  0  0  0  0
  153.6937  137.9493  157.9915 H   0  0  0  0  0  0  0  0  0  0  0  0
  151.4542  139.4192  154.3507 H   0  0  0  0  0  0  0  0  0  0  0  0
  147.9116  139.4508  155.5381 H   0  0  0  0  0  0  0  0  0  0  0  0
  146.7261  138.3029  153.8397 H   0  0  0  0  0  0  0  0  0  0  0  0
  146.5965  139.9567  153.2560 H   0  0  0  0  0  0  0  0  0  0  0  0
  148.3644  137.9060  152.4595 H   0  0  0  0  0  0  0  0  0  0  0  0
  148.1113  141.7406  154.8584 H   0  0  0  0  0  0  0  0  0  0  0  0
  149.1356  140.6136  152.5676 H   0  0  0  0  0  0  0  0  0  0  0  0
  150.8897  141.6687  154.7847 H   0  0  0  0  0  0  0  0  0  0  0  0
  149.9824  140.5803  157.0849 H   0  0  0  0  0  0  0  0  0  0  0  0
  149.0010  138.5107  157.0398 H   0  0  0  0  0  0  0  0  0  0  0  0
  1  2  2  0  0  0  0
  2 17  1  0  0  0  0
  2  3  1  0  0  0  0
  3 19  1  0  0  0  0
  3  4  1  0  0  0  0
  4  5  2  0  0  0  0
  4  6  1  0  0  0  0
  6  7  1  0  0  0  0
  6 16  1  0  0  0  0
  7 14  1  0  0  0  0
  7  8  1  0  0  0  0
  7 20  1  0  0  0  0
  8  9  1  0  0  0  0
  9 10  1  0  0  0  0
  9 12  1  0  0  0  0
  9 21  1  0  0  0  0
 10 11  1  0  0  0  0
 10 22  1  0  0  0  0
 10 23  1  0  0  0  0
 11 24  1  0  0  0  0
 12 13  1  0  0  0  0
 12 14  1  0  0  0  0
 12 25  1  0  0  0  0
 13 26  1  0  0  0  0
 14 15  1  0  0  0  0
 14 27  1  0  0  0  0
 15 28  1  0  0  0  0
 16 17  2  0  0  0  0
 16 29  1  0  0  0  0
 17 18  1  0  0  0  0
M  END
> <s_m_source_file>
AV-unprocessed.smi

> <i_m_source_file_index>
35

> <i_lp_mmshare_version>
43012

> <i_f3d_flags>
0

> <s_epik_input>
Tz1jMVtuSF1jKD1PKW4oW2NIXWMxQnIpW0NAQEhdMk9bQ0BASF0oW0NIMl1bT0hdKVtDQEBIXShbT0hdKVtDQEhdMltPSF0=

> <s_epik_cmdline>
J2VwaWtfcHl0aG9uJywgJy1waCcsICc3LjAnLCAnLXRuJywgJzgnLCAnLW1hJywgJzIwMCcsICctbWV0YWxfYmluZGluZycsICctaW1hZScsICc8aW5maWxlLm1hZT4nLCAnLW9tYWUnLCAnPG91dGZpbGUubWFlPic=

> <r_lp_tautomer_probability>
0.999537

> <r_epik_Ionization_Penalty>
0.10812

> <r_epik_Ionization_Penalty_Charging>
0.108119

> <r_epik_Ionization_Penalty_Neutral>
4.93006e-07

> <r_epik_State_Penalty>
0.0979238

> <r_epik_Charging_Adjusted_Penalty>
0.206043

> <i_epik_Tot_Q>
0

> <i_epik_Tot_abs_Q>
0

> <r_epik_Metal_State_Penalty>
3.07911

> <b_epik_Metal_Only>
0

> <s_epik_Chemistry_Notes>
This compound contains an acetal/aminal-like group ( X-CH(R)-Y where X, Y are N, S, or O) that may be acid/base labile, releasing an aldehyde.

> <s_lp_Force_Field>
OPLS_2005

> <r_lp_Energy>
33.5115

> <b_lp_Chiralities_Consistent>
1

> <s_lp_Variant>
AV-unprocessed.smi:35-8

> <Gold.Version>
5.8.1

> <Gold.Id.Protein>
6NUR|6NUR_protein|mol2

> <Gold.PLP.Fitness>
38.7353

> <Gold.PLP.PLP>
-25.4699

> <Gold.PLP.part.hbond>
-5.9588

> <Gold.PLP.part.metal>
0.0000

> <Gold.PLP.part.buried>
-2.6493

> <Gold.PLP.part.nonpolar>
-16.1569

> <Gold.PLP.part.repulsive>
0.3098

> <Gold.PLP.ligand.clash>
0.0000

> <Gold.PLP.ligand.torsion>
0.7429

> <Gold.PLP.Chemscore.Hbond>
4.8960

> <Gold.PLP.Chemscore.CHOScore>
0.0000

> <Gold.PLP.Chemscore.Metal>
0.0000

> <Gold.Chemscore.Hbonds>
donor molecule, donor type, donor heavy atom, donor atom, acceptor molecule, acceptor atom, score
      L1  H    11    24       P1  7948  1.00
      L1  H    13    26       P1  7957  0.86
      P1  H  6896  6909       L1     1  1.00
      P1  H  7997  8008       L1     5  1.00
      P1  H  8011  8017       L1    13  0.83

> <Gold.PLP.Chemscore.Internal.Correction>
0.0631

> <Gold.Rescore>
     Score         DG    S(hbond)    S(metal)    S(lipo)     H(rot)  DE(clash)    DE(int)     intcor
     13.60     -14.51       4.30        0.00      34.55       3.67       0.09       0.82       ----

> <Gold.Chemscore.Fitness>
13.5956

> <Gold.Chemscore.DG>
-14.5051

> <Gold.Chemscore.ZeroCoef>
-5.4800

> <Gold.Chemscore.Hbond>
4.3047

> <Gold.Chemscore.Metal>
0.0000

> <Gold.Chemscore.Lipo>
34.5539

> <Gold.Chemscore.Internal_Hbond>
0.0000

> <Gold.Chemscore.DEClash>
0.0901

> <Gold.Chemscore.DEInternal>
0.8195

> <Gold.Chemscore.Rot>
3.6701

> <Gold.Chemscore.Internal.Correction>
   9.000000E+99

> <Gold.Chemscore.Hbonds>
donor molecule, donor type, donor heavy atom, donor atom, acceptor molecule, acceptor atom, score
      L1  H    11    24       P1  7948  0.94
      L1  H    13    26       P1  7957  0.83
      P1  H  6896  6909       L1     1  0.94
      P1  H  7997  8008       L1     5  0.96
      P1  H  8011  8017       L1    13  0.35

> <Gold.Chemscore.Hbond.Weighted>
-14.3778

> <Gold.Chemscore.Metal.Weighted>
-0.0000

> <Gold.Chemscore.Lipo.Weighted>
-4.0428

> <Gold.Chemscore.Internal_Hbond.Weighted>
0.0000

> <Gold.Chemscore.DEClash.Weighted>
0.0901

> <Gold.Chemscore.DEInternal.Weighted>
0.8195

> <Gold.Chemscore.Rot.Weighted>
9.3955

> <Gold.Chemscore.Internal.Correction.Weighted>
   9.000000E+99

> <Gold.Protein.RotatedTorsions>
[ 6907 6896 6895 6894 ] final  142.61 input  -60.11 | X-H torsion
[ 7974 7965 7964 7962 ] final  104.63 input  175.53 | X-H torsion
[ 8008 7997 7996 7995 ] final  -27.78 input   59.86 | X-H torsion
[ 10167 10162 10161 10158 ] final  134.92 input  -65.29 | X-H torsion
[ 10718 10713 10712 10709 ] final -113.58 input   66.30 | X-H torsion
[ 10763 10752 10751 10750 ] final   67.24 input  -60.55 | X-H torsion
[ 11005 11000 10999 10996 ] final -150.04 input  -57.11 | X-H torsion

> <Gold.Protein.ActiveResidues>
 VAL166  LYS551  ARG553  GLY616  TRP617  ASP618  TYR619  PRO620  LYS621  CYS622 
 ASP623  PHE694  ASN695  SER759  ASP760  ASP761  ALA762  ILE779  LEU786  VAL792 
 PHE793  MET794  SER795  GLU796  ALA797  LYS798  CYS799  TRP800  GLU811  SER814 

> <Gold.Protein.RotatedAtoms>
  152.2166  133.4951  159.5138 H   0  0  0  0  0  0  0  0  0  0  0  0  # atno 6907 bound_to 6896
  150.7002  134.1397  159.4109 H   0  0  0  0  0  0  0  0  0  0  0  0  # atno 6908 bound_to 6896
  151.9318  135.0253  160.0580 H   0  0  0  0  0  0  0  0  0  0  0  0  # atno 6909 bound_to 6896
  145.3303  139.2488  143.3664 H   0  0  0  0  0  0  0  0  0  0  0  0  # atno 7974 bound_to 7965
  154.4362  140.1863  156.0985 H   0  0  0  0  0  0  0  0  0  0  0  0  # atno 8008 bound_to 7997
  156.0310  140.3330  155.7114 H   0  0  0  0  0  0  0  0  0  0  0  0  # atno 8009 bound_to 7997
  155.5839  140.0624  157.2767 H   0  0  0  0  0  0  0  0  0  0  0  0  # atno 8010 bound_to 7997
  139.5237  144.6543  151.5208 H   0  0  0  0  0  0  0  0  0  0  0  0  # atno 10167 bound_to 10162
  156.0775  130.5980  150.8661 H   0  0  0  0  0  0  0  0  0  0  0  0  # atno 10718 bound_to 10713
  153.0177  135.5291  154.6949 H   0  0  0  0  0  0  0  0  0  0  0  0  # atno 10763 bound_to 10752
  154.6074  135.2874  155.0472 H   0  0  0  0  0  0  0  0  0  0  0  0  # atno 10764 bound_to 10752
  154.1507  135.6563  153.5015 H   0  0  0  0  0  0  0  0  0  0  0  0  # atno 10765 bound_to 10752
  140.7444  134.3478  157.5140 H   0  0  0  0  0  0  0  0  0  0  0  0  # atno 11005 bound_to 11000
  146.3048  140.3879  142.8691 LP  0  0  0  0  0  0  0  0  0  0  0  0  # atno 17320 bound_to 7965
  144.8869  140.7474  143.5951 LP  0  0  0  0  0  0  0  0  0  0  0  0  # atno 17321 bound_to 7965
  140.6362  143.8980  150.6649 LP  0  0  0  0  0  0  0  0  0  0  0  0  # atno 17342 bound_to 10162
  140.2299  143.3743  152.1574 LP  0  0  0  0  0  0  0  0  0  0  0  0  # atno 17343 bound_to 10162
  157.5878  131.0945  150.9169 LP  0  0  0  0  0  0  0  0  0  0  0  0  # atno 17370 bound_to 10713
  156.9351  130.5364  149.5279 LP  0  0  0  0  0  0  0  0  0  0  0  0  # atno 17371 bound_to 10713
  139.8800  134.9101  156.3007 LP  0  0  0  0  0  0  0  0  0  0  0  0  # atno 17394 bound_to 11000
  140.9808  133.7269  156.0669 LP  0  0  0  0  0  0  0  0  0  0  0  0  # atno 17395 bound_to 11000

$$$$
