AV-unprocessed.smi:838|AV-procd|sdf|3909|dock1
  -GOLD-   22720 1373D 1   1.00000     0.00000
 Structure written by MMmdl.
 46 47  0  0  0  0  0  0  0  0  2 V2000
  150.3685  141.5912  157.7226 C   0  0  0  0  0  0  0  0  0  0  0  0
  150.6184  140.3840  156.8159 C   0  0  0  0  0  0  0  0  0  0  0  0
  151.0564  139.3551  157.3300 O   0  0  0  0  0  0  0  0  0  0  0  0
  150.3533  140.4826  155.4909 N   0  0  0  0  0  0  0  0  0  0  0  0
  149.7523  141.6426  154.8259 C   0  0  0  0  0  0  0  0  0  0  0  0
  148.3537  141.2569  154.3104 C   0  0  0  0  0  0  0  0  0  0  0  0
  148.4082  140.0651  153.4213 N   0  3  0  0  0  0  0  0  0  0  0  0
  147.0680  139.6917  152.9043 C   0  0  0  0  0  0  0  0  0  0  0  0
  146.4347  138.5291  153.6930 C   0  0  0  0  0  0  0  0  0  0  0  0
  146.6996  137.2443  153.0559 N   0  0  0  0  0  0  0  0  0  0  0  0
  145.7638  136.3316  152.7567 C   0  0  0  0  0  0  0  0  0  0  0  0
  144.5659  136.4929  152.9919 O   0  0  0  0  0  0  0  0  0  0  0  0
  146.3075  135.2488  152.1732 N   0  0  0  0  0  0  0  0  0  0  0  0
  145.6555  134.0700  151.7124 C   0  0  0  0  0  0  0  0  0  0  0  0
  144.4384  134.0944  151.1131 N   0  0  0  0  0  0  0  0  0  0  0  0
  143.8750  132.9394  150.7041 C   0  0  0  0  0  0  0  0  0  0  0  0
  144.4898  131.6860  150.8656 C   0  0  0  0  0  0  0  0  0  0  0  0
  145.7513  131.6428  151.4833 C   0  0  0  0  0  0  0  0  0  0  0  0
  146.3485  132.8463  151.9152 C   0  0  0  0  0  0  0  0  0  0  0  0
  147.7132  132.8006  152.5836 C   0  0  0  0  0  0  0  0  0  0  0  0
  149.1430  138.9248  154.0368 C   0  0  0  0  0  0  0  0  0  0  0  0
  150.5231  139.3625  154.5609 C   0  0  0  0  0  0  0  0  0  0  0  0
  149.3163  141.8766  157.7071 H   0  0  0  0  0  0  0  0  0  0  0  0
  150.9730  142.4427  157.4092 H   0  0  0  0  0  0  0  0  0  0  0  0
  150.6340  141.3578  158.7543 H   0  0  0  0  0  0  0  0  0  0  0  0
  149.6767  142.5233  155.4619 H   0  0  0  0  0  0  0  0  0  0  0  0
  150.3880  141.9401  153.9906 H   0  0  0  0  0  0  0  0  0  0  0  0
  147.6927  141.0486  155.1536 H   0  0  0  0  0  0  0  0  0  0  0  0
  147.9220  142.0989  153.7682 H   0  0  0  0  0  0  0  0  0  0  0  0
  146.4201  140.5696  152.9052 H   0  0  0  0  0  0  0  0  0  0  0  0
  147.1605  139.3800  151.8626 H   0  0  0  0  0  0  0  0  0  0  0  0
  146.8454  138.4974  154.7025 H   0  0  0  0  0  0  0  0  0  0  0  0
  145.3572  138.6576  153.7996 H   0  0  0  0  0  0  0  0  0  0  0  0
  147.6614  137.0330  152.8326 H   0  0  0  0  0  0  0  0  0  0  0  0
  147.3078  135.2662  152.0407 H   0  0  0  0  0  0  0  0  0  0  0  0
  142.9054  133.0178  150.2350 H   0  0  0  0  0  0  0  0  0  0  0  0
  144.0062  130.7826  150.5247 H   0  0  0  0  0  0  0  0  0  0  0  0
  146.2513  130.6957  151.6232 H   0  0  0  0  0  0  0  0  0  0  0  0
  148.0973  131.7813  152.6334 H   0  0  0  0  0  0  0  0  0  0  0  0
  147.6522  133.1859  153.6018 H   0  0  0  0  0  0  0  0  0  0  0  0
  148.4322  133.4019  152.0264 H   0  0  0  0  0  0  0  0  0  0  0  0
  148.5523  138.5135  154.8571 H   0  0  0  0  0  0  0  0  0  0  0  0
  149.2764  138.1235  153.3111 H   0  0  0  0  0  0  0  0  0  0  0  0
  151.1558  139.6808  153.7309 H   0  0  0  0  0  0  0  0  0  0  0  0
  151.0330  138.5097  155.0113 H   0  0  0  0  0  0  0  0  0  0  0  0
  148.9508  140.3518  152.6192 H   0  0  0  0  0  0  0  0  0  0  0  0
  1  2  1  0  0  0  0
  1 23  1  0  0  0  0
  1 24  1  0  0  0  0
  1 25  1  0  0  0  0
  2  3  2  0  0  0  0
  2  4  1  0  0  0  0
  4 22  1  0  0  0  0
  4  5  1  0  0  0  0
  5  6  1  0  0  0  0
  5 26  1  0  0  0  0
  5 27  1  0  0  0  0
  6  7  1  0  0  0  0
  6 28  1  0  0  0  0
  6 29  1  0  0  0  0
  7  8  1  0  0  0  0
  7 21  1  0  0  0  0
  7 46  1  0  0  0  0
  8  9  1  0  0  0  0
  8 30  1  0  0  0  0
  8 31  1  0  0  0  0
  9 10  1  0  0  0  0
  9 32  1  0  0  0  0
  9 33  1  0  0  0  0
 10 11  1  0  0  0  0
 10 34  1  0  0  0  0
 11 12  2  0  0  0  0
 11 13  1  0  0  0  0
 13 14  1  0  0  0  0
 13 35  1  0  0  0  0
 14 19  1  0  0  0  0
 14 15  2  0  0  0  0
 15 16  1  0  0  0  0
 16 17  2  0  0  0  0
 16 36  1  0  0  0  0
 17 18  1  0  0  0  0
 17 37  1  0  0  0  0
 18 19  2  0  0  0  0
 18 38  1  0  0  0  0
 19 20  1  0  0  0  0
 20 39  1  0  0  0  0
 20 40  1  0  0  0  0
 20 41  1  0  0  0  0
 21 22  1  0  0  0  0
 21 42  1  0  0  0  0
 21 43  1  0  0  0  0
 22 44  1  0  0  0  0
 22 45  1  0  0  0  0
M  CHG  1   7   1
M  END
> <s_m_source_file>
AV-unprocessed.smi

> <i_m_source_file_index>
838

> <i_lp_mmshare_version>
43012

> <i_f3d_flags>
0

> <s_epik_input>
W0NIM11DKD1PKU4xW0NIMl1bQ0gyXU4oW0NIMl1bQ0gyXTEpW0NIMl1bQ0gyXVtOSF1DKD1PKVtOSF1jMm5bY0hdW2NIXVtjSF1jMltDSDNd

> <s_epik_cmdline>
J2VwaWtfcHl0aG9uJywgJy1waCcsICc3LjAnLCAnLXRuJywgJzgnLCAnLW1hJywgJzIwMCcsICctbWV0YWxfYmluZGluZycsICctaW1hZScsICc8aW5maWxlLm1hZT4nLCAnLW9tYWUnLCAnPG91dGZpbGUubWFlPic=

> <r_epik_Ionization_Penalty>
0.630076

> <r_epik_Ionization_Penalty_Charging>
0.630034

> <r_epik_Ionization_Penalty_Neutral>
4.2229e-05

> <r_epik_State_Penalty>
0.646805

> <r_epik_Charging_Adjusted_Penalty>
1.27684

> <i_epik_Tot_Q>
1

> <i_epik_Tot_abs_Q>
1

> <r_epik_Metal_State_Penalty>
0.64681

> <b_epik_Metal_Only>
0

> <s_lp_Force_Field>
OPLS_2005

> <r_lp_Energy>
41.2384

> <b_lp_Chiralities_Consistent>
1

> <s_lp_Variant>
AV-unprocessed.smi:838-2

> <Gold.Version>
5.8.1

> <Gold.Id.Protein>
6NUR|6NUR_protein|mol2

> <Gold.PLP.Fitness>
48.6738

> <Gold.PLP.PLP>
-38.6357

> <Gold.PLP.part.hbond>
-3.0000

> <Gold.PLP.part.metal>
0.0000

> <Gold.PLP.part.buried>
-3.7842

> <Gold.PLP.part.nonpolar>
-32.3856

> <Gold.PLP.part.repulsive>
0.4495

> <Gold.PLP.ligand.clash>
0.0000

> <Gold.PLP.ligand.torsion>
1.0240

> <Gold.PLP.Chemscore.Hbond>
2.9920

> <Gold.PLP.Chemscore.CHOScore>
1.0000

> <Gold.PLP.Chemscore.Metal>
0.0000

> <Gold.Chemscore.Hbonds>
donor molecule, donor type, donor heavy atom, donor atom, acceptor molecule, acceptor atom, score
      L1  H     7    46       P1  7957  1.00
      L1  H    10    34       P1  7948  1.00
      L1  H    13    35       P1  7948  1.00
      L1  C    16    36       P1 10186  1.00

> <Gold.PLP.Chemscore.Internal.Correction>
0.1101

> <Gold.Rescore>
     Score         DG    S(hbond)    S(metal)    S(lipo)     H(rot)  DE(clash)    DE(int)     intcor
     19.80     -20.96       2.87        0.00      84.94       1.58       0.01       1.15       ----

> <Gold.Chemscore.Fitness>
19.7976

> <Gold.Chemscore.DG>
-20.9632

> <Gold.Chemscore.ZeroCoef>
-5.4800

> <Gold.Chemscore.Hbond>
2.8704

> <Gold.Chemscore.Metal>
0.0000

> <Gold.Chemscore.Lipo>
84.9380

> <Gold.Chemscore.Internal_Hbond>
0.0000

> <Gold.Chemscore.DEClash>
0.0130

> <Gold.Chemscore.DEInternal>
1.1525

> <Gold.Chemscore.Rot>
1.5788

> <Gold.Chemscore.Internal.Correction>
   9.000000E+99

> <Gold.Chemscore.Hbonds>
donor molecule, donor type, donor heavy atom, donor atom, acceptor molecule, acceptor atom, score
      L1  H     7    46       P1  7957  0.95
      L1  H    10    34       P1  7948  0.97
      L1  H    13    35       P1  7948  0.96

> <Gold.Chemscore.Hbond.Weighted>
-9.5871

> <Gold.Chemscore.Metal.Weighted>
-0.0000

> <Gold.Chemscore.Lipo.Weighted>
-9.9377

> <Gold.Chemscore.Internal_Hbond.Weighted>
0.0000

> <Gold.Chemscore.DEClash.Weighted>
0.0130

> <Gold.Chemscore.DEInternal.Weighted>
1.1525

> <Gold.Chemscore.Rot.Weighted>
4.0416

> <Gold.Chemscore.Internal.Correction.Weighted>
   9.000000E+99

> <Gold.Protein.RotatedTorsions>
[ 6907 6896 6895 6894 ] final  -16.64 input  -60.11 | X-H torsion
[ 7974 7965 7964 7962 ] final  -92.39 input  175.53 | X-H torsion
[ 8008 7997 7996 7995 ] final   -0.70 input   59.86 | X-H torsion
[ 10167 10162 10161 10158 ] final  -17.22 input  -65.29 | X-H torsion
[ 10718 10713 10712 10709 ] final    9.45 input   66.30 | X-H torsion
[ 10763 10752 10751 10750 ] final -163.44 input  -60.55 | X-H torsion
[ 11005 11000 10999 10996 ] final   -6.14 input  -57.11 | X-H torsion

> <Gold.Protein.ActiveResidues>
 VAL166  LYS551  ARG553  GLY616  TRP617  ASP618  TYR619  PRO620  LYS621  CYS622 
 ASP623  PHE694  ASN695  SER759  ASP760  ASP761  ALA762  ILE779  LEU786  VAL792 
 PHE793  MET794  SER795  GLU796  ALA797  LYS798  CYS799  TRP800  GLU811  SER814 

> <Gold.Protein.RotatedAtoms>
  151.3055  135.0780  159.9253 H   0  0  0  0  0  0  0  0  0  0  0  0  # atno 6907 bound_to 6896
  152.5289  133.9790  159.7808 H   0  0  0  0  0  0  0  0  0  0  0  0  # atno 6908 bound_to 6896
  151.0084  133.5937  159.2716 H   0  0  0  0  0  0  0  0  0  0  0  0  # atno 6909 bound_to 6896
  145.4005  140.9537  143.2290 H   0  0  0  0  0  0  0  0  0  0  0  0  # atno 7974 bound_to 7965
  154.6551  140.2577  155.7170 H   0  0  0  0  0  0  0  0  0  0  0  0  # atno 8008 bound_to 7997
  156.2593  140.2860  156.0922 H   0  0  0  0  0  0  0  0  0  0  0  0  # atno 8009 bound_to 7997
  155.1392  140.0380  157.2784 H   0  0  0  0  0  0  0  0  0  0  0  0  # atno 8010 bound_to 7997
  140.7244  143.5037  150.9837 H   0  0  0  0  0  0  0  0  0  0  0  0  # atno 10167 bound_to 10162
  156.9664  130.5952  149.5665 H   0  0  0  0  0  0  0  0  0  0  0  0  # atno 10718 bound_to 10713
  154.7122  135.3008  154.9179 H   0  0  0  0  0  0  0  0  0  0  0  0  # atno 10763 bound_to 10752
  154.0077  135.6699  153.4767 H   0  0  0  0  0  0  0  0  0  0  0  0  # atno 10764 bound_to 10752
  153.0764  135.5032  154.8327 H   0  0  0  0  0  0  0  0  0  0  0  0  # atno 10765 bound_to 10752
  140.6988  133.9007  155.8669 H   0  0  0  0  0  0  0  0  0  0  0  0  # atno 11005 bound_to 11000
  144.8377  139.5523  143.6914 LP  0  0  0  0  0  0  0  0  0  0  0  0  # atno 17320 bound_to 7965
  146.2754  139.6740  142.9266 LP  0  0  0  0  0  0  0  0  0  0  0  0  # atno 17321 bound_to 7965
  139.8748  143.7147  152.3163 LP  0  0  0  0  0  0  0  0  0  0  0  0  # atno 17342 bound_to 10162
  139.7408  144.7560  151.0655 LP  0  0  0  0  0  0  0  0  0  0  0  0  # atno 17343 bound_to 10162
  156.0300  130.5392  150.8510 LP  0  0  0  0  0  0  0  0  0  0  0  0  # atno 17370 bound_to 10713
  157.5622  131.0946  150.9542 LP  0  0  0  0  0  0  0  0  0  0  0  0  # atno 17371 bound_to 10713
  141.0181  134.0928  157.4150 LP  0  0  0  0  0  0  0  0  0  0  0  0  # atno 17394 bound_to 11000
  139.8902  135.0111  156.6725 LP  0  0  0  0  0  0  0  0  0  0  0  0  # atno 17395 bound_to 11000

$$$$
