#       Name:                AV-unprocessed.smi:1439
#       Creating user name   scv26
#       Creation time:       Fri Mar 27 05:54:27 2020


#       File generated by GOLD software.
#

@<TRIPOS>MOLECULE
AV-unprocessed.smi:1439
    43    44     1
SMALL
NO_CHARGES


@<TRIPOS>ATOM
      1 ****        -5.1075   3.6582  -0.5348 N.am           1 S1                 0.0000
      2 ****        -5.9201   2.8445   0.1448 C.2            1 S1                 0.0000
      3 ****        -7.0757   2.6229  -0.2107 O.2            1 S1                 0.0000
      4 ****        -5.3579   2.1890   1.4078 C.3            1 S1                 0.0000
      5 ****        -4.4753   1.0288   1.0469 C.2            1 S1                 0.0000
      6 ****        -4.8816  -0.2298   0.6720 C.2            1 S1                 0.0000
      7 ****        -3.5335  -1.2818   0.3371 S.3            1 S1                 0.0000
      8 ****        -2.4490   0.0519   0.7358 C.2            1 S1                 0.0000
      9 ****        -1.0320   0.0419   0.7273 N.am           1 S1                 0.0000
     10 ****        -0.2138  -0.9686   0.3853 C.2            1 S1                 0.0000
     11 ****        -0.5940  -2.0789   0.0145 O.2            1 S1                 0.0000
     12 ****         1.2855  -0.6711   0.4869 C.3            1 S1                 0.0000
     13 ****         2.0964  -1.2784  -0.6724 C.3            1 S1                 0.0000
     14 ****         3.5897  -0.9292  -0.5942 C.3            1 S1                 0.0000
     15 ****         4.4154  -1.4746  -1.7553 C.3            1 S1                 0.0000
     16 ****         5.8236  -1.4860  -1.1884 C.3            1 S1                 0.0000
     17 ****         5.6104  -1.5404   0.3284 C.3            1 S1                 0.0000
     18 ****         4.2009  -1.5516   0.5250 O.3            1 S1                 0.0000
     19 ****        -3.0833   1.1730   1.0831 N.2            1 S1                 0.0000
     20 ****        -5.4370   4.1051  -1.3782 H              1 S1                 0.0000
     21 ****        -4.1655   3.8182  -0.2083 H              1 S1                 0.0000
     22 ****        -4.8112   2.9339   1.9881 H              1 S1                 0.0000
     23 ****        -6.1839   1.8570   2.0378 H              1 S1                 0.0000
     24 ****        -5.8917  -0.5978   0.5685 H              1 S1                 0.0000
     25 ****        -0.5890   0.9037   1.0106 H              1 S1                 0.0000
     26 ****         1.4415   0.4085   0.5140 H              1 S1                 0.0000
     27 ****         1.6464  -1.0617   1.4389 H              1 S1                 0.0000
     28 ****         1.9803  -2.3630  -0.6852 H              1 S1                 0.0000
     29 ****         1.6969  -0.9140  -1.6200 H              1 S1                 0.0000
     30 ****         3.7267   0.1512  -0.5195 H              1 S1                 0.0000
     31 ****         4.1076  -2.4941  -1.9919 H              1 S1                 0.0000
     32 ****         4.3248  -0.8740  -2.6610 H              1 S1                 0.0000
     33 ****         6.4015  -2.3337  -1.5577 H              1 S1                 0.0000
     34 ****         6.3543  -0.5727  -1.4605 H              1 S1                 0.0000
     35 ****         6.0607  -2.4261   0.7770 H              1 S1                 0.0000
     36 ****         6.0402  -0.6610   0.8094 H              1 S1                 0.0000
     37 ****        -7.4374   3.0582  -1.0351 LP             1 S1                 0.0000
     38 ****        -7.6541   2.0072   0.3244 LP             1 S1                 0.0000
     39 ****        -1.5721  -2.2774  -0.0482 LP             1 S1                 0.0000
     40 ****         0.0752  -2.7827  -0.2241 LP             1 S1                 0.0000
     41 ****         3.8782  -2.4946   0.6054 LP             1 S1                 0.0000
     42 ****         3.9718  -1.0487   1.3584 LP             1 S1                 0.0000
     43 ****        -2.6175   2.0198   1.3400 LP             1 S1                 0.0000
@<TRIPOS>BOND
    1    1    2 am    
    2    1   20 1     
    3    1   21 1     
    4    2    3 2     
    5    2    4 1     
    6    4    5 1     
    7    4   22 1     
    8    4   23 1     
    9    5   19 1     
   10    5    6 2     
   11    6    7 1     
   12    6   24 1     
   13    7    8 1     
   14    8    9 1     
   15    8   19 2     
   16    9   10 am    
   17    9   25 1     
   18   10   11 2     
   19   10   12 1     
   20   12   13 1     
   21   12   26 1     
   22   12   27 1     
   23   13   14 1     
   24   13   28 1     
   25   13   29 1     
   26   14   18 1     
   27   14   15 1     
   28   14   30 1     
   29   15   16 1     
   30   15   31 1     
   31   15   32 1     
   32   16   17 1     
   33   16   33 1     
   34   16   34 1     
   35   17   18 1     
   36   17   35 1     
   37   17   36 1     
   38    3   37 1     
   39    3   38 1     
   40   11   39 1     
   41   11   40 1     
   42   18   41 1     
   43   18   42 1     
   44   19   43 1     
@<TRIPOS>SUBSTRUCTURE
      1 S1             1
@<TRIPOS>SET
LONE_PAIRS      STATIC     ATOMS    <user>   **** ""
7 37 38 39 40 41 42 43
DONOR_HYDROGENS      STATIC     ATOMS    <user>   **** ""
3 20 21 25
ATOM$BLUE        STATIC     ATOMS    COLORGROUP SYSTEM
7 37 38 39 40 41 42 43
ATOM$RED        STATIC     ATOMS    COLORGROUP SYSTEM
3 20 21 25
