AV-unprocessed.smi:1235|AV-procd|sdf|5177|dock6
  -GOLD-   22720 4253D 1   1.00000     0.00000
 Structure written by MMmdl.
 50 51  0  0  0  0  0  0  0  0  2 V2000
  149.9497  134.5386  156.0018 C   0  0  0  0  0  0  0  0  0  0  0  0
  150.9576  135.5049  155.7605 O   0  0  0  0  0  0  0  0  0  0  0  0
  150.4327  136.8137  155.6180 C   0  0  0  0  0  0  0  0  0  0  0  0
  151.5989  137.8008  155.4577 C   0  0  0  0  0  0  0  0  0  0  0  0
  151.1336  139.1912  155.4805 N   0  0  0  0  0  0  0  0  0  0  0  0
  150.0430  139.4341  154.6622 N   0  0  0  0  0  0  0  0  0  0  0  0
  149.5449  140.6254  154.5798 C   0  0  0  0  0  0  0  0  0  0  0  0
  148.3758  140.9290  153.7080 C   0  0  0  0  0  0  0  0  0  0  0  0
  147.7265  141.9693  153.8276 O   0  0  0  0  0  0  0  0  0  0  0  0
  148.0833  139.9928  152.7870 N   0  0  0  0  0  0  0  0  0  0  0  0
  147.0022  140.0808  151.8128 C   0  0  0  0  0  0  0  0  0  0  0  0
  146.4641  138.6873  151.4295 C   0  0  0  0  0  0  0  0  0  0  0  0
  145.2847  138.2688  152.2348 N   0  3  2  0  0  0  0  0  0  0  0  0
  145.5998  138.1948  153.6875 C   0  0  0  0  0  0  0  0  0  0  0  0
  144.3309  137.9798  154.5278 C   0  0  0  0  0  0  0  0  0  0  0  0
  143.5709  136.7305  154.0698 C   0  0  0  0  0  0  0  0  0  0  0  0
  143.2749  136.8231  152.5669 C   0  0  0  0  0  0  0  0  0  0  0  0
  144.5518  137.0632  151.7333 C   0  0  2  0  0  0  0  0  0  0  0  0
  145.4318  135.7981  151.6388 C   0  0  0  0  0  0  0  0  0  0  0  0
  150.1133  141.7244  155.3417 C   0  0  0  0  0  0  0  0  0  0  0  0
  151.1776  141.4720  156.1347 C   0  0  0  0  0  0  0  0  0  0  0  0
  151.7647  140.1353  156.2418 C   0  0  0  0  0  0  0  0  0  0  0  0
  152.7402  139.8829  156.9481 O   0  0  0  0  0  0  0  0  0  0  0  0
  150.4052  133.5543  156.1097 H   0  0  0  0  0  0  0  0  0  0  0  0
  149.2416  134.4925  155.1735 H   0  0  0  0  0  0  0  0  0  0  0  0
  149.4022  134.7588  156.9191 H   0  0  0  0  0  0  0  0  0  0  0  0
  149.7746  136.8586  154.7490 H   0  0  0  0  0  0  0  0  0  0  0  0
  149.8386  137.0730  156.4958 H   0  0  0  0  0  0  0  0  0  0  0  0
  152.3226  137.6392  156.2587 H   0  0  0  0  0  0  0  0  0  0  0  0
  152.1404  137.5937  154.5329 H   0  0  0  0  0  0  0  0  0  0  0  0
  148.6656  139.1678  152.7528 H   0  0  0  0  0  0  0  0  0  0  0  0
  146.2007  140.7104  152.2030 H   0  0  0  0  0  0  0  0  0  0  0  0
  147.4094  140.5923  150.9415 H   0  0  0  0  0  0  0  0  0  0  0  0
  146.2364  138.6399  150.3645 H   0  0  0  0  0  0  0  0  0  0  0  0
  147.2576  137.9573  151.5946 H   0  0  0  0  0  0  0  0  0  0  0  0
  146.3207  137.3985  153.8750 H   0  0  0  0  0  0  0  0  0  0  0  0
  146.0753  139.1230  154.0067 H   0  0  0  0  0  0  0  0  0  0  0  0
  144.5929  137.8908  155.5825 H   0  0  0  0  0  0  0  0  0  0  0  0
  143.6837  138.8538  154.4429 H   0  0  0  0  0  0  0  0  0  0  0  0
  144.1580  135.8372  154.2846 H   0  0  0  0  0  0  0  0  0  0  0  0
  142.6404  136.6312  154.6298 H   0  0  0  0  0  0  0  0  0  0  0  0
  142.7658  135.9192  152.2304 H   0  0  0  0  0  0  0  0  0  0  0  0
  142.5760  137.6431  152.3945 H   0  0  0  0  0  0  0  0  0  0  0  0
  144.2034  137.2810  150.7244 H   0  0  0  0  0  0  0  0  0  0  0  0
  144.8436  134.9459  151.2971 H   0  0  0  0  0  0  0  0  0  0  0  0
  145.8707  135.5237  152.5976 H   0  0  0  0  0  0  0  0  0  0  0  0
  146.2442  135.9221  150.9234 H   0  0  0  0  0  0  0  0  0  0  0  0
  149.7011  142.7212  155.2817 H   0  0  0  0  0  0  0  0  0  0  0  0
  151.6100  142.2797  156.7069 H   0  0  0  0  0  0  0  0  0  0  0  0
  144.6273  139.0313  152.1524 H   0  0  0  0  0  0  0  0  0  0  0  0
  1  2  1  0  0  0  0
  1 24  1  0  0  0  0
  1 25  1  0  0  0  0
  1 26  1  0  0  0  0
  2  3  1  0  0  0  0
  3  4  1  0  0  0  0
  3 27  1  0  0  0  0
  3 28  1  0  0  0  0
  4  5  1  0  0  0  0
  4 29  1  0  0  0  0
  4 30  1  0  0  0  0
  5 22  1  0  0  0  0
  5  6  1  0  0  0  0
  6  7  2  0  0  0  0
  7  8  1  0  0  0  0
  7 20  1  0  0  0  0
  8  9  2  0  0  0  0
  8 10  1  0  0  0  0
 10 11  1  0  0  0  0
 10 31  1  0  0  0  0
 11 12  1  0  0  0  0
 11 32  1  0  0  0  0
 11 33  1  0  0  0  0
 12 13  1  0  0  0  0
 12 34  1  0  0  0  0
 12 35  1  0  0  0  0
 13 18  1  0  0  0  0
 13 14  1  0  0  0  0
 13 50  1  0  0  0  0
 14 15  1  0  0  0  0
 14 36  1  0  0  0  0
 14 37  1  0  0  0  0
 15 16  1  0  0  0  0
 15 38  1  0  0  0  0
 15 39  1  0  0  0  0
 16 17  1  0  0  0  0
 16 40  1  0  0  0  0
 16 41  1  0  0  0  0
 17 18  1  0  0  0  0
 17 42  1  0  0  0  0
 17 43  1  0  0  0  0
 18 19  1  0  0  0  0
 18 44  1  0  0  0  0
 19 45  1  0  0  0  0
 19 46  1  0  0  0  0
 19 47  1  0  0  0  0
 20 21  2  0  0  0  0
 20 48  1  0  0  0  0
 21 22  1  0  0  0  0
 21 49  1  0  0  0  0
 22 23  2  0  0  0  0
M  CHG  1  13   1
M  END
> <s_m_source_file>
AV-unprocessed.smi

> <i_m_source_file_index>
1235

> <i_lp_mmshare_version>
43012

> <i_f3d_flags>
0

> <s_epik_input>
W0NIM11PW0NIMl1bQ0gyXW4xbmMoW2NIXVtjSF1jMT1PKUMoPU8pW05IXVtDSDJdW0NIMl1OMltDSDJdW0NIMl1bQ0gyXVtDSDJdW0NASF0yW0NIM10=

> <s_epik_cmdline>
J2VwaWtfcHl0aG9uJywgJy1waCcsICc3LjAnLCAnLXRuJywgJzgnLCAnLW1hJywgJzIwMCcsICctbWV0YWxfYmluZGluZycsICctaW1hZScsICc8aW5maWxlLm1hZT4nLCAnLW9tYWUnLCAnPG91dGZpbGUubWFlPic=

> <r_lp_tautomer_probability>
1

> <r_epik_Ionization_Penalty>
0.00271975

> <r_epik_Ionization_Penalty_Charging>
0.00271407

> <r_epik_Ionization_Penalty_Neutral>
5.6803e-06

> <r_epik_State_Penalty>
0.00189271

> <r_epik_Charging_Adjusted_Penalty>
0.00460678

> <i_epik_Tot_Q>
1

> <i_epik_Tot_abs_Q>
1

> <r_epik_Metal_State_Penalty>
-0

> <b_epik_Metal_Only>
0

> <s_lp_Force_Field>
OPLS_2005

> <r_lp_Energy>
40.192

> <b_lp_Chiralities_Consistent>
1

> <s_lp_Variant>
AV-unprocessed.smi:1235-3

> <Gold.Version>
5.8.1

> <Gold.Id.Protein>
6NUR|6NUR_protein|mol2

> <Gold.PLP.Fitness>
48.4364

> <Gold.PLP.PLP>
-37.6612

> <Gold.PLP.part.hbond>
-4.3212

> <Gold.PLP.part.metal>
0.0000

> <Gold.PLP.part.buried>
3.8324

> <Gold.PLP.part.nonpolar>
-36.7504

> <Gold.PLP.part.repulsive>
0.4991

> <Gold.PLP.ligand.clash>
0.0000

> <Gold.PLP.ligand.torsion>
0.7208

> <Gold.PLP.Chemscore.Hbond>
4.0000

> <Gold.PLP.Chemscore.CHOScore>
0.0000

> <Gold.PLP.Chemscore.Metal>
0.0000

> <Gold.Chemscore.Hbonds>
donor molecule, donor type, donor heavy atom, donor atom, acceptor molecule, acceptor atom, score
      L1  H    13    50       P1 10175  2.00
      P1  H  7997  8009       L1    23  1.00
      P1  H 10752 10763       L1     2  0.44

> <Gold.PLP.Chemscore.Internal.Correction>
0.2168

> <Gold.Rescore>
     Score         DG    S(hbond)    S(metal)    S(lipo)     H(rot)  DE(clash)    DE(int)     intcor
     16.67     -18.41       2.94        0.00      70.53       2.00       0.79       0.94       ----

> <Gold.Chemscore.Fitness>
16.6750

> <Gold.Chemscore.DG>
-18.4097

> <Gold.Chemscore.ZeroCoef>
-5.4800

> <Gold.Chemscore.Hbond>
2.9350

> <Gold.Chemscore.Metal>
0.0000

> <Gold.Chemscore.Lipo>
70.5286

> <Gold.Chemscore.Internal_Hbond>
0.0000

> <Gold.Chemscore.DEClash>
0.7916

> <Gold.Chemscore.DEInternal>
0.9431

> <Gold.Chemscore.Rot>
2.0020

> <Gold.Chemscore.Internal.Correction>
   9.000000E+99

> <Gold.Chemscore.Hbonds>
donor molecule, donor type, donor heavy atom, donor atom, acceptor molecule, acceptor atom, score
      L1  H    13    50       P1 10175  1.00
      P1  H  7997  8009       L1    23  1.00
      P1  H 10752 10763       L1     2  0.21

> <Gold.Chemscore.Hbond.Weighted>
-9.8030

> <Gold.Chemscore.Metal.Weighted>
-0.0000

> <Gold.Chemscore.Lipo.Weighted>
-8.2519

> <Gold.Chemscore.Internal_Hbond.Weighted>
0.0000

> <Gold.Chemscore.DEClash.Weighted>
0.7916

> <Gold.Chemscore.DEInternal.Weighted>
0.9431

> <Gold.Chemscore.Rot.Weighted>
5.1252

> <Gold.Chemscore.Internal.Correction.Weighted>
   9.000000E+99

> <Gold.Protein.RotatedTorsions>
[ 6907 6896 6895 6894 ] final -105.48 input  -60.11 | X-H torsion
[ 7974 7965 7964 7962 ] final -116.30 input  175.53 | X-H torsion
[ 8008 7997 7996 7995 ] final -178.72 input   59.86 | X-H torsion
[ 10167 10162 10161 10158 ] final    1.33 input  -65.29 | X-H torsion
[ 10718 10713 10712 10709 ] final   62.16 input   66.30 | X-H torsion
[ 10763 10752 10751 10750 ] final   65.29 input  -60.55 | X-H torsion
[ 11005 11000 10999 10996 ] final -162.82 input  -57.11 | X-H torsion

> <Gold.Protein.ActiveResidues>
 VAL166  LYS551  ARG553  GLY616  TRP617  ASP618  TYR619  PRO620  LYS621  CYS622 
 ASP623  PHE694  ASN695  SER759  ASP760  ASP761  ALA762  ILE779  LEU786  VAL792 
 PHE793  MET794  SER795  GLU796  ALA797  LYS798  CYS799  TRP800  GLU811  SER814 

> <Gold.Protein.RotatedAtoms>
  150.7339  134.0120  159.3672 H   0  0  0  0  0  0  0  0  0  0  0  0  # atno 6907 bound_to 6896
  151.8080  135.0687  160.0418 H   0  0  0  0  0  0  0  0  0  0  0  0  # atno 6908 bound_to 6896
  152.3093  133.5699  159.5706 H   0  0  0  0  0  0  0  0  0  0  0  0  # atno 6909 bound_to 6896
  145.0983  140.8535  143.3941 H   0  0  0  0  0  0  0  0  0  0  0  0  # atno 7974 bound_to 7965
  156.0221  140.1263  157.0347 H   0  0  0  0  0  0  0  0  0  0  0  0  # atno 8008 bound_to 7997
  154.4315  140.1066  156.6048 H   0  0  0  0  0  0  0  0  0  0  0  0  # atno 8009 bound_to 7997
  155.5930  140.3469  155.4574 H   0  0  0  0  0  0  0  0  0  0  0  0  # atno 8010 bound_to 7997
  140.6688  143.7107  150.7880 H   0  0  0  0  0  0  0  0  0  0  0  0  # atno 10167 bound_to 10162
  157.5881  130.9035  149.9552 H   0  0  0  0  0  0  0  0  0  0  0  0  # atno 10718 bound_to 10713
  153.0090  135.5362  154.6643 H   0  0  0  0  0  0  0  0  0  0  0  0  # atno 10763 bound_to 10752
  154.5844  135.2853  155.0702 H   0  0  0  0  0  0  0  0  0  0  0  0  # atno 10764 bound_to 10752
  154.1819  135.6515  153.5089 H   0  0  0  0  0  0  0  0  0  0  0  0  # atno 10765 bound_to 10752
  140.6050  134.4908  157.5209 H   0  0  0  0  0  0  0  0  0  0  0  0  # atno 11005 bound_to 11000
  145.0985  139.2839  143.5698 LP  0  0  0  0  0  0  0  0  0  0  0  0  # atno 17320 bound_to 7965
  146.3530  140.0545  142.8633 LP  0  0  0  0  0  0  0  0  0  0  0  0  # atno 17321 bound_to 7965
  140.0788  143.4989  152.2541 LP  0  0  0  0  0  0  0  0  0  0  0  0  # atno 17342 bound_to 10162
  139.5947  144.7563  151.3315 LP  0  0  0  0  0  0  0  0  0  0  0  0  # atno 17343 bound_to 10162
  156.0932  130.3661  150.0356 LP  0  0  0  0  0  0  0  0  0  0  0  0  # atno 17370 bound_to 10713
  156.8484  130.9450  151.3627 LP  0  0  0  0  0  0  0  0  0  0  0  0  # atno 17371 bound_to 10713
  139.9216  134.8137  156.1194 LP  0  0  0  0  0  0  0  0  0  0  0  0  # atno 17394 bound_to 11000
  141.0846  133.6739  156.2410 LP  0  0  0  0  0  0  0  0  0  0  0  0  # atno 17395 bound_to 11000

$$$$
