AV-unprocessed.smi:54|AV-procd|sdf|530|dock1
  -GOLD-   2262016403D 1   1.00000     0.00000
 Structure written by MMmdl.
 44 46  0  0  0  0  0  0  0  0  1 V2000
  151.9466  145.2179  159.3490 C   0  0  0  0  0  0  0  0  0  0  0  0
  151.4461  143.9574  160.0725 C   0  0  0  0  0  0  0  0  0  0  0  0
  152.0010  143.8779  161.5041 C   0  0  0  0  0  0  0  0  0  0  0  0
  151.8129  142.6990  159.2775 C   0  0  0  0  0  0  0  0  0  0  0  0
  152.8915  142.1234  159.4259 O   0  0  0  0  0  0  0  0  0  0  0  0
  150.8066  142.2436  158.3354 N   0  0  0  0  0  0  0  0  0  0  0  0
  150.8771  141.1714  157.5130 C   0  0  0  0  0  0  0  0  0  0  0  0
  149.9011  140.8261  156.6846 N   0  0  0  0  0  0  0  0  0  0  0  0
  150.1636  139.7161  155.9310 C   0  0  0  0  0  0  0  0  0  0  0  0
  151.3135  138.9553  155.9570 C   0  0  0  0  0  0  0  0  0  0  0  0
  151.2108  137.9008  155.0567 N   0  0  0  0  0  0  0  0  0  0  0  0
  150.0292  138.0515  154.5255 C   0  0  0  0  0  0  0  0  0  0  0  0
  149.3270  139.1331  155.0044 N   0  0  0  0  0  0  0  0  0  0  0  0
  147.9588  139.6194  154.6358 C   0  0  1  0  0  0  0  0  0  0  0  0
  147.3362  140.0915  155.7954 O   0  0  0  0  0  0  0  0  0  0  0  0
  147.2383  141.5081  155.7381 C   0  0  2  0  0  0  0  0  0  0  0  0
  146.1518  142.0196  156.7009 C   0  0  0  0  0  0  0  0  0  0  0  0
  146.4557  141.7276  158.0493 O   0  0  0  0  0  0  0  0  0  0  0  0
  147.0425  141.7915  154.2481 C   0  0  1  0  0  0  0  0  0  0  0  0
  147.3223  143.1332  153.8951 O   0  0  0  0  0  0  0  0  0  0  0  0
  148.0000  140.7858  153.6150 C   0  0  1  0  0  0  0  0  0  0  0  0
  149.2982  141.3307  153.4224 O   0  0  0  0  0  0  0  0  0  0  0  0
  152.3821  139.3221  156.8406 C   0  0  0  0  0  0  0  0  0  0  0  0
  153.4695  138.7698  156.9921 O   0  0  0  0  0  0  0  0  0  0  0  0
  152.0761  140.4629  157.5939 N   0  0  0  0  0  0  0  0  0  0  0  0
  147.4376  138.7342  154.2691 H   0  0  0  0  0  0  0  0  0  0  0  0
  148.2030  141.9070  156.0578 H   0  0  0  0  0  0  0  0  0  0  0  0
  146.0245  141.5471  153.9437 H   0  0  0  0  0  0  0  0  0  0  0  0
  147.6298  140.4369  152.6502 H   0  0  0  0  0  0  0  0  0  0  0  0
  151.5516  145.2758  158.3337 H   0  0  0  0  0  0  0  0  0  0  0  0
  153.0353  145.2388  159.2850 H   0  0  0  0  0  0  0  0  0  0  0  0
  151.6300  146.1198  159.8737 H   0  0  0  0  0  0  0  0  0  0  0  0
  150.3585  144.0142  160.1367 H   0  0  0  0  0  0  0  0  0  0  0  0
  151.6563  142.9777  162.0145 H   0  0  0  0  0  0  0  0  0  0  0  0
  151.6750  144.7337  162.0959 H   0  0  0  0  0  0  0  0  0  0  0  0
  153.0918  143.8689  161.5121 H   0  0  0  0  0  0  0  0  0  0  0  0
  149.9755  142.8125  158.2685 H   0  0  0  0  0  0  0  0  0  0  0  0
  149.6437  137.3783  153.7740 H   0  0  0  0  0  0  0  0  0  0  0  0
  146.0099  143.0940  156.5827 H   0  0  0  0  0  0  0  0  0  0  0  0
  145.1998  141.5442  156.4644 H   0  0  0  0  0  0  0  0  0  0  0  0
  147.2406  142.1962  158.2891 H   0  0  0  0  0  0  0  0  0  0  0  0
  147.6720  143.5721  154.6558 H   0  0  0  0  0  0  0  0  0  0  0  0
  149.6431  140.9932  152.6098 H   0  0  0  0  0  0  0  0  0  0  0  0
  152.7844  140.7786  158.2401 H   0  0  0  0  0  0  0  0  0  0  0  0
  1  2  1  0  0  0  0
  1 30  1  0  0  0  0
  1 31  1  0  0  0  0
  1 32  1  0  0  0  0
  2  3  1  0  0  0  0
  2  4  1  0  0  0  0
  2 33  1  0  0  0  0
  3 34  1  0  0  0  0
  3 35  1  0  0  0  0
  3 36  1  0  0  0  0
  4  5  2  0  0  0  0
  4  6  1  0  0  0  0
  6 37  1  0  0  0  0
  6  7  1  0  0  0  0
  7 25  1  0  0  0  0
  7  8  2  0  0  0  0
  8  9  1  0  0  0  0
  9 13  1  0  0  0  0
  9 10  2  0  0  0  0
 10 11  1  0  0  0  0
 10 23  1  0  0  0  0
 11 12  2  0  0  0  0
 12 13  1  0  0  0  0
 12 38  1  0  0  0  0
 13 14  1  0  0  0  0
 14 26  1  0  0  0  0
 14 21  1  0  0  0  0
 14 15  1  0  0  0  0
 15 16  1  0  0  0  0
 16 27  1  0  0  0  0
 16 17  1  0  0  0  0
 16 19  1  0  0  0  0
 17 18  1  0  0  0  0
 17 39  1  0  0  0  0
 17 40  1  0  0  0  0
 18 41  1  0  0  0  0
 19 28  1  0  0  0  0
 19 20  1  0  0  0  0
 19 21  1  0  0  0  0
 20 42  1  0  0  0  0
 21 29  1  0  0  0  0
 21 22  1  0  0  0  0
 22 43  1  0  0  0  0
 23 24  2  0  0  0  0
 23 25  1  0  0  0  0
 25 44  1  0  0  0  0
M  END
> <s_m_source_file>
AV-unprocessed.smi

> <i_m_source_file_index>
54

> <i_lp_mmshare_version>
43012

> <i_f3d_flags>
0

> <s_epik_input>
W0NIM11bQ0hdKFtDSDNdKUMoPU8pW05IXWMobjEpW25IXWMoPU8pYyhjMTIpbltjSF1uMltDQEBIXTNPW0NASF0oW0NIMl1bT0hdKVtDQEBIXShbT0hdKVtDQEhdM1tPSF0=

> <s_epik_cmdline>
J2VwaWtfcHl0aG9uJywgJy1waCcsICc3LjAnLCAnLXRuJywgJzgnLCAnLW1hJywgJzIwMCcsICctbWV0YWxfYmluZGluZycsICctaW1hZScsICc8aW5maWxlLm1hZT4nLCAnLW9tYWUnLCAnPG91dGZpbGUubWFlPic=

> <r_lp_tautomer_probability>
0.85571

> <r_epik_Ionization_Penalty>
0.0316551

> <r_epik_Ionization_Penalty_Charging>
0.0316043

> <r_epik_Ionization_Penalty_Neutral>
5.07097e-05

> <r_epik_State_Penalty>
3.15494e-07

> <r_epik_Charging_Adjusted_Penalty>
0.0316047

> <i_epik_Tot_Q>
0

> <i_epik_Tot_abs_Q>
0

> <r_epik_Metal_State_Penalty>
0.421206

> <b_epik_Metal_Only>
0

> <s_epik_Chemistry_Notes>
This compound contains an acetal/aminal-like group ( X-CH(R)-Y where X, Y are N, S, or O) that may be acid/base labile, releasing an aldehyde.

> <s_lp_Force_Field>
OPLS_2005

> <r_lp_Energy>
47.6187

> <b_lp_Chiralities_Consistent>
1

> <s_lp_Variant>
AV-unprocessed.smi:54-2

> <Gold.Version>
5.8.1

> <Gold.Id.Protein>
6NUR|6NUR_protein|mol2

> <Gold.PLP.Fitness>
48.0632

> <Gold.PLP.PLP>
-39.3472

> <Gold.PLP.part.hbond>
-5.7286

> <Gold.PLP.part.metal>
0.0000

> <Gold.PLP.part.buried>
-3.4008

> <Gold.PLP.part.nonpolar>
-29.9729

> <Gold.PLP.part.repulsive>
0.3319

> <Gold.PLP.ligand.clash>
0.0000

> <Gold.PLP.ligand.torsion>
1.3377

> <Gold.PLP.Chemscore.Hbond>
2.7680

> <Gold.PLP.Chemscore.CHOScore>
1.0000

> <Gold.PLP.Chemscore.Metal>
0.0000

> <Gold.Chemscore.Hbonds>
donor molecule, donor type, donor heavy atom, donor atom, acceptor molecule, acceptor atom, score
      L1  H    20    42       P1  8028  1.00
      L1  H    22    43       P1  7957  1.00
      P1  H  7997  8008       L1    24  0.93
      L1  C    12    38       P1  7948  1.00

> <Gold.PLP.Chemscore.Internal.Correction>
0.0875

> <Gold.Rescore>
     Score         DG    S(hbond)    S(metal)    S(lipo)     H(rot)  DE(clash)    DE(int)     intcor
      4.92      -9.43       2.22        0.00      59.04       4.05       0.42       4.10       ----

> <Gold.Chemscore.Fitness>
4.9160

> <Gold.Chemscore.DG>
-9.4318

> <Gold.Chemscore.ZeroCoef>
-5.4800

> <Gold.Chemscore.Hbond>
2.2186

> <Gold.Chemscore.Metal>
0.0000

> <Gold.Chemscore.Lipo>
59.0425

> <Gold.Chemscore.Internal_Hbond>
0.0000

> <Gold.Chemscore.DEClash>
0.4207

> <Gold.Chemscore.DEInternal>
4.0952

> <Gold.Chemscore.Rot>
4.0493

> <Gold.Chemscore.Internal.Correction>
   9.000000E+99

> <Gold.Chemscore.Hbonds>
donor molecule, donor type, donor heavy atom, donor atom, acceptor molecule, acceptor atom, score
      L1  H    20    42       P1  8028  0.29
      L1  H    22    43       P1  7957  0.99
      P1  H  7997  8008       L1    24  0.40

> <Gold.Chemscore.Hbond.Weighted>
-7.4100

> <Gold.Chemscore.Metal.Weighted>
-0.0000

> <Gold.Chemscore.Lipo.Weighted>
-6.9080

> <Gold.Chemscore.Internal_Hbond.Weighted>
0.0000

> <Gold.Chemscore.DEClash.Weighted>
0.4207

> <Gold.Chemscore.DEInternal.Weighted>
4.0952

> <Gold.Chemscore.Rot.Weighted>
10.3662

> <Gold.Chemscore.Internal.Correction.Weighted>
   9.000000E+99

> <Gold.Protein.RotatedTorsions>
[ 6907 6896 6895 6894 ] final -171.88 input  -60.11 | X-H torsion
[ 7974 7965 7964 7962 ] final   33.47 input  175.53 | X-H torsion
[ 8008 7997 7996 7995 ] final  -82.72 input   59.86 | X-H torsion
[ 10167 10162 10161 10158 ] final  178.21 input  -65.29 | X-H torsion
[ 10718 10713 10712 10709 ] final   37.68 input   66.30 | X-H torsion
[ 10763 10752 10751 10750 ] final   41.19 input  -60.55 | X-H torsion
[ 11005 11000 10999 10996 ] final -139.10 input  -57.11 | X-H torsion

> <Gold.Protein.ActiveResidues>
 VAL166  LYS551  ARG553  GLY616  TRP617  ASP618  TYR619  PRO620  LYS621  CYS622 
 ASP623  PHE694  ASN695  SER759  ASP760  ASP761  ALA762  ILE779  LEU786  VAL792 
 PHE793  MET794  SER795  GLU796  ALA797  LYS798  CYS799  TRP800  GLU811  SER814 

> <Gold.Protein.RotatedAtoms>
  151.5310  133.3449  159.2917 H   0  0  0  0  0  0  0  0  0  0  0  0  # atno 6907 bound_to 6896
  150.8593  134.7943  159.7081 H   0  0  0  0  0  0  0  0  0  0  0  0  # atno 6908 bound_to 6896
  152.4618  134.5176  159.9824 H   0  0  0  0  0  0  0  0  0  0  0  0  # atno 6909 bound_to 6896
  146.1418  139.6392  142.9158 H   0  0  0  0  0  0  0  0  0  0  0  0  # atno 7974 bound_to 7965
  154.6116  140.0629  156.9500 H   0  0  0  0  0  0  0  0  0  0  0  0  # atno 8008 bound_to 7997
  155.1964  140.3311  155.4332 H   0  0  0  0  0  0  0  0  0  0  0  0  # atno 8009 bound_to 7997
  156.2380  140.1872  156.7051 H   0  0  0  0  0  0  0  0  0  0  0  0  # atno 8010 bound_to 7997
  139.5285  144.2707  152.0630 H   0  0  0  0  0  0  0  0  0  0  0  0  # atno 10167 bound_to 10162
  157.3498  130.7592  149.6970 H   0  0  0  0  0  0  0  0  0  0  0  0  # atno 10718 bound_to 10713
  152.9915  135.6169  154.2748 H   0  0  0  0  0  0  0  0  0  0  0  0  # atno 10763 bound_to 10752
  154.2479  135.2786  155.2830 H   0  0  0  0  0  0  0  0  0  0  0  0  # atno 10764 bound_to 10752
  154.5313  135.5787  153.6819 H   0  0  0  0  0  0  0  0  0  0  0  0  # atno 10765 bound_to 10752
  140.8552  134.2237  157.4738 H   0  0  0  0  0  0  0  0  0  0  0  0  # atno 11005 bound_to 11000
  145.5029  141.0437  143.2530 LP  0  0  0  0  0  0  0  0  0  0  0  0  # atno 17320 bound_to 7965
  144.7801  139.6544  143.7158 LP  0  0  0  0  0  0  0  0  0  0  0  0  # atno 17321 bound_to 7965
  140.2167  144.4508  150.6361 LP  0  0  0  0  0  0  0  0  0  0  0  0  # atno 17342 bound_to 10162
  140.6445  143.2210  151.6215 LP  0  0  0  0  0  0  0  0  0  0  0  0  # atno 17343 bound_to 10162
  155.9720  130.4144  150.4129 LP  0  0  0  0  0  0  0  0  0  0  0  0  # atno 17370 bound_to 10713
  157.2190  131.0478  151.2557 LP  0  0  0  0  0  0  0  0  0  0  0  0  # atno 17371 bound_to 10713
  139.8705  134.9703  156.4696 LP  0  0  0  0  0  0  0  0  0  0  0  0  # atno 17394 bound_to 11000
  140.8745  133.7963  155.9400 LP  0  0  0  0  0  0  0  0  0  0  0  0  # atno 17395 bound_to 11000

$$$$
