#       Name:                AV-unprocessed.smi:1018
#       Creating user name   scv26
#       Creation time:       Fri Mar 27 02:40:14 2020


#       File generated by GOLD software.
#

@<TRIPOS>MOLECULE
AV-unprocessed.smi:1018
    60    61     1
SMALL
NO_CHARGES


@<TRIPOS>ATOM
      1 ****        -6.3049   2.4253  -2.6364 C.3            1 S1                 0.0000
      2 ****        -5.1529   2.8013  -1.6989 C.3            1 S1                 0.0000
      3 ****        -4.0916   1.6880  -1.6105 C.3            1 S1                 0.0000
      4 ****        -3.0739   2.0443  -0.6317 N.3            1 S1                 0.0000
      5 ****        -2.0061   1.1378  -0.5955 C.ar           1 S1                 0.0000
      6 ****        -2.1543  -0.1625  -0.0610 C.ar           1 S1                 0.0000
      7 ****        -1.0406  -1.0231  -0.0610 C.ar           1 S1                 0.0000
      8 ****         0.1848  -0.5635  -0.5836 C.ar           1 S1                 0.0000
      9 ****         1.2877  -1.4596  -0.5836 N.am           1 S1                 0.0000
     10 ****         2.5980  -1.1730  -0.6670 C.2            1 S1                 0.0000
     11 ****         3.0763  -0.0416  -0.7424 O.2            1 S1                 0.0000
     12 ****         3.3386  -2.2896  -0.6294 N.am           1 S1                 0.0000
     13 ****         4.8005  -2.3481  -0.6778 C.3            1 S1                 0.0000
     14 ****         5.4701  -2.5313   0.7144 C.3            1 S1                 0.0000
     15 ****         6.9917  -2.6738   0.5000 C.3            1 S1                 0.0000
     16 ****         5.2241  -1.2808   1.5961 C.3            1 S1                 0.0000
     17 ****         4.9554  -3.8321   1.3842 C.2            1 S1                 0.0000
     18 ****         4.3820  -3.7572   2.5899 N.am           1 S1                 0.0000
     19 ****         5.0727  -4.9115   0.8062 O.2            1 S1                 0.0000
     20 ****         0.2241   0.7502  -1.1111 C.ar           1 S1                 0.0000
     21 ****        -0.8412   1.5798  -1.1161 N.ar           1 S1                 0.0000
     22 ****        -3.6379   2.3570   0.6749 C.3            1 S1                 0.0000
     23 ****        -4.7020   3.4621   0.5364 C.3            1 S1                 0.0000
     24 ****        -5.3959   3.7652   1.8683 C.3            1 S1                 0.0000
     25 ****        -5.6915   3.0379  -0.3993 O.3            1 S1                 0.0000
     26 ****        -5.9434   2.2440  -3.6489 H              1 S1                 0.0000
     27 ****        -7.0437   3.2255  -2.6858 H              1 S1                 0.0000
     28 ****        -6.8131   1.5231  -2.2953 H              1 S1                 0.0000
     29 ****        -4.6916   3.7199  -2.0661 H              1 S1                 0.0000
     30 ****        -4.5599   0.7453  -1.3238 H              1 S1                 0.0000
     31 ****        -3.6265   1.5344  -2.5852 H              1 S1                 0.0000
     32 ****        -3.1000  -0.4999   0.3368 H              1 S1                 0.0000
     33 ****        -1.1287  -2.0224   0.3396 H              1 S1                 0.0000
     34 ****         1.0549  -2.4320  -0.4449 H              1 S1                 0.0000
     35 ****         2.8564  -3.1741  -0.5612 H              1 S1                 0.0000
     36 ****         5.0643  -3.1807  -1.3313 H              1 S1                 0.0000
     37 ****         5.2000  -1.4604  -1.1714 H              1 S1                 0.0000
     38 ****         7.4113  -1.7773   0.0422 H              1 S1                 0.0000
     39 ****         7.2336  -3.5126  -0.1543 H              1 S1                 0.0000
     40 ****         7.5164  -2.8323   1.4433 H              1 S1                 0.0000
     41 ****         5.5592  -0.3752   1.0895 H              1 S1                 0.0000
     42 ****         5.7687  -1.3396   2.5394 H              1 S1                 0.0000
     43 ****         4.1691  -1.1415   1.8338 H              1 S1                 0.0000
     44 ****         4.0389  -4.5951   3.0368 H              1 S1                 0.0000
     45 ****         4.2911  -2.8617   3.0473 H              1 S1                 0.0000
     46 ****         1.1136   1.1590  -1.5642 H              1 S1                 0.0000
     47 ****        -4.0875   1.4630   1.1091 H              1 S1                 0.0000
     48 ****        -2.8440   2.6811   1.3491 H              1 S1                 0.0000
     49 ****        -4.2349   4.3789   0.1718 H              1 S1                 0.0000
     50 ****        -4.6782   4.1040   2.6156 H              1 S1                 0.0000
     51 ****        -5.8981   2.8811   2.2618 H              1 S1                 0.0000
     52 ****        -6.1451   4.5481   1.7478 H              1 S1                 0.0000
     53 ****        -2.6646   2.9000  -0.9482 LP             1 S1                 0.0000
     54 ****         2.4740   0.7567  -0.7448 LP             1 S1                 0.0000
     55 ****         4.0672   0.0794  -0.8013 LP             1 S1                 0.0000
     56 ****         5.5004  -4.9512  -0.0968 LP             1 S1                 0.0000
     57 ****         4.7403  -5.7493   1.2393 LP             1 S1                 0.0000
     58 ****        -0.7691   2.5015  -1.4971 LP             1 S1                 0.0000
     59 ****        -6.1058   2.1912  -0.0654 LP             1 S1                 0.0000
     60 ****        -6.3927   3.7476  -0.4677 LP             1 S1                 0.0000
@<TRIPOS>BOND
    1    1    2 1     
    2    1   26 1     
    3    1   27 1     
    4    1   28 1     
    5    2   25 1     
    6    2    3 1     
    7    2   29 1     
    8    3    4 1     
    9    3   30 1     
   10    3   31 1     
   11    4    5 1     
   12    4   22 1     
   13    5   21 ar    
   14    5    6 ar    
   15    6    7 ar    
   16    6   32 1     
   17    7    8 ar    
   18    7   33 1     
   19    8    9 1     
   20    8   20 ar    
   21    9   10 am    
   22    9   34 1     
   23   10   11 2     
   24   10   12 am    
   25   12   13 1     
   26   12   35 1     
   27   13   14 1     
   28   13   36 1     
   29   13   37 1     
   30   14   15 1     
   31   14   16 1     
   32   14   17 1     
   33   15   38 1     
   34   15   39 1     
   35   15   40 1     
   36   16   41 1     
   37   16   42 1     
   38   16   43 1     
   39   17   18 am    
   40   17   19 2     
   41   18   44 1     
   42   18   45 1     
   43   20   21 ar    
   44   20   46 1     
   45   22   23 1     
   46   22   47 1     
   47   22   48 1     
   48   23   24 1     
   49   23   25 1     
   50   23   49 1     
   51   24   50 1     
   52   24   51 1     
   53   24   52 1     
   54    4   53 1     
   55   11   54 1     
   56   11   55 1     
   57   19   56 1     
   58   19   57 1     
   59   21   58 1     
   60   25   59 1     
   61   25   60 1     
@<TRIPOS>SUBSTRUCTURE
      1 S1             1
@<TRIPOS>SET
LONE_PAIRS      STATIC     ATOMS    <user>   **** ""
8 53 54 55 56 57 58 59 60
DONOR_HYDROGENS      STATIC     ATOMS    <user>   **** ""
4 34 35 44 45
ATOM$BLUE        STATIC     ATOMS    COLORGROUP SYSTEM
8 53 54 55 56 57 58 59 60
ATOM$RED        STATIC     ATOMS    COLORGROUP SYSTEM
4 34 35 44 45
