AV-unprocessed.smi:2010|AV-procd|sdf|8150|dock1
  -GOLD-   2272010393D 1   1.00000     0.00000
 Structure written by MMmdl.
 41 42  0  0  0  0  0  0  0  0  1 V2000
  152.1496  144.8809  159.8312 C   0  0  0  0  0  0  0  0  0  0  0  0
  151.5691  143.6597  159.1044 C   0  0  0  0  0  0  0  0  0  0  0  0
  152.3268  142.3727  159.4580 C   0  0  0  0  0  0  0  0  0  0  0  0
  151.7381  141.1512  158.7328 C   0  0  0  0  0  0  0  0  0  0  0  0
  151.6763  141.3633  157.2728 N   0  0  0  0  0  0  0  0  0  0  0  0
  151.4701  139.9719  156.2601 S   0  0  0  0  0  0  0  0  0  0  0  0
  152.5230  139.9660  155.2327 O   0  0  0  0  0  0  0  0  0  0  0  0
  151.2226  138.7901  157.1001 O   0  0  0  0  0  0  0  0  0  0  0  0
  149.9876  140.4160  155.5051 N   0  0  0  0  0  0  0  0  0  0  0  0
  149.3981  139.5375  154.4928 C   0  0  1  0  0  0  0  0  0  0  0  0
  149.1945  138.1355  155.0870 C   0  0  0  0  0  0  0  0  0  0  0  0
  148.1162  140.1817  153.9242 C   0  0  0  0  0  0  0  0  0  0  0  0
  147.1777  139.2189  153.3707 N   0  0  0  0  0  0  0  0  0  0  0  0
  146.9066  138.9556  152.0442 C   0  0  0  0  0  0  0  0  0  0  0  0
  145.9551  137.9771  152.0093 C   0  0  0  0  0  0  0  0  0  0  0  0
  145.7080  137.6977  153.3825 C   0  0  0  0  0  0  0  0  0  0  0  0
  146.4422  138.4408  154.1948 N   0  0  0  0  0  0  0  0  0  0  0  0
  151.0100  142.6145  156.8591 C   0  0  0  0  0  0  0  0  0  0  0  0
  151.6009  143.8364  157.5804 C   0  0  0  0  0  0  0  0  0  0  0  0
  153.1921  145.0468  159.5573 H   0  0  0  0  0  0  0  0  0  0  0  0
  152.1052  144.7510  160.9127 H   0  0  0  0  0  0  0  0  0  0  0  0
  151.5925  145.7852  159.5847 H   0  0  0  0  0  0  0  0  0  0  0  0
  150.5302  143.5459  159.4173 H   0  0  0  0  0  0  0  0  0  0  0  0
  153.3798  142.4789  159.1929 H   0  0  0  0  0  0  0  0  0  0  0  0
  152.2969  142.2050  160.5350 H   0  0  0  0  0  0  0  0  0  0  0  0
  152.3475  140.2745  158.9518 H   0  0  0  0  0  0  0  0  0  0  0  0
  150.7343  140.9396  159.1030 H   0  0  0  0  0  0  0  0  0  0  0  0
  149.3039  140.7826  156.1666 H   0  0  0  0  0  0  0  0  0  0  0  0
  150.1071  139.4473  153.6688 H   0  0  0  0  0  0  0  0  0  0  0  0
  148.7510  137.4624  154.3530 H   0  0  0  0  0  0  0  0  0  0  0  0
  148.5400  138.1558  155.9587 H   0  0  0  0  0  0  0  0  0  0  0  0
  150.1455  137.7027  155.3986 H   0  0  0  0  0  0  0  0  0  0  0  0
  147.6048  140.7517  154.7012 H   0  0  0  0  0  0  0  0  0  0  0  0
  148.3785  140.8988  153.1449 H   0  0  0  0  0  0  0  0  0  0  0  0
  147.4059  139.4843  151.2456 H   0  0  0  0  0  0  0  0  0  0  0  0
  145.5052  137.5283  151.1363 H   0  0  0  0  0  0  0  0  0  0  0  0
  145.0223  136.9814  153.8105 H   0  0  0  0  0  0  0  0  0  0  0  0
  151.1118  142.7477  155.7821 H   0  0  0  0  0  0  0  0  0  0  0  0
  149.9425  142.5329  157.0676 H   0  0  0  0  0  0  0  0  0  0  0  0
  151.0453  144.7304  157.2953 H   0  0  0  0  0  0  0  0  0  0  0  0
  152.6279  143.9932  157.2469 H   0  0  0  0  0  0  0  0  0  0  0  0
  1  2  1  0  0  0  0
  1 20  1  0  0  0  0
  1 21  1  0  0  0  0
  1 22  1  0  0  0  0
  2 19  1  0  0  0  0
  2  3  1  0  0  0  0
  2 23  1  0  0  0  0
  3  4  1  0  0  0  0
  3 24  1  0  0  0  0
  3 25  1  0  0  0  0
  4  5  1  0  0  0  0
  4 26  1  0  0  0  0
  4 27  1  0  0  0  0
  5  6  1  0  0  0  0
  5 18  1  0  0  0  0
  6  7  2  0  0  0  0
  6  8  2  0  0  0  0
  6  9  1  0  0  0  0
  9 10  1  0  0  0  0
  9 28  1  0  0  0  0
 10 11  1  0  0  0  0
 10 12  1  0  0  0  0
 10 29  1  0  0  0  0
 11 30  1  0  0  0  0
 11 31  1  0  0  0  0
 11 32  1  0  0  0  0
 12 13  1  0  0  0  0
 12 33  1  0  0  0  0
 12 34  1  0  0  0  0
 13 17  1  0  0  0  0
 13 14  1  0  0  0  0
 14 15  2  0  0  0  0
 14 35  1  0  0  0  0
 15 16  1  0  0  0  0
 15 36  1  0  0  0  0
 16 17  2  0  0  0  0
 16 37  1  0  0  0  0
 18 19  1  0  0  0  0
 18 38  1  0  0  0  0
 18 39  1  0  0  0  0
 19 40  1  0  0  0  0
 19 41  1  0  0  0  0
M  END
> <s_m_source_file>
AV-unprocessed.smi

> <i_m_source_file_index>
2010

> <i_lp_mmshare_version>
43012

> <i_f3d_flags>
0

> <s_epik_input>
W0NIM11bQ0hdMVtDSDJdW0NIMl1OKFtDSDJdW0NIMl0xKVMoPU8pKD1PKVtOSF1bQ0BIXShbQ0gzXSlbQ0gyXW4yW2NIXVtjSF1bY0hdbjI=

> <s_epik_cmdline>
J2VwaWtfcHl0aG9uJywgJy1waCcsICc3LjAnLCAnLXRuJywgJzgnLCAnLW1hJywgJzIwMCcsICctbWV0YWxfYmluZGluZycsICctaW1hZScsICc8aW5maWxlLm1hZT4nLCAnLW9tYWUnLCAnPG91dGZpbGUubWFlPic=

> <r_lp_tautomer_probability>
1

> <r_epik_Ionization_Penalty>
0.0313937

> <r_epik_Ionization_Penalty_Charging>
0

> <r_epik_Ionization_Penalty_Neutral>
0.0313937

> <r_epik_State_Penalty>
0.0259441

> <r_epik_Charging_Adjusted_Penalty>
0.0259441

> <i_epik_Tot_Q>
0

> <i_epik_Tot_abs_Q>
0

> <r_epik_Metal_State_Penalty>
0.365037

> <b_epik_Metal_Only>
0

> <s_lp_Force_Field>
OPLS_2005

> <r_lp_Energy>
7.16397

> <b_lp_Chiralities_Consistent>
1

> <s_lp_Variant>
AV-unprocessed.smi:2010-2

> <Gold.Version>
5.8.1

> <Gold.Id.Protein>
6NUR|6NUR_protein|mol2

> <Gold.PLP.Fitness>
42.4980

> <Gold.PLP.PLP>
-36.4325

> <Gold.PLP.part.hbond>
-2.0000

> <Gold.PLP.part.metal>
0.0000

> <Gold.PLP.part.buried>
-0.3022

> <Gold.PLP.part.nonpolar>
-34.7825

> <Gold.PLP.part.repulsive>
0.1308

> <Gold.PLP.ligand.clash>
0.0000

> <Gold.PLP.ligand.torsion>
1.6659

> <Gold.PLP.Chemscore.Hbond>
1.4530

> <Gold.PLP.Chemscore.CHOScore>
0.9616

> <Gold.PLP.Chemscore.Metal>
0.0000

> <Gold.Chemscore.Hbonds>
donor molecule, donor type, donor heavy atom, donor atom, acceptor molecule, acceptor atom, score
      P1  H  7989  7998       L1     7  0.45
      P1  H  7997  8010       L1     7  0.98
      L1  C    14    35       P1  7957  0.96

> <Gold.PLP.Chemscore.Internal.Correction>
2.1534

> <Gold.Rescore>
     Score         DG    S(hbond)    S(metal)    S(lipo)     H(rot)  DE(clash)    DE(int)     intcor
     12.67     -16.97       1.17        0.00      99.57       1.59       0.24       4.06       ----

> <Gold.Chemscore.Fitness>
12.6676

> <Gold.Chemscore.DG>
-16.9654

> <Gold.Chemscore.ZeroCoef>
-5.4800

> <Gold.Chemscore.Hbond>
1.1697

> <Gold.Chemscore.Metal>
0.0000

> <Gold.Chemscore.Lipo>
99.5666

> <Gold.Chemscore.Internal_Hbond>
0.0000

> <Gold.Chemscore.DEClash>
0.2356

> <Gold.Chemscore.DEInternal>
4.0621

> <Gold.Chemscore.Rot>
1.5901

> <Gold.Chemscore.Internal.Correction>
   9.000000E+99

> <Gold.Chemscore.Hbonds>
donor molecule, donor type, donor heavy atom, donor atom, acceptor molecule, acceptor atom, score
      P1  H  7989  7998       L1     7  0.28
      P1  H  7997  8010       L1     7  0.79

> <Gold.Chemscore.Hbond.Weighted>
-3.9068

> <Gold.Chemscore.Metal.Weighted>
-0.0000

> <Gold.Chemscore.Lipo.Weighted>
-11.6493

> <Gold.Chemscore.Internal_Hbond.Weighted>
0.0000

> <Gold.Chemscore.DEClash.Weighted>
0.2356

> <Gold.Chemscore.DEInternal.Weighted>
4.0621

> <Gold.Chemscore.Rot.Weighted>
4.0707

> <Gold.Chemscore.Internal.Correction.Weighted>
   9.000000E+99

> <Gold.Protein.RotatedTorsions>
[ 6907 6896 6895 6894 ] final  -22.96 input  -60.11 | X-H torsion
[ 7974 7965 7964 7962 ] final   25.95 input  175.53 | X-H torsion
[ 8008 7997 7996 7995 ] final   97.46 input   59.86 | X-H torsion
[ 10167 10162 10161 10158 ] final  157.17 input  -65.29 | X-H torsion
[ 10718 10713 10712 10709 ] final  120.01 input   66.30 | X-H torsion
[ 10763 10752 10751 10750 ] final  129.53 input  -60.55 | X-H torsion
[ 11005 11000 10999 10996 ] final   70.05 input  -57.11 | X-H torsion

> <Gold.Protein.ActiveResidues>
 VAL166  LYS551  ARG553  GLY616  TRP617  ASP618  TYR619  PRO620  LYS621  CYS622 
 ASP623  PHE694  ASN695  SER759  ASP760  ASP761  ALA762  ILE779  LEU786  VAL792 
 PHE793  MET794  SER795  GLU796  ALA797  LYS798  CYS799  TRP800  GLU811  SER814 

> <Gold.Protein.RotatedAtoms>
  151.2109  135.0481  159.8910 H   0  0  0  0  0  0  0  0  0  0  0  0  # atno 6907 bound_to 6896
  152.5424  134.0746  159.8219 H   0  0  0  0  0  0  0  0  0  0  0  0  # atno 6908 bound_to 6896
  151.0899  133.5276  159.2647 H   0  0  0  0  0  0  0  0  0  0  0  0  # atno 6909 bound_to 6896
  146.1862  139.7395  142.8864 H   0  0  0  0  0  0  0  0  0  0  0  0  # atno 7974 bound_to 7965
  156.0903  140.3258  155.7808 H   0  0  0  0  0  0  0  0  0  0  0  0  # atno 8008 bound_to 7997
  155.5007  140.0569  157.2957 H   0  0  0  0  0  0  0  0  0  0  0  0  # atno 8009 bound_to 7997
  154.4634  140.1977  156.0199 H   0  0  0  0  0  0  0  0  0  0  0  0  # atno 8010 bound_to 7997
  139.4822  144.4942  151.8264 H   0  0  0  0  0  0  0  0  0  0  0  0  # atno 10167 bound_to 10162
  157.5921  131.1063  150.7977 H   0  0  0  0  0  0  0  0  0  0  0  0  # atno 10718 bound_to 10713
  153.7433  135.3221  155.3308 H   0  0  0  0  0  0  0  0  0  0  0  0  # atno 10763 bound_to 10752
  154.8288  135.4550  154.1005 H   0  0  0  0  0  0  0  0  0  0  0  0  # atno 10764 bound_to 10752
  153.2186  135.6945  153.8109 H   0  0  0  0  0  0  0  0  0  0  0  0  # atno 10765 bound_to 10752
  139.9619  134.7046  156.0627 H   0  0  0  0  0  0  0  0  0  0  0  0  # atno 11005 bound_to 11000
  145.3930  141.0375  143.3113 LP  0  0  0  0  0  0  0  0  0  0  0  0  # atno 17320 bound_to 7965
  144.8402  139.5484  143.6903 LP  0  0  0  0  0  0  0  0  0  0  0  0  # atno 17321 bound_to 7965
  140.4429  144.1961  150.5892 LP  0  0  0  0  0  0  0  0  0  0  0  0  # atno 17342 bound_to 10162
  140.4664  143.2429  151.9149 LP  0  0  0  0  0  0  0  0  0  0  0  0  # atno 17343 bound_to 10162
  156.8396  130.5043  149.5322 LP  0  0  0  0  0  0  0  0  0  0  0  0  # atno 17370 bound_to 10713
  156.0977  130.5945  150.9842 LP  0  0  0  0  0  0  0  0  0  0  0  0  # atno 17371 bound_to 10713
  141.1297  133.6590  156.3431 LP  0  0  0  0  0  0  0  0  0  0  0  0  # atno 17394 bound_to 11000
  140.5481  134.6055  157.5399 LP  0  0  0  0  0  0  0  0  0  0  0  0  # atno 17395 bound_to 11000

$$$$
