AV-unprocessed.smi:2947|AV-procd|sdf|11282|dock1
  -GOLD-   2272016173D 1   1.00000     0.00000
 Structure written by MMmdl.
 33 34  0  0  0  0  0  0  0  0  1 V2000
  150.6821  140.7274  156.5672 O   0  0  0  0  0  0  0  0  0  0  0  0
  150.2009  141.8169  156.2542 C   0  0  0  0  0  0  0  0  0  0  0  0
  149.2371  142.0070  155.3359 N   0  0  0  0  0  0  0  0  0  0  0  0
  148.5776  141.0326  154.5400 C   0  0  0  0  0  0  0  0  0  0  0  0
  147.5160  141.5257  153.7481 C   0  0  0  0  0  0  0  0  0  0  0  0
  146.7977  140.6394  152.9221 C   0  0  0  0  0  0  0  0  0  0  0  0
  147.1602  139.2807  152.9088 C   0  0  0  0  0  0  0  0  0  0  0  0
  148.2292  138.8718  153.7273 C   0  0  0  0  0  0  0  0  0  0  0  0
  148.9187  139.7195  154.5198 N   0  0  0  0  0  0  0  0  0  0  0  0
  150.5838  142.9795  156.8025 N   0  0  0  0  0  0  0  0  0  0  0  0
  151.6104  143.1304  157.8297 C   0  0  0  0  0  0  0  0  0  0  0  0
  151.4954  142.0092  158.8835 C   0  0  0  0  0  0  0  0  0  0  0  0
  152.5176  142.1952  160.0165 C   0  0  0  0  0  0  0  0  0  0  0  0
  152.3822  143.5800  160.6689 C   0  0  0  0  0  0  0  0  0  0  0  0
  152.5032  144.6993  159.6230 C   0  0  0  0  0  0  0  0  0  0  0  0
  151.4803  144.5164  158.4898 C   0  0  0  0  0  0  0  0  0  0  0  0
  148.9410  142.9604  155.1879 H   0  0  0  0  0  0  0  0  0  0  0  0
  147.2510  142.5728  153.7700 H   0  0  0  0  0  0  0  0  0  0  0  0
  145.9836  140.9971  152.3094 H   0  0  0  0  0  0  0  0  0  0  0  0
  146.6336  138.5706  152.2886 H   0  0  0  0  0  0  0  0  0  0  0  0
  148.5392  137.8374  153.7464 H   0  0  0  0  0  0  0  0  0  0  0  0
  150.1335  143.8254  156.4854 H   0  0  0  0  0  0  0  0  0  0  0  0
  152.5942  143.0718  157.3591 H   0  0  0  0  0  0  0  0  0  0  0  0
  150.4885  141.9986  159.3036 H   0  0  0  0  0  0  0  0  0  0  0  0
  151.6444  141.0350  158.4163 H   0  0  0  0  0  0  0  0  0  0  0  0
  152.3859  141.4156  160.7673 H   0  0  0  0  0  0  0  0  0  0  0  0
  153.5265  142.0751  159.6203 H   0  0  0  0  0  0  0  0  0  0  0  0
  151.4182  143.6537  161.1738 H   0  0  0  0  0  0  0  0  0  0  0  0
  153.1451  143.7052  161.4379 H   0  0  0  0  0  0  0  0  0  0  0  0
  152.3611  145.6698  160.0992 H   0  0  0  0  0  0  0  0  0  0  0  0
  153.5117  144.7037  159.2073 H   0  0  0  0  0  0  0  0  0  0  0  0
  151.6165  145.3005  157.7441 H   0  0  0  0  0  0  0  0  0  0  0  0
  150.4733  144.6427  158.8906 H   0  0  0  0  0  0  0  0  0  0  0  0
  1  2  2  0  0  0  0
  2  3  1  0  0  0  0
  2 10  1  0  0  0  0
  3  4  1  0  0  0  0
  3 17  1  0  0  0  0
  4  9  1  0  0  0  0
  4  5  2  0  0  0  0
  5  6  1  0  0  0  0
  5 18  1  0  0  0  0
  6  7  2  0  0  0  0
  6 19  1  0  0  0  0
  7  8  1  0  0  0  0
  7 20  1  0  0  0  0
  8  9  2  0  0  0  0
  8 21  1  0  0  0  0
 10 11  1  0  0  0  0
 10 22  1  0  0  0  0
 11 16  1  0  0  0  0
 11 12  1  0  0  0  0
 11 23  1  0  0  0  0
 12 13  1  0  0  0  0
 12 24  1  0  0  0  0
 12 25  1  0  0  0  0
 13 14  1  0  0  0  0
 13 26  1  0  0  0  0
 13 27  1  0  0  0  0
 14 15  1  0  0  0  0
 14 28  1  0  0  0  0
 14 29  1  0  0  0  0
 15 16  1  0  0  0  0
 15 30  1  0  0  0  0
 15 31  1  0  0  0  0
 16 32  1  0  0  0  0
 16 33  1  0  0  0  0
M  END
> <s_m_source_file>
AV-unprocessed.smi

> <i_m_source_file_index>
2947

> <i_lp_mmshare_version>
43012

> <i_f3d_flags>
0

> <s_epik_input>
W0NIMl0xW0NIMl1bQ0gyXVtDSDJdW0NIMl1bQ0hdMVtOSF1DKD1PKVtOSF1jMltjSF1bY0hdW2NIXVtjSF1uMg==

> <s_epik_cmdline>
J2VwaWtfcHl0aG9uJywgJy1waCcsICc3LjAnLCAnLXRuJywgJzgnLCAnLW1hJywgJzIwMCcsICctbWV0YWxfYmluZGluZycsICctaW1hZScsICc8aW5maWxlLm1hZT4nLCAnLW9tYWUnLCAnPG91dGZpbGUubWFlPic=

> <r_lp_tautomer_probability>
1

> <r_epik_Ionization_Penalty>
5.26121e-05

> <r_epik_Ionization_Penalty_Charging>
0

> <r_epik_Ionization_Penalty_Neutral>
5.26121e-05

> <r_epik_State_Penalty>
-0

> <r_epik_Charging_Adjusted_Penalty>
0

> <i_epik_Tot_Q>
0

> <i_epik_Tot_abs_Q>
0

> <r_epik_Metal_State_Penalty>
-0

> <b_epik_Metal_Only>
0

> <s_lp_Force_Field>
OPLS_2005

> <r_lp_Energy>
11.3585

> <b_lp_Chiralities_Consistent>
1

> <s_lp_Variant>
AV-unprocessed.smi:2947-1

> <Gold.Version>
5.8.1

> <Gold.Id.Protein>
6NUR|6NUR_protein|mol2

> <Gold.PLP.Fitness>
43.9562

> <Gold.PLP.PLP>
-35.4601

> <Gold.PLP.part.hbond>
-2.0000

> <Gold.PLP.part.metal>
0.0000

> <Gold.PLP.part.buried>
-2.8252

> <Gold.PLP.part.nonpolar>
-30.6947

> <Gold.PLP.part.repulsive>
0.3521

> <Gold.PLP.ligand.clash>
0.0000

> <Gold.PLP.ligand.torsion>
0.2462

> <Gold.PLP.Chemscore.Hbond>
2.0000

> <Gold.PLP.Chemscore.CHOScore>
0.9950

> <Gold.PLP.Chemscore.Metal>
0.0000

> <Gold.Chemscore.Hbonds>
donor molecule, donor type, donor heavy atom, donor atom, acceptor molecule, acceptor atom, score
      L1  H     3    17       P1  8028  1.00
      L1  H    10    22       P1  8028  1.00
      L1  C     8    21       P1  7948  1.00

> <Gold.PLP.Chemscore.Internal.Correction>
0.0034

> <Gold.Rescore>
     Score         DG    S(hbond)    S(metal)    S(lipo)     H(rot)  DE(clash)    DE(int)     intcor
     17.70     -20.68       1.94        0.00      96.50       1.00       0.05       2.92       ----

> <Gold.Chemscore.Fitness>
17.7018

> <Gold.Chemscore.DG>
-20.6753

> <Gold.Chemscore.ZeroCoef>
-5.4800

> <Gold.Chemscore.Hbond>
1.9356

> <Gold.Chemscore.Metal>
0.0000

> <Gold.Chemscore.Lipo>
96.4980

> <Gold.Chemscore.Internal_Hbond>
0.0000

> <Gold.Chemscore.DEClash>
0.0489

> <Gold.Chemscore.DEInternal>
2.9246

> <Gold.Chemscore.Rot>
1.0000

> <Gold.Chemscore.Internal.Correction>
   9.000000E+99

> <Gold.Chemscore.Hbonds>
donor molecule, donor type, donor heavy atom, donor atom, acceptor molecule, acceptor atom, score
      L1  H     3    17       P1  8028  0.97
      L1  H    10    22       P1  8028  0.98

> <Gold.Chemscore.Hbond.Weighted>
-6.4650

> <Gold.Chemscore.Metal.Weighted>
-0.0000

> <Gold.Chemscore.Lipo.Weighted>
-11.2903

> <Gold.Chemscore.Internal_Hbond.Weighted>
0.0000

> <Gold.Chemscore.DEClash.Weighted>
0.0489

> <Gold.Chemscore.DEInternal.Weighted>
2.9246

> <Gold.Chemscore.Rot.Weighted>
2.5600

> <Gold.Chemscore.Internal.Correction.Weighted>
   9.000000E+99

> <Gold.Protein.RotatedTorsions>
[ 6907 6896 6895 6894 ] final  -55.77 input  -60.11 | X-H torsion
[ 7974 7965 7964 7962 ] final  144.05 input  175.53 | X-H torsion
[ 8008 7997 7996 7995 ] final  -20.44 input   59.86 | X-H torsion
[ 10167 10162 10161 10158 ] final  131.42 input  -65.29 | X-H torsion
[ 10718 10713 10712 10709 ] final  104.47 input   66.30 | X-H torsion
[ 10763 10752 10751 10750 ] final -141.58 input  -60.55 | X-H torsion
[ 11005 11000 10999 10996 ] final   37.43 input  -57.11 | X-H torsion

> <Gold.Protein.ActiveResidues>
 VAL166  LYS551  ARG553  GLY616  TRP617  ASP618  TYR619  PRO620  LYS621  CYS622 
 ASP623  PHE694  ASN695  SER759  ASP760  ASP761  ALA762  ILE779  LEU786  VAL792 
 PHE793  MET794  SER795  GLU796  ALA797  LYS798  CYS799  TRP800  GLU811  SER814 

> <Gold.Protein.RotatedAtoms>
  150.8223  134.7437  159.6782 H   0  0  0  0  0  0  0  0  0  0  0  0  # atno 6907 bound_to 6896
  152.4337  134.5724  159.9934 H   0  0  0  0  0  0  0  0  0  0  0  0  # atno 6908 bound_to 6896
  151.5905  133.3329  159.3062 H   0  0  0  0  0  0  0  0  0  0  0  0  # atno 6909 bound_to 6896
  144.8868  139.5617  143.5817 H   0  0  0  0  0  0  0  0  0  0  0  0  # atno 7974 bound_to 7965
  154.4770  140.2062  155.9855 H   0  0  0  0  0  0  0  0  0  0  0  0  # atno 8008 bound_to 7997
  156.1105  140.3230  155.8035 H   0  0  0  0  0  0  0  0  0  0  0  0  # atno 8009 bound_to 7997
  155.4644  140.0526  157.2978 H   0  0  0  0  0  0  0  0  0  0  0  0  # atno 8010 bound_to 7997
  139.5385  144.6707  151.4705 H   0  0  0  0  0  0  0  0  0  0  0  0  # atno 10167 bound_to 10162
  157.6739  131.0804  150.5711 H   0  0  0  0  0  0  0  0  0  0  0  0  # atno 10718 bound_to 10713
  154.8540  135.3520  154.5891 H   0  0  0  0  0  0  0  0  0  0  0  0  # atno 10763 bound_to 10752
  153.6501  135.6994  153.5216 H   0  0  0  0  0  0  0  0  0  0  0  0  # atno 10764 bound_to 10752
  153.2901  135.4237  155.1117 H   0  0  0  0  0  0  0  0  0  0  0  0  # atno 10765 bound_to 10752
  140.2226  134.3622  155.7998 H   0  0  0  0  0  0  0  0  0  0  0  0  # atno 11005 bound_to 11000
  146.3029  139.7486  142.9078 LP  0  0  0  0  0  0  0  0  0  0  0  0  # atno 17320 bound_to 7965
  145.3854  141.0364  143.3154 LP  0  0  0  0  0  0  0  0  0  0  0  0  # atno 17321 bound_to 7965
  140.6603  143.8512  150.6880 LP  0  0  0  0  0  0  0  0  0  0  0  0  # atno 17342 bound_to 10162
  140.1905  143.4040  152.1867 LP  0  0  0  0  0  0  0  0  0  0  0  0  # atno 17343 bound_to 10162
  156.6012  130.4355  149.5896 LP  0  0  0  0  0  0  0  0  0  0  0  0  # atno 17370 bound_to 10713
  156.2505  130.6904  151.1640 LP  0  0  0  0  0  0  0  0  0  0  0  0  # atno 17371 bound_to 10713
  141.2222  133.7202  156.8601 LP  0  0  0  0  0  0  0  0  0  0  0  0  # atno 17394 bound_to 11000
  140.1833  134.9017  157.2975 LP  0  0  0  0  0  0  0  0  0  0  0  0  # atno 17395 bound_to 11000

$$$$
