AV-unprocessed.smi:550|AV-procd|sdf|2895|dock7
  -GOLD-   2262023393D 1   1.00000     0.00000
 Structure written by MMmdl.
 45 47  0  0  0  0  0  0  0  0  1 V2000
  146.3828  139.3755  153.6242 O   0  0  0  0  0  0  0  0  0  0  0  0
  147.2202  138.5776  153.2027 C   0  0  0  0  0  0  0  0  0  0  0  0
  146.9180  137.5444  152.4054 N   0  0  0  0  0  0  0  0  0  0  0  0
  145.5713  137.2247  151.9464 C   0  0  0  0  0  0  0  0  0  0  0  0
  145.5316  135.8627  151.2323 C   0  0  1  0  0  0  0  0  0  0  0  0
  146.1628  134.7399  152.0789 C   0  0  0  0  0  0  0  0  0  0  0  0
  145.8414  133.3944  151.4221 C   0  0  0  0  0  0  0  0  0  0  0  0
  144.1641  133.5851  150.7143 S   0  0  0  0  0  0  0  0  0  0  0  0
  144.1914  133.1851  149.2992 O   0  0  0  0  0  0  0  0  0  0  0  0
  143.1740  133.0187  151.6425 O   0  0  0  0  0  0  0  0  0  0  0  0
  144.1128  135.4150  150.8367 C   0  0  0  0  0  0  0  0  0  0  0  0
  148.5395  138.6345  153.4536 N   0  0  0  0  0  0  0  0  0  0  0  0
  149.2301  139.5373  154.3064 C   0  0  0  0  0  0  0  0  0  0  0  0
  148.8467  140.8831  154.5087 C   0  0  0  0  0  0  0  0  0  0  0  0
  149.5920  141.6785  155.3995 C   0  0  0  0  0  0  0  0  0  0  0  0
  150.6971  141.1087  156.0748 C   0  0  0  0  0  0  0  0  0  0  0  0
  151.4706  141.8744  156.9697 N   0  0  0  0  0  0  0  0  0  0  0  0
  152.0210  141.3062  158.1902 C   0  0  0  0  0  0  0  0  0  0  0  0
  152.6567  142.4919  158.9146 C   0  0  0  0  0  0  0  0  0  0  0  0
  151.7563  143.6623  158.5192 C   0  0  0  0  0  0  0  0  0  0  0  0
  151.2865  143.3131  157.1020 C   0  0  0  0  0  0  0  0  0  0  0  0
  151.0587  139.8173  155.8842 N   0  0  0  0  0  0  0  0  0  0  0  0
  150.3392  139.0579  155.0317 C   0  0  0  0  0  0  0  0  0  0  0  0
  147.6650  136.9397  152.0969 H   0  0  0  0  0  0  0  0  0  0  0  0
  144.8857  137.2085  152.7955 H   0  0  0  0  0  0  0  0  0  0  0  0
  145.2296  138.0157  151.2773 H   0  0  0  0  0  0  0  0  0  0  0  0
  146.1183  135.9384  150.3152 H   0  0  0  0  0  0  0  0  0  0  0  0
  147.2380  134.8778  152.1968 H   0  0  0  0  0  0  0  0  0  0  0  0
  145.7278  134.7559  153.0791 H   0  0  0  0  0  0  0  0  0  0  0  0
  146.5326  133.1890  150.6043 H   0  0  0  0  0  0  0  0  0  0  0  0
  145.8658  132.5582  152.1209 H   0  0  0  0  0  0  0  0  0  0  0  0
  143.3883  135.6752  151.6090 H   0  0  0  0  0  0  0  0  0  0  0  0
  143.7800  135.8432  149.8913 H   0  0  0  0  0  0  0  0  0  0  0  0
  149.1212  137.9811  152.9495 H   0  0  0  0  0  0  0  0  0  0  0  0
  147.9916  141.3149  154.0118 H   0  0  0  0  0  0  0  0  0  0  0  0
  149.3077  142.7092  155.5496 H   0  0  0  0  0  0  0  0  0  0  0  0
  151.2158  140.8762  158.7875 H   0  0  0  0  0  0  0  0  0  0  0  0
  152.7510  140.5244  157.9775 H   0  0  0  0  0  0  0  0  0  0  0  0
  152.7209  142.3458  159.9931 H   0  0  0  0  0  0  0  0  0  0  0  0
  153.6657  142.6594  158.5353 H   0  0  0  0  0  0  0  0  0  0  0  0
  150.8967  143.7012  159.1897 H   0  0  0  0  0  0  0  0  0  0  0  0
  152.2636  144.6259  158.5705 H   0  0  0  0  0  0  0  0  0  0  0  0
  151.9004  143.8171  156.3550 H   0  0  0  0  0  0  0  0  0  0  0  0
  150.2480  143.6107  156.9524 H   0  0  0  0  0  0  0  0  0  0  0  0
  150.6656  138.0340  154.9220 H   0  0  0  0  0  0  0  0  0  0  0  0
  1  2  2  0  0  0  0
  2  3  1  0  0  0  0
  2 12  1  0  0  0  0
  3  4  1  0  0  0  0
  3 24  1  0  0  0  0
  4  5  1  0  0  0  0
  4 25  1  0  0  0  0
  4 26  1  0  0  0  0
  5 11  1  0  0  0  0
  5  6  1  0  0  0  0
  5 27  1  0  0  0  0
  6  7  1  0  0  0  0
  6 28  1  0  0  0  0
  6 29  1  0  0  0  0
  7  8  1  0  0  0  0
  7 30  1  0  0  0  0
  7 31  1  0  0  0  0
  8  9  2  0  0  0  0
  8 10  2  0  0  0  0
  8 11  1  0  0  0  0
 11 32  1  0  0  0  0
 11 33  1  0  0  0  0
 12 13  1  0  0  0  0
 12 34  1  0  0  0  0
 13 23  1  0  0  0  0
 13 14  2  0  0  0  0
 14 15  1  0  0  0  0
 14 35  1  0  0  0  0
 15 16  2  0  0  0  0
 15 36  1  0  0  0  0
 16 17  1  0  0  0  0
 16 22  1  0  0  0  0
 17 21  1  0  0  0  0
 17 18  1  0  0  0  0
 18 19  1  0  0  0  0
 18 37  1  0  0  0  0
 18 38  1  0  0  0  0
 19 20  1  0  0  0  0
 19 39  1  0  0  0  0
 19 40  1  0  0  0  0
 20 21  1  0  0  0  0
 20 41  1  0  0  0  0
 20 42  1  0  0  0  0
 21 43  1  0  0  0  0
 21 44  1  0  0  0  0
 22 23  2  0  0  0  0
 23 45  1  0  0  0  0
M  END
> <s_m_source_file>
AV-unprocessed.smi

> <i_m_source_file_index>
550

> <i_lp_mmshare_version>
43012

> <i_f3d_flags>
0

> <s_epik_input>
Tz1TMSg9TylbQ0gyXVtDSDJdW0NASF0oW0NIMl0xKVtDSDJdW05IXUMoPU8pW05IXWMyW2NIXVtjSF1jKG5bY0hdMilOM1tDSDJdW0NIMl1bQ0gyXVtDSDJdMw==

> <s_epik_cmdline>
J2VwaWtfcHl0aG9uJywgJy1waCcsICc3LjAnLCAnLXRuJywgJzgnLCAnLW1hJywgJzIwMCcsICctbWV0YWxfYmluZGluZycsICctaW1hZScsICc8aW5maWxlLm1hZT4nLCAnLW9tYWUnLCAnPG91dGZpbGUubWFlPic=

> <r_lp_tautomer_probability>
1

> <r_epik_Ionization_Penalty>
0.0965651

> <r_epik_Ionization_Penalty_Charging>
0

> <r_epik_Ionization_Penalty_Neutral>
0.0965651

> <r_epik_State_Penalty>
0.0861592

> <r_epik_Charging_Adjusted_Penalty>
0.0861592

> <i_epik_Tot_Q>
0

> <i_epik_Tot_abs_Q>
0

> <r_epik_Metal_State_Penalty>
0.0740405

> <b_epik_Metal_Only>
0

> <s_lp_Force_Field>
OPLS_2005

> <r_lp_Energy>
33.1318

> <b_lp_Chiralities_Consistent>
1

> <s_lp_Variant>
AV-unprocessed.smi:550-2

> <Gold.Version>
5.8.1

> <Gold.Id.Protein>
6NUR|6NUR_protein|mol2

> <Gold.PLP.Fitness>
45.1583

> <Gold.PLP.PLP>
-41.0486

> <Gold.PLP.part.hbond>
-2.8104

> <Gold.PLP.part.metal>
0.0000

> <Gold.PLP.part.buried>
-3.7013

> <Gold.PLP.part.nonpolar>
-36.4528

> <Gold.PLP.part.repulsive>
1.4887

> <Gold.PLP.ligand.clash>
0.0000

> <Gold.PLP.ligand.torsion>
0.5970

> <Gold.PLP.Chemscore.Hbond>
1.7022

> <Gold.PLP.Chemscore.CHOScore>
0.0000

> <Gold.PLP.Chemscore.Metal>
0.0000

> <Gold.Chemscore.Hbonds>
donor molecule, donor type, donor heavy atom, donor atom, acceptor molecule, acceptor atom, score
      L1  H     3    24       P1  7948  0.86
      L1  H    12    34       P1  7948  0.81

> <Gold.PLP.Chemscore.Internal.Correction>
0.1970

> <Gold.Rescore>
     Score         DG    S(hbond)    S(metal)    S(lipo)     H(rot)  DE(clash)    DE(int)     intcor
     17.34     -19.21       1.73        0.00      95.26       1.25       0.36       1.51       ----

> <Gold.Chemscore.Fitness>
17.3390

> <Gold.Chemscore.DG>
-19.2085

> <Gold.Chemscore.ZeroCoef>
-5.4800

> <Gold.Chemscore.Hbond>
1.7321

> <Gold.Chemscore.Metal>
0.0000

> <Gold.Chemscore.Lipo>
95.2558

> <Gold.Chemscore.Internal_Hbond>
0.0000

> <Gold.Chemscore.DEClash>
0.3565

> <Gold.Chemscore.DEInternal>
1.5129

> <Gold.Chemscore.Rot>
1.2506

> <Gold.Chemscore.Internal.Correction>
   9.000000E+99

> <Gold.Chemscore.Hbonds>
donor molecule, donor type, donor heavy atom, donor atom, acceptor molecule, acceptor atom, score
      L1  H     3    24       P1  7948  0.84
      L1  H    12    34       P1  7948  0.75

> <Gold.Chemscore.Hbond.Weighted>
-5.7852

> <Gold.Chemscore.Metal.Weighted>
-0.0000

> <Gold.Chemscore.Lipo.Weighted>
-11.1449

> <Gold.Chemscore.Internal_Hbond.Weighted>
0.0000

> <Gold.Chemscore.DEClash.Weighted>
0.3565

> <Gold.Chemscore.DEInternal.Weighted>
1.5129

> <Gold.Chemscore.Rot.Weighted>
3.2016

> <Gold.Chemscore.Internal.Correction.Weighted>
   9.000000E+99

> <Gold.Protein.RotatedTorsions>
[ 6907 6896 6895 6894 ] final -174.59 input  -60.11 | X-H torsion
[ 7974 7965 7964 7962 ] final    3.92 input  175.53 | X-H torsion
[ 8008 7997 7996 7995 ] final   34.11 input   59.86 | X-H torsion
[ 10167 10162 10161 10158 ] final -117.45 input  -65.29 | X-H torsion
[ 10718 10713 10712 10709 ] final   39.10 input   66.30 | X-H torsion
[ 10763 10752 10751 10750 ] final -155.32 input  -60.55 | X-H torsion
[ 11005 11000 10999 10996 ] final  -25.53 input  -57.11 | X-H torsion

> <Gold.Protein.ActiveResidues>
 VAL166  LYS551  ARG553  GLY616  TRP617  ASP618  TYR619  PRO620  LYS621  CYS622 
 ASP623  PHE694  ASN695  SER759  ASP760  ASP761  ALA762  ILE779  LEU786  VAL792 
 PHE793  MET794  SER795  GLU796  ALA797  LYS798  CYS799  TRP800  GLU811  SER814 

> <Gold.Protein.RotatedAtoms>
  151.5748  133.3385  159.2996 H   0  0  0  0  0  0  0  0  0  0  0  0  # atno 6907 bound_to 6896
  150.8347  134.7618  159.6894 H   0  0  0  0  0  0  0  0  0  0  0  0  # atno 6908 bound_to 6896
  152.4425  134.5568  159.9934 H   0  0  0  0  0  0  0  0  0  0  0  0  # atno 6909 bound_to 6896
  146.2445  140.0612  142.8368 H   0  0  0  0  0  0  0  0  0  0  0  0  # atno 7974 bound_to 7965
  155.1495  140.3273  155.4434 H   0  0  0  0  0  0  0  0  0  0  0  0  # atno 8008 bound_to 7997
  156.2579  140.1979  156.6558 H   0  0  0  0  0  0  0  0  0  0  0  0  # atno 8009 bound_to 7997
  154.6483  140.0561  156.9913 H   0  0  0  0  0  0  0  0  0  0  0  0  # atno 8010 bound_to 7997
  140.0682  143.4902  152.1994 H   0  0  0  0  0  0  0  0  0  0  0  0  # atno 10167 bound_to 10162
  157.3666  130.7678  149.7087 H   0  0  0  0  0  0  0  0  0  0  0  0  # atno 10718 bound_to 10713
  154.7795  135.3170  154.8019 H   0  0  0  0  0  0  0  0  0  0  0  0  # atno 10763 bound_to 10752
  153.8734  135.6842  153.4777 H   0  0  0  0  0  0  0  0  0  0  0  0  # atno 10764 bound_to 10752
  153.1428  135.4732  154.9458 H   0  0  0  0  0  0  0  0  0  0  0  0  # atno 10765 bound_to 10752
  140.8946  133.7565  156.0465 H   0  0  0  0  0  0  0  0  0  0  0  0  # atno 11005 bound_to 11000
  145.0898  140.9277  143.4776 LP  0  0  0  0  0  0  0  0  0  0  0  0  # atno 17320 bound_to 7965
  145.0782  139.2979  143.5797 LP  0  0  0  0  0  0  0  0  0  0  0  0  # atno 17321 bound_to 7965
  139.5852  144.7528  151.3539 LP  0  0  0  0  0  0  0  0  0  0  0  0  # atno 17342 bound_to 10162
  140.7138  143.7319  150.7617 LP  0  0  0  0  0  0  0  0  0  0  0  0  # atno 17343 bound_to 10162
  155.9747  130.4099  150.3902 LP  0  0  0  0  0  0  0  0  0  0  0  0  # atno 17370 bound_to 10713
  157.1987  131.0433  151.2662 LP  0  0  0  0  0  0  0  0  0  0  0  0  # atno 17371 bound_to 10713
  140.8305  134.3184  157.5350 LP  0  0  0  0  0  0  0  0  0  0  0  0  # atno 17394 bound_to 11000
  139.8734  134.9360  156.3650 LP  0  0  0  0  0  0  0  0  0  0  0  0  # atno 17395 bound_to 11000

$$$$
