AV-unprocessed.smi:3327|AV-procd|sdf|12788|dock9
  -GOLD-   2272019133D 1   1.00000     0.00000
 Structure written by MMmdl.
 41 42  0  0  0  0  0  0  0  0  2 V2000
  150.9708  138.5076  159.2431 C   0  0  0  0  0  0  0  0  0  0  0  0
  151.0995  139.0546  157.8148 C   0  0  1  0  0  0  0  0  0  0  0  0
  152.2698  138.3904  157.0572 C   0  0  0  0  0  0  0  0  0  0  0  0
  152.3336  138.8410  155.5858 C   0  0  0  0  0  0  0  0  0  0  0  0
  150.9634  138.6834  154.9041 C   0  0  0  0  0  0  0  0  0  0  0  0
  149.9658  139.4412  155.6716 N   0  0  0  0  0  0  0  0  0  0  0  0
  149.3519  140.5770  155.2591 C   0  0  0  0  0  0  0  0  0  0  0  0
  149.5474  141.0631  154.1437 O   0  0  0  0  0  0  0  0  0  0  0  0
  148.3744  141.2835  156.2113 C   0  0  0  0  0  0  0  0  0  0  0  0
  149.0376  142.3073  157.0447 N   0  3  0  0  0  0  0  0  0  0  0  0
  150.4539  142.0188  157.3477 C   0  0  0  0  0  0  0  0  0  0  0  0
  151.3424  143.2560  157.1403 C   0  0  0  0  0  0  0  0  0  0  0  0
  151.6602  143.9205  158.3915 N   0  0  0  0  0  0  0  0  0  0  0  0
  152.4110  143.4470  159.4468 C   0  0  0  0  0  0  0  0  0  0  0  0
  152.4395  144.4274  160.3968 C   0  0  0  0  0  0  0  0  0  0  0  0
  151.6656  145.4756  159.8250 C   0  0  0  0  0  0  0  0  0  0  0  0
  151.2032  145.1703  158.6230 N   0  0  0  0  0  0  0  0  0  0  0  0
  149.7866  138.8871  157.0205 C   0  0  0  0  0  0  0  0  0  0  0  0
  150.7529  137.4392  159.2408 H   0  0  0  0  0  0  0  0  0  0  0  0
  150.1687  139.0096  159.7847 H   0  0  0  0  0  0  0  0  0  0  0  0
  151.8925  138.6585  159.8057 H   0  0  0  0  0  0  0  0  0  0  0  0
  151.3108  140.1225  157.8903 H   0  0  0  0  0  0  0  0  0  0  0  0
  153.2154  138.6095  157.5543 H   0  0  0  0  0  0  0  0  0  0  0  0
  152.1505  137.3064  157.0888 H   0  0  0  0  0  0  0  0  0  0  0  0
  152.6493  139.8839  155.5351 H   0  0  0  0  0  0  0  0  0  0  0  0
  153.0875  138.2623  155.0516 H   0  0  0  0  0  0  0  0  0  0  0  0
  151.0359  138.9795  153.8591 H   0  0  0  0  0  0  0  0  0  0  0  0
  150.6762  137.6309  154.8872 H   0  0  0  0  0  0  0  0  0  0  0  0
  147.5841  141.7606  155.6302 H   0  0  0  0  0  0  0  0  0  0  0  0
  147.9142  140.5435  156.8673 H   0  0  0  0  0  0  0  0  0  0  0  0
  148.9880  143.1925  156.5597 H   0  0  0  0  0  0  0  0  0  0  0  0
  150.5288  141.6843  158.3831 H   0  0  0  0  0  0  0  0  0  0  0  0
  150.8049  141.1980  156.7206 H   0  0  0  0  0  0  0  0  0  0  0  0
  152.2696  142.9883  156.6309 H   0  0  0  0  0  0  0  0  0  0  0  0
  150.8302  143.9729  156.4974 H   0  0  0  0  0  0  0  0  0  0  0  0
  152.8584  142.4635  159.4343 H   0  0  0  0  0  0  0  0  0  0  0  0
  152.9360  144.3996  161.3555 H   0  0  0  0  0  0  0  0  0  0  0  0
  151.4291  146.4428  160.2436 H   0  0  0  0  0  0  0  0  0  0  0  0
  149.5231  137.8309  156.9436 H   0  0  0  0  0  0  0  0  0  0  0  0
  148.9629  139.3560  157.5606 H   0  0  0  0  0  0  0  0  0  0  0  0
  148.5294  142.3937  157.9133 H   0  0  0  0  0  0  0  0  0  0  0  0
  1  2  1  0  0  0  0
  1 19  1  0  0  0  0
  1 20  1  0  0  0  0
  1 21  1  0  0  0  0
  2 18  1  0  0  0  0
  2  3  1  0  0  0  0
  2 22  1  0  0  0  0
  3  4  1  0  0  0  0
  3 23  1  0  0  0  0
  3 24  1  0  0  0  0
  4  5  1  0  0  0  0
  4 25  1  0  0  0  0
  4 26  1  0  0  0  0
  5  6  1  0  0  0  0
  5 27  1  0  0  0  0
  5 28  1  0  0  0  0
  6  7  1  0  0  0  0
  6 18  1  0  0  0  0
  7  8  2  0  0  0  0
  7  9  1  0  0  0  0
  9 10  1  0  0  0  0
  9 29  1  0  0  0  0
  9 30  1  0  0  0  0
 10 11  1  0  0  0  0
 10 31  1  0  0  0  0
 10 41  1  0  0  0  0
 11 12  1  0  0  0  0
 11 32  1  0  0  0  0
 11 33  1  0  0  0  0
 12 13  1  0  0  0  0
 12 34  1  0  0  0  0
 12 35  1  0  0  0  0
 13 17  1  0  0  0  0
 13 14  1  0  0  0  0
 14 15  2  0  0  0  0
 14 36  1  0  0  0  0
 15 16  1  0  0  0  0
 15 37  1  0  0  0  0
 16 17  2  0  0  0  0
 16 38  1  0  0  0  0
 18 39  1  0  0  0  0
 18 40  1  0  0  0  0
M  CHG  1  10   1
M  END
> <s_m_source_file>
AV-unprocessed.smi

> <i_m_source_file_index>
3327

> <i_lp_mmshare_version>
43012

> <i_f3d_flags>
0

> <s_epik_input>
W0NIM11bQ0BASF0xW0NIMl1bQ0gyXVtDSDJdTihbQ0gyXTEpQyg9TylbQ0gyXVtOSF1bQ0gyXVtDSDJdbjJbY0hdW2NIXVtjSF1uMg==

> <s_epik_cmdline>
J2VwaWtfcHl0aG9uJywgJy1waCcsICc3LjAnLCAnLXRuJywgJzgnLCAnLW1hJywgJzIwMCcsICctbWV0YWxfYmluZGluZycsICctaW1hZScsICc8aW5maWxlLm1hZT4nLCAnLW9tYWUnLCAnPG91dGZpbGUubWFlPic=

> <r_lp_tautomer_probability>
1

> <r_epik_Ionization_Penalty>
0.195801

> <r_epik_Ionization_Penalty_Charging>
0.195799

> <r_epik_Ionization_Penalty_Neutral>
2.33113e-06

> <r_epik_State_Penalty>
0.185548

> <r_epik_Charging_Adjusted_Penalty>
0.381347

> <i_epik_Tot_Q>
1

> <i_epik_Tot_abs_Q>
1

> <r_epik_Metal_State_Penalty>
0.186014

> <b_epik_Metal_Only>
0

> <s_lp_Force_Field>
OPLS_2005

> <r_lp_Energy>
21.4811

> <b_lp_Chiralities_Consistent>
1

> <s_lp_Variant>
AV-unprocessed.smi:3327-2

> <Gold.Version>
5.8.1

> <Gold.Id.Protein>
6NUR|6NUR_protein|mol2

> <Gold.PLP.Fitness>
43.5718

> <Gold.PLP.PLP>
-37.1903

> <Gold.PLP.part.hbond>
-3.0000

> <Gold.PLP.part.metal>
0.0000

> <Gold.PLP.part.buried>
-4.5557

> <Gold.PLP.part.nonpolar>
-30.0557

> <Gold.PLP.part.repulsive>
0.6378

> <Gold.PLP.ligand.clash>
0.0000

> <Gold.PLP.ligand.torsion>
1.2047

> <Gold.PLP.Chemscore.Hbond>
2.9200

> <Gold.PLP.Chemscore.CHOScore>
0.0000

> <Gold.PLP.Chemscore.Metal>
0.0000

> <Gold.Chemscore.Hbonds>
donor molecule, donor type, donor heavy atom, donor atom, acceptor molecule, acceptor atom, score
      L1  H    10    31       P1  8028  2.00
      P1  H  7989  7998       L1     8  0.30
      P1  H  8011  8017       L1     8  0.33

> <Gold.PLP.Chemscore.Internal.Correction>
0.0311

> <Gold.Rescore>
     Score         DG    S(hbond)    S(metal)    S(lipo)     H(rot)  DE(clash)    DE(int)     intcor
     15.69     -17.55       1.83        0.00      90.36       1.80       0.59       1.28       ----

> <Gold.Chemscore.Fitness>
15.6877

> <Gold.Chemscore.DG>
-17.5537

> <Gold.Chemscore.ZeroCoef>
-5.4800

> <Gold.Chemscore.Hbond>
1.8264

> <Gold.Chemscore.Metal>
0.0000

> <Gold.Chemscore.Lipo>
90.3576

> <Gold.Chemscore.Internal_Hbond>
0.0000

> <Gold.Chemscore.DEClash>
0.5907

> <Gold.Chemscore.DEInternal>
1.2753

> <Gold.Chemscore.Rot>
1.7963

> <Gold.Chemscore.Internal.Correction>
   9.000000E+99

> <Gold.Chemscore.Hbonds>
donor molecule, donor type, donor heavy atom, donor atom, acceptor molecule, acceptor atom, score
      L1  H    10    31       P1  8028  0.98
      P1  H  7989  7998       L1     8  0.26
      P1  H  8011  8017       L1     8  0.32

> <Gold.Chemscore.Hbond.Weighted>
-6.1003

> <Gold.Chemscore.Metal.Weighted>
-0.0000

> <Gold.Chemscore.Lipo.Weighted>
-10.5718

> <Gold.Chemscore.Internal_Hbond.Weighted>
0.0000

> <Gold.Chemscore.DEClash.Weighted>
0.5907

> <Gold.Chemscore.DEInternal.Weighted>
1.2753

> <Gold.Chemscore.Rot.Weighted>
4.5985

> <Gold.Chemscore.Internal.Correction.Weighted>
   9.000000E+99

> <Gold.Protein.RotatedTorsions>
[ 6907 6896 6895 6894 ] final -116.74 input  -60.11 | X-H torsion
[ 7974 7965 7964 7962 ] final   24.69 input  175.53 | X-H torsion
[ 8008 7997 7996 7995 ] final -113.73 input   59.86 | X-H torsion
[ 10167 10162 10161 10158 ] final   -9.18 input  -65.29 | X-H torsion
[ 10718 10713 10712 10709 ] final   93.73 input   66.30 | X-H torsion
[ 10763 10752 10751 10750 ] final  -52.15 input  -60.55 | X-H torsion
[ 11005 11000 10999 10996 ] final -164.94 input  -57.11 | X-H torsion

> <Gold.Protein.ActiveResidues>
 VAL166  LYS551  ARG553  GLY616  TRP617  ASP618  TYR619  PRO620  LYS621  CYS622 
 ASP623  PHE694  ASN695  SER759  ASP760  ASP761  ALA762  ILE779  LEU786  VAL792 
 PHE793  MET794  SER795  GLU796  ALA797  LYS798  CYS799  TRP800  GLU811  SER814 

> <Gold.Protein.RotatedAtoms>
  150.8080  133.8474  159.3195 H   0  0  0  0  0  0  0  0  0  0  0  0  # atno 6907 bound_to 6896
  151.6267  135.1025  160.0122 H   0  0  0  0  0  0  0  0  0  0  0  0  # atno 6908 bound_to 6896
  152.4171  133.7016  159.6484 H   0  0  0  0  0  0  0  0  0  0  0  0  # atno 6909 bound_to 6896
  146.1925  139.7569  142.8821 H   0  0  0  0  0  0  0  0  0  0  0  0  # atno 7974 bound_to 7965
  155.0253  140.0393  157.2453 H   0  0  0  0  0  0  0  0  0  0  0  0  # atno 8008 bound_to 7997
  154.7343  140.2736  155.6405 H   0  0  0  0  0  0  0  0  0  0  0  0  # atno 8009 bound_to 7997
  156.2849  140.2678  156.2052 H   0  0  0  0  0  0  0  0  0  0  0  0  # atno 8010 bound_to 7997
  140.7080  143.5886  150.8917 H   0  0  0  0  0  0  0  0  0  0  0  0  # atno 10167 bound_to 10162
  157.6953  131.0488  150.4078 H   0  0  0  0  0  0  0  0  0  0  0  0  # atno 10718 bound_to 10713
  154.1381  135.6509  153.4936 H   0  0  0  0  0  0  0  0  0  0  0  0  # atno 10763 bound_to 10752
  153.0174  135.5309  154.6932 H   0  0  0  0  0  0  0  0  0  0  0  0  # atno 10764 bound_to 10752
  154.6186  135.2962  155.0322 H   0  0  0  0  0  0  0  0  0  0  0  0  # atno 10765 bound_to 10752
  140.5813  134.5139  157.5178 H   0  0  0  0  0  0  0  0  0  0  0  0  # atno 11005 bound_to 11000
  145.3747  141.0348  143.3211 LP  0  0  0  0  0  0  0  0  0  0  0  0  # atno 17320 bound_to 7965
  144.8515  139.5315  143.6854 LP  0  0  0  0  0  0  0  0  0  0  0  0  # atno 17321 bound_to 7965
  139.9612  143.6162  152.3002 LP  0  0  0  0  0  0  0  0  0  0  0  0  # atno 17342 bound_to 10162
  139.6715  144.7660  151.1774 LP  0  0  0  0  0  0  0  0  0  0  0  0  # atno 17343 bound_to 10162
  156.4465  130.4002  149.6663 LP  0  0  0  0  0  0  0  0  0  0  0  0  # atno 17370 bound_to 10713
  156.3828  130.7588  151.2582 LP  0  0  0  0  0  0  0  0  0  0  0  0  # atno 17371 bound_to 10713
  139.9316  134.7953  156.0915 LP  0  0  0  0  0  0  0  0  0  0  0  0  # atno 17394 bound_to 11000
  141.0995  133.6683  156.2721 LP  0  0  0  0  0  0  0  0  0  0  0  0  # atno 17395 bound_to 11000

$$$$
