AV-unprocessed.smi:1967|AV-procd|sdf|7955|dock4
  -GOLD-   2272010123D 1   1.00000     0.00000
 Structure written by MMmdl.
 36 37  0  0  0  0  0  0  0  0  2 V2000
  153.9903  136.1978  157.3354 O   0  0  0  0  0  0  0  0  0  0  0  0
  153.0115  137.1480  157.8889 S   0  0  0  0  0  0  0  0  0  0  0  0
  152.1370  136.6770  158.9754 O   0  0  0  0  0  0  0  0  0  0  0  0
  153.6302  138.6226  158.1561 N   0  5  0  0  0  0  0  0  0  0  0  0
  152.9619  139.5030  159.0981 C   0  0  0  0  0  0  0  0  0  0  0  0
  151.9266  140.3761  158.3571 C   0  0  0  0  0  0  0  0  0  0  0  0
  151.9756  141.8543  158.7306 C   0  0  0  0  0  0  0  0  0  0  0  0
  152.8702  142.3154  159.7235 C   0  0  0  0  0  0  0  0  0  0  0  0
  152.8865  143.6889  160.0326 C   0  0  0  0  0  0  0  0  0  0  0  0
  152.0167  144.5513  159.3383 C   0  0  0  0  0  0  0  0  0  0  0  0
  151.1665  143.9988  158.3601 C   0  0  0  0  0  0  0  0  0  0  0  0
  151.1428  142.6838  158.0552 N   0  0  0  0  0  0  0  0  0  0  0  0
  151.9644  137.5944  156.5755 N   0  0  0  0  0  0  0  0  0  0  0  0
  152.4067  138.6681  155.6611 C   0  0  0  0  0  0  0  0  0  0  0  0
  151.2205  139.2742  154.8935 C   0  0  0  0  0  0  0  0  0  0  0  0
  150.4222  138.1919  154.1599 C   0  0  0  0  0  0  0  0  0  0  0  0
  149.9637  137.1317  155.1658 C   0  0  0  0  0  0  0  0  0  0  0  0
  151.1566  136.5370  155.9324 C   0  0  0  0  0  0  0  0  0  0  0  0
  152.4580  138.9389  159.8835 H   0  0  0  0  0  0  0  0  0  0  0  0
  153.6732  140.1547  159.6067 H   0  0  0  0  0  0  0  0  0  0  0  0
  152.0739  140.2885  157.2796 H   0  0  0  0  0  0  0  0  0  0  0  0
  150.9205  140.0016  158.5537 H   0  0  0  0  0  0  0  0  0  0  0  0
  153.5249  141.6290  160.2406 H   0  0  0  0  0  0  0  0  0  0  0  0
  153.5543  144.0739  160.7890 H   0  0  0  0  0  0  0  0  0  0  0  0
  152.0017  145.6103  159.5493 H   0  0  0  0  0  0  0  0  0  0  0  0
  150.4880  144.6307  157.8063 H   0  0  0  0  0  0  0  0  0  0  0  0
  152.9107  139.4522  156.2257 H   0  0  0  0  0  0  0  0  0  0  0  0
  153.1402  138.2598  154.9648 H   0  0  0  0  0  0  0  0  0  0  0  0
  150.5680  139.8025  155.5897 H   0  0  0  0  0  0  0  0  0  0  0  0
  151.5807  140.0181  154.1827 H   0  0  0  0  0  0  0  0  0  0  0  0
  149.5613  138.6329  153.6565 H   0  0  0  0  0  0  0  0  0  0  0  0
  151.0404  137.7313  153.3882 H   0  0  0  0  0  0  0  0  0  0  0  0
  149.2619  137.5760  155.8728 H   0  0  0  0  0  0  0  0  0  0  0  0
  149.4221  136.3381  154.6506 H   0  0  0  0  0  0  0  0  0  0  0  0
  151.7947  135.9660  155.2566 H   0  0  0  0  0  0  0  0  0  0  0  0
  150.7910  135.8394  156.6853 H   0  0  0  0  0  0  0  0  0  0  0  0
  1  2  2  0  0  0  0
  2  3  2  0  0  0  0
  2  4  1  0  0  0  0
  2 13  1  0  0  0  0
  4  5  1  0  0  0  0
  5  6  1  0  0  0  0
  5 19  1  0  0  0  0
  5 20  1  0  0  0  0
  6  7  1  0  0  0  0
  6 21  1  0  0  0  0
  6 22  1  0  0  0  0
  7 12  1  0  0  0  0
  7  8  2  0  0  0  0
  8  9  1  0  0  0  0
  8 23  1  0  0  0  0
  9 10  2  0  0  0  0
  9 24  1  0  0  0  0
 10 11  1  0  0  0  0
 10 25  1  0  0  0  0
 11 12  2  0  0  0  0
 11 26  1  0  0  0  0
 13 18  1  0  0  0  0
 13 14  1  0  0  0  0
 14 15  1  0  0  0  0
 14 27  1  0  0  0  0
 14 28  1  0  0  0  0
 15 16  1  0  0  0  0
 15 29  1  0  0  0  0
 15 30  1  0  0  0  0
 16 17  1  0  0  0  0
 16 31  1  0  0  0  0
 16 32  1  0  0  0  0
 17 18  1  0  0  0  0
 17 33  1  0  0  0  0
 17 34  1  0  0  0  0
 18 35  1  0  0  0  0
 18 36  1  0  0  0  0
M  CHG  1   4  -1
M  END
> <s_m_source_file>
AV-unprocessed.smi

> <i_m_source_file_index>
1967

> <i_lp_mmshare_version>
43012

> <i_f3d_flags>
0

> <s_epik_input>
W0NIMl0xW0NIMl1bQ0gyXVtDSDJdW0NIMl1OMVMoPU8pKD1PKVtOSF1bQ0gyXVtDSDJdYzJbY0hdW2NIXVtjSF1bY0hdbjI=

> <s_epik_cmdline>
J2VwaWtfcHl0aG9uJywgJy1waCcsICc3LjAnLCAnLXRuJywgJzgnLCAnLW1hJywgJzIwMCcsICctbWV0YWxfYmluZGluZycsICctaW1hZScsICc8aW5maWxlLm1hZT4nLCAnLW9tYWUnLCAnPG91dGZpbGUubWFlPic=

> <r_epik_Ionization_Penalty>
2.02944

> <r_epik_Ionization_Penalty_Charging>
1.95606

> <r_epik_Ionization_Penalty_Neutral>
0.0733798

> <r_epik_State_Penalty>
2.47711

> <r_epik_Charging_Adjusted_Penalty>
4.43317

> <i_epik_Tot_Q>
-1

> <i_epik_Tot_abs_Q>
1

> <r_epik_Metal_State_Penalty>
0.729901

> <b_epik_Metal_Only>
0

> <s_lp_Force_Field>
OPLS_2005

> <r_lp_Energy>
6.94762

> <b_lp_Chiralities_Consistent>
1

> <s_lp_Variant>
AV-unprocessed.smi:1967-2

> <Gold.Version>
5.8.1

> <Gold.Id.Protein>
6NUR|6NUR_protein|mol2

> <Gold.PLP.Fitness>
48.2992

> <Gold.PLP.PLP>
-35.0099

> <Gold.PLP.part.hbond>
-3.0000

> <Gold.PLP.part.metal>
0.0000

> <Gold.PLP.part.buried>
-3.9226

> <Gold.PLP.part.nonpolar>
-29.2679

> <Gold.PLP.part.repulsive>
0.0905

> <Gold.PLP.ligand.clash>
0.0000

> <Gold.PLP.ligand.torsion>
2.1738

> <Gold.PLP.Chemscore.Hbond>
3.8160

> <Gold.PLP.Chemscore.CHOScore>
1.0264

> <Gold.PLP.Chemscore.Metal>
0.0000

> <Gold.Chemscore.Hbonds>
donor molecule, donor type, donor heavy atom, donor atom, acceptor molecule, acceptor atom, score
      P1  H  6896  6908       L1     3  0.85
      P1  H  7997  8010       L1     4  1.85
      P1  H 10752 10764       L1     1  0.75
      L1  C    11    26       P1  8028  0.73

> <Gold.PLP.Chemscore.Internal.Correction>
3.1097

> <Gold.Rescore>
     Score         DG    S(hbond)    S(metal)    S(lipo)     H(rot)  DE(clash)    DE(int)     intcor
     19.16     -21.35       2.43        0.00      94.74       1.30       0.03       2.15       ----

> <Gold.Chemscore.Fitness>
19.1643

> <Gold.Chemscore.DG>
-21.3452

> <Gold.Chemscore.ZeroCoef>
-5.4800

> <Gold.Chemscore.Hbond>
2.4275

> <Gold.Chemscore.Metal>
0.0000

> <Gold.Chemscore.Lipo>
94.7412

> <Gold.Chemscore.Internal_Hbond>
0.0000

> <Gold.Chemscore.DEClash>
0.0274

> <Gold.Chemscore.DEInternal>
2.1535

> <Gold.Chemscore.Rot>
1.2997

> <Gold.Chemscore.Internal.Correction>
   9.000000E+99

> <Gold.Chemscore.Hbonds>
donor molecule, donor type, donor heavy atom, donor atom, acceptor molecule, acceptor atom, score
      P1  H  6896  6908       L1     3  0.85
      P1  H  7997  8010       L1     4  0.23
      P1  H 10752 10764       L1     1  0.74

> <Gold.Chemscore.Hbond.Weighted>
-8.1078

> <Gold.Chemscore.Metal.Weighted>
-0.0000

> <Gold.Chemscore.Lipo.Weighted>
-11.0847

> <Gold.Chemscore.Internal_Hbond.Weighted>
0.0000

> <Gold.Chemscore.DEClash.Weighted>
0.0274

> <Gold.Chemscore.DEInternal.Weighted>
2.1535

> <Gold.Chemscore.Rot.Weighted>
3.3273

> <Gold.Chemscore.Internal.Correction.Weighted>
   9.000000E+99

> <Gold.Protein.RotatedTorsions>
[ 6907 6896 6895 6894 ] final -118.64 input  -60.11 | X-H torsion
[ 7974 7965 7964 7962 ] final -129.67 input  175.53 | X-H torsion
[ 8008 7997 7996 7995 ] final   39.48 input   59.86 | X-H torsion
[ 10167 10162 10161 10158 ] final  103.21 input  -65.29 | X-H torsion
[ 10718 10713 10712 10709 ] final  -20.17 input   66.30 | X-H torsion
[ 10763 10752 10751 10750 ] final   10.93 input  -60.55 | X-H torsion
[ 11005 11000 10999 10996 ] final   24.33 input  -57.11 | X-H torsion

> <Gold.Protein.ActiveResidues>
 VAL166  LYS551  ARG553  GLY616  TRP617  ASP618  TYR619  PRO620  LYS621  CYS622 
 ASP623  PHE694  ASN695  SER759  ASP760  ASP761  ALA762  ILE779  LEU786  VAL792 
 PHE793  MET794  SER795  GLU796  ALA797  LYS798  CYS799  TRP800  GLU811  SER814 

> <Gold.Protein.RotatedAtoms>
  150.8237  133.8209  159.3127 H   0  0  0  0  0  0  0  0  0  0  0  0  # atno 6907 bound_to 6896
  151.5959  135.1049  160.0059 H   0  0  0  0  0  0  0  0  0  0  0  0  # atno 6908 bound_to 6896
  152.4324  133.7260  159.6617 H   0  0  0  0  0  0  0  0  0  0  0  0  # atno 6909 bound_to 6896
  144.9549  140.7384  143.4765 H   0  0  0  0  0  0  0  0  0  0  0  0  # atno 7974 bound_to 7965
  155.2374  140.3343  155.4296 H   0  0  0  0  0  0  0  0  0  0  0  0  # atno 8008 bound_to 7997
  156.2270  140.1833  156.7383 H   0  0  0  0  0  0  0  0  0  0  0  0  # atno 8009 bound_to 7997
  154.5915  140.0637  156.9230 H   0  0  0  0  0  0  0  0  0  0  0  0  # atno 8010 bound_to 7997
  139.7283  144.7042  151.0762 H   0  0  0  0  0  0  0  0  0  0  0  0  # atno 10167 bound_to 10162
  156.5355  130.4665  149.6525 H   0  0  0  0  0  0  0  0  0  0  0  0  # atno 10718 bound_to 10713
  153.1979  135.6852  153.8268 H   0  0  0  0  0  0  0  0  0  0  0  0  # atno 10763 bound_to 10752
  153.7545  135.3219  155.3328 H   0  0  0  0  0  0  0  0  0  0  0  0  # atno 10764 bound_to 10752
  154.8155  135.4688  154.0732 H   0  0  0  0  0  0  0  0  0  0  0  0  # atno 10765 bound_to 10752
  140.3599  134.2136  155.7673 H   0  0  0  0  0  0  0  0  0  0  0  0  # atno 11005 bound_to 11000
  145.2788  139.1926  143.4802 LP  0  0  0  0  0  0  0  0  0  0  0  0  # atno 17320 bound_to 7965
  146.3334  140.2746  142.8607 LP  0  0  0  0  0  0  0  0  0  0  0  0  # atno 17321 bound_to 7965
  140.7767  143.5076  150.9692 LP  0  0  0  0  0  0  0  0  0  0  0  0  # atno 17342 bound_to 10162
  139.8764  143.7127  152.3161 LP  0  0  0  0  0  0  0  0  0  0  0  0  # atno 17343 bound_to 10162
  156.3020  130.7182  151.2055 LP  0  0  0  0  0  0  0  0  0  0  0  0  # atno 17370 bound_to 10713
  157.7414  131.0504  150.5097 LP  0  0  0  0  0  0  0  0  0  0  0  0  # atno 17371 bound_to 10713
  141.1987  133.8029  157.0570 LP  0  0  0  0  0  0  0  0  0  0  0  0  # atno 17394 bound_to 11000
  140.0635  134.9742  157.1345 LP  0  0  0  0  0  0  0  0  0  0  0  0  # atno 17395 bound_to 11000

$$$$
