AV-unprocessed.smi:910|AV-procd|sdf|4135|dock6
  -GOLD-   22720 2 43D 1   1.00000     0.00000
 Structure written by MMmdl.
 45 46  0  0  0  0  0  0  0  0  2 V2000
  155.0152  142.9208  168.0356 C   0  0  0  0  0  0  0  0  0  0  0  0
  155.3232  142.4358  166.6538 C   0  0  0  0  0  0  0  0  0  0  0  0
  155.8260  141.1669  166.4083 N   0  0  0  0  0  0  0  0  0  0  0  0
  155.9690  141.0815  165.0845 C   0  0  0  0  0  0  0  0  0  0  0  0
  156.4292  140.0207  164.4016 N   0  5  0  0  0  0  0  0  0  0  0  0
  155.8293  139.6545  163.2464 C   0  0  0  0  0  0  0  0  0  0  0  0
  155.1268  138.6555  163.0729 O   0  0  0  0  0  0  0  0  0  0  0  0
  156.0551  140.4972  162.2282 N   0  0  0  0  0  0  0  0  0  0  0  0
  155.5233  140.3637  160.8757 C   0  0  0  0  0  0  0  0  0  0  0  0
  153.9893  140.3138  160.8774 C   0  0  0  0  0  0  0  0  0  0  0  0
  153.5034  141.0213  159.7460 O   0  0  0  0  0  0  0  0  0  0  0  0
  152.4922  141.9741  160.0454 C   0  0  1  0  0  0  0  0  0  0  0  0
  152.9964  142.9039  161.1694 C   0  0  0  0  0  0  0  0  0  0  0  0
  152.0034  144.0412  161.4493 C   0  0  0  0  0  0  0  0  0  0  0  0
  151.7067  144.8393  160.1719 C   0  0  0  0  0  0  0  0  0  0  0  0
  151.1985  143.9193  159.0515 C   0  0  0  0  0  0  0  0  0  0  0  0
  152.1874  142.7731  158.7582 C   0  0  2  0  0  0  0  0  0  0  0  0
  151.6497  141.8660  157.6396 C   0  0  0  0  0  0  0  0  0  0  0  0
  155.5973  142.2322  164.4540 O   0  0  0  0  0  0  0  0  0  0  0  0
  155.1888  143.0751  165.4507 C   0  0  0  0  0  0  0  0  0  0  0  0
  154.7080  144.4308  165.0597 C   0  0  0  0  0  0  0  0  0  0  0  0
  155.6158  143.7949  168.2867 H   0  0  0  0  0  0  0  0  0  0  0  0
  155.2184  142.1543  168.7841 H   0  0  0  0  0  0  0  0  0  0  0  0
  153.9658  143.2014  168.1272 H   0  0  0  0  0  0  0  0  0  0  0  0
  156.6331  141.3040  162.4128 H   0  0  0  0  0  0  0  0  0  0  0  0
  155.8695  141.2076  160.2788 H   0  0  0  0  0  0  0  0  0  0  0  0
  155.9282  139.4661  160.4058 H   0  0  0  0  0  0  0  0  0  0  0  0
  153.6535  139.2777  160.8219 H   0  0  0  0  0  0  0  0  0  0  0  0
  153.5980  140.7285  161.8068 H   0  0  0  0  0  0  0  0  0  0  0  0
  151.5773  141.4710  160.3655 H   0  0  0  0  0  0  0  0  0  0  0  0
  153.1677  142.3405  162.0863 H   0  0  0  0  0  0  0  0  0  0  0  0
  153.9614  143.3269  160.8866 H   0  0  0  0  0  0  0  0  0  0  0  0
  151.0763  143.6278  161.8479 H   0  0  0  0  0  0  0  0  0  0  0  0
  152.4034  144.7036  162.2174 H   0  0  0  0  0  0  0  0  0  0  0  0
  150.9689  145.6143  160.3804 H   0  0  0  0  0  0  0  0  0  0  0  0
  152.6109  145.3530  159.8424 H   0  0  0  0  0  0  0  0  0  0  0  0
  150.2294  143.5059  159.3350 H   0  0  0  0  0  0  0  0  0  0  0  0
  151.0301  144.5064  158.1482 H   0  0  0  0  0  0  0  0  0  0  0  0
  153.1196  143.2177  158.4060 H   0  0  0  0  0  0  0  0  0  0  0  0
  150.7241  141.3734  157.9394 H   0  0  0  0  0  0  0  0  0  0  0  0
  152.3690  141.0899  157.3774 H   0  0  0  0  0  0  0  0  0  0  0  0
  151.4443  142.4387  156.7352 H   0  0  0  0  0  0  0  0  0  0  0  0
  154.5473  145.0572  165.9373 H   0  0  0  0  0  0  0  0  0  0  0  0
  153.7661  144.3630  164.5156 H   0  0  0  0  0  0  0  0  0  0  0  0
  155.4352  144.9282  164.4179 H   0  0  0  0  0  0  0  0  0  0  0  0
  1 22  1  0  0  0  0
  1 23  1  0  0  0  0
  1 24  1  0  0  0  0
  1  2  1  0  0  0  0
  2  3  1  0  0  0  0
  2 20  2  0  0  0  0
  3  4  2  0  0  0  0
  4 19  1  0  0  0  0
  4  5  1  0  0  0  0
  5  6  1  0  0  0  0
  6  8  1  0  0  0  0
  6  7  2  0  0  0  0
  8  9  1  0  0  0  0
  8 25  1  0  0  0  0
  9 10  1  0  0  0  0
  9 26  1  0  0  0  0
  9 27  1  0  0  0  0
 10 11  1  0  0  0  0
 10 28  1  0  0  0  0
 10 29  1  0  0  0  0
 11 12  1  0  0  0  0
 12 17  1  0  0  0  0
 12 13  1  0  0  0  0
 12 30  1  0  0  0  0
 13 14  1  0  0  0  0
 13 31  1  0  0  0  0
 13 32  1  0  0  0  0
 14 15  1  0  0  0  0
 14 33  1  0  0  0  0
 14 34  1  0  0  0  0
 15 16  1  0  0  0  0
 15 35  1  0  0  0  0
 15 36  1  0  0  0  0
 16 17  1  0  0  0  0
 16 37  1  0  0  0  0
 16 38  1  0  0  0  0
 17 18  1  0  0  0  0
 17 39  1  0  0  0  0
 18 40  1  0  0  0  0
 18 41  1  0  0  0  0
 18 42  1  0  0  0  0
 19 20  1  0  0  0  0
 20 21  1  0  0  0  0
 21 43  1  0  0  0  0
 21 44  1  0  0  0  0
 21 45  1  0  0  0  0
M  CHG  1   5  -1
M  END
> <s_m_source_file>
AV-unprocessed.smi

> <i_m_source_file_index>
910

> <i_lp_mmshare_version>
43012

> <i_f3d_flags>
0

> <s_epik_input>
W0NIM11jMW5jKG9jMVtDSDNdKVtOSF1DKD1PKVtOSF1bQ0gyXVtDSDJdT1tDQEBIXTJbQ0gyXVtDSDJdW0NIMl1bQ0gyXVtDQEhdMltDSDNd

> <s_epik_cmdline>
J2VwaWtfcHl0aG9uJywgJy1waCcsICc3LjAnLCAnLXRuJywgJzgnLCAnLW1hJywgJzIwMCcsICctbWV0YWxfYmluZGluZycsICctaW1hZScsICc8aW5maWxlLm1hZT4nLCAnLW9tYWUnLCAnPG91dGZpbGUubWFlPic=

> <r_lp_tautomer_probability>
0.107061

> <r_epik_Ionization_Penalty>
10.1763

> <r_epik_Ionization_Penalty_Charging>
7.13067

> <r_epik_Ionization_Penalty_Neutral>
3.04564

> <r_epik_State_Penalty>
5.57927

> <r_epik_Charging_Adjusted_Penalty>
12.7099

> <i_epik_Tot_Q>
-1

> <i_epik_Tot_abs_Q>
1

> <r_epik_Metal_State_Penalty>
1.52303

> <b_epik_Metal_Only>
1

> <s_lp_Force_Field>
OPLS_2005

> <r_lp_Energy>
4.71828

> <b_lp_Chiralities_Consistent>
1

> <s_lp_Variant>
AV-unprocessed.smi:910-20

> <Gold.Version>
5.8.1

> <Gold.Id.Protein>
6NUR|6NUR_protein|mol2

> <Gold.PLP.Fitness>
44.5631

> <Gold.PLP.PLP>
-47.7959

> <Gold.PLP.part.hbond>
-2.0000

> <Gold.PLP.part.metal>
0.0000

> <Gold.PLP.part.buried>
-7.9003

> <Gold.PLP.part.nonpolar>
-37.3669

> <Gold.PLP.part.repulsive>
0.0251

> <Gold.PLP.ligand.clash>
0.0000

> <Gold.PLP.ligand.torsion>
1.6441

> <Gold.PLP.Chemscore.Hbond>
0.0000

> <Gold.PLP.Chemscore.CHOScore>
0.0000

> <Gold.PLP.Chemscore.Metal>
0.0000

> <Gold.PLP.Chemscore.Internal.Correction>
0.0554

> <Gold.Rescore>
     Score         DG    S(hbond)    S(metal)    S(lipo)     H(rot)  DE(clash)    DE(int)     intcor
     13.01     -15.94       0.00        0.00     124.78       1.62       0.08       2.85       ----

> <Gold.Chemscore.Fitness>
13.0101

> <Gold.Chemscore.DG>
-15.9397

> <Gold.Chemscore.ZeroCoef>
-5.4800

> <Gold.Chemscore.Hbond>
0.0000

> <Gold.Chemscore.Metal>
0.0000

> <Gold.Chemscore.Lipo>
124.7776

> <Gold.Chemscore.Internal_Hbond>
0.0000

> <Gold.Chemscore.DEClash>
0.0754

> <Gold.Chemscore.DEInternal>
2.8542

> <Gold.Chemscore.Rot>
1.6169

> <Gold.Chemscore.Internal.Correction>
   9.000000E+99

> <Gold.Chemscore.Hbond.Weighted>
-0.0000

> <Gold.Chemscore.Metal.Weighted>
-0.0000

> <Gold.Chemscore.Lipo.Weighted>
-14.5990

> <Gold.Chemscore.Internal_Hbond.Weighted>
0.0000

> <Gold.Chemscore.DEClash.Weighted>
0.0754

> <Gold.Chemscore.DEInternal.Weighted>
2.8542

> <Gold.Chemscore.Rot.Weighted>
4.1393

> <Gold.Chemscore.Internal.Correction.Weighted>
   9.000000E+99

> <Gold.Protein.RotatedTorsions>
[ 6907 6896 6895 6894 ] final -121.83 input  -60.11 | X-H torsion
[ 7974 7965 7964 7962 ] final  114.24 input  175.53 | X-H torsion
[ 8008 7997 7996 7995 ] final  -63.80 input   59.86 | X-H torsion
[ 10167 10162 10161 10158 ] final   21.75 input  -65.29 | X-H torsion
[ 10718 10713 10712 10709 ] final -114.63 input   66.30 | X-H torsion
[ 10763 10752 10751 10750 ] final   10.20 input  -60.55 | X-H torsion
[ 11005 11000 10999 10996 ] final   77.80 input  -57.11 | X-H torsion

> <Gold.Protein.ActiveResidues>
 VAL166  LYS551  ARG553  GLY616  TRP617  ASP618  TYR619  PRO620  LYS621  CYS622 
 ASP623  PHE694  ASN695  SER759  ASP760  ASP761  ALA762  ILE779  LEU786  VAL792 
 PHE793  MET794  SER795  GLU796  ALA797  LYS798  CYS799  TRP800  GLU811  SER814 

> <Gold.Protein.RotatedAtoms>
  150.8520  133.7773  159.3021 H   0  0  0  0  0  0  0  0  0  0  0  0  # atno 6907 bound_to 6896
  151.5442  135.1066  159.9943 H   0  0  0  0  0  0  0  0  0  0  0  0  # atno 6908 bound_to 6896
  152.4560  133.7680  159.6839 H   0  0  0  0  0  0  0  0  0  0  0  0  # atno 6909 bound_to 6896
  145.2069  139.2925  143.4289 H   0  0  0  0  0  0  0  0  0  0  0  0  # atno 7974 bound_to 7965
  154.4575  140.0967  156.6799 H   0  0  0  0  0  0  0  0  0  0  0  0  # atno 8008 bound_to 7997
  155.5094  140.3476  155.4367 H   0  0  0  0  0  0  0  0  0  0  0  0  # atno 8009 bound_to 7997
  156.0806  140.1372  156.9706 H   0  0  0  0  0  0  0  0  0  0  0  0  # atno 8010 bound_to 7997
  140.5402  143.9690  150.6515 H   0  0  0  0  0  0  0  0  0  0  0  0  # atno 10167 bound_to 10162
  156.0843  130.6037  150.8800 H   0  0  0  0  0  0  0  0  0  0  0  0  # atno 10718 bound_to 10713
  153.2057  135.6862  153.8175 H   0  0  0  0  0  0  0  0  0  0  0  0  # atno 10763 bound_to 10752
  153.7425  135.3236  155.3308 H   0  0  0  0  0  0  0  0  0  0  0  0  # atno 10764 bound_to 10752
  154.8196  135.4662  154.0843 H   0  0  0  0  0  0  0  0  0  0  0  0  # atno 10765 bound_to 10752
  139.9239  134.7712  156.1568 H   0  0  0  0  0  0  0  0  0  0  0  0  # atno 11005 bound_to 11000
  146.3406  140.2332  142.8594 LP  0  0  0  0  0  0  0  0  0  0  0  0  # atno 17320 bound_to 7965
  144.9894  140.8533  143.5349 LP  0  0  0  0  0  0  0  0  0  0  0  0  # atno 17321 bound_to 7965
  140.3089  143.3211  152.0899 LP  0  0  0  0  0  0  0  0  0  0  0  0  # atno 17342 bound_to 10162
  139.4986  144.6649  151.6379 LP  0  0  0  0  0  0  0  0  0  0  0  0  # atno 17343 bound_to 10162
  157.5971  131.0942  150.9022 LP  0  0  0  0  0  0  0  0  0  0  0  0  # atno 17370 bound_to 10713
  156.9187  130.5307  149.5279 LP  0  0  0  0  0  0  0  0  0  0  0  0  # atno 17371 bound_to 10713
  141.0782  133.6766  156.2280 LP  0  0  0  0  0  0  0  0  0  0  0  0  # atno 17394 bound_to 11000
  140.6393  134.5182  157.5568 LP  0  0  0  0  0  0  0  0  0  0  0  0  # atno 17395 bound_to 11000

$$$$
