#       Name:                AV-unprocessed.smi:1535
#       Creating user name   scv26
#       Creation time:       Fri Mar 27 06:34:21 2020


#       File generated by GOLD software.
#

@<TRIPOS>MOLECULE
AV-unprocessed.smi:1535
    51    52     1
SMALL
NO_CHARGES


@<TRIPOS>ATOM
      1 ****        -5.1596   0.3710   2.9135 C.3            1 S1                 0.0000
      2 ****        -3.9790   0.7999   2.0600 C.ar           1 S1                 0.0000
      3 ****        -3.0097   1.6667   2.6132 C.ar           1 S1                 0.0000
      4 ****        -1.8971   2.0880   1.8529 C.ar           1 S1                 0.0000
      5 ****        -0.8429   2.9205   2.1873 N.2            1 S1                 0.0000
      6 ****        -0.1355   2.9240   1.0617 C.2            1 S1                 0.0000
      7 ****        -0.5988   2.1776   0.0403 N.pl3          1 S1                 0.0000
      8 ****         0.0051   2.0120  -1.2695 C.3            1 S1                 0.0000
      9 ****         0.5374   0.5832  -1.4974 C.3            1 S1                 0.0000
     10 ****         1.1286   0.5367  -2.7802 O.3            1 S1                 0.0000
     11 ****         1.5792   0.1311  -0.4518 C.3            1 S1                 0.0000
     12 ****         1.8941  -1.3146  -0.5845 N.4            1 S1                 1.0000
     13 ****         0.9220  -2.1728   0.1330 C.3            1 S1                 0.0000
     14 ****         3.2969  -1.6472  -0.2291 C.3            1 S1                 0.0000
     15 ****         4.2984  -1.2186  -1.3197 C.3            1 S1                 0.0000
     16 ****         5.7407  -1.5539  -0.9199 C.3            1 S1                 0.0000
     17 ****         3.9631  -1.8201  -2.6206 C.1            1 S1                 0.0000
     18 ****         3.6953  -2.2923  -3.6416 N.1            1 S1                 0.0000
     19 ****        -1.7780   1.6124   0.5144 C.ar           1 S1                 0.0000
     20 ****        -2.7381   0.7532  -0.0484 C.ar           1 S1                 0.0000
     21 ****        -3.8445   0.3434   0.7242 C.ar           1 S1                 0.0000
     22 ****        -4.8764  -0.5835   0.1065 C.3            1 S1                 0.0000
     23 ****        -5.0980   0.7906   3.9182 H              1 S1                 0.0000
     24 ****        -5.1903  -0.7148   3.0064 H              1 S1                 0.0000
     25 ****        -6.0952   0.7078   2.4667 H              1 S1                 0.0000
     26 ****        -3.1137   2.0168   3.6299 H              1 S1                 0.0000
     27 ****         0.7788   3.4934   0.9790 H              1 S1                 0.0000
     28 ****        -0.7436   2.2631  -2.0225 H              1 S1                 0.0000
     29 ****         0.8117   2.7393  -1.3742 H              1 S1                 0.0000
     30 ****        -0.3072  -0.1052  -1.5010 H              1 S1                 0.0000
     31 ****         1.7957   1.2045  -2.8341 H              1 S1                 0.0000
     32 ****         2.4744   0.7426  -0.5637 H              1 S1                 0.0000
     33 ****         1.2278   0.3148   0.5643 H              1 S1                 0.0000
     34 ****         0.9996  -2.0327   1.2120 H              1 S1                 0.0000
     35 ****         1.1020  -3.2256  -0.0873 H              1 S1                 0.0000
     36 ****        -0.1025  -1.9494  -0.1644 H              1 S1                 0.0000
     37 ****         3.5482  -1.1943   0.7313 H              1 S1                 0.0000
     38 ****         3.3866  -2.7263  -0.0936 H              1 S1                 0.0000
     39 ****         4.2415  -0.1410  -1.4680 H              1 S1                 0.0000
     40 ****         6.4446  -1.2212  -1.6831 H              1 S1                 0.0000
     41 ****         5.8754  -2.6281  -0.7898 H              1 S1                 0.0000
     42 ****         6.0137  -1.0662   0.0163 H              1 S1                 0.0000
     43 ****        -2.6263   0.4130  -1.0672 H              1 S1                 0.0000
     44 ****        -4.6381  -0.8071  -0.9337 H              1 S1                 0.0000
     45 ****        -5.8655  -0.1256   0.1305 H              1 S1                 0.0000
     46 ****        -4.9175  -1.5266   0.6515 H              1 S1                 0.0000
     47 ****         1.7978  -1.5367  -1.5657 H              1 S1                 0.0000
     48 ****        -0.6613   3.3945   3.0488 LP             1 S1                 0.0000
     49 ****         0.4311   0.7018  -3.4776 LP             1 S1                 0.0000
     50 ****         1.5409  -0.3624  -2.9275 LP             1 S1                 0.0000
     51 ****         3.4637  -2.7007  -4.5246 LP             1 S1                 0.0000
@<TRIPOS>BOND
    1    1    2 1     
    2    1   23 1     
    3    1   24 1     
    4    1   25 1     
    5    2   21 ar    
    6    2    3 ar    
    7    3    4 ar    
    8    3   26 1     
    9    4   19 ar    
   10    4    5 1     
   11    5    6 2     
   12    6    7 1     
   13    6   27 1     
   14    7    8 1     
   15    7   19 1     
   16    8    9 1     
   17    8   28 1     
   18    8   29 1     
   19    9   10 1     
   20    9   11 1     
   21    9   30 1     
   22   10   31 1     
   23   11   12 1     
   24   11   32 1     
   25   11   33 1     
   26   12   13 1     
   27   12   14 1     
   28   12   47 1     
   29   13   34 1     
   30   13   35 1     
   31   13   36 1     
   32   14   15 1     
   33   14   37 1     
   34   14   38 1     
   35   15   16 1     
   36   15   17 1     
   37   15   39 1     
   38   16   40 1     
   39   16   41 1     
   40   16   42 1     
   41   17   18 3     
   42   19   20 ar    
   43   20   21 ar    
   44   20   43 1     
   45   21   22 1     
   46   22   44 1     
   47   22   45 1     
   48   22   46 1     
   49    5   48 1     
   50   10   49 1     
   51   10   50 1     
   52   18   51 1     
@<TRIPOS>SUBSTRUCTURE
      1 S1             1
@<TRIPOS>SET
LONE_PAIRS      STATIC     ATOMS    <user>   **** ""
4 48 49 50 51
DONOR_HYDROGENS      STATIC     ATOMS    <user>   **** ""
2 31 47
ATOM$BLUE        STATIC     ATOMS    COLORGROUP SYSTEM
4 48 49 50 51
ATOM$RED        STATIC     ATOMS    COLORGROUP SYSTEM
2 31 47
