#       Name:                AV-unprocessed.smi:1409
#       Creating user name   scv26
#       Creation time:       Fri Mar 27 05:36:16 2020


#       File generated by GOLD software.
#

@<TRIPOS>MOLECULE
AV-unprocessed.smi:1409
    42    43     1
SMALL
NO_CHARGES


@<TRIPOS>ATOM
      1 ****        -3.1748  -4.4662  -0.5890 C.3            1 S1                 0.0000
      2 ****        -2.5045  -3.2110  -0.6289 O.3            1 S1                 0.0000
      3 ****        -3.2558  -2.0570  -0.5094 C.ar           1 S1                 0.0000
      4 ****        -4.6008  -2.1757  -0.3765 N.ar           1 S1                 0.0000
      5 ****        -5.3365  -1.0519  -0.2577 C.ar           1 S1                 0.0000
      6 ****        -4.7762   0.2380  -0.2604 C.ar           1 S1                 0.0000
      7 ****        -3.3815   0.3643  -0.3963 C.ar           1 S1                 0.0000
      8 ****        -2.5941  -0.8062  -0.5313 C.ar           1 S1                 0.0000
      9 ****        -1.1761  -0.8111  -0.6659 N.am           1 S1                 0.0000
     10 ****        -0.3290   0.2110  -0.8767 C.2            1 S1                 0.0000
     11 ****        -0.6467   1.3923  -1.0070 O.2            1 S1                 0.0000
     12 ****         0.9383  -0.2229  -0.9354 N.am           1 S1                 0.0000
     13 ****         2.1154   0.6138  -1.1506 C.3            1 S1                 0.0000
     14 ****         2.8502   0.9196   0.1682 C.3            1 S1                 0.0000
     15 ****         4.1663   1.6882  -0.0601 C.3            1 S1                 0.0000
     16 ****         4.6962   2.1641   1.2958 C.3            1 S1                 0.0000
     17 ****         3.2110   2.5443   2.2975 S.o2           1 S1                 0.0000
     18 ****         3.2866   1.8029   3.5654 O.2            1 S1                 0.0000
     19 ****         2.9669   3.9945   2.2814 O.2            1 S1                 0.0000
     20 ****         2.0131   1.7246   1.1778 C.3            1 S1                 0.0000
     21 ****        -2.4450  -5.2677  -0.7014 H              1 S1                 0.0000
     22 ****        -3.8974  -4.5609  -1.4008 H              1 S1                 0.0000
     23 ****        -3.6844  -4.6146   0.3641 H              1 S1                 0.0000
     24 ****        -6.4032  -1.1854  -0.1540 H              1 S1                 0.0000
     25 ****        -5.4024   1.1119  -0.1575 H              1 S1                 0.0000
     26 ****        -2.9560   1.3545  -0.3844 H              1 S1                 0.0000
     27 ****        -0.7527  -1.7267  -0.6229 H              1 S1                 0.0000
     28 ****         1.1036  -1.2121  -0.8192 H              1 S1                 0.0000
     29 ****         2.7833   0.0736  -1.8219 H              1 S1                 0.0000
     30 ****         1.8521   1.5389  -1.6662 H              1 S1                 0.0000
     31 ****         3.1123  -0.0275   0.6426 H              1 S1                 0.0000
     32 ****         4.9046   1.0805  -0.5838 H              1 S1                 0.0000
     33 ****         3.9692   2.5594  -0.6863 H              1 S1                 0.0000
     34 ****         5.2470   1.3681   1.7974 H              1 S1                 0.0000
     35 ****         5.3386   3.0417   1.2214 H              1 S1                 0.0000
     36 ****         1.4389   2.5052   0.6775 H              1 S1                 0.0000
     37 ****         1.3251   1.1047   1.7529 H              1 S1                 0.0000
     38 ****        -2.0240  -3.1608  -1.5044 LP             1 S1                 0.0000
     39 ****        -1.8388  -3.2082   0.1173 LP             1 S1                 0.0000
     40 ****        -5.0365  -3.0757  -0.3668 LP             1 S1                 0.0000
     41 ****        -1.6092   1.6595  -0.9586 LP             1 S1                 0.0000
     42 ****         0.0574   2.0854  -1.1612 LP             1 S1                 0.0000
@<TRIPOS>BOND
    1    1    2 1     
    2    1   21 1     
    3    1   22 1     
    4    1   23 1     
    5    2    3 1     
    6    3    8 ar    
    7    3    4 ar    
    8    4    5 ar    
    9    5    6 ar    
   10    5   24 1     
   11    6    7 ar    
   12    6   25 1     
   13    7    8 ar    
   14    7   26 1     
   15    8    9 1     
   16    9   10 am    
   17    9   27 1     
   18   10   11 2     
   19   10   12 am    
   20   12   13 1     
   21   12   28 1     
   22   13   14 1     
   23   13   29 1     
   24   13   30 1     
   25   14   20 1     
   26   14   15 1     
   27   14   31 1     
   28   15   16 1     
   29   15   32 1     
   30   15   33 1     
   31   16   17 1     
   32   16   34 1     
   33   16   35 1     
   34   17   18 2     
   35   17   19 2     
   36   17   20 1     
   37   20   36 1     
   38   20   37 1     
   39    2   38 1     
   40    2   39 1     
   41    4   40 1     
   42   11   41 1     
   43   11   42 1     
@<TRIPOS>SUBSTRUCTURE
      1 S1             1
@<TRIPOS>SET
LONE_PAIRS      STATIC     ATOMS    <user>   **** ""
7 38 39 40 41 42 18 19
DONOR_HYDROGENS      STATIC     ATOMS    <user>   **** ""
2 27 28
ATOM$BLUE        STATIC     ATOMS    COLORGROUP SYSTEM
7 38 39 40 41 42 18 19
ATOM$RED        STATIC     ATOMS    COLORGROUP SYSTEM
2 27 28
