#       Name:                AV-unprocessed.smi:1218
#       Creating user name   scv26
#       Creation time:       Fri Mar 27 04:16:04 2020


#       File generated by GOLD software.
#

@<TRIPOS>MOLECULE
AV-unprocessed.smi:1218
    50    51     1
SMALL
NO_CHARGES


@<TRIPOS>ATOM
      1 ****        -3.7851   2.0330  -3.1415 C.3            1 S1                 0.0000
      2 ****        -2.2492   2.0476  -3.1599 C.3            1 S1                 0.0000
      3 ****        -1.7342   2.5632  -4.5142 C.3            1 S1                 0.0000
      4 ****        -1.6905   0.6473  -2.8254 C.3            1 S1                 0.0000
      5 ****        -0.2083   0.6228  -2.6888 N.4            1 S1                 1.0000
      6 ****         0.3821  -0.7208  -2.9012 C.3            1 S1                 0.0000
      7 ****         0.1985  -1.6090  -1.6581 C.3            1 S1                 0.0000
      8 ****         0.7757  -0.9627  -0.5311 O.3            1 S1                 0.0000
      9 ****         0.1485   0.2795  -0.2264 C.3            1 S1                 0.0000
     10 ****         0.7943   0.8642   1.0429 C.3            1 S1                 0.0000
     11 ****         0.4614   0.0869   2.2321 N.am           1 S1                 0.0000
     12 ****         1.1547  -0.9670   2.6895 C.2            1 S1                 0.0000
     13 ****         2.1641  -1.4023   2.1343 O.2            1 S1                 0.0000
     14 ****         0.6180  -1.6277   3.9638 C.3            1 S1                 0.0000
     15 ****         1.6876  -2.0617   4.8476 N.pl3          1 S1                 0.0000
     16 ****         2.5429  -1.2878   5.6052 C.2            1 S1                 0.0000
     17 ****         3.3728  -2.1380   6.2781 C.2            1 S1                 0.0000
     18 ****         2.9403  -3.4293   5.8655 C.2            1 S1                 0.0000
     19 ****         1.9301  -3.3807   5.0121 N.2            1 S1                 0.0000
     20 ****         0.3181   1.2256  -1.4365 C.3            1 S1                 0.0000
     21 ****        -4.1857   1.3503  -3.8917 H              1 S1                 0.0000
     22 ****        -4.1904   3.0247  -3.3448 H              1 S1                 0.0000
     23 ****        -4.1650   1.7179  -2.1690 H              1 S1                 0.0000
     24 ****        -1.9364   2.7542  -2.3921 H              1 S1                 0.0000
     25 ****        -2.0191   1.8954  -5.3279 H              1 S1                 0.0000
     26 ****        -0.6477   2.6535  -4.5216 H              1 S1                 0.0000
     27 ****        -2.1420   3.5496  -4.7376 H              1 S1                 0.0000
     28 ****        -2.1552   0.2610  -1.9184 H              1 S1                 0.0000
     29 ****        -1.9883  -0.0332  -3.6246 H              1 S1                 0.0000
     30 ****        -0.0420  -1.1956  -3.7866 H              1 S1                 0.0000
     31 ****         1.4475  -0.5999  -3.1013 H              1 S1                 0.0000
     32 ****        -0.8548  -1.8251  -1.4734 H              1 S1                 0.0000
     33 ****         0.6972  -2.5670  -1.8061 H              1 S1                 0.0000
     34 ****        -0.9113   0.1120  -0.0289 H              1 S1                 0.0000
     35 ****         1.8758   0.9503   0.9238 H              1 S1                 0.0000
     36 ****         0.4229   1.8760   1.2076 H              1 S1                 0.0000
     37 ****        -0.3555   0.3754   2.7510 H              1 S1                 0.0000
     38 ****        -0.0184  -0.9333   4.5141 H              1 S1                 0.0000
     39 ****        -0.0011  -2.4835   3.6900 H              1 S1                 0.0000
     40 ****         2.4914  -0.2089   5.5999 H              1 S1                 0.0000
     41 ****         4.1674  -1.8777   6.9614 H              1 S1                 0.0000
     42 ****         3.3266  -4.3939   6.1602 H              1 S1                 0.0000
     43 ****         1.3793   1.4303  -1.5853 H              1 S1                 0.0000
     44 ****        -0.1473   2.1902  -1.2388 H              1 S1                 0.0000
     45 ****         0.1319   1.1945  -3.4490 H              1 S1                 0.0000
     46 ****         1.7431  -0.7944  -0.7200 LP             1 S1                 0.0000
     47 ****         0.6910  -1.5664   0.2616 LP             1 S1                 0.0000
     48 ****         2.5035  -0.9665   1.3008 LP             1 S1                 0.0000
     49 ****         2.6442  -2.1916   2.5171 LP             1 S1                 0.0000
     50 ****         1.4529  -4.1485   4.5846 LP             1 S1                 0.0000
@<TRIPOS>BOND
    1    1    2 1     
    2    1   21 1     
    3    1   22 1     
    4    1   23 1     
    5    2    3 1     
    6    2    4 1     
    7    2   24 1     
    8    3   25 1     
    9    3   26 1     
   10    3   27 1     
   11    4    5 1     
   12    4   28 1     
   13    4   29 1     
   14    5   20 1     
   15    5    6 1     
   16    5   45 1     
   17    6    7 1     
   18    6   30 1     
   19    6   31 1     
   20    7    8 1     
   21    7   32 1     
   22    7   33 1     
   23    8    9 1     
   24    9   10 1     
   25    9   20 1     
   26    9   34 1     
   27   10   11 1     
   28   10   35 1     
   29   10   36 1     
   30   11   12 am    
   31   11   37 1     
   32   12   13 2     
   33   12   14 1     
   34   14   15 1     
   35   14   38 1     
   36   14   39 1     
   37   15   19 1     
   38   15   16 1     
   39   16   17 2     
   40   16   40 1     
   41   17   18 1     
   42   17   41 1     
   43   18   19 2     
   44   18   42 1     
   45   20   43 1     
   46   20   44 1     
   47    8   46 1     
   48    8   47 1     
   49   13   48 1     
   50   13   49 1     
   51   19   50 1     
@<TRIPOS>SUBSTRUCTURE
      1 S1             1
@<TRIPOS>SET
LONE_PAIRS      STATIC     ATOMS    <user>   **** ""
5 46 47 48 49 50
DONOR_HYDROGENS      STATIC     ATOMS    <user>   **** ""
2 45 37
ATOM$BLUE        STATIC     ATOMS    COLORGROUP SYSTEM
5 46 47 48 49 50
ATOM$RED        STATIC     ATOMS    COLORGROUP SYSTEM
2 45 37
