AV-unprocessed.smi:2753|AV-procd|sdf|10609|dock5
  -GOLD-   2272015 63D 1   1.00000     0.00000
 Structure written by MMmdl.
 28 29  0  0  0  0  0  0  0  0  2 V2000
  153.1611  137.7550  158.0592 F   0  0  0  0  0  0  0  0  0  0  0  0
  152.8413  138.0561  159.3170 C   0  0  0  0  0  0  0  0  0  0  0  0
  151.5489  137.7724  159.4834 F   0  0  0  0  0  0  0  0  0  0  0  0
  153.5372  137.2482  160.1159 F   0  0  0  0  0  0  0  0  0  0  0  0
  153.1405  139.4960  159.6170 C   0  0  0  0  0  0  0  0  0  0  0  0
  154.0491  140.0101  160.5149 C   0  0  0  0  0  0  0  0  0  0  0  0
  153.9386  141.3852  160.4089 N   0  0  0  0  0  0  0  0  0  0  0  0
  153.0051  141.6530  159.4877 C   0  0  0  0  0  0  0  0  0  0  0  0
  152.6193  143.0511  159.1142 C   0  0  2  0  0  0  0  0  0  0  0  0
  152.3072  143.9139  160.3522 C   0  0  0  0  0  0  0  0  0  0  0  0
  151.8988  145.3340  159.9313 C   0  0  0  0  0  0  0  0  0  0  0  0
  150.7342  145.2966  158.9277 C   0  0  0  0  0  0  0  0  0  0  0  0
  151.0814  144.4646  157.7550 N   0  3  0  0  0  0  0  0  0  0  0  0
  151.4424  143.0761  158.1172 C   0  0  0  0  0  0  0  0  0  0  0  0
  152.4830  140.5455  158.9679 N   0  0  0  0  0  0  0  0  0  0  0  0
  154.4689  142.0648  160.9357 H   0  0  0  0  0  0  0  0  0  0  0  0
  154.7368  139.5280  161.1938 H   0  0  0  0  0  0  0  0  0  0  0  0
  153.4804  143.4988  158.6144 H   0  0  0  0  0  0  0  0  0  0  0  0
  151.4988  143.4606  160.9281 H   0  0  0  0  0  0  0  0  0  0  0  0
  153.1742  143.9563  161.0125 H   0  0  0  0  0  0  0  0  0  0  0  0
  151.6165  145.9165  160.8089 H   0  0  0  0  0  0  0  0  0  0  0  0
  152.7532  145.8432  159.4837 H   0  0  0  0  0  0  0  0  0  0  0  0
  149.8369  144.8949  159.4006 H   0  0  0  0  0  0  0  0  0  0  0  0
  150.4926  146.3047  158.5901 H   0  0  0  0  0  0  0  0  0  0  0  0
  150.2937  144.4439  157.1228 H   0  0  0  0  0  0  0  0  0  0  0  0
  151.7031  142.5330  157.2083 H   0  0  0  0  0  0  0  0  0  0  0  0
  150.5673  142.5827  158.5428 H   0  0  0  0  0  0  0  0  0  0  0  0
  151.8668  144.8881  157.2821 H   0  0  0  0  0  0  0  0  0  0  0  0
  1  2  1  0  0  0  0
  2  3  1  0  0  0  0
  2  4  1  0  0  0  0
  2  5  1  0  0  0  0
  5 15  1  0  0  0  0
  5  6  2  0  0  0  0
  6  7  1  0  0  0  0
  6 17  1  0  0  0  0
  7 16  1  0  0  0  0
  7  8  1  0  0  0  0
  8  9  1  0  0  0  0
  8 15  2  0  0  0  0
  9 14  1  0  0  0  0
  9 10  1  0  0  0  0
  9 18  1  0  0  0  0
 10 11  1  0  0  0  0
 10 19  1  0  0  0  0
 10 20  1  0  0  0  0
 11 12  1  0  0  0  0
 11 21  1  0  0  0  0
 11 22  1  0  0  0  0
 12 13  1  0  0  0  0
 12 23  1  0  0  0  0
 12 24  1  0  0  0  0
 13 14  1  0  0  0  0
 13 25  1  0  0  0  0
 13 28  1  0  0  0  0
 14 26  1  0  0  0  0
 14 27  1  0  0  0  0
M  CHG  1  13   1
M  END
> <s_m_source_file>
AV-unprocessed.smi

> <i_m_source_file_index>
2753

> <i_lp_mmshare_version>
43012

> <i_f3d_flags>
0

> <s_epik_input>
RkMoRikoRiljMVtjSF1bbkhdYyhuMSlbQ0BASF0yW0NIMl1bQ0gyXVtDSDJdW05IXVtDSDJdMg==

> <s_epik_cmdline>
J2VwaWtfcHl0aG9uJywgJy1waCcsICc3LjAnLCAnLXRuJywgJzgnLCAnLW1hJywgJzIwMCcsICctbWV0YWxfYmluZGluZycsICctaW1hZScsICc8aW5maWxlLm1hZT4nLCAnLW9tYWUnLCAnPG91dGZpbGUubWFlPic=

> <r_lp_tautomer_probability>
0.5

> <r_epik_Ionization_Penalty>
0.00052307

> <r_epik_Ionization_Penalty_Charging>
0.000431517

> <r_epik_Ionization_Penalty_Neutral>
9.15529e-05

> <r_epik_State_Penalty>
0.103148

> <r_epik_Charging_Adjusted_Penalty>
0.103579

> <i_epik_Tot_Q>
1

> <i_epik_Tot_abs_Q>
1

> <r_epik_Metal_State_Penalty>
0.166025

> <b_epik_Metal_Only>
0

> <s_lp_Force_Field>
OPLS_2005

> <r_lp_Energy>
16.8068

> <b_lp_Chiralities_Consistent>
1

> <s_lp_Variant>
AV-unprocessed.smi:2753-1

> <Gold.Version>
5.8.1

> <Gold.Id.Protein>
6NUR|6NUR_protein|mol2

> <Gold.PLP.Fitness>
38.0421

> <Gold.PLP.PLP>
-32.3342

> <Gold.PLP.part.hbond>
-1.0000

> <Gold.PLP.part.metal>
0.0000

> <Gold.PLP.part.buried>
-5.7158

> <Gold.PLP.part.nonpolar>
-26.4945

> <Gold.PLP.part.repulsive>
0.0999

> <Gold.PLP.ligand.clash>
0.0000

> <Gold.PLP.ligand.torsion>
0.1598

> <Gold.PLP.Chemscore.Hbond>
2.0000

> <Gold.PLP.Chemscore.CHOScore>
0.0000

> <Gold.PLP.Chemscore.Metal>
0.0000

> <Gold.Chemscore.Hbonds>
donor molecule, donor type, donor heavy atom, donor atom, acceptor molecule, acceptor atom, score
      L1  H    13    25       P1  8028  2.00

> <Gold.PLP.Chemscore.Internal.Correction>
0.0276

> <Gold.Rescore>
     Score         DG    S(hbond)    S(metal)    S(lipo)     H(rot)  DE(clash)    DE(int)     intcor
     15.13     -15.30       0.99        0.00      77.67       1.00       0.02       0.15       ----

> <Gold.Chemscore.Fitness>
15.1251

> <Gold.Chemscore.DG>
-15.3002

> <Gold.Chemscore.ZeroCoef>
-5.4800

> <Gold.Chemscore.Hbond>
0.9858

> <Gold.Chemscore.Metal>
0.0000

> <Gold.Chemscore.Lipo>
77.6725

> <Gold.Chemscore.Internal_Hbond>
0.0000

> <Gold.Chemscore.DEClash>
0.0215

> <Gold.Chemscore.DEInternal>
0.1535

> <Gold.Chemscore.Rot>
1.0000

> <Gold.Chemscore.Internal.Correction>
   9.000000E+99

> <Gold.Chemscore.Hbonds>
donor molecule, donor type, donor heavy atom, donor atom, acceptor molecule, acceptor atom, score
      L1  H    13    25       P1  8028  0.70

> <Gold.Chemscore.Hbond.Weighted>
-3.2925

> <Gold.Chemscore.Metal.Weighted>
-0.0000

> <Gold.Chemscore.Lipo.Weighted>
-9.0877

> <Gold.Chemscore.Internal_Hbond.Weighted>
0.0000

> <Gold.Chemscore.DEClash.Weighted>
0.0215

> <Gold.Chemscore.DEInternal.Weighted>
0.1535

> <Gold.Chemscore.Rot.Weighted>
2.5600

> <Gold.Chemscore.Internal.Correction.Weighted>
   9.000000E+99

> <Gold.Protein.RotatedTorsions>
[ 6907 6896 6895 6894 ] final  137.47 input  -60.11 | X-H torsion
[ 7974 7965 7964 7962 ] final  119.34 input  175.53 | X-H torsion
[ 8008 7997 7996 7995 ] final    0.00 input   59.86 | X-H torsion
[ 10167 10162 10161 10158 ] final  173.89 input  -65.29 | X-H torsion
[ 10718 10713 10712 10709 ] final -131.22 input   66.30 | X-H torsion
[ 10763 10752 10751 10750 ] final   14.98 input  -60.55 | X-H torsion
[ 11005 11000 10999 10996 ] final   55.08 input  -57.11 | X-H torsion

> <Gold.Protein.ActiveResidues>
 VAL166  LYS551  ARG553  GLY616  TRP617  ASP618  TYR619  PRO620  LYS621  CYS622 
 ASP623  PHE694  ASN695  SER759  ASP760  ASP761  ALA762  ILE779  LEU786  VAL792 
 PHE793  MET794  SER795  GLU796  ALA797  LYS798  CYS799  TRP800  GLU811  SER814 

> <Gold.Protein.RotatedAtoms>
  152.2777  133.5441  159.5477 H   0  0  0  0  0  0  0  0  0  0  0  0  # atno 6907 bound_to 6896
  150.7183  134.0608  159.3839 H   0  0  0  0  0  0  0  0  0  0  0  0  # atno 6908 bound_to 6896
  151.8521  135.0554  160.0511 H   0  0  0  0  0  0  0  0  0  0  0  0  # atno 6909 bound_to 6896
  145.1443  139.3249  143.4599 H   0  0  0  0  0  0  0  0  0  0  0  0  # atno 7974 bound_to 7965
  154.6631  140.2595  155.7088 H   0  0  0  0  0  0  0  0  0  0  0  0  # atno 8008 bound_to 7997
  156.2627  140.2844  156.1032 H   0  0  0  0  0  0  0  0  0  0  0  0  # atno 8009 bound_to 7997
  155.1279  140.0378  157.2757 H   0  0  0  0  0  0  0  0  0  0  0  0  # atno 8010 bound_to 7997
  139.5123  144.3209  152.0203 H   0  0  0  0  0  0  0  0  0  0  0  0  # atno 10167 bound_to 10162
  156.2223  130.6986  151.0769 H   0  0  0  0  0  0  0  0  0  0  0  0  # atno 10718 bound_to 10713
  153.1569  135.6789  153.8799 H   0  0  0  0  0  0  0  0  0  0  0  0  # atno 10763 bound_to 10752
  153.8208  135.3130  155.3411 H   0  0  0  0  0  0  0  0  0  0  0  0  # atno 10764 bound_to 10752
  154.7904  135.4838  154.0127 H   0  0  0  0  0  0  0  0  0  0  0  0  # atno 10765 bound_to 10752
  140.0636  134.5568  155.9125 H   0  0  0  0  0  0  0  0  0  0  0  0  # atno 11005 bound_to 11000
  146.3502  140.1492  142.8593 LP  0  0  0  0  0  0  0  0  0  0  0  0  # atno 17320 bound_to 7965
  145.0498  140.9009  143.5002 LP  0  0  0  0  0  0  0  0  0  0  0  0  # atno 17321 bound_to 7965
  140.2651  144.4025  150.6171 LP  0  0  0  0  0  0  0  0  0  0  0  0  # atno 17342 bound_to 10162
  140.6129  143.2170  151.6849 LP  0  0  0  0  0  0  0  0  0  0  0  0  # atno 17343 bound_to 10162
  157.7093  131.0741  150.6556 LP  0  0  0  0  0  0  0  0  0  0  0  0  # atno 17370 bound_to 10713
  156.6620  130.4515  149.5684 LP  0  0  0  0  0  0  0  0  0  0  0  0  # atno 17371 bound_to 10713
  141.1983  133.6601  156.5786 LP  0  0  0  0  0  0  0  0  0  0  0  0  # atno 17394 bound_to 11000
  140.3733  134.7587  157.4613 LP  0  0  0  0  0  0  0  0  0  0  0  0  # atno 17395 bound_to 11000

$$$$
