AV-unprocessed.smi:479|AV-procd|sdf|2674|dock6
  -GOLD-   2262023 93D 1   1.00000     0.00000
 Structure written by MMmdl.
 46 48  0  0  0  0  0  0  0  0  2 V2000
  147.6418  136.8489  163.5116 C   0  0  0  0  0  0  0  0  0  0  0  0
  147.6983  137.0912  162.1138 O   0  0  0  0  0  0  0  0  0  0  0  0
  147.6529  136.0125  161.2546 C   0  0  0  0  0  0  0  0  0  0  0  0
  146.9732  134.8029  161.5489 C   0  0  0  0  0  0  0  0  0  0  0  0
  146.9658  133.7292  160.6289 C   0  0  0  0  0  0  0  0  0  0  0  0
  146.2565  132.4490  160.9159 C   0  0  0  0  0  0  0  0  0  0  0  0
  145.0730  132.4871  161.8816 C   0  0  0  0  0  0  0  0  0  0  0  0
  146.5742  131.3707  160.4153 O   0  0  0  0  0  0  0  0  0  0  0  0
  147.6521  133.8781  159.4056 C   0  0  0  0  0  0  0  0  0  0  0  0
  148.3274  135.0734  159.1041 C   0  0  0  0  0  0  0  0  0  0  0  0
  148.3290  136.1518  160.0219 C   0  0  0  0  0  0  0  0  0  0  0  0
  148.9573  137.3575  159.7847 O   0  0  0  0  0  0  0  0  0  0  0  0
  149.6167  137.5478  158.5390 C   0  0  0  0  0  0  0  0  0  0  0  0
  149.6446  139.0448  158.1786 C   0  0  2  0  0  0  0  0  0  0  0  0
  148.7700  139.2907  157.0980 O   0  0  0  0  0  0  0  0  0  0  0  0
  151.0417  139.6249  157.8761 C   0  0  0  0  0  0  0  0  0  0  0  0
  151.0163  141.0819  157.6718 N   0  0  0  0  0  0  0  0  0  0  0  0
  150.3781  141.8046  156.7113 C   0  0  0  0  0  0  0  0  0  0  0  0
  150.6341  143.1207  156.9459 N   0  3  0  0  0  0  0  0  0  0  0  0
  151.4560  143.2433  158.0675 C   0  0  0  0  0  0  0  0  0  0  0  0
  151.9778  144.3724  158.6915 C   0  0  0  0  0  0  0  0  0  0  0  0
  152.7869  144.1526  159.8255 C   0  0  0  0  0  0  0  0  0  0  0  0
  153.0542  142.8505  160.2941 C   0  0  0  0  0  0  0  0  0  0  0  0
  152.5246  141.7139  159.6495 C   0  0  0  0  0  0  0  0  0  0  0  0
  151.7163  141.9368  158.5345 C   0  0  0  0  0  0  0  0  0  0  0  0
  147.6777  137.8007  164.0415 H   0  0  0  0  0  0  0  0  0  0  0  0
  148.4903  136.2523  163.8487 H   0  0  0  0  0  0  0  0  0  0  0  0
  146.7126  136.3510  163.7919 H   0  0  0  0  0  0  0  0  0  0  0  0
  146.4538  134.6949  162.4875 H   0  0  0  0  0  0  0  0  0  0  0  0
  145.3912  132.8401  162.8626 H   0  0  0  0  0  0  0  0  0  0  0  0
  144.6461  131.4909  162.0004 H   0  0  0  0  0  0  0  0  0  0  0  0
  144.2930  133.1484  161.5045 H   0  0  0  0  0  0  0  0  0  0  0  0
  147.6691  133.0753  158.6824 H   0  0  0  0  0  0  0  0  0  0  0  0
  148.8388  135.1352  158.1558 H   0  0  0  0  0  0  0  0  0  0  0  0
  150.6286  137.1409  158.5707 H   0  0  0  0  0  0  0  0  0  0  0  0
  149.0733  137.0164  157.7560 H   0  0  0  0  0  0  0  0  0  0  0  0
  149.2290  139.5901  159.0269 H   0  0  0  0  0  0  0  0  0  0  0  0
  149.2856  139.4816  156.3293 H   0  0  0  0  0  0  0  0  0  0  0  0
  151.7424  139.3745  158.6709 H   0  0  0  0  0  0  0  0  0  0  0  0
  151.4433  139.1775  156.9660 H   0  0  0  0  0  0  0  0  0  0  0  0
  149.7681  141.4055  155.9137 H   0  0  0  0  0  0  0  0  0  0  0  0
  151.7757  145.3713  158.3330 H   0  0  0  0  0  0  0  0  0  0  0  0
  153.2118  144.9990  160.3454 H   0  0  0  0  0  0  0  0  0  0  0  0
  153.6777  142.7187  161.1665 H   0  0  0  0  0  0  0  0  0  0  0  0
  152.7384  140.7247  160.0247 H   0  0  0  0  0  0  0  0  0  0  0  0
  150.2731  143.8783  156.3800 H   0  0  0  0  0  0  0  0  0  0  0  0
  1  2  1  0  0  0  0
  1 26  1  0  0  0  0
  1 27  1  0  0  0  0
  1 28  1  0  0  0  0
  2  3  1  0  0  0  0
  3 11  1  0  0  0  0
  3  4  2  0  0  0  0
  4  5  1  0  0  0  0
  4 29  1  0  0  0  0
  5  6  1  0  0  0  0
  5  9  2  0  0  0  0
  6  7  1  0  0  0  0
  6  8  2  0  0  0  0
  7 30  1  0  0  0  0
  7 31  1  0  0  0  0
  7 32  1  0  0  0  0
  9 10  1  0  0  0  0
  9 33  1  0  0  0  0
 10 11  2  0  0  0  0
 10 34  1  0  0  0  0
 11 12  1  0  0  0  0
 12 13  1  0  0  0  0
 13 14  1  0  0  0  0
 13 35  1  0  0  0  0
 13 36  1  0  0  0  0
 14 15  1  0  0  0  0
 14 16  1  0  0  0  0
 14 37  1  0  0  0  0
 15 38  1  0  0  0  0
 16 17  1  0  0  0  0
 16 39  1  0  0  0  0
 16 40  1  0  0  0  0
 17 25  1  0  0  0  0
 17 18  1  0  0  0  0
 18 19  2  0  0  0  0
 18 41  1  0  0  0  0
 19 20  1  0  0  0  0
 19 46  1  0  0  0  0
 20 25  2  0  0  0  0
 20 21  1  0  0  0  0
 21 22  2  0  0  0  0
 21 42  1  0  0  0  0
 22 23  1  0  0  0  0
 22 43  1  0  0  0  0
 23 24  2  0  0  0  0
 23 44  1  0  0  0  0
 24 25  1  0  0  0  0
 24 45  1  0  0  0  0
M  CHG  1  19   1
M  END
> <s_m_source_file>
AV-unprocessed.smi

> <i_m_source_file_index>
479

> <i_lp_mmshare_version>
43012

> <i_f3d_flags>
0

> <s_epik_input>
W0NIM11PYzFbY0hdYyhDKD1PKVtDSDNdKVtjSF1bY0hdYzFPW0NIMl1bQ0BIXShbT0hdKVtDSDJdbihbY0hdbjIpYyhjMjMpW2NIXVtjSF1bY0hdW2NIXTM=

> <s_epik_cmdline>
J2VwaWtfcHl0aG9uJywgJy1waCcsICc3LjAnLCAnLXRuJywgJzgnLCAnLW1hJywgJzIwMCcsICctbWV0YWxfYmluZGluZycsICctaW1hZScsICc8aW5maWxlLm1hZT4nLCAnLW9tYWUnLCAnPG91dGZpbGUubWFlPic=

> <r_lp_tautomer_probability>
0.99995

> <r_epik_Ionization_Penalty>
1.37698

> <r_epik_Ionization_Penalty_Charging>
1.37698

> <r_epik_Ionization_Penalty_Neutral>
2.3993e-06

> <r_epik_State_Penalty>
1.45717

> <r_epik_Charging_Adjusted_Penalty>
2.83415

> <i_epik_Tot_Q>
1

> <i_epik_Tot_abs_Q>
1

> <r_epik_Metal_State_Penalty>
5.49703

> <b_epik_Metal_Only>
0

> <s_lp_Force_Field>
OPLS_2005

> <r_lp_Energy>
30.5916

> <b_lp_Chiralities_Consistent>
1

> <s_lp_Variant>
AV-unprocessed.smi:479-3

> <Gold.Version>
5.8.1

> <Gold.Id.Protein>
6NUR|6NUR_protein|mol2

> <Gold.PLP.Fitness>
57.3875

> <Gold.PLP.PLP>
-50.6929

> <Gold.PLP.part.hbond>
-4.1459

> <Gold.PLP.part.metal>
0.0000

> <Gold.PLP.part.buried>
-4.1207

> <Gold.PLP.part.nonpolar>
-43.2315

> <Gold.PLP.part.repulsive>
0.0646

> <Gold.PLP.ligand.clash>
0.0000

> <Gold.PLP.ligand.torsion>
1.5516

> <Gold.PLP.Chemscore.Hbond>
3.2214

> <Gold.PLP.Chemscore.CHOScore>
0.0000

> <Gold.PLP.Chemscore.Metal>
0.0000

> <Gold.Chemscore.Hbonds>
donor molecule, donor type, donor heavy atom, donor atom, acceptor molecule, acceptor atom, score
      L1  H    19    46       P1  8028  2.00
      P1  H  6931  6943       L1     2  1.00
      P1  H  6934  6947       L1     2  0.19

> <Gold.PLP.Chemscore.Internal.Correction>
0.1336

> <Gold.Rescore>
     Score         DG    S(hbond)    S(metal)    S(lipo)     H(rot)  DE(clash)    DE(int)     intcor
     17.41     -19.37       1.71        0.00     130.12       2.75       0.53       1.44       ----

> <Gold.Chemscore.Fitness>
17.4091

> <Gold.Chemscore.DG>
-19.3736

> <Gold.Chemscore.ZeroCoef>
-5.4800

> <Gold.Chemscore.Hbond>
1.7083

> <Gold.Chemscore.Metal>
0.0000

> <Gold.Chemscore.Lipo>
130.1243

> <Gold.Chemscore.Internal_Hbond>
0.0000

> <Gold.Chemscore.DEClash>
0.5292

> <Gold.Chemscore.DEInternal>
1.4354

> <Gold.Chemscore.Rot>
2.7487

> <Gold.Chemscore.Internal.Correction>
   9.000000E+99

> <Gold.Chemscore.Hbonds>
donor molecule, donor type, donor heavy atom, donor atom, acceptor molecule, acceptor atom, score
      L1  H    19    46       P1  8028  0.94
      P1  H  6931  6943       L1     2  0.41
      P1  H  6934  6947       L1     2  0.14

> <Gold.Chemscore.Hbond.Weighted>
-5.7059

> <Gold.Chemscore.Metal.Weighted>
-0.0000

> <Gold.Chemscore.Lipo.Weighted>
-15.2245

> <Gold.Chemscore.Internal_Hbond.Weighted>
0.0000

> <Gold.Chemscore.DEClash.Weighted>
0.5292

> <Gold.Chemscore.DEInternal.Weighted>
1.4354

> <Gold.Chemscore.Rot.Weighted>
7.0368

> <Gold.Chemscore.Internal.Correction.Weighted>
   9.000000E+99

> <Gold.Protein.RotatedTorsions>
[ 6907 6896 6895 6894 ] final   95.67 input  -60.11 | X-H torsion
[ 7974 7965 7964 7962 ] final  -65.92 input  175.53 | X-H torsion
[ 8008 7997 7996 7995 ] final  -39.41 input   59.86 | X-H torsion
[ 10167 10162 10161 10158 ] final -142.88 input  -65.29 | X-H torsion
[ 10718 10713 10712 10709 ] final   38.66 input   66.30 | X-H torsion
[ 10763 10752 10751 10750 ] final   48.77 input  -60.55 | X-H torsion
[ 11005 11000 10999 10996 ] final -158.14 input  -57.11 | X-H torsion

> <Gold.Protein.ActiveResidues>
 VAL166  LYS551  ARG553  GLY616  TRP617  ASP618  TYR619  PRO620  LYS621  CYS622 
 ASP623  PHE694  ASN695  SER759  ASP760  ASP761  ALA762  ILE779  LEU786  VAL792 
 PHE793  MET794  SER795  GLU796  ALA797  LYS798  CYS799  TRP800  GLU811  SER814 

> <Gold.Protein.RotatedAtoms>
  152.5442  134.1004  159.8315 H   0  0  0  0  0  0  0  0  0  0  0  0  # atno 6907 bound_to 6896
  151.1082  133.5185  159.2614 H   0  0  0  0  0  0  0  0  0  0  0  0  # atno 6908 bound_to 6896
  151.1914  135.0413  159.8888 H   0  0  0  0  0  0  0  0  0  0  0  0  # atno 6909 bound_to 6896
  145.7482  140.8921  143.0494 H   0  0  0  0  0  0  0  0  0  0  0  0  # atno 7974 bound_to 7965
  154.4023  140.1552  156.2858 H   0  0  0  0  0  0  0  0  0  0  0  0  # atno 8008 bound_to 7997
  155.8829  140.3443  155.5879 H   0  0  0  0  0  0  0  0  0  0  0  0  # atno 8009 bound_to 7997
  155.7647  140.0822  157.2129 H   0  0  0  0  0  0  0  0  0  0  0  0  # atno 8010 bound_to 7997
  139.8046  143.7786  152.2660 H   0  0  0  0  0  0  0  0  0  0  0  0  # atno 10167 bound_to 10162
  157.3615  130.7652  149.7051 H   0  0  0  0  0  0  0  0  0  0  0  0  # atno 10718 bound_to 10713
  152.9790  135.5933  154.3981 H   0  0  0  0  0  0  0  0  0  0  0  0  # atno 10763 bound_to 10752
  154.3629  135.2767  155.2312 H   0  0  0  0  0  0  0  0  0  0  0  0  # atno 10764 bound_to 10752
  154.4301  135.6038  153.6118 H   0  0  0  0  0  0  0  0  0  0  0  0  # atno 10765 bound_to 10752
  140.6569  134.4391  157.5235 H   0  0  0  0  0  0  0  0  0  0  0  0  # atno 11005 bound_to 11000
  144.6855  139.9555  143.7479 LP  0  0  0  0  0  0  0  0  0  0  0  0  # atno 17320 bound_to 7965
  146.0382  139.3397  143.0713 LP  0  0  0  0  0  0  0  0  0  0  0  0  # atno 17321 bound_to 7965
  139.7917  144.7408  150.9946 LP  0  0  0  0  0  0  0  0  0  0  0  0  # atno 17342 bound_to 10162
  140.7819  143.4436  151.0516 LP  0  0  0  0  0  0  0  0  0  0  0  0  # atno 17343 bound_to 10162
  155.9738  130.4112  150.3972 LP  0  0  0  0  0  0  0  0  0  0  0  0  # atno 17370 bound_to 10713
  157.2049  131.0447  151.2630 LP  0  0  0  0  0  0  0  0  0  0  0  0  # atno 17371 bound_to 10713
  139.9026  134.8520  156.1832 LP  0  0  0  0  0  0  0  0  0  0  0  0  # atno 17394 bound_to 11000
  141.0495  133.6896  156.1745 LP  0  0  0  0  0  0  0  0  0  0  0  0  # atno 17395 bound_to 11000

$$$$
