AV-unprocessed.smi:1554|AV-procd|sdf|6248|dock8
  -GOLD-   22720 6433D 1   1.00000     0.00000
 Structure written by MMmdl.
 48 50  0  0  0  0  0  0  0  0  2 V2000
  152.4548  143.0967  160.4678 C   0  0  0  0  0  0  0  0  0  0  0  0
  151.9786  142.3959  159.2076 C   0  0  0  0  0  0  0  0  0  0  0  0
  152.6557  141.2357  158.7691 C   0  0  0  0  0  0  0  0  0  0  0  0
  152.2435  140.5531  157.6040 C   0  0  0  0  0  0  0  0  0  0  0  0
  152.7529  139.4166  157.0003 N   0  0  0  0  0  0  0  0  0  0  0  0
  151.9452  139.2841  155.9523 C   0  0  0  0  0  0  0  0  0  0  0  0
  150.9753  140.2067  155.8004 N   0  0  0  0  0  0  0  0  0  0  0  0
  149.9907  140.2753  154.7323 C   0  0  0  0  0  0  0  0  0  0  0  0
  149.6039  138.8937  154.1588 C   0  0  2  0  0  0  0  0  0  0  0  0
  148.5945  139.0731  153.1834 O   0  0  0  0  0  0  0  0  0  0  0  0
  149.0911  137.9110  155.2351 C   0  0  0  0  0  0  0  0  0  0  0  0
  149.1834  136.4881  154.8126 N   0  3  1  0  0  0  0  0  0  0  0  0
  150.5622  135.9355  154.7967 C   0  0  0  0  0  0  0  0  0  0  0  0
  151.0475  135.5796  156.2162 C   0  0  0  0  0  0  0  0  0  0  0  0
  150.1176  134.7036  156.8418 O   0  0  0  0  0  0  0  0  0  0  0  0
  148.8244  135.2840  156.9724 C   0  0  2  0  0  0  0  0  0  0  0  0
  147.9338  134.3003  157.7388 C   0  0  0  0  0  0  0  0  0  0  0  0
  148.2739  135.5882  155.5638 C   0  0  0  0  0  0  0  0  0  0  0  0
  151.1274  141.0680  156.8823 C   0  0  0  0  0  0  0  0  0  0  0  0
  150.4439  142.2202  157.3103 C   0  0  0  0  0  0  0  0  0  0  0  0
  150.8695  142.8905  158.4759 C   0  0  0  0  0  0  0  0  0  0  0  0
  150.1259  144.1350  158.9282 C   0  0  0  0  0  0  0  0  0  0  0  0
  153.2922  142.5686  160.9245 H   0  0  0  0  0  0  0  0  0  0  0  0
  151.6519  143.1477  161.2033 H   0  0  0  0  0  0  0  0  0  0  0  0
  152.7826  144.1114  160.2406 H   0  0  0  0  0  0  0  0  0  0  0  0
  153.5000  140.8581  159.3268 H   0  0  0  0  0  0  0  0  0  0  0  0
  152.0701  138.4742  155.2483 H   0  0  0  0  0  0  0  0  0  0  0  0
  149.1064  140.7914  155.1086 H   0  0  0  0  0  0  0  0  0  0  0  0
  150.3936  140.9046  153.9382 H   0  0  0  0  0  0  0  0  0  0  0  0
  150.4808  138.4877  153.6557 H   0  0  0  0  0  0  0  0  0  0  0  0
  148.9628  139.5212  152.4378 H   0  0  0  0  0  0  0  0  0  0  0  0
  149.6437  138.0526  156.1634 H   0  0  0  0  0  0  0  0  0  0  0  0
  148.0528  138.1548  155.4651 H   0  0  0  0  0  0  0  0  0  0  0  0
  150.5561  135.0319  154.1859 H   0  0  0  0  0  0  0  0  0  0  0  0
  151.2584  136.6219  154.3164 H   0  0  0  0  0  0  0  0  0  0  0  0
  152.0154  135.0809  156.1634 H   0  0  0  0  0  0  0  0  0  0  0  0
  151.1907  136.4718  156.8269 H   0  0  0  0  0  0  0  0  0  0  0  0
  148.8989  136.2043  157.5544 H   0  0  0  0  0  0  0  0  0  0  0  0
  146.9292  134.7026  157.8716 H   0  0  0  0  0  0  0  0  0  0  0  0
  148.3419  134.0946  158.7287 H   0  0  0  0  0  0  0  0  0  0  0  0
  147.8468  133.3504  157.2102 H   0  0  0  0  0  0  0  0  0  0  0  0
  147.2725  136.0168  155.6200 H   0  0  0  0  0  0  0  0  0  0  0  0
  148.1748  134.6578  155.0027 H   0  0  0  0  0  0  0  0  0  0  0  0
  149.5983  142.5855  156.7472 H   0  0  0  0  0  0  0  0  0  0  0  0
  149.3273  144.3966  158.2334 H   0  0  0  0  0  0  0  0  0  0  0  0
  150.8052  144.9853  158.9914 H   0  0  0  0  0  0  0  0  0  0  0  0
  149.6774  143.9755  159.9089 H   0  0  0  0  0  0  0  0  0  0  0  0
  148.8528  136.4758  153.8584 H   0  0  0  0  0  0  0  0  0  0  0  0
  1  2  1  0  0  0  0
  1 23  1  0  0  0  0
  1 24  1  0  0  0  0
  1 25  1  0  0  0  0
  2 21  1  0  0  0  0
  2  3  2  0  0  0  0
  3  4  1  0  0  0  0
  3 26  1  0  0  0  0
  4 19  2  0  0  0  0
  4  5  1  0  0  0  0
  5  6  2  0  0  0  0
  6  7  1  0  0  0  0
  6 27  1  0  0  0  0
  7  8  1  0  0  0  0
  7 19  1  0  0  0  0
  8  9  1  0  0  0  0
  8 28  1  0  0  0  0
  8 29  1  0  0  0  0
  9 10  1  0  0  0  0
  9 11  1  0  0  0  0
  9 30  1  0  0  0  0
 10 31  1  0  0  0  0
 11 12  1  0  0  0  0
 11 32  1  0  0  0  0
 11 33  1  0  0  0  0
 12 18  1  0  0  0  0
 12 13  1  0  0  0  0
 12 48  1  0  0  0  0
 13 14  1  0  0  0  0
 13 34  1  0  0  0  0
 13 35  1  0  0  0  0
 14 15  1  0  0  0  0
 14 36  1  0  0  0  0
 14 37  1  0  0  0  0
 15 16  1  0  0  0  0
 16 17  1  0  0  0  0
 16 18  1  0  0  0  0
 16 38  1  0  0  0  0
 17 39  1  0  0  0  0
 17 40  1  0  0  0  0
 17 41  1  0  0  0  0
 18 42  1  0  0  0  0
 18 43  1  0  0  0  0
 19 20  1  0  0  0  0
 20 21  2  0  0  0  0
 20 44  1  0  0  0  0
 21 22  1  0  0  0  0
 22 45  1  0  0  0  0
 22 46  1  0  0  0  0
 22 47  1  0  0  0  0
M  CHG  1  12   1
M  END
> <s_m_source_file>
AV-unprocessed.smi

> <i_m_source_file_index>
1554

> <i_lp_mmshare_version>
43012

> <i_f3d_flags>
0

> <s_epik_input>
W0NIM11jKFtjSF0xKWMoW0NIM10pW2NIXWMoYzEyKW4oW2NIXW4yKVtDSDJdW0NASF0oW09IXSlbQ0gyXU4zW0NIMl1bQ0gyXU9bQ0BASF0oW0NIM10pW0NIMl0z

> <s_epik_cmdline>
J2VwaWtfcHl0aG9uJywgJy1waCcsICc3LjAnLCAnLXRuJywgJzgnLCAnLW1hJywgJzIwMCcsICctbWV0YWxfYmluZGluZycsICctaW1hZScsICc8aW5maWxlLm1hZT4nLCAnLW9tYWUnLCAnPG91dGZpbGUubWFlPic=

> <r_epik_Ionization_Penalty>
0.695251

> <r_epik_Ionization_Penalty_Charging>
0.608065

> <r_epik_Ionization_Penalty_Neutral>
0.0871863

> <r_epik_State_Penalty>
0.731955

> <r_epik_Charging_Adjusted_Penalty>
1.34002

> <i_epik_Tot_Q>
1

> <i_epik_Tot_abs_Q>
1

> <r_epik_Metal_State_Penalty>
0.652186

> <b_epik_Metal_Only>
0

> <s_lp_Force_Field>
OPLS_2005

> <r_lp_Energy>
22.8588

> <b_lp_Chiralities_Consistent>
1

> <s_lp_Variant>
AV-unprocessed.smi:1554-9

> <Gold.Version>
5.8.1

> <Gold.Id.Protein>
6NUR|6NUR_protein|mol2

> <Gold.PLP.Fitness>
47.1156

> <Gold.PLP.PLP>
-36.5471

> <Gold.PLP.part.hbond>
-3.7656

> <Gold.PLP.part.metal>
0.0000

> <Gold.PLP.part.buried>
-2.4818

> <Gold.PLP.part.nonpolar>
-29.8445

> <Gold.PLP.part.repulsive>
0.0126

> <Gold.PLP.ligand.clash>
0.0000

> <Gold.PLP.ligand.torsion>
0.7188

> <Gold.PLP.Chemscore.Hbond>
3.9913

> <Gold.PLP.Chemscore.CHOScore>
0.0000

> <Gold.PLP.Chemscore.Metal>
0.0000

> <Gold.Chemscore.Hbonds>
donor molecule, donor type, donor heavy atom, donor atom, acceptor molecule, acceptor atom, score
      L1  H    10    31       P1  7957  0.96
      L1  H    12    48       P1  7948  2.00
      P1  H  7997  8010       L1     5  0.95

> <Gold.PLP.Chemscore.Internal.Correction>
0.0324

> <Gold.Rescore>
     Score         DG    S(hbond)    S(metal)    S(lipo)     H(rot)  DE(clash)    DE(int)     intcor
     18.52     -19.33       2.08        0.00     104.02       2.05       0.19       0.62       ----

> <Gold.Chemscore.Fitness>
18.5152

> <Gold.Chemscore.DG>
-19.3274

> <Gold.Chemscore.ZeroCoef>
-5.4800

> <Gold.Chemscore.Hbond>
2.0769

> <Gold.Chemscore.Metal>
0.0000

> <Gold.Chemscore.Lipo>
104.0177

> <Gold.Chemscore.Internal_Hbond>
0.0000

> <Gold.Chemscore.DEClash>
0.1949

> <Gold.Chemscore.DEInternal>
0.6173

> <Gold.Chemscore.Rot>
2.0546

> <Gold.Chemscore.Internal.Correction>
   9.000000E+99

> <Gold.Chemscore.Hbonds>
donor molecule, donor type, donor heavy atom, donor atom, acceptor molecule, acceptor atom, score
      L1  H    10    31       P1  7957  0.91
      L1  H    12    48       P1  7948  0.95
      P1  H  7997  8010       L1     5  0.13

> <Gold.Chemscore.Hbond.Weighted>
-6.9370

> <Gold.Chemscore.Metal.Weighted>
-0.0000

> <Gold.Chemscore.Lipo.Weighted>
-12.1701

> <Gold.Chemscore.Internal_Hbond.Weighted>
0.0000

> <Gold.Chemscore.DEClash.Weighted>
0.1949

> <Gold.Chemscore.DEInternal.Weighted>
0.6173

> <Gold.Chemscore.Rot.Weighted>
5.2597

> <Gold.Chemscore.Internal.Correction.Weighted>
   9.000000E+99

> <Gold.Protein.RotatedTorsions>
[ 6907 6896 6895 6894 ] final  -54.22 input  -60.11 | X-H torsion
[ 7974 7965 7964 7962 ] final   67.68 input  175.53 | X-H torsion
[ 8008 7997 7996 7995 ] final   75.82 input   59.86 | X-H torsion
[ 10167 10162 10161 10158 ] final   85.61 input  -65.29 | X-H torsion
[ 10718 10713 10712 10709 ] final -175.81 input   66.30 | X-H torsion
[ 10763 10752 10751 10750 ] final  -24.28 input  -60.55 | X-H torsion
[ 11005 11000 10999 10996 ] final   70.13 input  -57.11 | X-H torsion

> <Gold.Protein.ActiveResidues>
 VAL166  LYS551  ARG553  GLY616  TRP617  ASP618  TYR619  PRO620  LYS621  CYS622 
 ASP623  PHE694  ASN695  SER759  ASP760  ASP761  ALA762  ILE779  LEU786  VAL792 
 PHE793  MET794  SER795  GLU796  ALA797  LYS798  CYS799  TRP800  GLU811  SER814 

> <Gold.Protein.RotatedAtoms>
  150.8357  134.7629  159.6890 H   0  0  0  0  0  0  0  0  0  0  0  0  # atno 6907 bound_to 6896
  152.4454  134.5501  159.9874 H   0  0  0  0  0  0  0  0  0  0  0  0  # atno 6908 bound_to 6896
  151.5652  133.3360  159.3014 H   0  0  0  0  0  0  0  0  0  0  0  0  # atno 6909 bound_to 6896
  145.8118  139.3036  143.1095 H   0  0  0  0  0  0  0  0  0  0  0  0  # atno 7974 bound_to 7965
  155.8184  140.3470  155.5499 H   0  0  0  0  0  0  0  0  0  0  0  0  # atno 8008 bound_to 7997
  155.8368  140.0935  157.1779 H   0  0  0  0  0  0  0  0  0  0  0  0  # atno 8009 bound_to 7997
  154.4004  140.1402  156.3667 H   0  0  0  0  0  0  0  0  0  0  0  0  # atno 8010 bound_to 7997
  139.8959  144.6358  150.8688 H   0  0  0  0  0  0  0  0  0  0  0  0  # atno 10167 bound_to 10162
  156.8053  130.9567  151.3117 H   0  0  0  0  0  0  0  0  0  0  0  0  # atno 10718 bound_to 10713
  153.6813  135.6966  153.5117 H   0  0  0  0  0  0  0  0  0  0  0  0  # atno 10763 bound_to 10752
  153.2483  135.4283  155.0770 H   0  0  0  0  0  0  0  0  0  0  0  0  # atno 10764 bound_to 10752
  154.8399  135.3525  154.6356 H   0  0  0  0  0  0  0  0  0  0  0  0  # atno 10765 bound_to 10752
  139.9614  134.7054  156.0637 H   0  0  0  0  0  0  0  0  0  0  0  0  # atno 11005 bound_to 11000
  145.9769  140.8714  143.0134 LP  0  0  0  0  0  0  0  0  0  0  0  0  # atno 17320 bound_to 7965
  144.6756  140.2025  143.7385 LP  0  0  0  0  0  0  0  0  0  0  0  0  # atno 17321 bound_to 7965
  140.7717  143.3473  151.2084 LP  0  0  0  0  0  0  0  0  0  0  0  0  # atno 17342 bound_to 10162
  139.7068  143.9442  152.2930 LP  0  0  0  0  0  0  0  0  0  0  0  0  # atno 17343 bound_to 10162
  157.6533  130.8903  149.9677 LP  0  0  0  0  0  0  0  0  0  0  0  0  # atno 17370 bound_to 10713
  156.1076  130.3652  150.0105 LP  0  0  0  0  0  0  0  0  0  0  0  0  # atno 17371 bound_to 10713
  141.1292  133.6591  156.3418 LP  0  0  0  0  0  0  0  0  0  0  0  0  # atno 17394 bound_to 11000
  140.5491  134.6045  157.5402 LP  0  0  0  0  0  0  0  0  0  0  0  0  # atno 17395 bound_to 11000

$$$$
