AV-unprocessed.smi:3009|AV-procd|sdf|11449|dock1
  -GOLD-   2272016383D 1   1.00000     0.00000
 Structure written by MMmdl.
 44 45  0  0  0  0  0  0  0  0  2 V2000
  144.5658  133.5122  151.3635 C   0  0  0  0  0  0  0  0  0  0  0  0
  145.0081  132.5461  150.2546 C   0  0  0  0  0  0  0  0  0  0  0  0
  144.0673  132.6554  149.0428 C   0  0  0  0  0  0  0  0  0  0  0  0
  145.0891  131.1016  150.7957 C   0  0  0  0  0  0  0  0  0  0  0  0
  146.3612  130.8096  151.5056 N   0  3  1  0  0  0  0  0  0  0  0  0
  146.5502  131.6022  152.7459 C   0  0  0  0  0  0  0  0  0  0  0  0
  147.9016  131.2649  153.3970 C   0  0  0  0  0  0  0  0  0  0  0  0
  147.9727  129.8678  153.6504 O   0  0  0  0  0  0  0  0  0  0  0  0
  147.8939  129.0985  152.4544 C   0  0  1  0  0  0  0  0  0  0  0  0
  148.0761  127.6134  152.8165 C   0  0  0  0  0  0  0  0  0  0  0  0
  149.2173  127.0195  152.1282 N   0  0  0  0  0  0  0  0  0  0  0  0
  149.1559  125.9482  151.3254 C   0  0  0  0  0  0  0  0  0  0  0  0
  148.1114  125.3445  151.0800 O   0  0  0  0  0  0  0  0  0  0  0  0
  150.3652  125.6338  150.8343 N   0  0  0  0  0  0  0  0  0  0  0  0
  150.6787  124.5798  149.9401 C   0  0  0  0  0  0  0  0  0  0  0  0
  150.5747  123.1710  150.1343 C   0  0  0  0  0  0  0  0  0  0  0  0
  150.9626  122.5080  149.0541 N   0  0  0  0  0  0  0  0  0  0  0  0
  151.3118  123.4750  148.1762 N   0  0  0  0  0  0  0  0  0  0  0  0
  151.1541  124.7496  148.6738 C   0  0  0  0  0  0  0  0  0  0  0  0
  146.5306  129.3643  151.7881 C   0  0  0  0  0  0  0  0  0  0  0  0
  151.6519  123.2511  147.2517 H   0  0  0  0  0  0  0  0  0  0  0  0
  143.5690  133.2654  151.7305 H   0  0  0  0  0  0  0  0  0  0  0  0
  144.5422  134.5414  151.0036 H   0  0  0  0  0  0  0  0  0  0  0  0
  145.2503  133.4785  152.2117 H   0  0  0  0  0  0  0  0  0  0  0  0
  146.0002  132.8674  149.9391 H   0  0  0  0  0  0  0  0  0  0  0  0
  143.0529  132.3467  149.2980 H   0  0  0  0  0  0  0  0  0  0  0  0
  144.4070  132.0333  148.2145 H   0  0  0  0  0  0  0  0  0  0  0  0
  144.0190  133.6814  148.6770 H   0  0  0  0  0  0  0  0  0  0  0  0
  144.2516  130.8951  151.4641 H   0  0  0  0  0  0  0  0  0  0  0  0
  144.9808  130.4155  149.9543 H   0  0  0  0  0  0  0  0  0  0  0  0
  146.5153  132.6692  152.5299 H   0  0  0  0  0  0  0  0  0  0  0  0
  145.7390  131.3900  153.4442 H   0  0  0  0  0  0  0  0  0  0  0  0
  148.7308  131.5757  152.7593 H   0  0  0  0  0  0  0  0  0  0  0  0
  148.0085  131.8004  154.3405 H   0  0  0  0  0  0  0  0  0  0  0  0
  148.6892  129.4050  151.7723 H   0  0  0  0  0  0  0  0  0  0  0  0
  148.2275  127.5042  153.8908 H   0  0  0  0  0  0  0  0  0  0  0  0
  147.1736  127.0503  152.5732 H   0  0  0  0  0  0  0  0  0  0  0  0
  150.1157  127.4564  152.2736 H   0  0  0  0  0  0  0  0  0  0  0  0
  151.1414  126.2085  151.1278 H   0  0  0  0  0  0  0  0  0  0  0  0
  150.2402  122.6123  150.9957 H   0  0  0  0  0  0  0  0  0  0  0  0
  151.3875  125.6346  148.1007 H   0  0  0  0  0  0  0  0  0  0  0  0
  145.7195  129.0207  152.4324 H   0  0  0  0  0  0  0  0  0  0  0  0
  146.4634  128.7989  150.8577 H   0  0  0  0  0  0  0  0  0  0  0  0
  147.1084  131.0624  150.8744 H   0  0  0  0  0  0  0  0  0  0  0  0
  1  2  1  0  0  0  0
  1 22  1  0  0  0  0
  1 23  1  0  0  0  0
  1 24  1  0  0  0  0
  2  3  1  0  0  0  0
  2  4  1  0  0  0  0
  2 25  1  0  0  0  0
  3 26  1  0  0  0  0
  3 27  1  0  0  0  0
  3 28  1  0  0  0  0
  4  5  1  0  0  0  0
  4 29  1  0  0  0  0
  4 30  1  0  0  0  0
  5 20  1  0  0  0  0
  5  6  1  0  0  0  0
  5 44  1  0  0  0  0
  6  7  1  0  0  0  0
  6 31  1  0  0  0  0
  6 32  1  0  0  0  0
  7  8  1  0  0  0  0
  7 33  1  0  0  0  0
  7 34  1  0  0  0  0
  8  9  1  0  0  0  0
  9 10  1  0  0  0  0
  9 20  1  0  0  0  0
  9 35  1  0  0  0  0
 10 11  1  0  0  0  0
 10 36  1  0  0  0  0
 10 37  1  0  0  0  0
 11 12  1  0  0  0  0
 11 38  1  0  0  0  0
 12 13  2  0  0  0  0
 12 14  1  0  0  0  0
 14 15  1  0  0  0  0
 14 39  1  0  0  0  0
 15 19  2  0  0  0  0
 15 16  1  0  0  0  0
 16 17  2  0  0  0  0
 16 40  1  0  0  0  0
 17 18  1  0  0  0  0
 18 21  1  0  0  0  0
 18 19  1  0  0  0  0
 19 41  1  0  0  0  0
 20 42  1  0  0  0  0
 20 43  1  0  0  0  0
M  CHG  1   5   1
M  END
> <s_m_source_file>
AV-unprocessed.smi

> <i_m_source_file_index>
3009

> <i_lp_mmshare_version>
43012

> <i_f3d_flags>
0

> <s_epik_input>
W0NIM11bQ0hdKFtDSDNdKVtDSDJdTjFbQ0gyXVtDSDJdT1tDQEhdKFtDSDJdMSlbQ0gyXVtOSF1DKD1PKVtOSF1jMltjSF1uW25IXVtjSF0y

> <s_epik_cmdline>
J2VwaWtfcHl0aG9uJywgJy1waCcsICc3LjAnLCAnLXRuJywgJzgnLCAnLW1hJywgJzIwMCcsICctbWV0YWxfYmluZGluZycsICctaW1hZScsICc8aW5maWxlLm1hZT4nLCAnLW9tYWUnLCAnPG91dGZpbGUubWFlPic=

> <r_lp_tautomer_probability>
0.5

> <r_epik_Ionization_Penalty>
0.0974064

> <r_epik_Ionization_Penalty_Charging>
0.0973651

> <r_epik_Ionization_Penalty_Neutral>
4.13573e-05

> <r_epik_State_Penalty>
0.0874853

> <r_epik_Charging_Adjusted_Penalty>
0.18485

> <i_epik_Tot_Q>
1

> <i_epik_Tot_abs_Q>
1

> <r_epik_Metal_State_Penalty>
0.0874855

> <b_epik_Metal_Only>
0

> <s_lp_Force_Field>
OPLS_2005

> <r_lp_Energy>
19.2351

> <b_lp_Chiralities_Consistent>
1

> <s_lp_Variant>
AV-unprocessed.smi:3009-1

> <Gold.Version>
5.8.1

> <Gold.Id.Protein>
6NUR|6NUR_protein|mol2

> <Gold.PLP.Fitness>
42.4974

> <Gold.PLP.PLP>
-30.7610

> <Gold.PLP.part.hbond>
-3.0000

> <Gold.PLP.part.metal>
0.0000

> <Gold.PLP.part.buried>
-3.4735

> <Gold.PLP.part.nonpolar>
-23.9504

> <Gold.PLP.part.repulsive>
0.2535

> <Gold.PLP.ligand.clash>
0.0000

> <Gold.PLP.ligand.torsion>
1.6631

> <Gold.PLP.Chemscore.Hbond>
2.9516

> <Gold.PLP.Chemscore.CHOScore>
2.0000

> <Gold.PLP.Chemscore.Metal>
0.0000

> <Gold.Chemscore.Hbonds>
donor molecule, donor type, donor heavy atom, donor atom, acceptor molecule, acceptor atom, score
      L1  H     5    44       P1 10747  0.99
      L1  H    11    38       P1 10737  0.98
      L1  H    14    39       P1 10737  1.00
      L1  C    19    41       P1 10722  0.66
      L1  C    19    41       P1 10769  1.00

> <Gold.PLP.Chemscore.Internal.Correction>
0.2077

> <Gold.Rescore>
     Score         DG    S(hbond)    S(metal)    S(lipo)     H(rot)  DE(clash)    DE(int)     intcor
     18.42     -20.26       2.88        0.00      83.39       1.80       0.25       1.59       ----

> <Gold.Chemscore.Fitness>
18.4195

> <Gold.Chemscore.DG>
-20.2625

> <Gold.Chemscore.ZeroCoef>
-5.4800

> <Gold.Chemscore.Hbond>
2.8815

> <Gold.Chemscore.Metal>
0.0000

> <Gold.Chemscore.Lipo>
83.3900

> <Gold.Chemscore.Internal_Hbond>
0.0000

> <Gold.Chemscore.DEClash>
0.2494

> <Gold.Chemscore.DEInternal>
1.5936

> <Gold.Chemscore.Rot>
1.7963

> <Gold.Chemscore.Internal.Correction>
   9.000000E+99

> <Gold.Chemscore.Hbonds>
donor molecule, donor type, donor heavy atom, donor atom, acceptor molecule, acceptor atom, score
      L1  H     5    44       P1 10747  0.93
      L1  H    11    38       P1 10737  0.88
      L1  H    14    39       P1 10737  0.99

> <Gold.Chemscore.Hbond.Weighted>
-9.6243

> <Gold.Chemscore.Metal.Weighted>
-0.0000

> <Gold.Chemscore.Lipo.Weighted>
-9.7566

> <Gold.Chemscore.Internal_Hbond.Weighted>
0.0000

> <Gold.Chemscore.DEClash.Weighted>
0.2494

> <Gold.Chemscore.DEInternal.Weighted>
1.5936

> <Gold.Chemscore.Rot.Weighted>
4.5985

> <Gold.Chemscore.Internal.Correction.Weighted>
   9.000000E+99

> <Gold.Protein.RotatedTorsions>
[ 6907 6896 6895 6894 ] final  -56.27 input  -60.11 | X-H torsion
[ 7974 7965 7964 7962 ] final  150.15 input  175.53 | X-H torsion
[ 8008 7997 7996 7995 ] final -161.17 input   59.86 | X-H torsion
[ 10167 10162 10161 10158 ] final  -11.95 input  -65.29 | X-H torsion
[ 10718 10713 10712 10709 ] final   99.79 input   66.30 | X-H torsion
[ 10763 10752 10751 10750 ] final  128.74 input  -60.55 | X-H torsion
[ 11005 11000 10999 10996 ] final  -84.50 input  -57.11 | X-H torsion

> <Gold.Protein.ActiveResidues>
 VAL166  LYS551  ARG553  GLY616  TRP617  ASP618  TYR619  PRO620  LYS621  CYS622 
 ASP623  PHE694  ASN695  SER759  ASP760  ASP761  ALA762  ILE779  LEU786  VAL792 
 PHE793  MET794  SER795  GLU796  ALA797  LYS798  CYS799  TRP800  GLU811  SER814 

> <Gold.Protein.RotatedAtoms>
  150.8182  134.7375  159.6748 H   0  0  0  0  0  0  0  0  0  0  0  0  # atno 6907 bound_to 6896
  152.4299  134.5794  159.9953 H   0  0  0  0  0  0  0  0  0  0  0  0  # atno 6908 bound_to 6896
  151.5985  133.3321  159.3078 H   0  0  0  0  0  0  0  0  0  0  0  0  # atno 6909 bound_to 6896
  144.8385  139.6372  143.6027 H   0  0  0  0  0  0  0  0  0  0  0  0  # atno 7974 bound_to 7965
  155.7883  140.0874  157.2022 H   0  0  0  0  0  0  0  0  0  0  0  0  # atno 8008 bound_to 7997
  154.3986  140.1495  156.3191 H   0  0  0  0  0  0  0  0  0  0  0  0  # atno 8009 bound_to 7997
  155.8584  140.3431  155.5743 H   0  0  0  0  0  0  0  0  0  0  0  0  # atno 8010 bound_to 7997
  140.7150  143.5585  150.9222 H   0  0  0  0  0  0  0  0  0  0  0  0  # atno 10167 bound_to 10162
  157.6868  131.0680  150.5002 H   0  0  0  0  0  0  0  0  0  0  0  0  # atno 10718 bound_to 10713
  153.7305  135.3239  155.3285 H   0  0  0  0  0  0  0  0  0  0  0  0  # atno 10763 bound_to 10752
  154.8327  135.4521  154.1127 H   0  0  0  0  0  0  0  0  0  0  0  0  # atno 10764 bound_to 10752
  153.2273  135.6955  153.8011 H   0  0  0  0  0  0  0  0  0  0  0  0  # atno 10765 bound_to 10752
  141.1650  133.7349  156.8877 H   0  0  0  0  0  0  0  0  0  0  0  0  # atno 11005 bound_to 11000
  146.2681  139.6568  142.9315 LP  0  0  0  0  0  0  0  0  0  0  0  0  # atno 17320 bound_to 7965
  145.4744  141.0437  143.2681 LP  0  0  0  0  0  0  0  0  0  0  0  0  # atno 17321 bound_to 7965
  139.9310  143.6493  152.3076 LP  0  0  0  0  0  0  0  0  0  0  0  0  # atno 17342 bound_to 10162
  139.6944  144.7643  151.1382 LP  0  0  0  0  0  0  0  0  0  0  0  0  # atno 17343 bound_to 10162
  156.5324  130.4188  149.6195 LP  0  0  0  0  0  0  0  0  0  0  0  0  # atno 17370 bound_to 10713
  156.3057  130.7201  151.2083 LP  0  0  0  0  0  0  0  0  0  0  0  0  # atno 17371 bound_to 10713
  140.1670  134.9126  157.2787 LP  0  0  0  0  0  0  0  0  0  0  0  0  # atno 17394 bound_to 11000
  140.2545  134.3644  155.7429 LP  0  0  0  0  0  0  0  0  0  0  0  0  # atno 17395 bound_to 11000

$$$$
