#       Name:                AV-unprocessed.smi:1804
#       Creating user name   scv26
#       Creation time:       Fri Mar 27 08:55:24 2020


#       File generated by GOLD software.
#

@<TRIPOS>MOLECULE
AV-unprocessed.smi:1804
    48    49     1
SMALL
NO_CHARGES


@<TRIPOS>ATOM
      1 ****        -2.8654  -0.9333   0.6110 C.3            1 S1                 0.0000
      2 ****        -2.2302  -0.3026  -0.5767 N.4            1 S1                 1.0000
      3 ****        -2.7586  -0.9281  -1.8180 C.3            1 S1                 0.0000
      4 ****        -0.7318  -0.1477  -0.5040 C.3            1 S1                 0.0000
      5 ****        -0.0664  -1.5585  -0.3830 C.3            1 S1                 0.0000
      6 ****         1.3947  -1.5181  -0.3140 N.am           1 S1                 0.0000
      7 ****         2.1488  -1.6931   0.7807 C.2            1 S1                 0.0000
      8 ****         1.6161  -1.9197   1.8694 O.2            1 S1                 0.0000
      9 ****         3.4755  -1.5893   0.5448 N.pl3          1 S1                -1.0000
     10 ****         4.3494  -1.7450   1.5529 C.2            1 S1                 0.0000
     11 ****         4.8675  -0.7028   2.2224 N.2            1 S1                 0.0000
     12 ****         5.7504  -1.0826   3.2244 N.2            1 S1                 0.0000
     13 ****         5.8827  -2.4077   3.2791 C.2            1 S1                 0.0000
     14 ****         4.9437  -3.3115   2.1100 S.3            1 S1                 0.0000
     15 ****        -0.1507   0.5345  -1.7868 C.3            1 S1                 0.0000
     16 ****        -0.7544   1.8792  -2.2345 C.3            1 S1                 0.0000
     17 ****        -0.6353   3.0208  -1.2170 C.3            1 S1                 0.0000
     18 ****        -1.6222   2.8673  -0.0555 C.3            1 S1                 0.0000
     19 ****        -1.1369   1.9717   1.0939 C.3            1 S1                 0.0000
     20 ****        -0.3175   0.7097   0.7349 C.3            1 S1                 0.0000
     21 ****        -2.6974  -2.0103   0.6302 H              1 S1                 0.0000
     22 ****        -3.9440  -0.7761   0.5801 H              1 S1                 0.0000
     23 ****        -2.5158  -0.5240   1.5563 H              1 S1                 0.0000
     24 ****        -2.4625  -1.9738  -1.8991 H              1 S1                 0.0000
     25 ****        -2.4455  -0.4145  -2.7243 H              1 S1                 0.0000
     26 ****        -3.8487  -0.9000  -1.8124 H              1 S1                 0.0000
     27 ****        -0.4563  -2.1078   0.4736 H              1 S1                 0.0000
     28 ****        -0.3082  -2.1693  -1.2520 H              1 S1                 0.0000
     29 ****         1.8837  -1.3357  -1.1783 H              1 S1                 0.0000
     30 ****         6.5395  -2.8557   4.0097 H              1 S1                 0.0000
     31 ****         0.9207   0.6943  -1.6587 H              1 S1                 0.0000
     32 ****        -0.2140  -0.1566  -2.6279 H              1 S1                 0.0000
     33 ****        -0.2345   2.1851  -3.1430 H              1 S1                 0.0000
     34 ****        -1.7962   1.7591  -2.5300 H              1 S1                 0.0000
     35 ****         0.3882   3.1260  -0.8552 H              1 S1                 0.0000
     36 ****        -0.8667   3.9524  -1.7348 H              1 S1                 0.0000
     37 ****        -1.8373   3.8535   0.3576 H              1 S1                 0.0000
     38 ****        -2.5785   2.5035  -0.4325 H              1 S1                 0.0000
     39 ****        -0.5231   2.5756   1.7635 H              1 S1                 0.0000
     40 ****        -2.0042   1.6923   1.6912 H              1 S1                 0.0000
     41 ****        -0.3053   0.0797   1.6248 H              1 S1                 0.0000
     42 ****         0.7233   1.0149   0.6172 H              1 S1                 0.0000
     43 ****        -2.5762   0.6462  -0.5893 H              1 S1                 0.0000
     44 ****         0.6198  -1.9733   1.9371 LP             1 S1                 0.0000
     45 ****         2.1803  -2.0500   2.6847 LP             1 S1                 0.0000
     46 ****         3.8061  -1.3969  -0.3791 LP             1 S1                 0.0000
     47 ****         4.6406   0.2498   2.0200 LP             1 S1                 0.0000
     48 ****         6.2265  -0.4433   3.8282 LP             1 S1                 0.0000
@<TRIPOS>BOND
    1    1    2 1     
    2    1   21 1     
    3    1   22 1     
    4    1   23 1     
    5    2    3 1     
    6    2    4 1     
    7    2   43 1     
    8    3   24 1     
    9    3   25 1     
   10    3   26 1     
   11    4   20 1     
   12    4    5 1     
   13    4   15 1     
   14    5    6 1     
   15    5   27 1     
   16    5   28 1     
   17    6    7 am    
   18    6   29 1     
   19    7    8 2     
   20    7    9 1     
   21    9   10 1     
   22   10   14 1     
   23   10   11 2     
   24   11   12 1     
   25   12   13 2     
   26   13   14 1     
   27   13   30 1     
   28   15   16 1     
   29   15   31 1     
   30   15   32 1     
   31   16   17 1     
   32   16   33 1     
   33   16   34 1     
   34   17   18 1     
   35   17   35 1     
   36   17   36 1     
   37   18   19 1     
   38   18   37 1     
   39   18   38 1     
   40   19   20 1     
   41   19   39 1     
   42   19   40 1     
   43   20   41 1     
   44   20   42 1     
   45    8   44 1     
   46    8   45 1     
   47    9   46 1     
   48   11   47 1     
   49   12   48 1     
@<TRIPOS>SUBSTRUCTURE
      1 S1             1
@<TRIPOS>SET
LONE_PAIRS      STATIC     ATOMS    <user>   **** ""
5 44 45 46 47 48
DONOR_HYDROGENS      STATIC     ATOMS    <user>   **** ""
2 43 29
ATOM$BLUE        STATIC     ATOMS    COLORGROUP SYSTEM
5 44 45 46 47 48
ATOM$RED        STATIC     ATOMS    COLORGROUP SYSTEM
2 43 29
