#       Name:                AV-unprocessed.smi:2911
#       Creating user name   scv26
#       Creation time:       Fri Mar 27 16:07:14 2020


#       File generated by GOLD software.
#

@<TRIPOS>MOLECULE
AV-unprocessed.smi:2911
    47    48     1
SMALL
NO_CHARGES


@<TRIPOS>ATOM
      1 ****        -7.3990   1.2318   2.0314 C.3            1 S1                 0.0000
      2 ****        -6.2480   0.6763   1.2643 C.2            1 S1                 0.0000
      3 ****        -6.3327  -0.4993   0.6538 N.2            1 S1                 0.0000
      4 ****        -5.0653  -0.6543   0.0738 O.3            1 S1                 0.0000
      5 ****        -4.3724   0.4645   0.3961 C.2            1 S1                 0.0000
      6 ****        -2.9506   0.5840  -0.0396 C.3            1 S1                 0.0000
      7 ****        -1.9804  -0.1026   0.9348 C.3            1 S1                 0.0000
      8 ****        -0.5922   0.0722   0.5230 N.am           1 S1                 0.0000
      9 ****         0.0330  -0.6398  -0.4304 C.2            1 S1                 0.0000
     10 ****        -0.5358  -1.5503  -1.0351 O.2            1 S1                 0.0000
     11 ****         1.3389  -0.3138  -0.6266 N.am           1 S1                 0.0000
     12 ****         1.9836   0.9268  -0.1414 C.3            1 S1                 0.0000
     13 ****         3.2753   0.6110   0.6258 C.3            1 S1                 0.0000
     14 ****         4.2539  -0.1800  -0.2544 C.3            1 S1                 0.0000
     15 ****         5.5460  -0.5231   0.5002 C.3            1 S1                 0.0000
     16 ****         3.5601  -1.4409  -0.7957 C.3            1 S1                 0.0000
     17 ****         2.2098  -1.1462  -1.4858 C.3            1 S1                 0.0000
     18 ****         2.3444  -0.5544  -2.9008 C.3            1 S1                 0.0000
     19 ****        -5.0542   1.3209   1.1531 N.2            1 S1                 0.0000
     20 ****        -8.3357   1.0444   1.5054 H              1 S1                 0.0000
     21 ****        -7.2894   2.3086   2.1628 H              1 S1                 0.0000
     22 ****        -7.4533   0.7667   3.0158 H              1 S1                 0.0000
     23 ****        -2.8582   0.1525  -1.0369 H              1 S1                 0.0000
     24 ****        -2.7041   1.6423  -0.1328 H              1 S1                 0.0000
     25 ****        -2.0912   0.3260   1.9312 H              1 S1                 0.0000
     26 ****        -2.2155  -1.1647   1.0259 H              1 S1                 0.0000
     27 ****        -0.0630   0.7885   0.9987 H              1 S1                 0.0000
     28 ****         2.2101   1.5626  -0.9974 H              1 S1                 0.0000
     29 ****         1.3489   1.5391   0.4984 H              1 S1                 0.0000
     30 ****         3.7409   1.5393   0.9587 H              1 S1                 0.0000
     31 ****         3.0364   0.0427   1.5260 H              1 S1                 0.0000
     32 ****         4.5279   0.4478  -1.1032 H              1 S1                 0.0000
     33 ****         5.3443  -1.1507   1.3689 H              1 S1                 0.0000
     34 ****         6.0473   0.3795   0.8507 H              1 S1                 0.0000
     35 ****         6.2447  -1.0590  -0.1428 H              1 S1                 0.0000
     36 ****         4.2222  -1.9688  -1.4831 H              1 S1                 0.0000
     37 ****         3.3821  -2.1268   0.0341 H              1 S1                 0.0000
     38 ****         1.7567  -2.1294  -1.6242 H              1 S1                 0.0000
     39 ****         2.9105  -1.2237  -3.5489 H              1 S1                 0.0000
     40 ****         2.8577   0.4066  -2.8976 H              1 S1                 0.0000
     41 ****         1.3656  -0.4074  -3.3582 H              1 S1                 0.0000
     42 ****        -7.1126  -1.1241   0.6165 LP             1 S1                 0.0000
     43 ****        -5.1450  -0.7405  -0.9192 LP             1 S1                 0.0000
     44 ****        -4.6100  -1.4644   0.4433 LP             1 S1                 0.0000
     45 ****        -1.4863  -1.7754  -0.8208 LP             1 S1                 0.0000
     46 ****        -0.0469  -2.0641  -1.7400 LP             1 S1                 0.0000
     47 ****        -4.7675   2.1991   1.5361 LP             1 S1                 0.0000
@<TRIPOS>BOND
    1    1    2 1     
    2    1   20 1     
    3    1   21 1     
    4    1   22 1     
    5    2   19 1     
    6    2    3 2     
    7    3    4 1     
    8    4    5 1     
    9    5    6 1     
   10    5   19 2     
   11    6    7 1     
   12    6   23 1     
   13    6   24 1     
   14    7    8 1     
   15    7   25 1     
   16    7   26 1     
   17    8    9 am    
   18    8   27 1     
   19    9   10 2     
   20    9   11 am    
   21   11   17 1     
   22   11   12 1     
   23   12   13 1     
   24   12   28 1     
   25   12   29 1     
   26   13   14 1     
   27   13   30 1     
   28   13   31 1     
   29   14   15 1     
   30   14   16 1     
   31   14   32 1     
   32   15   33 1     
   33   15   34 1     
   34   15   35 1     
   35   16   17 1     
   36   16   36 1     
   37   16   37 1     
   38   17   18 1     
   39   17   38 1     
   40   18   39 1     
   41   18   40 1     
   42   18   41 1     
   43    3   42 1     
   44    4   43 1     
   45    4   44 1     
   46   10   45 1     
   47   10   46 1     
   48   19   47 1     
@<TRIPOS>SUBSTRUCTURE
      1 S1             1
@<TRIPOS>SET
LONE_PAIRS      STATIC     ATOMS    <user>   **** ""
6 42 43 44 45 46 47
DONOR_HYDROGENS      STATIC     ATOMS    <user>   **** ""
1 27
ATOM$BLUE        STATIC     ATOMS    COLORGROUP SYSTEM
6 42 43 44 45 46 47
ATOM$RED        STATIC     ATOMS    COLORGROUP SYSTEM
1 27
