#       Name:                AV-unprocessed.smi:1088
#       Creating user name   scv26
#       Creation time:       Fri Mar 27 03:26:44 2020


#       File generated by GOLD software.
#

@<TRIPOS>MOLECULE
AV-unprocessed.smi:1088
    56    57     1
SMALL
NO_CHARGES


@<TRIPOS>ATOM
      1 ****         0.2973   4.8356   1.2202 C.3            1 S1                 0.0000
      2 ****        -0.9542   4.2374   0.9343 O.3            1 S1                 0.0000
      3 ****        -1.5875   3.7195   2.0933 C.3            1 S1                 0.0000
      4 ****        -2.9114   3.0395   1.7118 C.3            1 S1                 0.0000
      5 ****        -2.9131   2.1850   0.5171 N.3            1 S1                 0.0000
      6 ****        -4.2783   1.8245   0.1736 C.3            1 S1                 0.0000
      7 ****        -4.1916   0.6553  -0.7997 C.3            1 S1                 0.0000
      8 ****        -2.8583  -0.0058  -0.4443 C.3            1 S1                 0.0000
      9 ****        -2.2390   0.8906   0.6481 C.3            1 S1                 0.0000
     10 ****        -0.6957   0.9127   0.5537 C.3            1 S1                 0.0000
     11 ****        -0.1318  -0.4255   0.7057 N.am           1 S1                 0.0000
     12 ****         0.4704  -1.1395  -0.2572 C.2            1 S1                 0.0000
     13 ****         0.6076  -0.7398  -1.4142 O.2            1 S1                 0.0000
     14 ****         0.9705  -2.5303   0.1568 C.3            1 S1                 0.0000
     15 ****         2.0563  -3.0329  -0.6946 N.am           1 S1                 0.0000
     16 ****         1.7738  -3.9296  -1.7087 C.2            1 S1                 0.0000
     17 ****         2.7114  -4.4326  -2.5410 C.2            1 S1                 0.0000
     18 ****         4.1120  -4.0490  -2.4117 C.2            1 S1                 0.0000
     19 ****         4.9942  -4.4734  -3.1587 O.2            1 S1                 0.0000
     20 ****         4.3749  -3.1389  -1.3596 N.am           1 S1                 0.0000
     21 ****         5.7330  -2.6819  -1.1511 C.3            1 S1                 0.0000
     22 ****         3.3877  -2.6065  -0.5011 C.2            1 S1                 0.0000
     23 ****         3.6656  -1.7951   0.3856 O.2            1 S1                 0.0000
     24 ****         0.7352   5.2248   0.3011 H              1 S1                 0.0000
     25 ****         0.9925   4.1090   1.6428 H              1 S1                 0.0000
     26 ****         0.1884   5.6654   1.9197 H              1 S1                 0.0000
     27 ****        -0.9368   3.0295   2.6279 H              1 S1                 0.0000
     28 ****        -1.7928   4.5336   2.7900 H              1 S1                 0.0000
     29 ****        -3.2929   2.4859   2.5709 H              1 S1                 0.0000
     30 ****        -3.6285   3.8442   1.5428 H              1 S1                 0.0000
     31 ****        -4.8154   1.5005   1.0669 H              1 S1                 0.0000
     32 ****        -4.8219   2.6706  -0.2481 H              1 S1                 0.0000
     33 ****        -5.0381  -0.0243  -0.6989 H              1 S1                 0.0000
     34 ****        -4.1693   1.0184  -1.8280 H              1 S1                 0.0000
     35 ****        -2.9912  -1.0281  -0.0887 H              1 S1                 0.0000
     36 ****        -2.2287  -0.0462  -1.3343 H              1 S1                 0.0000
     37 ****        -2.5168   0.4608   1.6123 H              1 S1                 0.0000
     38 ****        -0.3830   1.3773  -0.3829 H              1 S1                 0.0000
     39 ****        -0.2517   1.5078   1.3440 H              1 S1                 0.0000
     40 ****        -0.2024  -0.8418   1.6227 H              1 S1                 0.0000
     41 ****         1.2939  -2.5109   1.1993 H              1 S1                 0.0000
     42 ****         0.1240  -3.2176   0.1242 H              1 S1                 0.0000
     43 ****         0.7492  -4.2421  -1.8490 H              1 S1                 0.0000
     44 ****         2.4207  -5.1267  -3.3158 H              1 S1                 0.0000
     45 ****         5.9528  -2.7535  -0.0843 H              1 S1                 0.0000
     46 ****         5.7772  -1.6490  -1.4999 H              1 S1                 0.0000
     47 ****         6.4431  -3.3046  -1.6946 H              1 S1                 0.0000
     48 ****        -0.8114   3.4896   0.2860 LP             1 S1                 0.0000
     49 ****        -1.5519   4.9255   0.5230 LP             1 S1                 0.0000
     50 ****        -2.4288   2.7417  -0.1578 LP             1 S1                 0.0000
     51 ****         0.2610   0.1608  -1.6764 LP             1 S1                 0.0000
     52 ****         1.0655  -1.3160  -2.0912 LP             1 S1                 0.0000
     53 ****         4.7630  -5.1107  -3.8939 LP             1 S1                 0.0000
     54 ****         5.9417  -4.1809  -3.0301 LP             1 S1                 0.0000
     55 ****         2.9442  -1.4329   0.9759 LP             1 S1                 0.0000
     56 ****         4.6122  -1.4997   0.5142 LP             1 S1                 0.0000
@<TRIPOS>BOND
    1    1    2 1     
    2    1   24 1     
    3    1   25 1     
    4    1   26 1     
    5    2    3 1     
    6    3    4 1     
    7    3   27 1     
    8    3   28 1     
    9    4    5 1     
   10    4   29 1     
   11    4   30 1     
   12    5    9 1     
   13    5    6 1     
   14    6    7 1     
   15    6   31 1     
   16    6   32 1     
   17    7    8 1     
   18    7   33 1     
   19    7   34 1     
   20    8    9 1     
   21    8   35 1     
   22    8   36 1     
   23    9   10 1     
   24    9   37 1     
   25   10   11 1     
   26   10   38 1     
   27   10   39 1     
   28   11   12 am    
   29   11   40 1     
   30   12   13 2     
   31   12   14 1     
   32   14   15 1     
   33   14   41 1     
   34   14   42 1     
   35   15   22 am    
   36   15   16 1     
   37   16   17 2     
   38   16   43 1     
   39   17   18 1     
   40   17   44 1     
   41   18   19 2     
   42   18   20 am    
   43   20   21 1     
   44   20   22 am    
   45   21   45 1     
   46   21   46 1     
   47   21   47 1     
   48   22   23 2     
   49    2   48 1     
   50    2   49 1     
   51    5   50 1     
   52   13   51 1     
   53   13   52 1     
   54   19   53 1     
   55   19   54 1     
   56   23   55 1     
   57   23   56 1     
@<TRIPOS>SUBSTRUCTURE
      1 S1             1
@<TRIPOS>SET
LONE_PAIRS      STATIC     ATOMS    <user>   **** ""
9 48 49 50 51 52 53 54 55 56
DONOR_HYDROGENS      STATIC     ATOMS    <user>   **** ""
1 40
ATOM$BLUE        STATIC     ATOMS    COLORGROUP SYSTEM
9 48 49 50 51 52 53 54 55 56
ATOM$RED        STATIC     ATOMS    COLORGROUP SYSTEM
1 40
