#       Name:                AV-unprocessed.smi:688
#       Creating user name   scv26
#       Creation time:       Fri Mar 27 00:33:06 2020


#       File generated by GOLD software.
#

@<TRIPOS>MOLECULE
AV-unprocessed.smi:688
    44    45     1
SMALL
NO_CHARGES


@<TRIPOS>ATOM
      1 ****        -3.6200   2.3009   4.1391 O.2            1 S1                 0.0000
      2 ****        -3.1792   2.3672   2.9934 C.2            1 S1                 0.0000
      3 ****        -3.7844   1.6298   1.9711 N.am           1 S1                 0.0000
      4 ****        -3.3850   1.6150   0.6344 C.2            1 S1                 0.0000
      5 ****        -3.9948   0.9229  -0.1807 O.2            1 S1                 0.0000
      6 ****        -2.2730   2.4183   0.2927 N.am           1 S1                 0.0000
      7 ****        -1.8336   2.4103  -1.0830 C.3            1 S1                 0.0000
      8 ****        -1.0462   1.1440  -1.4895 C.3            1 S1                 0.0000
      9 ****        -0.7620   1.2559  -2.8686 O.3            1 S1                 0.0000
     10 ****         0.2870   0.9804  -0.7380 C.3            1 S1                 0.0000
     11 ****         0.7226  -0.3628  -0.8663 O.3            1 S1                 0.0000
     12 ****         1.9630  -0.6040  -0.2234 C.3            1 S1                 0.0000
     13 ****         2.3792  -2.0551  -0.3553 C.ar           1 S1                 0.0000
     14 ****         1.5583  -3.0711   0.1767 C.ar           1 S1                 0.0000
     15 ****         1.9401  -4.4220   0.0632 C.ar           1 S1                 0.0000
     16 ****         3.1451  -4.7618  -0.5821 C.ar           1 S1                 0.0000
     17 ****         3.6124  -6.4168  -0.7223 Cl             1 S1                 0.0000
     18 ****         3.9690  -3.7494  -1.1118 C.ar           1 S1                 0.0000
     19 ****         3.5881  -2.3981  -0.9968 C.ar           1 S1                 0.0000
     20 ****        -1.6409   3.1660   1.2750 C.2            1 S1                 0.0000
     21 ****        -2.0347   3.1736   2.5714 C.2            1 S1                 0.0000
     22 ****        -1.1915   4.1287   3.7379 Cl             1 S1                 0.0000
     23 ****        -4.5790   1.0594   2.2214 H              1 S1                 0.0000
     24 ****        -2.7246   2.5589  -1.6979 H              1 S1                 0.0000
     25 ****        -1.2247   3.3062  -1.2159 H              1 S1                 0.0000
     26 ****        -1.6652   0.2592  -1.3381 H              1 S1                 0.0000
     27 ****        -0.3075   0.4738  -3.1429 H              1 S1                 0.0000
     28 ****         1.0363   1.6821  -1.1089 H              1 S1                 0.0000
     29 ****         0.1508   1.1859   0.3240 H              1 S1                 0.0000
     30 ****         2.7323   0.0428  -0.6485 H              1 S1                 0.0000
     31 ****         1.8877  -0.3625   0.8380 H              1 S1                 0.0000
     32 ****         0.6330  -2.8153   0.6721 H              1 S1                 0.0000
     33 ****         1.3073  -5.1961   0.4718 H              1 S1                 0.0000
     34 ****         4.8941  -4.0074  -1.6065 H              1 S1                 0.0000
     35 ****         4.2267  -1.6283  -1.4047 H              1 S1                 0.0000
     36 ****        -0.7882   3.7703   0.9997 H              1 S1                 0.0000
     37 ****        -3.1884   2.8266   4.8721 LP             1 S1                 0.0000
     38 ****        -4.4101   1.7212   4.3380 LP             1 S1                 0.0000
     39 ****        -4.7752   0.3723   0.1156 LP             1 S1                 0.0000
     40 ****        -3.7097   0.9112  -1.1392 LP             1 S1                 0.0000
     41 ****        -0.1852   2.0565  -3.0310 LP             1 S1                 0.0000
     42 ****        -1.6145   1.3494  -3.3829 LP             1 S1                 0.0000
     43 ****         0.8205  -0.5751  -1.8386 LP             1 S1                 0.0000
     44 ****         0.0318  -0.9623  -0.4622 LP             1 S1                 0.0000
@<TRIPOS>BOND
    1    1    2 2     
    2    2   21 1     
    3    2    3 1     
    4    3   23 1     
    5    3    4 1     
    6    4    5 2     
    7    4    6 1     
    8    6    7 1     
    9    6   20 1     
   10    7    8 1     
   11    7   24 1     
   12    7   25 1     
   13    8    9 1     
   14    8   10 1     
   15    8   26 1     
   16    9   27 1     
   17   10   11 1     
   18   10   28 1     
   19   10   29 1     
   20   11   12 1     
   21   12   13 1     
   22   12   30 1     
   23   12   31 1     
   24   13   19 ar    
   25   13   14 ar    
   26   14   15 ar    
   27   14   32 1     
   28   15   16 ar    
   29   15   33 1     
   30   16   17 1     
   31   16   18 ar    
   32   18   19 ar    
   33   18   34 1     
   34   19   35 1     
   35   20   21 2     
   36   20   36 1     
   37   21   22 1     
   38    1   37 1     
   39    1   38 1     
   40    5   39 1     
   41    5   40 1     
   42    9   41 1     
   43    9   42 1     
   44   11   43 1     
   45   11   44 1     
@<TRIPOS>SUBSTRUCTURE
      1 S1             1
@<TRIPOS>SET
LONE_PAIRS      STATIC     ATOMS    <user>   **** ""
8 37 38 39 40 41 42 43 44
DONOR_HYDROGENS      STATIC     ATOMS    <user>   **** ""
2 23 27
ATOM$BLUE        STATIC     ATOMS    COLORGROUP SYSTEM
8 37 38 39 40 41 42 43 44
ATOM$RED        STATIC     ATOMS    COLORGROUP SYSTEM
2 23 27
