AV-unprocessed.smi:1509|AV-procd|sdf|6092|dock6
  -GOLD-   22720 6223D 1   1.00000     0.00000
 Structure written by MMmdl.
 42 43  0  0  0  0  0  0  0  0  2 V2000
  144.2574  134.3718  150.9239 C   0  0  0  0  0  0  0  0  0  0  0  0
  145.5095  133.6200  150.4388 C   0  0  2  0  0  0  0  0  0  0  0  0
  145.2055  132.1771  149.9953 C   0  0  0  0  0  0  0  0  0  0  0  0
  144.9478  131.2663  151.2036 C   0  0  0  0  0  0  0  0  0  0  0  0
  146.1024  131.3507  152.2145 C   0  0  0  0  0  0  0  0  0  0  0  0
  146.3378  132.7531  152.6453 N   0  3  1  0  0  0  0  0  0  0  0  0
  147.3455  132.8439  153.7323 C   0  0  0  0  0  0  0  0  0  0  0  0
  148.7809  132.6210  153.2257 C   0  0  0  0  0  0  0  0  0  0  0  0
  149.8335  133.1877  154.1934 C   0  0  0  0  0  0  0  0  0  0  0  0
  149.8953  134.6437  154.1347 N   0  0  0  0  0  0  0  0  0  0  0  0
  150.5447  135.4217  155.0152 C   0  0  0  0  0  0  0  0  0  0  0  0
  151.1489  134.9796  155.9921 O   0  0  0  0  0  0  0  0  0  0  0  0
  150.5112  136.9277  154.7546 C   0  0  0  0  0  0  0  0  0  0  0  0
  151.8440  137.4958  154.8247 N   0  0  0  0  0  0  0  0  0  0  0  0
  152.2855  138.7308  154.5771 C   0  0  0  0  0  0  0  0  0  0  0  0
  153.5938  138.8281  154.7577 N   0  0  0  0  0  0  0  0  0  0  0  0
  153.9542  137.5472  155.1419 N   0  0  0  0  0  0  0  0  0  0  0  0
  152.9202  136.7524  155.1835 N   0  0  0  0  0  0  0  0  0  0  0  0
  146.6419  133.6369  151.4867 C   0  0  0  0  0  0  0  0  0  0  0  0
  143.8340  133.9233  151.8226 H   0  0  0  0  0  0  0  0  0  0  0  0
  143.4816  134.3750  150.1578 H   0  0  0  0  0  0  0  0  0  0  0  0
  144.4914  135.4115  151.1551 H   0  0  0  0  0  0  0  0  0  0  0  0
  145.8687  134.1589  149.5611 H   0  0  0  0  0  0  0  0  0  0  0  0
  144.3534  132.1557  149.3152 H   0  0  0  0  0  0  0  0  0  0  0  0
  146.0551  131.7883  149.4321 H   0  0  0  0  0  0  0  0  0  0  0  0
  144.0121  131.5455  151.6890 H   0  0  0  0  0  0  0  0  0  0  0  0
  144.8223  130.2359  150.8699 H   0  0  0  0  0  0  0  0  0  0  0  0
  145.8605  130.7324  153.0799 H   0  0  0  0  0  0  0  0  0  0  0  0
  147.0166  130.9437  151.7793 H   0  0  0  0  0  0  0  0  0  0  0  0
  147.3003  133.8395  154.1767 H   0  0  0  0  0  0  0  0  0  0  0  0
  147.0993  132.1403  154.5290 H   0  0  0  0  0  0  0  0  0  0  0  0
  148.9739  131.5585  153.0802 H   0  0  0  0  0  0  0  0  0  0  0  0
  148.8909  133.0920  152.2480 H   0  0  0  0  0  0  0  0  0  0  0  0
  149.6276  132.8668  155.2160 H   0  0  0  0  0  0  0  0  0  0  0  0
  150.8195  132.7979  153.9393 H   0  0  0  0  0  0  0  0  0  0  0  0
  149.4243  135.0905  153.3609 H   0  0  0  0  0  0  0  0  0  0  0  0
  150.0904  137.1359  153.7701 H   0  0  0  0  0  0  0  0  0  0  0  0
  149.8700  137.4183  155.4887 H   0  0  0  0  0  0  0  0  0  0  0  0
  151.6546  139.5504  154.2654 H   0  0  0  0  0  0  0  0  0  0  0  0
  147.5746  133.3080  151.0251 H   0  0  0  0  0  0  0  0  0  0  0  0
  146.8075  134.6618  151.8169 H   0  0  0  0  0  0  0  0  0  0  0  0
  145.4646  133.0738  153.0389 H   0  0  0  0  0  0  0  0  0  0  0  0
  1  2  1  0  0  0  0
  1 20  1  0  0  0  0
  1 21  1  0  0  0  0
  1 22  1  0  0  0  0
  2 19  1  0  0  0  0
  2  3  1  0  0  0  0
  2 23  1  0  0  0  0
  3  4  1  0  0  0  0
  3 24  1  0  0  0  0
  3 25  1  0  0  0  0
  4  5  1  0  0  0  0
  4 26  1  0  0  0  0
  4 27  1  0  0  0  0
  5  6  1  0  0  0  0
  5 28  1  0  0  0  0
  5 29  1  0  0  0  0
  6  7  1  0  0  0  0
  6 19  1  0  0  0  0
  6 42  1  0  0  0  0
  7  8  1  0  0  0  0
  7 30  1  0  0  0  0
  7 31  1  0  0  0  0
  8  9  1  0  0  0  0
  8 32  1  0  0  0  0
  8 33  1  0  0  0  0
  9 10  1  0  0  0  0
  9 34  1  0  0  0  0
  9 35  1  0  0  0  0
 10 11  1  0  0  0  0
 10 36  1  0  0  0  0
 11 12  2  0  0  0  0
 11 13  1  0  0  0  0
 13 14  1  0  0  0  0
 13 37  1  0  0  0  0
 13 38  1  0  0  0  0
 14 18  1  0  0  0  0
 14 15  1  0  0  0  0
 15 16  2  0  0  0  0
 15 39  1  0  0  0  0
 16 17  1  0  0  0  0
 17 18  2  0  0  0  0
 19 40  1  0  0  0  0
 19 41  1  0  0  0  0
M  CHG  1   6   1
M  END
> <s_m_source_file>
AV-unprocessed.smi

> <i_m_source_file_index>
1509

> <i_lp_mmshare_version>
43012

> <i_f3d_flags>
0

> <s_epik_input>
W0NIM11bQ0BASF0xW0NIMl1bQ0gyXVtDSDJdTihbQ0gyXTEpW0NIMl1bQ0gyXVtDSDJdW05IXUMoPU8pW0NIMl1uMltjSF1ubm4y

> <s_epik_cmdline>
J2VwaWtfcHl0aG9uJywgJy1waCcsICc3LjAnLCAnLXRuJywgJzgnLCAnLW1hJywgJzIwMCcsICctbWV0YWxfYmluZGluZycsICctaW1hZScsICc8aW5maWxlLm1hZT4nLCAnLW9tYWUnLCAnPG91dGZpbGUubWFlPic=

> <r_lp_tautomer_probability>
1

> <r_epik_Ionization_Penalty>
0.00044216

> <r_epik_Ionization_Penalty_Charging>
0.000440775

> <r_epik_Ionization_Penalty_Neutral>
1.38512e-06

> <r_epik_State_Penalty>
0.000271914

> <r_epik_Charging_Adjusted_Penalty>
0.000712689

> <i_epik_Tot_Q>
1

> <i_epik_Tot_abs_Q>
1

> <r_epik_Metal_State_Penalty>
-0

> <b_epik_Metal_Only>
0

> <s_lp_Force_Field>
OPLS_2005

> <r_lp_Energy>
22.816

> <b_lp_Chiralities_Consistent>
1

> <s_lp_Variant>
AV-unprocessed.smi:1509-3

> <Gold.Version>
5.8.1

> <Gold.Id.Protein>
6NUR|6NUR_protein|mol2

> <Gold.PLP.Fitness>
43.7652

> <Gold.PLP.PLP>
-36.3112

> <Gold.PLP.part.hbond>
-3.9210

> <Gold.PLP.part.metal>
0.0000

> <Gold.PLP.part.buried>
-6.7451

> <Gold.PLP.part.nonpolar>
-26.1822

> <Gold.PLP.part.repulsive>
0.0936

> <Gold.PLP.ligand.clash>
0.0000

> <Gold.PLP.ligand.torsion>
0.4047

> <Gold.PLP.Chemscore.Hbond>
2.7360

> <Gold.PLP.Chemscore.CHOScore>
0.0000

> <Gold.PLP.Chemscore.Metal>
0.0000

> <Gold.Chemscore.Hbonds>
donor molecule, donor type, donor heavy atom, donor atom, acceptor molecule, acceptor atom, score
      L1  H    10    36       P1  7948  0.60
      P1  H  7997  8008       L1    16  1.00
      P1  H 10752 10765       L1    18  0.12

> <Gold.PLP.Chemscore.Internal.Correction>
0.0554

> <Gold.Rescore>
     Score         DG    S(hbond)    S(metal)    S(lipo)     H(rot)  DE(clash)    DE(int)     intcor
      9.36     -11.48       1.85        0.00      63.59       2.97       0.09       2.03       ----

> <Gold.Chemscore.Fitness>
9.3625

> <Gold.Chemscore.DG>
-11.4844

> <Gold.Chemscore.ZeroCoef>
-5.4800

> <Gold.Chemscore.Hbond>
1.8450

> <Gold.Chemscore.Metal>
0.0000

> <Gold.Chemscore.Lipo>
63.5892

> <Gold.Chemscore.Internal_Hbond>
0.0000

> <Gold.Chemscore.DEClash>
0.0898

> <Gold.Chemscore.DEInternal>
2.0321

> <Gold.Chemscore.Rot>
2.9680

> <Gold.Chemscore.Internal.Correction>
   9.000000E+99

> <Gold.Chemscore.Hbonds>
donor molecule, donor type, donor heavy atom, donor atom, acceptor molecule, acceptor atom, score
      L1  H    10    36       P1  7948  0.04
      P1  H  7997  8008       L1    16  0.77
      P1  H 10752 10765       L1    18  0.12

> <Gold.Chemscore.Hbond.Weighted>
-6.1624

> <Gold.Chemscore.Metal.Weighted>
-0.0000

> <Gold.Chemscore.Lipo.Weighted>
-7.4399

> <Gold.Chemscore.Internal_Hbond.Weighted>
0.0000

> <Gold.Chemscore.DEClash.Weighted>
0.0898

> <Gold.Chemscore.DEInternal.Weighted>
2.0321

> <Gold.Chemscore.Rot.Weighted>
7.5980

> <Gold.Chemscore.Internal.Correction.Weighted>
   9.000000E+99

> <Gold.Protein.RotatedTorsions>
[ 6907 6896 6895 6894 ] final    4.63 input  -60.11 | X-H torsion
[ 7974 7965 7964 7962 ] final  128.85 input  175.53 | X-H torsion
[ 8008 7997 7996 7995 ] final   -7.59 input   59.86 | X-H torsion
[ 10167 10162 10161 10158 ] final    0.78 input  -65.29 | X-H torsion
[ 10718 10713 10712 10709 ] final   81.64 input   66.30 | X-H torsion
[ 10763 10752 10751 10750 ] final -166.20 input  -60.55 | X-H torsion
[ 11005 11000 10999 10996 ] final -151.38 input  -57.11 | X-H torsion

> <Gold.Protein.ActiveResidues>
 VAL166  LYS551  ARG553  GLY616  TRP617  ASP618  TYR619  PRO620  LYS621  CYS622 
 ASP623  PHE694  ASN695  SER759  ASP760  ASP761  ALA762  ILE779  LEU786  VAL792 
 PHE793  MET794  SER795  GLU796  ALA797  LYS798  CYS799  TRP800  GLU811  SER814 

> <Gold.Protein.RotatedAtoms>
  151.6444  135.1009  160.0147 H   0  0  0  0  0  0  0  0  0  0  0  0  # atno 6907 bound_to 6896
  152.4036  133.6850  159.6345 H   0  0  0  0  0  0  0  0  0  0  0  0  # atno 6908 bound_to 6896
  150.7933  133.8665  159.3287 H   0  0  0  0  0  0  0  0  0  0  0  0  # atno 6909 bound_to 6896
  145.0351  139.4012  143.5130 H   0  0  0  0  0  0  0  0  0  0  0  0  # atno 7974 bound_to 7965
  154.5823  140.2403  155.8036 H   0  0  0  0  0  0  0  0  0  0  0  0  # atno 8008 bound_to 7997
  156.2188  140.3004  155.9859 H   0  0  0  0  0  0  0  0  0  0  0  0  # atno 8009 bound_to 7997
  155.2519  140.0411  157.2978 H   0  0  0  0  0  0  0  0  0  0  0  0  # atno 8010 bound_to 7997
  140.6713  143.7040  150.7929 H   0  0  0  0  0  0  0  0  0  0  0  0  # atno 10167 bound_to 10162
  157.6838  131.0013  150.2257 H   0  0  0  0  0  0  0  0  0  0  0  0  # atno 10718 bound_to 10713
  154.6857  135.2962  154.9551 H   0  0  0  0  0  0  0  0  0  0  0  0  # atno 10763 bound_to 10752
  154.0531  135.6642  153.4806 H   0  0  0  0  0  0  0  0  0  0  0  0  # atno 10764 bound_to 10752
  153.0577  135.5134  154.7923 H   0  0  0  0  0  0  0  0  0  0  0  0  # atno 10765 bound_to 10752
  140.7302  134.3630  157.5168 H   0  0  0  0  0  0  0  0  0  0  0  0  # atno 11005 bound_to 11000
  146.3503  139.9921  142.8684 LP  0  0  0  0  0  0  0  0  0  0  0  0  # atno 17320 bound_to 7965
  145.1720  140.9726  143.4316 LP  0  0  0  0  0  0  0  0  0  0  0  0  # atno 17321 bound_to 7965
  140.0726  143.5046  152.2572 LP  0  0  0  0  0  0  0  0  0  0  0  0  # atno 17342 bound_to 10162
  139.5983  144.7574  151.3233 LP  0  0  0  0  0  0  0  0  0  0  0  0  # atno 17343 bound_to 10162
  156.2900  130.3744  149.7851 LP  0  0  0  0  0  0  0  0  0  0  0  0  # atno 17370 bound_to 10713
  156.5514  130.8343  151.3300 LP  0  0  0  0  0  0  0  0  0  0  0  0  # atno 17371 bound_to 10713
  139.8828  134.9013  156.2808 LP  0  0  0  0  0  0  0  0  0  0  0  0  # atno 17394 bound_to 11000
  140.9928  133.7198  156.0839 LP  0  0  0  0  0  0  0  0  0  0  0  0  # atno 17395 bound_to 11000

$$$$
