#       Name:                AV-unprocessed.smi:2853
#       Creating user name   scv26
#       Creation time:       Fri Mar 27 15:42:48 2020


#       File generated by GOLD software.
#

@<TRIPOS>MOLECULE
AV-unprocessed.smi:2853
    48    49     1
SMALL
NO_CHARGES


@<TRIPOS>ATOM
      1 ****        -2.6138   4.9271   0.2280 C.3            1 S1                 0.0000
      2 ****        -1.6887   3.7592   0.2596 C.2            1 S1                 0.0000
      3 ****        -0.3645   3.8604   0.1570 N.2            1 S1                 0.0000
      4 ****         0.2794   2.6205   0.2077 C.2            1 S1                 0.0000
      5 ****         1.7790   2.5798   0.0978 C.3            1 S1                 0.0000
      6 ****         2.2923   2.6970  -1.3523 C.3            1 S1                 0.0000
      7 ****         1.8440   1.5168  -2.2316 C.3            1 S1                 0.0000
      8 ****         3.8207   2.8468  -1.3806 C.3            1 S1                 0.0000
      9 ****        -0.5727   1.5464   0.3499 C.2            1 S1                 0.0000
     10 ****        -0.1745   0.2470   0.3928 N.am           1 S1                 0.0000
     11 ****        -0.9075  -0.8615   0.5951 C.2            1 S1                 0.0000
     12 ****        -2.1006  -0.8834   0.8958 O.2            1 S1                 0.0000
     13 ****        -0.1541  -1.9635   0.4398 N.am           1 S1                 0.0000
     14 ****        -0.5526  -3.3722   0.5665 C.3            1 S1                 0.0000
     15 ****         0.7072  -4.2292   0.3423 C.3            1 S1                 0.0000
     16 ****        -1.1875  -3.6956   1.9303 C.3            1 S1                 0.0000
     17 ****        -2.6102  -4.1355   1.5901 C.3            1 S1                 0.0000
     18 ****        -2.4885  -4.6597   0.2792 O.3            1 S1                 0.0000
     19 ****        -1.6546  -3.7663  -0.4414 C.3            1 S1                 0.0000
     20 ****        -2.2378   2.1021   0.4287 S.3            1 S1                 0.0000
     21 ****        -2.0533   5.8624   0.2347 H              1 S1                 0.0000
     22 ****        -3.2699   4.9070   1.0983 H              1 S1                 0.0000
     23 ****        -3.2257   4.8923  -0.6734 H              1 S1                 0.0000
     24 ****         2.2000   3.3934   0.6902 H              1 S1                 0.0000
     25 ****         2.1695   1.6672   0.5496 H              1 S1                 0.0000
     26 ****         1.8749   3.6085  -1.7829 H              1 S1                 0.0000
     27 ****         2.2008   0.5670  -1.8318 H              1 S1                 0.0000
     28 ****         2.2295   1.6158  -3.2468 H              1 S1                 0.0000
     29 ****         0.7578   1.4609  -2.3041 H              1 S1                 0.0000
     30 ****         4.3130   1.9679  -0.9628 H              1 S1                 0.0000
     31 ****         4.1422   3.7145  -0.8037 H              1 S1                 0.0000
     32 ****         4.1846   2.9790  -2.4000 H              1 S1                 0.0000
     33 ****         0.8072   0.0970   0.2125 H              1 S1                 0.0000
     34 ****         0.8143  -1.8135   0.1980 H              1 S1                 0.0000
     35 ****         0.4769  -5.2943   0.3919 H              1 S1                 0.0000
     36 ****         1.4684  -4.0207   1.0951 H              1 S1                 0.0000
     37 ****         1.1492  -4.0366  -0.6361 H              1 S1                 0.0000
     38 ****        -0.6642  -4.5215   2.4138 H              1 S1                 0.0000
     39 ****        -1.1788  -2.8641   2.6358 H              1 S1                 0.0000
     40 ****        -2.9982  -4.8788   2.2868 H              1 S1                 0.0000
     41 ****        -3.2929  -3.2846   1.5818 H              1 S1                 0.0000
     42 ****        -2.2596  -2.9174  -0.7612 H              1 S1                 0.0000
     43 ****        -1.2619  -4.2389  -1.3422 H              1 S1                 0.0000
     44 ****         0.1177   4.7305   0.0547 LP             1 S1                 0.0000
     45 ****        -2.6036  -0.0265   1.0087 LP             1 S1                 0.0000
     46 ****        -2.5671  -1.7581   1.0273 LP             1 S1                 0.0000
     47 ****        -3.3880  -4.7168  -0.1540 LP             1 S1                 0.0000
     48 ****        -2.0744  -5.5694   0.3089 LP             1 S1                 0.0000
@<TRIPOS>BOND
    1    1    2 1     
    2    1   21 1     
    3    1   22 1     
    4    1   23 1     
    5    2   20 1     
    6    2    3 2     
    7    3    4 1     
    8    4    5 1     
    9    4    9 2     
   10    5    6 1     
   11    5   24 1     
   12    5   25 1     
   13    6    7 1     
   14    6    8 1     
   15    6   26 1     
   16    7   27 1     
   17    7   28 1     
   18    7   29 1     
   19    8   30 1     
   20    8   31 1     
   21    8   32 1     
   22    9   10 1     
   23    9   20 1     
   24   10   11 am    
   25   10   33 1     
   26   11   12 2     
   27   11   13 am    
   28   13   14 1     
   29   13   34 1     
   30   14   19 1     
   31   14   15 1     
   32   14   16 1     
   33   15   35 1     
   34   15   36 1     
   35   15   37 1     
   36   16   17 1     
   37   16   38 1     
   38   16   39 1     
   39   17   18 1     
   40   17   40 1     
   41   17   41 1     
   42   18   19 1     
   43   19   42 1     
   44   19   43 1     
   45    3   44 1     
   46   12   45 1     
   47   12   46 1     
   48   18   47 1     
   49   18   48 1     
@<TRIPOS>SUBSTRUCTURE
      1 S1             1
@<TRIPOS>SET
LONE_PAIRS      STATIC     ATOMS    <user>   **** ""
5 44 45 46 47 48
DONOR_HYDROGENS      STATIC     ATOMS    <user>   **** ""
2 33 34
ATOM$BLUE        STATIC     ATOMS    COLORGROUP SYSTEM
5 44 45 46 47 48
ATOM$RED        STATIC     ATOMS    COLORGROUP SYSTEM
2 33 34
