AV-unprocessed.smi:389|AV-procd|sdf|2477|dock5
  -GOLD-   2262022413D 1   1.00000     0.00000
 Structure written by MMmdl.
 33 33  0  0  0  0  0  0  0  0  2 V2000
  152.7430  142.8809  159.5961 C   0  0  0  0  0  0  0  0  0  0  0  0
  152.1364  144.0351  158.7803 C   0  0  0  0  0  0  0  0  0  0  0  0
  151.8875  145.2539  159.6821 C   0  0  0  0  0  0  0  0  0  0  0  0
  150.8428  143.6240  158.0480 C   0  0  0  0  0  0  0  0  0  0  0  0
  151.0223  142.4438  157.0742 C   0  0  0  0  0  0  0  0  0  0  0  0
  149.9319  142.3709  156.1091 N   0  0  0  0  0  0  0  0  0  0  0  0
  149.7701  141.3978  155.1998 C   0  0  0  0  0  0  0  0  0  0  0  0
  150.5552  140.4567  155.0737 O   0  0  0  0  0  0  0  0  0  0  0  0
  148.5478  141.5337  154.2811 C   0  0  0  0  0  0  0  0  0  0  0  0
  147.6910  140.3370  154.2741 N   0  0  0  0  0  0  0  0  0  0  0  0
  147.3265  139.8026  153.0257 C   0  0  0  0  0  0  0  0  0  0  0  0
  146.5501  138.7075  152.9209 C   0  0  0  0  0  0  0  0  0  0  0  0
  146.0838  138.0721  154.1471 C   0  0  0  0  0  0  0  0  0  0  0  0
  145.3696  137.0743  154.0705 O   0  0  0  0  0  0  0  0  0  0  0  0
  146.4692  138.6249  155.3345 N   0  5  0  0  0  0  0  0  0  0  0  0
  147.2628  139.7372  155.4258 C   0  0  0  0  0  0  0  0  0  0  0  0
  147.6027  140.2173  156.5079 O   0  0  0  0  0  0  0  0  0  0  0  0
  152.0375  142.5082  160.3393 H   0  0  0  0  0  0  0  0  0  0  0  0
  153.6400  143.2044  160.1250 H   0  0  0  0  0  0  0  0  0  0  0  0
  153.0323  142.0449  158.9600 H   0  0  0  0  0  0  0  0  0  0  0  0
  152.8678  144.3356  158.0289 H   0  0  0  0  0  0  0  0  0  0  0  0
  151.1619  145.0277  160.4641 H   0  0  0  0  0  0  0  0  0  0  0  0
  151.5052  146.0982  159.1076 H   0  0  0  0  0  0  0  0  0  0  0  0
  152.8084  145.5794  160.1665 H   0  0  0  0  0  0  0  0  0  0  0  0
  150.0665  143.3863  158.7768 H   0  0  0  0  0  0  0  0  0  0  0  0
  150.4734  144.4838  157.4874 H   0  0  0  0  0  0  0  0  0  0  0  0
  151.9774  142.5183  156.5514 H   0  0  0  0  0  0  0  0  0  0  0  0
  151.0375  141.5001  157.6185 H   0  0  0  0  0  0  0  0  0  0  0  0
  149.2411  143.1067  156.1429 H   0  0  0  0  0  0  0  0  0  0  0  0
  147.9667  142.4104  154.5737 H   0  0  0  0  0  0  0  0  0  0  0  0
  148.9031  141.7500  153.2728 H   0  0  0  0  0  0  0  0  0  0  0  0
  147.7200  140.3285  152.1682 H   0  0  0  0  0  0  0  0  0  0  0  0
  146.2826  138.3071  151.9540 H   0  0  0  0  0  0  0  0  0  0  0  0
  1  2  1  0  0  0  0
  1 18  1  0  0  0  0
  1 19  1  0  0  0  0
  1 20  1  0  0  0  0
  2  3  1  0  0  0  0
  2  4  1  0  0  0  0
  2 21  1  0  0  0  0
  3 22  1  0  0  0  0
  3 23  1  0  0  0  0
  3 24  1  0  0  0  0
  4  5  1  0  0  0  0
  4 25  1  0  0  0  0
  4 26  1  0  0  0  0
  5  6  1  0  0  0  0
  5 27  1  0  0  0  0
  5 28  1  0  0  0  0
  6  7  1  0  0  0  0
  6 29  1  0  0  0  0
  7  8  2  0  0  0  0
  7  9  1  0  0  0  0
  9 10  1  0  0  0  0
  9 30  1  0  0  0  0
  9 31  1  0  0  0  0
 10 16  1  0  0  0  0
 10 11  1  0  0  0  0
 11 12  2  0  0  0  0
 11 32  1  0  0  0  0
 12 13  1  0  0  0  0
 12 33  1  0  0  0  0
 13 14  2  0  0  0  0
 13 15  1  0  0  0  0
 15 16  1  0  0  0  0
 16 17  2  0  0  0  0
M  CHG  1  15  -1
M  END
> <s_m_source_file>
AV-unprocessed.smi

> <i_m_source_file_index>
389

> <i_lp_mmshare_version>
43012

> <i_f3d_flags>
0

> <s_epik_input>
W0NIM11bQ0hdKFtDSDNdKVtDSDJdW0NIMl1bTkhdQyg9TylbQ0gyXW4xW2NIXVtjSF1jKD1PKVtuSF1jMT1P

> <s_epik_cmdline>
J2VwaWtfcHl0aG9uJywgJy1waCcsICc3LjAnLCAnLXRuJywgJzgnLCAnLW1hJywgJzIwMCcsICctbWV0YWxfYmluZGluZycsICctaW1hZScsICc8aW5maWxlLm1hZT4nLCAnLW9tYWUnLCAnPG91dGZpbGUubWFlPic=

> <r_lp_tautomer_probability>
0.999537

> <r_epik_Ionization_Penalty>
3.12283

> <r_epik_Ionization_Penalty_Charging>
2.83566e-08

> <r_epik_Ionization_Penalty_Neutral>
3.12283

> <r_epik_State_Penalty>
3.12192

> <r_epik_Charging_Adjusted_Penalty>
3.12192

> <i_epik_Tot_Q>
-1

> <i_epik_Tot_abs_Q>
1

> <r_epik_Metal_State_Penalty>
0.463748

> <b_epik_Metal_Only>
1

> <s_lp_Force_Field>
OPLS_2005

> <r_lp_Energy>
12.9702

> <b_lp_Chiralities_Consistent>
1

> <s_lp_Variant>
AV-unprocessed.smi:389-2

> <Gold.Version>
5.8.1

> <Gold.Id.Protein>
6NUR|6NUR_protein|mol2

> <Gold.PLP.Fitness>
40.4848

> <Gold.PLP.PLP>
-32.0508

> <Gold.PLP.part.hbond>
-2.0000

> <Gold.PLP.part.metal>
0.0000

> <Gold.PLP.part.buried>
-1.3967

> <Gold.PLP.part.nonpolar>
-29.0479

> <Gold.PLP.part.repulsive>
0.3193

> <Gold.PLP.ligand.clash>
0.0000

> <Gold.PLP.ligand.torsion>
0.2285

> <Gold.PLP.Chemscore.Hbond>
1.9600

> <Gold.PLP.Chemscore.CHOScore>
1.0000

> <Gold.PLP.Chemscore.Metal>
0.0000

> <Gold.Chemscore.Hbonds>
donor molecule, donor type, donor heavy atom, donor atom, acceptor molecule, acceptor atom, score
      L1  H     6    29       P1  8028  0.90
      P1  H  7989  7998       L1     8  1.00
      L1  C    11    32       P1  7957  0.99

> <Gold.PLP.Chemscore.Internal.Correction>
0.0110

> <Gold.Rescore>
     Score         DG    S(hbond)    S(metal)    S(lipo)     H(rot)  DE(clash)    DE(int)     intcor
     13.28     -14.77       1.65        0.00      79.98       2.18       0.06       1.43       ----

> <Gold.Chemscore.Fitness>
13.2824

> <Gold.Chemscore.DG>
-14.7748

> <Gold.Chemscore.ZeroCoef>
-5.4800

> <Gold.Chemscore.Hbond>
1.6548

> <Gold.Chemscore.Metal>
0.0000

> <Gold.Chemscore.Lipo>
79.9751

> <Gold.Chemscore.Internal_Hbond>
0.0000

> <Gold.Chemscore.DEClash>
0.0581

> <Gold.Chemscore.DEInternal>
1.4344

> <Gold.Chemscore.Rot>
2.1834

> <Gold.Chemscore.Internal.Correction>
   9.000000E+99

> <Gold.Chemscore.Hbonds>
donor molecule, donor type, donor heavy atom, donor atom, acceptor molecule, acceptor atom, score
      L1  H     6    29       P1  8028  0.88
      P1  H  7989  7998       L1     8  0.48

> <Gold.Chemscore.Hbond.Weighted>
-5.5272

> <Gold.Chemscore.Metal.Weighted>
-0.0000

> <Gold.Chemscore.Lipo.Weighted>
-9.3571

> <Gold.Chemscore.Internal_Hbond.Weighted>
0.0000

> <Gold.Chemscore.DEClash.Weighted>
0.0581

> <Gold.Chemscore.DEInternal.Weighted>
1.4344

> <Gold.Chemscore.Rot.Weighted>
5.5895

> <Gold.Chemscore.Internal.Correction.Weighted>
   9.000000E+99

> <Gold.Protein.RotatedTorsions>
[ 6907 6896 6895 6894 ] final  -98.18 input  -60.11 | X-H torsion
[ 7974 7965 7964 7962 ] final  145.39 input  175.53 | X-H torsion
[ 8008 7997 7996 7995 ] final   40.19 input   59.86 | X-H torsion
[ 10167 10162 10161 10158 ] final   33.45 input  -65.29 | X-H torsion
[ 10718 10713 10712 10709 ] final  -21.82 input   66.30 | X-H torsion
[ 10763 10752 10751 10750 ] final  -37.41 input  -60.55 | X-H torsion
[ 11005 11000 10999 10996 ] final -145.47 input  -57.11 | X-H torsion

> <Gold.Protein.ActiveResidues>
 VAL166  LYS551  ARG553  GLY616  TRP617  ASP618  TYR619  PRO620  LYS621  CYS622 
 ASP623  PHE694  ASN695  SER759  ASP760  ASP761  ALA762  ILE779  LEU786  VAL792 
 PHE793  MET794  SER795  GLU796  ALA797  LYS798  CYS799  TRP800  GLU811  SER814 

> <Gold.Protein.RotatedAtoms>
  150.7038  134.1235  159.4043 H   0  0  0  0  0  0  0  0  0  0  0  0  # atno 6907 bound_to 6896
  151.9221  135.0291  160.0532 H   0  0  0  0  0  0  0  0  0  0  0  0  # atno 6908 bound_to 6896
  152.2247  133.4976  159.5219 H   0  0  0  0  0  0  0  0  0  0  0  0  # atno 6909 bound_to 6896
  144.8757  139.5777  143.5866 H   0  0  0  0  0  0  0  0  0  0  0  0  # atno 7974 bound_to 7965
  155.2490  140.3351  155.4284 H   0  0  0  0  0  0  0  0  0  0  0  0  # atno 8008 bound_to 7997
  156.2224  140.1814  156.7490 H   0  0  0  0  0  0  0  0  0  0  0  0  # atno 8009 bound_to 7997
  154.5845  140.0648  156.9137 H   0  0  0  0  0  0  0  0  0  0  0  0  # atno 8010 bound_to 7997
  140.4406  144.1193  150.6173 H   0  0  0  0  0  0  0  0  0  0  0  0  # atno 10167 bound_to 10162
  156.5130  130.4614  149.6638 H   0  0  0  0  0  0  0  0  0  0  0  0  # atno 10718 bound_to 10713
  153.8959  135.6807  153.4758 H   0  0  0  0  0  0  0  0  0  0  0  0  # atno 10763 bound_to 10752
  153.1156  135.4763  154.9107 H   0  0  0  0  0  0  0  0  0  0  0  0  # atno 10764 bound_to 10752
  154.7599  135.3208  154.8351 H   0  0  0  0  0  0  0  0  0  0  0  0  # atno 10765 bound_to 10752
  140.7919  134.2958  157.5010 H   0  0  0  0  0  0  0  0  0  0  0  0  # atno 11005 bound_to 11000
  146.2961  139.7281  142.9126 LP  0  0  0  0  0  0  0  0  0  0  0  0  # atno 17320 bound_to 7965
  145.4048  141.0389  143.3050 LP  0  0  0  0  0  0  0  0  0  0  0  0  # atno 17321 bound_to 7965
  140.4323  143.2563  151.9580 LP  0  0  0  0  0  0  0  0  0  0  0  0  # atno 17342 bound_to 10162
  139.4789  144.5733  151.8053 LP  0  0  0  0  0  0  0  0  0  0  0  0  # atno 17343 bound_to 10162
  156.3222  130.7286  151.2201 LP  0  0  0  0  0  0  0  0  0  0  0  0  # atno 17370 bound_to 10713
  157.7448  131.0452  150.4834 LP  0  0  0  0  0  0  0  0  0  0  0  0  # atno 17371 bound_to 10713
  139.8730  134.9379  156.3701 LP  0  0  0  0  0  0  0  0  0  0  0  0  # atno 17394 bound_to 11000
  140.9381  133.7533  156.0110 LP  0  0  0  0  0  0  0  0  0  0  0  0  # atno 17395 bound_to 11000

$$$$
