AV-unprocessed.smi:1464|AV-procd|sdf|5949|dock10
  -GOLD-   22720 6 33D 1   1.00000     0.00000
 Structure written by MMmdl.
 41 42  0  0  0  0  0  0  0  0  1 V2000
  152.5755  144.0638  161.8380 C   0  0  0  0  0  0  0  0  0  0  0  0
  152.3410  142.8302  160.9504 C   0  0  2  0  0  0  0  0  0  0  0  0
  153.5446  141.8659  160.9777 C   0  0  0  0  0  0  0  0  0  0  0  0
  153.2613  140.5891  160.1699 C   0  0  0  0  0  0  0  0  0  0  0  0
  152.8251  140.9118  158.7323 C   0  0  0  0  0  0  0  0  0  0  0  0
  151.6214  141.8735  158.7167 C   0  0  2  0  0  0  0  0  0  0  0  0
  151.2047  142.1304  157.3399 N   0  0  0  0  0  0  0  0  0  0  0  0
  150.2795  141.4299  156.6661 C   0  0  0  0  0  0  0  0  0  0  0  0
  149.6566  140.4873  157.1568 O   0  0  0  0  0  0  0  0  0  0  0  0
  150.0043  141.8863  155.2262 C   0  0  0  0  0  0  0  0  0  0  0  0
  149.0484  141.0234  154.5168 N   0  0  0  0  0  0  0  0  0  0  0  0
  149.2977  139.6658  154.6536 N   0  0  0  0  0  0  0  0  0  0  0  0
  148.5339  138.8081  154.0657 C   0  0  0  0  0  0  0  0  0  0  0  0
  148.8183  137.4741  154.2247 O   0  0  0  0  0  0  0  0  0  0  0  0
  147.4092  139.2336  153.2618 C   0  0  0  0  0  0  0  0  0  0  0  0
  147.1724  140.5576  153.1372 C   0  0  0  0  0  0  0  0  0  0  0  0
  148.0184  141.5580  153.7909 C   0  0  0  0  0  0  0  0  0  0  0  0
  147.8236  142.7698  153.6977 O   0  0  0  0  0  0  0  0  0  0  0  0
  151.9238  143.1818  159.4975 C   0  0  2  0  0  0  0  0  0  0  0  0
  152.9290  144.1064  158.7719 C   0  0  0  0  0  0  0  0  0  0  0  0
  148.7510  137.0990  153.3601 H   0  0  0  0  0  0  0  0  0  0  0  0
  153.4681  144.6143  161.5406 H   0  0  0  0  0  0  0  0  0  0  0  0
  152.7067  143.7721  162.8802 H   0  0  0  0  0  0  0  0  0  0  0  0
  151.7269  144.7471  161.7939 H   0  0  0  0  0  0  0  0  0  0  0  0
  151.4994  142.2972  161.3959 H   0  0  0  0  0  0  0  0  0  0  0  0
  154.4332  142.3605  160.5847 H   0  0  0  0  0  0  0  0  0  0  0  0
  153.7794  141.5947  162.0075 H   0  0  0  0  0  0  0  0  0  0  0  0
  154.1473  139.9538  160.1558 H   0  0  0  0  0  0  0  0  0  0  0  0
  152.4782  140.0139  160.6653 H   0  0  0  0  0  0  0  0  0  0  0  0
  153.6627  141.3435  158.1835 H   0  0  0  0  0  0  0  0  0  0  0  0
  152.5680  139.9857  158.2165 H   0  0  0  0  0  0  0  0  0  0  0  0
  150.7989  141.3611  159.2204 H   0  0  0  0  0  0  0  0  0  0  0  0
  151.6601  142.8946  156.8625 H   0  0  0  0  0  0  0  0  0  0  0  0
  149.6319  142.9115  155.2645 H   0  0  0  0  0  0  0  0  0  0  0  0
  150.9422  141.9364  154.6697 H   0  0  0  0  0  0  0  0  0  0  0  0
  146.7801  138.5023  152.7764 H   0  0  0  0  0  0  0  0  0  0  0  0
  146.3369  140.8900  152.5386 H   0  0  0  0  0  0  0  0  0  0  0  0
  150.9889  143.7404  159.5626 H   0  0  0  0  0  0  0  0  0  0  0  0
  153.9135  143.6499  158.6761 H   0  0  0  0  0  0  0  0  0  0  0  0
  153.0547  145.0510  159.2999 H   0  0  0  0  0  0  0  0  0  0  0  0
  152.5871  144.3607  157.7688 H   0  0  0  0  0  0  0  0  0  0  0  0
  1  2  1  0  0  0  0
  1 22  1  0  0  0  0
  1 23  1  0  0  0  0
  1 24  1  0  0  0  0
  2 19  1  0  0  0  0
  2  3  1  0  0  0  0
  2 25  1  0  0  0  0
  3  4  1  0  0  0  0
  3 26  1  0  0  0  0
  3 27  1  0  0  0  0
  4  5  1  0  0  0  0
  4 28  1  0  0  0  0
  4 29  1  0  0  0  0
  5  6  1  0  0  0  0
  5 30  1  0  0  0  0
  5 31  1  0  0  0  0
  6  7  1  0  0  0  0
  6 19  1  0  0  0  0
  6 32  1  0  0  0  0
  7  8  1  0  0  0  0
  7 33  1  0  0  0  0
  8  9  2  0  0  0  0
  8 10  1  0  0  0  0
 10 34  1  0  0  0  0
 10 35  1  0  0  0  0
 10 11  1  0  0  0  0
 11 12  1  0  0  0  0
 11 17  1  0  0  0  0
 12 13  2  0  0  0  0
 13 14  1  0  0  0  0
 13 15  1  0  0  0  0
 14 21  1  0  0  0  0
 15 36  1  0  0  0  0
 15 16  2  0  0  0  0
 16 37  1  0  0  0  0
 16 17  1  0  0  0  0
 17 18  2  0  0  0  0
 19 20  1  0  0  0  0
 19 38  1  0  0  0  0
 20 39  1  0  0  0  0
 20 40  1  0  0  0  0
 20 41  1  0  0  0  0
M  END
> <s_m_source_file>
AV-unprocessed.smi

> <i_m_source_file_index>
1464

> <i_lp_mmshare_version>
43012

> <i_f3d_flags>
0

> <s_epik_input>
W0NIM11bQ0BASF0xW0NIMl1bQ0gyXVtDSDJdW0NASF0oW0NASF0xW0NIM10pW05IXUMoPU8pW0NIMl1uMltuSF1jKD1PKVtjSF1bY0hdYzI9Tw==

> <s_epik_cmdline>
J2VwaWtfcHl0aG9uJywgJy1waCcsICc3LjAnLCAnLXRuJywgJzgnLCAnLW1hJywgJzIwMCcsICctbWV0YWxfYmluZGluZycsICctaW1hZScsICc8aW5maWxlLm1hZT4nLCAnLW9tYWUnLCAnPG91dGZpbGUubWFlPic=

> <r_lp_tautomer_probability>
0.9996

> <r_epik_Ionization_Penalty>
2.10335

> <r_epik_Ionization_Penalty_Charging>
3.98079e-08

> <r_epik_Ionization_Penalty_Neutral>
2.10335

> <r_epik_State_Penalty>
1.67957

> <r_epik_Charging_Adjusted_Penalty>
1.67957

> <i_epik_Tot_Q>
0

> <i_epik_Tot_abs_Q>
0

> <r_epik_Metal_State_Penalty>
1.67957

> <b_epik_Metal_Only>
0

> <s_lp_Force_Field>
OPLS_2005

> <r_lp_Energy>
25.7664

> <b_lp_Chiralities_Consistent>
1

> <s_lp_Variant>
AV-unprocessed.smi:1464-15

> <Gold.Version>
5.8.1

> <Gold.Id.Protein>
6NUR|6NUR_protein|mol2

> <Gold.PLP.Fitness>
43.6565

> <Gold.PLP.PLP>
-40.2029

> <Gold.PLP.part.hbond>
-3.0000

> <Gold.PLP.part.metal>
0.0000

> <Gold.PLP.part.buried>
0.4402

> <Gold.PLP.part.nonpolar>
-37.0825

> <Gold.PLP.part.repulsive>
1.9866

> <Gold.PLP.ligand.clash>
0.0000

> <Gold.PLP.ligand.torsion>
0.5336

> <Gold.PLP.Chemscore.Hbond>
1.5023

> <Gold.PLP.Chemscore.CHOScore>
0.0000

> <Gold.PLP.Chemscore.Metal>
0.0000

> <Gold.Chemscore.Hbonds>
donor molecule, donor type, donor heavy atom, donor atom, acceptor molecule, acceptor atom, score
      L1  H    14    21       P1  7948  1.00
      P1  H  8022  8030       L1    18  0.53

> <Gold.PLP.Chemscore.Internal.Correction>
0.0138

> <Gold.Rescore>
     Score         DG    S(hbond)    S(metal)    S(lipo)     H(rot)  DE(clash)    DE(int)     intcor
     13.48     -15.82       1.00        0.00     108.57       2.22       0.46       1.87       ----

> <Gold.Chemscore.Fitness>
13.4826

> <Gold.Chemscore.DG>
-15.8170

> <Gold.Chemscore.ZeroCoef>
-5.4800

> <Gold.Chemscore.Hbond>
0.9950

> <Gold.Chemscore.Metal>
0.0000

> <Gold.Chemscore.Lipo>
108.5725

> <Gold.Chemscore.Internal_Hbond>
0.0000

> <Gold.Chemscore.DEClash>
0.4644

> <Gold.Chemscore.DEInternal>
1.8700

> <Gold.Chemscore.Rot>
2.2224

> <Gold.Chemscore.Internal.Correction>
   9.000000E+99

> <Gold.Chemscore.Hbonds>
donor molecule, donor type, donor heavy atom, donor atom, acceptor molecule, acceptor atom, score
      L1  H    14    21       P1  7948  1.00
      P1  H  8022  8030       L1    18  0.54

> <Gold.Chemscore.Hbond.Weighted>
-3.3234

> <Gold.Chemscore.Metal.Weighted>
-0.0000

> <Gold.Chemscore.Lipo.Weighted>
-12.7030

> <Gold.Chemscore.Internal_Hbond.Weighted>
0.0000

> <Gold.Chemscore.DEClash.Weighted>
0.4644

> <Gold.Chemscore.DEInternal.Weighted>
1.8700

> <Gold.Chemscore.Rot.Weighted>
5.6893

> <Gold.Chemscore.Internal.Correction.Weighted>
   9.000000E+99

> <Gold.Protein.RotatedTorsions>
[ 6907 6896 6895 6894 ] final    6.74 input  -60.11 | X-H torsion
[ 7974 7965 7964 7962 ] final  126.21 input  175.53 | X-H torsion
[ 8008 7997 7996 7995 ] final   74.47 input   59.86 | X-H torsion
[ 10167 10162 10161 10158 ] final   43.56 input  -65.29 | X-H torsion
[ 10718 10713 10712 10709 ] final -155.16 input   66.30 | X-H torsion
[ 10763 10752 10751 10750 ] final   81.14 input  -60.55 | X-H torsion
[ 11005 11000 10999 10996 ] final -130.69 input  -57.11 | X-H torsion

> <Gold.Protein.ActiveResidues>
 VAL166  LYS551  ARG553  GLY616  TRP617  ASP618  TYR619  PRO620  LYS621  CYS622 
 ASP623  PHE694  ASN695  SER759  ASP760  ASP761  ALA762  ILE779  LEU786  VAL792 
 PHE793  MET794  SER795  GLU796  ALA797  LYS798  CYS799  TRP800  GLU811  SER814 

> <Gold.Protein.RotatedAtoms>
  151.6785  135.0965  160.0211 H   0  0  0  0  0  0  0  0  0  0  0  0  # atno 6907 bound_to 6896
  152.3849  133.6593  159.6199 H   0  0  0  0  0  0  0  0  0  0  0  0  # atno 6908 bound_to 6896
  150.7777  133.8968  159.3371 H   0  0  0  0  0  0  0  0  0  0  0  0  # atno 6909 bound_to 6896
  145.0643  139.3780  143.4990 H   0  0  0  0  0  0  0  0  0  0  0  0  # atno 7974 bound_to 7965
  155.7988  140.3477  155.5391 H   0  0  0  0  0  0  0  0  0  0  0  0  # atno 8008 bound_to 7997
  155.8559  140.0963  157.1665 H   0  0  0  0  0  0  0  0  0  0  0  0  # atno 8009 bound_to 7997
  154.4009  140.1367  156.3888 H   0  0  0  0  0  0  0  0  0  0  0  0  # atno 8010 bound_to 7997
  140.3432  144.2444  150.6153 H   0  0  0  0  0  0  0  0  0  0  0  0  # atno 10167 bound_to 10162
  156.5091  130.8426  151.2639 H   0  0  0  0  0  0  0  0  0  0  0  0  # atno 10718 bound_to 10713
  153.1092  135.4776  154.9004 H   0  0  0  0  0  0  0  0  0  0  0  0  # atno 10763 bound_to 10752
  154.7462  135.3094  154.8643 H   0  0  0  0  0  0  0  0  0  0  0  0  # atno 10764 bound_to 10752
  153.9237  135.6852  153.4800 H   0  0  0  0  0  0  0  0  0  0  0  0  # atno 10765 bound_to 10752
  140.9323  134.1303  157.4223 H   0  0  0  0  0  0  0  0  0  0  0  0  # atno 11005 bound_to 11000
  146.3526  140.0357  142.8647 LP  0  0  0  0  0  0  0  0  0  0  0  0  # atno 17320 bound_to 7965
  145.1370  140.9550  143.4511 LP  0  0  0  0  0  0  0  0  0  0  0  0  # atno 17321 bound_to 7965
  140.5290  143.2248  151.8269 LP  0  0  0  0  0  0  0  0  0  0  0  0  # atno 17342 bound_to 10162
  139.4837  144.4744  151.9385 LP  0  0  0  0  0  0  0  0  0  0  0  0  # atno 17343 bound_to 10162
  157.7453  130.9956  150.2748 LP  0  0  0  0  0  0  0  0  0  0  0  0  # atno 17370 bound_to 10713
  156.3258  130.3793  149.7534 LP  0  0  0  0  0  0  0  0  0  0  0  0  # atno 17371 bound_to 10713
  139.8799  135.0009  156.6038 LP  0  0  0  0  0  0  0  0  0  0  0  0  # atno 17394 bound_to 11000
  140.7845  133.8632  155.8595 LP  0  0  0  0  0  0  0  0  0  0  0  0  # atno 17395 bound_to 11000

$$$$
