AV-unprocessed.smi:652|AV-procd|sdf|3192|dock8
  -GOLD-   22720 0113D 1   1.00000     0.00000
 Structure written by MMmdl.
 48 49  0  0  0  0  0  0  0  0  2 V2000
  152.3562  144.0181  161.5519 C   0  0  0  0  0  0  0  0  0  0  0  0
  152.3297  144.0710  160.0186 C   0  0  0  0  0  0  0  0  0  0  0  0
  151.9573  145.4701  159.5036 C   0  0  0  0  0  0  0  0  0  0  0  0
  151.3887  143.0745  159.5145 N   0  0  0  0  0  0  0  0  0  0  0  0
  151.1058  142.8545  158.2206 C   0  0  0  0  0  0  0  0  0  0  0  0
  151.6095  143.4962  157.2988 O   0  0  0  0  0  0  0  0  0  0  0  0
  150.0943  141.7446  157.9228 C   0  0  0  0  0  0  0  0  0  0  0  0
  150.0236  141.4016  156.4203 C   0  0  0  0  0  0  0  0  0  0  0  0
  148.8653  142.0361  155.7422 N   0  3  1  0  0  0  0  0  0  0  0  0
  148.5836  141.4240  154.4217 C   0  0  0  0  0  0  0  0  0  0  0  0
  147.4042  142.1341  153.7375 C   0  0  0  0  0  0  0  0  0  0  0  0
  146.2658  142.0903  154.5880 O   0  0  0  0  0  0  0  0  0  0  0  0
  146.4879  142.7705  155.8190 C   0  0  1  0  0  0  0  0  0  0  0  0
  145.1866  142.7440  156.6323 C   0  0  0  0  0  0  0  0  0  0  0  0
  145.0100  143.9611  157.4128 N   0  0  0  0  0  0  0  0  0  0  0  0
  145.5667  144.0683  158.6945 C   0  0  0  0  0  0  0  0  0  0  0  0
  145.3089  145.2246  159.4575 C   0  0  0  0  0  0  0  0  0  0  0  0
  145.8861  145.3039  160.7369 C   0  0  0  0  0  0  0  0  0  0  0  0
  146.6786  144.2197  161.1560 C   0  0  0  0  0  0  0  0  0  0  0  0
  146.8929  143.1326  160.3814 N   0  0  0  0  0  0  0  0  0  0  0  0
  146.3426  143.0587  159.1643 N   0  0  0  0  0  0  0  0  0  0  0  0
  147.6338  142.0644  156.5696 C   0  0  0  0  0  0  0  0  0  0  0  0
  153.0750  144.7319  161.9555 H   0  0  0  0  0  0  0  0  0  0  0  0
  152.6438  143.0276  161.9065 H   0  0  0  0  0  0  0  0  0  0  0  0
  151.3798  144.2545  161.9763 H   0  0  0  0  0  0  0  0  0  0  0  0
  153.3327  143.8272  159.6633 H   0  0  0  0  0  0  0  0  0  0  0  0
  152.6626  146.2194  159.8640 H   0  0  0  0  0  0  0  0  0  0  0  0
  150.9613  145.7646  159.8361 H   0  0  0  0  0  0  0  0  0  0  0  0
  151.9697  145.5076  158.4139 H   0  0  0  0  0  0  0  0  0  0  0  0
  150.9214  142.5044  160.2049 H   0  0  0  0  0  0  0  0  0  0  0  0
  150.3487  140.8606  158.5080 H   0  0  0  0  0  0  0  0  0  0  0  0
  149.1179  142.0817  158.2727 H   0  0  0  0  0  0  0  0  0  0  0  0
  150.9348  141.7531  155.9331 H   0  0  0  0  0  0  0  0  0  0  0  0
  149.9923  140.3207  156.2734 H   0  0  0  0  0  0  0  0  0  0  0  0
  149.4676  141.4873  153.7860 H   0  0  0  0  0  0  0  0  0  0  0  0
  148.3565  140.3644  154.5514 H   0  0  0  0  0  0  0  0  0  0  0  0
  147.6560  143.1681  153.4970 H   0  0  0  0  0  0  0  0  0  0  0  0
  147.1622  141.6387  152.7970 H   0  0  0  0  0  0  0  0  0  0  0  0
  146.7675  143.8077  155.6235 H   0  0  0  0  0  0  0  0  0  0  0  0
  144.3300  142.6026  155.9717 H   0  0  0  0  0  0  0  0  0  0  0  0
  145.2086  141.8953  157.3170 H   0  0  0  0  0  0  0  0  0  0  0  0
  144.3617  144.6640  157.0882 H   0  0  0  0  0  0  0  0  0  0  0  0
  144.6908  146.0251  159.0781 H   0  0  0  0  0  0  0  0  0  0  0  0
  145.7285  146.1620  161.3732 H   0  0  0  0  0  0  0  0  0  0  0  0
  147.1493  144.2231  162.1279 H   0  0  0  0  0  0  0  0  0  0  0  0
  147.3434  141.0443  156.8269 H   0  0  0  0  0  0  0  0  0  0  0  0
  147.8199  142.5893  157.5058 H   0  0  0  0  0  0  0  0  0  0  0  0
  149.1239  142.9957  155.5616 H   0  0  0  0  0  0  0  0  0  0  0  0
  1  2  1  0  0  0  0
  1 23  1  0  0  0  0
  1 24  1  0  0  0  0
  1 25  1  0  0  0  0
  2  3  1  0  0  0  0
  2  4  1  0  0  0  0
  2 26  1  0  0  0  0
  3 27  1  0  0  0  0
  3 28  1  0  0  0  0
  3 29  1  0  0  0  0
  4  5  1  0  0  0  0
  4 30  1  0  0  0  0
  5  6  2  0  0  0  0
  5  7  1  0  0  0  0
  7  8  1  0  0  0  0
  7 31  1  0  0  0  0
  7 32  1  0  0  0  0
  8  9  1  0  0  0  0
  8 33  1  0  0  0  0
  8 34  1  0  0  0  0
  9 22  1  0  0  0  0
  9 10  1  0  0  0  0
  9 48  1  0  0  0  0
 10 11  1  0  0  0  0
 10 35  1  0  0  0  0
 10 36  1  0  0  0  0
 11 12  1  0  0  0  0
 11 37  1  0  0  0  0
 11 38  1  0  0  0  0
 12 13  1  0  0  0  0
 13 14  1  0  0  0  0
 13 22  1  0  0  0  0
 13 39  1  0  0  0  0
 14 15  1  0  0  0  0
 14 40  1  0  0  0  0
 14 41  1  0  0  0  0
 15 16  1  0  0  0  0
 15 42  1  0  0  0  0
 16 21  1  0  0  0  0
 16 17  2  0  0  0  0
 17 18  1  0  0  0  0
 17 43  1  0  0  0  0
 18 19  2  0  0  0  0
 18 44  1  0  0  0  0
 19 20  1  0  0  0  0
 19 45  1  0  0  0  0
 20 21  2  0  0  0  0
 22 46  1  0  0  0  0
 22 47  1  0  0  0  0
M  CHG  1   9   1
M  END
> <s_m_source_file>
AV-unprocessed.smi

> <i_m_source_file_index>
652

> <i_lp_mmshare_version>
43012

> <i_f3d_flags>
0

> <s_epik_input>
W0NIM11bQ0hdKFtDSDNdKVtOSF1DKD1PKVtDSDJdW0NIMl1OMVtDSDJdW0NIMl1PW0NASF0oW0NIMl0xKVtDSDJdW05IXWMyW2NIXVtjSF1bY0hdbm4y

> <s_epik_cmdline>
J2VwaWtfcHl0aG9uJywgJy1waCcsICc3LjAnLCAnLXRuJywgJzgnLCAnLW1hJywgJzIwMCcsICctbWV0YWxfYmluZGluZycsICctaW1hZScsICc8aW5maWxlLm1hZT4nLCAnLW9tYWUnLCAnPG91dGZpbGUubWFlPic=

> <r_lp_tautomer_probability>
0.999978

> <r_epik_Ionization_Penalty>
0.433079

> <r_epik_Ionization_Penalty_Charging>
0.413784

> <r_epik_Ionization_Penalty_Neutral>
0.0192945

> <r_epik_State_Penalty>
0.425138

> <r_epik_Charging_Adjusted_Penalty>
0.838922

> <i_epik_Tot_Q>
1

> <i_epik_Tot_abs_Q>
1

> <r_epik_Metal_State_Penalty>
0.422073

> <b_epik_Metal_Only>
0

> <s_lp_Force_Field>
OPLS_2005

> <r_lp_Energy>
21.6039

> <b_lp_Chiralities_Consistent>
1

> <s_lp_Variant>
AV-unprocessed.smi:652-1

> <Gold.Version>
5.8.1

> <Gold.Id.Protein>
6NUR|6NUR_protein|mol2

> <Gold.PLP.Fitness>
45.8661

> <Gold.PLP.PLP>
-37.8329

> <Gold.PLP.part.hbond>
-3.0000

> <Gold.PLP.part.metal>
0.0000

> <Gold.PLP.part.buried>
-5.8206

> <Gold.PLP.part.nonpolar>
-28.8168

> <Gold.PLP.part.repulsive>
0.5641

> <Gold.PLP.ligand.clash>
0.0000

> <Gold.PLP.ligand.torsion>
1.2113

> <Gold.PLP.Chemscore.Hbond>
3.4512

> <Gold.PLP.Chemscore.CHOScore>
0.0000

> <Gold.PLP.Chemscore.Metal>
0.0000

> <Gold.Chemscore.Hbonds>
donor molecule, donor type, donor heavy atom, donor atom, acceptor molecule, acceptor atom, score
      L1  H     9    48       P1  8028  2.00
      P1  H  6933  6944       L1    20  0.82
      P1  H  6934  6946       L1    20  0.24

> <Gold.PLP.Chemscore.Internal.Correction>
0.1024

> <Gold.Rescore>
     Score         DG    S(hbond)    S(metal)    S(lipo)     H(rot)  DE(clash)    DE(int)     intcor
     13.77     -15.14       1.64        0.00      85.28       2.26       0.30       1.07       ----

> <Gold.Chemscore.Fitness>
13.7670

> <Gold.Chemscore.DG>
-15.1396

> <Gold.Chemscore.ZeroCoef>
-5.4800

> <Gold.Chemscore.Hbond>
1.6367

> <Gold.Chemscore.Metal>
0.0000

> <Gold.Chemscore.Lipo>
85.2757

> <Gold.Chemscore.Internal_Hbond>
0.0000

> <Gold.Chemscore.DEClash>
0.3021

> <Gold.Chemscore.DEInternal>
1.0705

> <Gold.Chemscore.Rot>
2.2594

> <Gold.Chemscore.Internal.Correction>
   9.000000E+99

> <Gold.Chemscore.Hbonds>
donor molecule, donor type, donor heavy atom, donor atom, acceptor molecule, acceptor atom, score
      L1  H     9    48       P1  8028  0.97
      P1  H  6933  6944       L1    20  0.15
      P1  H  6934  6946       L1    20  0.03

> <Gold.Chemscore.Hbond.Weighted>
-5.4665

> <Gold.Chemscore.Metal.Weighted>
-0.0000

> <Gold.Chemscore.Lipo.Weighted>
-9.9773

> <Gold.Chemscore.Internal_Hbond.Weighted>
0.0000

> <Gold.Chemscore.DEClash.Weighted>
0.3021

> <Gold.Chemscore.DEInternal.Weighted>
1.0705

> <Gold.Chemscore.Rot.Weighted>
5.7841

> <Gold.Chemscore.Internal.Correction.Weighted>
   9.000000E+99

> <Gold.Protein.RotatedTorsions>
[ 6907 6896 6895 6894 ] final  -22.14 input  -60.11 | X-H torsion
[ 7974 7965 7964 7962 ] final   21.48 input  175.53 | X-H torsion
[ 8008 7997 7996 7995 ] final   40.65 input   59.86 | X-H torsion
[ 10167 10162 10161 10158 ] final -134.65 input  -65.29 | X-H torsion
[ 10718 10713 10712 10709 ] final -149.37 input   66.30 | X-H torsion
[ 10763 10752 10751 10750 ] final   30.71 input  -60.55 | X-H torsion
[ 11005 11000 10999 10996 ] final  151.22 input  -57.11 | X-H torsion

> <Gold.Protein.ActiveResidues>
 VAL166  LYS551  ARG553  GLY616  TRP617  ASP618  TYR619  PRO620  LYS621  CYS622 
 ASP623  PHE694  ASN695  SER759  ASP760  ASP761  ALA762  ILE779  LEU786  VAL792 
 PHE793  MET794  SER795  GLU796  ALA797  LYS798  CYS799  TRP800  GLU811  SER814 

> <Gold.Protein.RotatedAtoms>
  151.2230  135.0526  159.8956 H   0  0  0  0  0  0  0  0  0  0  0  0  # atno 6907 bound_to 6896
  152.5413  134.0620  159.8166 H   0  0  0  0  0  0  0  0  0  0  0  0  # atno 6908 bound_to 6896
  151.0789  133.5358  159.2653 H   0  0  0  0  0  0  0  0  0  0  0  0  # atno 6909 bound_to 6896
  146.2069  139.8022  142.8718 H   0  0  0  0  0  0  0  0  0  0  0  0  # atno 7974 bound_to 7965
  155.2567  140.3356  155.4277 H   0  0  0  0  0  0  0  0  0  0  0  0  # atno 8008 bound_to 7997
  156.2192  140.1802  156.7560 H   0  0  0  0  0  0  0  0  0  0  0  0  # atno 8009 bound_to 7997
  154.5800  140.0655  156.9074 H   0  0  0  0  0  0  0  0  0  0  0  0  # atno 8010 bound_to 7997
  139.8859  143.6782  152.2620 H   0  0  0  0  0  0  0  0  0  0  0  0  # atno 10167 bound_to 10162
  156.4323  130.8081  151.2309 H   0  0  0  0  0  0  0  0  0  0  0  0  # atno 10718 bound_to 10713
  153.0356  135.6457  154.1087 H   0  0  0  0  0  0  0  0  0  0  0  0  # atno 10763 bound_to 10752
  154.0802  135.2874  155.3293 H   0  0  0  0  0  0  0  0  0  0  0  0  # atno 10764 bound_to 10752
  154.6535  135.5417  153.7994 H   0  0  0  0  0  0  0  0  0  0  0  0  # atno 10765 bound_to 10752
  140.1200  134.8870  157.2058 H   0  0  0  0  0  0  0  0  0  0  0  0  # atno 11005 bound_to 11000
  145.3285  141.0261  143.3460 LP  0  0  0  0  0  0  0  0  0  0  0  0  # atno 17320 bound_to 7965
  144.8816  139.4896  143.6720 LP  0  0  0  0  0  0  0  0  0  0  0  0  # atno 17321 bound_to 7965
  139.7154  144.7613  151.1043 LP  0  0  0  0  0  0  0  0  0  0  0  0  # atno 17342 bound_to 10162
  140.7736  143.5276  150.9461 LP  0  0  0  0  0  0  0  0  0  0  0  0  # atno 17343 bound_to 10162
  157.7508  131.0194  150.3667 LP  0  0  0  0  0  0  0  0  0  0  0  0  # atno 17370 bound_to 10713
  156.4007  130.3915  149.6962 LP  0  0  0  0  0  0  0  0  0  0  0  0  # atno 17371 bound_to 10713
  140.2978  134.3166  155.7298 LP  0  0  0  0  0  0  0  0  0  0  0  0  # atno 17394 bound_to 11000
  141.2149  133.7573  156.9596 LP  0  0  0  0  0  0  0  0  0  0  0  0  # atno 17395 bound_to 11000

$$$$
