#       Name:                AV-unprocessed.smi:1627
#       Creating user name   scv26
#       Creation time:       Fri Mar 27 07:18:48 2020


#       File generated by GOLD software.
#

@<TRIPOS>MOLECULE
AV-unprocessed.smi:1627
    49    50     1
SMALL
NO_CHARGES


@<TRIPOS>ATOM
      1 ****         1.0517  -5.0089   2.3860 C.3            1 S1                 0.0000
      2 ****         1.5199  -4.1794   1.1813 C.3            1 S1                 0.0000
      3 ****         2.9453  -4.1909   1.1830 O.3            1 S1                 0.0000
      4 ****         3.5647  -3.7184  -0.0092 C.3            1 S1                 0.0000
      5 ****         5.0863  -3.8570   0.1217 C.3            1 S1                 0.0000
      6 ****         5.6659  -3.4155  -0.9941 F              1 S1                 0.0000
      7 ****         5.5275  -3.1316   1.1490 F              1 S1                 0.0000
      8 ****         5.4195  -5.1351   0.2996 F              1 S1                 0.0000
      9 ****         0.9970  -2.7358   1.2615 C.2            1 S1                 0.0000
     10 ****         1.2461  -2.0528   2.2546 O.2            1 S1                 0.0000
     11 ****         0.2770  -2.3143   0.2054 N.am           1 S1                 0.0000
     12 ****        -0.2922  -1.0323  -0.0205 C.ar           1 S1                 0.0000
     13 ****        -1.3672  -0.9331  -0.9266 C.ar           1 S1                 0.0000
     14 ****        -1.9300   0.3301  -1.1893 C.ar           1 S1                 0.0000
     15 ****        -1.3912   1.4600  -0.5407 C.ar           1 S1                 0.0000
     16 ****        -1.9434   2.7226  -0.7987 N.3            1 S1                 0.0000
     17 ****        -1.0268   3.6171  -1.5017 C.3            1 S1                 0.0000
     18 ****        -1.7482   4.9027  -1.9423 C.3            1 S1                 0.0000
     19 ****        -2.4311   5.5862  -0.7466 C.3            1 S1                 0.0000
     20 ****        -3.3571   4.5940  -0.0247 C.3            1 S1                 0.0000
     21 ****        -2.5945   3.3162   0.3667 C.3            1 S1                 0.0000
     22 ****        -0.3499   1.3780   0.3206 N.ar           1 S1                 0.0000
     23 ****         0.1852   0.1636   0.5689 C.ar           1 S1                 0.0000
     24 ****        -0.0365  -5.0268   2.4561 H              1 S1                 0.0000
     25 ****         1.4423  -4.6122   3.3239 H              1 S1                 0.0000
     26 ****         1.3927  -6.0407   2.2994 H              1 S1                 0.0000
     27 ****         1.1553  -4.6595   0.2711 H              1 S1                 0.0000
     28 ****         3.2132  -4.2978  -0.8641 H              1 S1                 0.0000
     29 ****         3.3106  -2.6745  -0.1971 H              1 S1                 0.0000
     30 ****         0.0689  -3.0113  -0.4949 H              1 S1                 0.0000
     31 ****        -1.7601  -1.8130  -1.4149 H              1 S1                 0.0000
     32 ****        -2.7570   0.4283  -1.8775 H              1 S1                 0.0000
     33 ****        -0.1900   3.8684  -0.8482 H              1 S1                 0.0000
     34 ****        -0.6110   3.1080  -2.3722 H              1 S1                 0.0000
     35 ****        -1.0401   5.5861  -2.4116 H              1 S1                 0.0000
     36 ****        -2.4950   4.6604  -2.6995 H              1 S1                 0.0000
     37 ****        -1.6739   5.9523  -0.0522 H              1 S1                 0.0000
     38 ****        -2.9966   6.4562  -1.0812 H              1 S1                 0.0000
     39 ****        -3.7872   5.0590   0.8628 H              1 S1                 0.0000
     40 ****        -4.1928   4.3348  -0.6760 H              1 S1                 0.0000
     41 ****        -3.2818   2.5956   0.8119 H              1 S1                 0.0000
     42 ****        -1.8442   3.5514   1.1231 H              1 S1                 0.0000
     43 ****         1.0304   0.1718   1.2391 H              1 S1                 0.0000
     44 ****         3.2454  -5.1329   1.3334 LP             1 S1                 0.0000
     45 ****         3.2569  -3.6169   1.9402 LP             1 S1                 0.0000
     46 ****         1.7858  -2.4375   3.0034 LP             1 S1                 0.0000
     47 ****         0.9088  -1.1132   2.3126 LP             1 S1                 0.0000
     48 ****        -2.6892   2.5697  -1.4472 LP             1 S1                 0.0000
     49 ****         0.0143   2.1977   0.7625 LP             1 S1                 0.0000
@<TRIPOS>BOND
    1    1    2 1     
    2    1   24 1     
    3    1   25 1     
    4    1   26 1     
    5    2    3 1     
    6    2    9 1     
    7    2   27 1     
    8    3    4 1     
    9    4    5 1     
   10    4   28 1     
   11    4   29 1     
   12    5    6 1     
   13    5    7 1     
   14    5    8 1     
   15    9   10 2     
   16    9   11 am    
   17   11   12 1     
   18   11   30 1     
   19   12   23 ar    
   20   12   13 ar    
   21   13   14 ar    
   22   13   31 1     
   23   14   15 ar    
   24   14   32 1     
   25   15   16 1     
   26   15   22 ar    
   27   16   21 1     
   28   16   17 1     
   29   17   18 1     
   30   17   33 1     
   31   17   34 1     
   32   18   19 1     
   33   18   35 1     
   34   18   36 1     
   35   19   20 1     
   36   19   37 1     
   37   19   38 1     
   38   20   21 1     
   39   20   39 1     
   40   20   40 1     
   41   21   41 1     
   42   21   42 1     
   43   22   23 ar    
   44   23   43 1     
   45    3   44 1     
   46    3   45 1     
   47   10   46 1     
   48   10   47 1     
   49   16   48 1     
   50   22   49 1     
@<TRIPOS>SUBSTRUCTURE
      1 S1             1
@<TRIPOS>SET
LONE_PAIRS      STATIC     ATOMS    <user>   **** ""
6 44 45 46 47 48 49
DONOR_HYDROGENS      STATIC     ATOMS    <user>   **** ""
1 30
ATOM$BLUE        STATIC     ATOMS    COLORGROUP SYSTEM
6 44 45 46 47 48 49
ATOM$RED        STATIC     ATOMS    COLORGROUP SYSTEM
1 30
