AV-unprocessed.smi:2424|AV-procd|sdf|9560|dock1
  -GOLD-   2272013193D 1   1.00000     0.00000
 Structure written by MMmdl.
 50 51  0  0  0  0  0  0  0  0  1 V2000
  147.7432  138.5952  157.6985 C   0  0  0  0  0  0  0  0  0  0  0  0
  146.9223  138.4563  156.4065 C   0  0  0  0  0  0  0  0  0  0  0  0
  147.6673  138.8393  155.1069 C   0  0  0  0  0  0  0  0  0  0  0  0
  148.9561  137.9823  154.9936 C   0  0  0  0  0  0  0  0  0  0  0  0
  150.0844  138.6009  154.1517 C   0  0  0  0  0  0  0  0  0  0  0  0
  146.7664  138.9123  153.8444 C   0  0  2  0  0  0  0  0  0  0  0  0
  146.9172  137.7849  152.9279 N   0  0  0  0  0  0  0  0  0  0  0  0
  145.9291  136.9692  152.5375 C   0  0  0  0  0  0  0  0  0  0  0  0
  144.7611  137.1014  152.9005 O   0  0  0  0  0  0  0  0  0  0  0  0
  146.3971  136.0149  151.7127 N   0  0  0  0  0  0  0  0  0  0  0  0
  145.7129  134.9474  151.1146 C   0  0  0  0  0  0  0  0  0  0  0  0
  144.5445  135.2160  150.5067 C   0  0  0  0  0  0  0  0  0  0  0  0
  143.7958  134.2157  149.8826 N   0  0  0  0  0  0  0  0  0  0  0  0
  144.1623  132.9153  149.8260 C   0  0  0  0  0  0  0  0  0  0  0  0
  143.4469  132.0907  149.2597 O   0  0  0  0  0  0  0  0  0  0  0  0
  145.4436  132.5902  150.4735 C   0  0  0  0  0  0  0  0  0  0  0  0
  145.9176  131.1481  150.4320 C   0  0  0  0  0  0  0  0  0  0  0  0
  146.1671  133.5606  151.0790 C   0  0  0  0  0  0  0  0  0  0  0  0
  147.5394  140.1486  153.3777 C   0  0  1  0  0  0  0  0  0  0  0  0
  146.8234  141.2411  152.5932 C   0  0  0  0  0  0  0  0  0  0  0  0
  147.8920  140.3612  154.8587 C   0  0  1  0  0  0  0  0  0  0  0  0
  146.9303  141.2029  155.4849 O   0  0  0  0  0  0  0  0  0  0  0  0
  147.2149  141.4455  156.8524 C   0  0  0  0  0  0  0  0  0  0  0  0
  142.9255  134.4941  149.4527 H   0  0  0  0  0  0  0  0  0  0  0  0
  147.1759  138.2216  158.5509 H   0  0  0  0  0  0  0  0  0  0  0  0
  147.9977  139.6322  157.9138 H   0  0  0  0  0  0  0  0  0  0  0  0
  148.6677  138.0218  157.6478 H   0  0  0  0  0  0  0  0  0  0  0  0
  146.6046  137.4151  156.3506 H   0  0  0  0  0  0  0  0  0  0  0  0
  145.9968  139.0209  156.5081 H   0  0  0  0  0  0  0  0  0  0  0  0
  149.3467  137.7333  155.9799 H   0  0  0  0  0  0  0  0  0  0  0  0
  148.7209  137.0170  154.5457 H   0  0  0  0  0  0  0  0  0  0  0  0
  150.8983  137.8870  154.0250 H   0  0  0  0  0  0  0  0  0  0  0  0
  150.5086  139.4850  154.6267 H   0  0  0  0  0  0  0  0  0  0  0  0
  149.7393  138.8836  153.1574 H   0  0  0  0  0  0  0  0  0  0  0  0
  145.7318  139.1643  154.0898 H   0  0  0  0  0  0  0  0  0  0  0  0
  147.8470  137.6075  152.5774 H   0  0  0  0  0  0  0  0  0  0  0  0
  147.3802  136.0635  151.4892 H   0  0  0  0  0  0  0  0  0  0  0  0
  144.0954  136.1972  150.4531 H   0  0  0  0  0  0  0  0  0  0  0  0
  146.8789  131.0291  150.9327 H   0  0  0  0  0  0  0  0  0  0  0  0
  146.0316  130.8141  149.4003 H   0  0  0  0  0  0  0  0  0  0  0  0
  145.1971  130.4961  150.9270 H   0  0  0  0  0  0  0  0  0  0  0  0
  147.1030  133.2724  151.5283 H   0  0  0  0  0  0  0  0  0  0  0  0
  148.4439  139.8462  152.8468 H   0  0  0  0  0  0  0  0  0  0  0  0
  145.8789  141.5198  153.0611 H   0  0  0  0  0  0  0  0  0  0  0  0
  146.5997  140.9109  151.5789 H   0  0  0  0  0  0  0  0  0  0  0  0
  147.4351  142.1404  152.5215 H   0  0  0  0  0  0  0  0  0  0  0  0
  148.9188  140.7088  154.9850 H   0  0  0  0  0  0  0  0  0  0  0  0
  146.4205  142.0498  157.2899 H   0  0  0  0  0  0  0  0  0  0  0  0
  148.1521  141.9918  156.9638 H   0  0  0  0  0  0  0  0  0  0  0  0
  147.2849  140.5181  157.4209 H   0  0  0  0  0  0  0  0  0  0  0  0
  1  2  1  0  0  0  0
  1 25  1  0  0  0  0
  1 26  1  0  0  0  0
  1 27  1  0  0  0  0
  2  3  1  0  0  0  0
  2 28  1  0  0  0  0
  2 29  1  0  0  0  0
  3 21  1  0  0  0  0
  3  4  1  0  0  0  0
  3  6  1  0  0  0  0
  4  5  1  0  0  0  0
  4 30  1  0  0  0  0
  4 31  1  0  0  0  0
  5 32  1  0  0  0  0
  5 33  1  0  0  0  0
  5 34  1  0  0  0  0
  6  7  1  0  0  0  0
  6 19  1  0  0  0  0
  6 35  1  0  0  0  0
  7  8  1  0  0  0  0
  7 36  1  0  0  0  0
  8  9  2  0  0  0  0
  8 10  1  0  0  0  0
 10 11  1  0  0  0  0
 10 37  1  0  0  0  0
 11 18  1  0  0  0  0
 11 12  2  0  0  0  0
 12 13  1  0  0  0  0
 12 38  1  0  0  0  0
 13 24  1  0  0  0  0
 13 14  1  0  0  0  0
 14 15  2  0  0  0  0
 14 16  1  0  0  0  0
 16 17  1  0  0  0  0
 16 18  2  0  0  0  0
 17 39  1  0  0  0  0
 17 40  1  0  0  0  0
 17 41  1  0  0  0  0
 18 42  1  0  0  0  0
 19 20  1  0  0  0  0
 19 21  1  0  0  0  0
 19 43  1  0  0  0  0
 20 44  1  0  0  0  0
 20 45  1  0  0  0  0
 20 46  1  0  0  0  0
 21 22  1  0  0  0  0
 21 47  1  0  0  0  0
 22 23  1  0  0  0  0
 23 48  1  0  0  0  0
 23 49  1  0  0  0  0
 23 50  1  0  0  0  0
M  END
> <s_m_source_file>
AV-unprocessed.smi

> <i_m_source_file_index>
2424

> <i_lp_mmshare_version>
43012

> <i_f3d_flags>
0

> <s_epik_input>
W0NIM11PW0NAQEhdMVtDQEhdKFtDSDNdKVtDQEBIXShDMShbQ0gyXVtDSDNdKVtDSDJdW0NIM10pW05IXUMoPU8pW05IXWMyW2NIXVtuSF1jKD1PKWMoW0NIM10pW2NIXTI=

> <s_epik_cmdline>
J2VwaWtfcHl0aG9uJywgJy1waCcsICc3LjAnLCAnLXRuJywgJzgnLCAnLW1hJywgJzIwMCcsICctbWV0YWxfYmluZGluZycsICctaW1hZScsICc8aW5maWxlLm1hZT4nLCAnLW9tYWUnLCAnPG91dGZpbGUubWFlPic=

> <r_lp_tautomer_probability>
1

> <r_epik_Ionization_Penalty>
4.7326e-05

> <r_epik_Ionization_Penalty_Charging>
2.70169e-05

> <r_epik_Ionization_Penalty_Neutral>
2.0309e-05

> <r_epik_State_Penalty>
-0

> <r_epik_Charging_Adjusted_Penalty>
2.70169e-05

> <i_epik_Tot_Q>
0

> <i_epik_Tot_abs_Q>
0

> <r_epik_Metal_State_Penalty>
0.0198736

> <b_epik_Metal_Only>
0

> <s_lp_Force_Field>
OPLS_2005

> <r_lp_Energy>
37.5965

> <b_lp_Chiralities_Consistent>
1

> <s_lp_Variant>
AV-unprocessed.smi:2424-2

> <Gold.Version>
5.8.1

> <Gold.Id.Protein>
6NUR|6NUR_protein|mol2

> <Gold.PLP.Fitness>
42.3109

> <Gold.PLP.PLP>
-29.4924

> <Gold.PLP.part.hbond>
-4.1597

> <Gold.PLP.part.metal>
0.0000

> <Gold.PLP.part.buried>
-4.5271

> <Gold.PLP.part.nonpolar>
-22.7285

> <Gold.PLP.part.repulsive>
0.6867

> <Gold.PLP.ligand.clash>
0.0000

> <Gold.PLP.ligand.torsion>
1.1487

> <Gold.PLP.Chemscore.Hbond>
3.7753

> <Gold.PLP.Chemscore.CHOScore>
1.0000

> <Gold.PLP.Chemscore.Metal>
0.0000

> <Gold.Chemscore.Hbonds>
donor molecule, donor type, donor heavy atom, donor atom, acceptor molecule, acceptor atom, score
      L1  H     7    36       P1  7948  0.86
      L1  H    10    37       P1  7948  1.00
      L1  H    13    24       P1 10186  0.94
      P1  H 10785 10796       L1    15  0.99
      L1  C    12    38       P1 10171  1.00

> <Gold.PLP.Chemscore.Internal.Correction>
0.7899

> <Gold.Rescore>
     Score         DG    S(hbond)    S(metal)    S(lipo)     H(rot)  DE(clash)    DE(int)     intcor
     19.86     -22.91       3.69        0.00      77.53       1.55       1.00       2.05       ----

> <Gold.Chemscore.Fitness>
19.8630

> <Gold.Chemscore.DG>
-22.9063

> <Gold.Chemscore.ZeroCoef>
-5.4800

> <Gold.Chemscore.Hbond>
3.6898

> <Gold.Chemscore.Metal>
0.0000

> <Gold.Chemscore.Lipo>
77.5279

> <Gold.Chemscore.Internal_Hbond>
0.0000

> <Gold.Chemscore.DEClash>
0.9967

> <Gold.Chemscore.DEInternal>
2.0467

> <Gold.Chemscore.Rot>
1.5502

> <Gold.Chemscore.Internal.Correction>
   9.000000E+99

> <Gold.Chemscore.Hbonds>
donor molecule, donor type, donor heavy atom, donor atom, acceptor molecule, acceptor atom, score
      L1  H     7    36       P1  7948  0.85
      L1  H    10    37       P1  7948  0.96
      L1  H    13    24       P1 10186  0.90
      P1  H 10785 10796       L1    15  0.88

> <Gold.Chemscore.Hbond.Weighted>
-12.3241

> <Gold.Chemscore.Metal.Weighted>
-0.0000

> <Gold.Chemscore.Lipo.Weighted>
-9.0708

> <Gold.Chemscore.Internal_Hbond.Weighted>
0.0000

> <Gold.Chemscore.DEClash.Weighted>
0.9967

> <Gold.Chemscore.DEInternal.Weighted>
2.0467

> <Gold.Chemscore.Rot.Weighted>
3.9685

> <Gold.Chemscore.Internal.Correction.Weighted>
   9.000000E+99

> <Gold.Protein.RotatedTorsions>
[ 6907 6896 6895 6894 ] final  128.34 input  -60.11 | X-H torsion
[ 7974 7965 7964 7962 ] final  158.83 input  175.53 | X-H torsion
[ 8008 7997 7996 7995 ] final  134.25 input   59.86 | X-H torsion
[ 10167 10162 10161 10158 ] final -166.01 input  -65.29 | X-H torsion
[ 10718 10713 10712 10709 ] final -172.42 input   66.30 | X-H torsion
[ 10763 10752 10751 10750 ] final -137.29 input  -60.55 | X-H torsion
[ 11005 11000 10999 10996 ] final  118.84 input  -57.11 | X-H torsion

> <Gold.Protein.ActiveResidues>
 VAL166  LYS551  ARG553  GLY616  TRP617  ASP618  TYR619  PRO620  LYS621  CYS622 
 ASP623  PHE694  ASN695  SER759  ASP760  ASP761  ALA762  ILE779  LEU786  VAL792 
 PHE793  MET794  SER795  GLU796  ALA797  LYS798  CYS799  TRP800  GLU811  SER814 

> <Gold.Protein.RotatedAtoms>
  152.3728  133.6441  159.6100 H   0  0  0  0  0  0  0  0  0  0  0  0  # atno 6907 bound_to 6896
  150.7681  133.9242  159.3416 H   0  0  0  0  0  0  0  0  0  0  0  0  # atno 6908 bound_to 6896
  151.7062  135.0922  160.0311 H   0  0  0  0  0  0  0  0  0  0  0  0  # atno 6909 bound_to 6896
  144.7824  139.7533  143.6254 H   0  0  0  0  0  0  0  0  0  0  0  0  # atno 7974 bound_to 7965
  156.2998  140.2501  156.3386 H   0  0  0  0  0  0  0  0  0  0  0  0  # atno 8008 bound_to 7997
  154.9077  140.0404  157.1948 H   0  0  0  0  0  0  0  0  0  0  0  0  # atno 8009 bound_to 7997
  154.8437  140.2895  155.5647 H   0  0  0  0  0  0  0  0  0  0  0  0  # atno 8010 bound_to 7997
  139.6143  144.0750  152.1873 H   0  0  0  0  0  0  0  0  0  0  0  0  # atno 10167 bound_to 10162
  156.7553  130.9393  151.3116 H   0  0  0  0  0  0  0  0  0  0  0  0  # atno 10718 bound_to 10713
  154.8665  135.3646  154.5200 H   0  0  0  0  0  0  0  0  0  0  0  0  # atno 10763 bound_to 10752
  153.5830  135.7018  153.5460 H   0  0  0  0  0  0  0  0  0  0  0  0  # atno 10764 bound_to 10752
  153.3440  135.4090  155.1556 H   0  0  0  0  0  0  0  0  0  0  0  0  # atno 10765 bound_to 10752
  139.9124  134.9624  156.7565 H   0  0  0  0  0  0  0  0  0  0  0  0  # atno 11005 bound_to 11000
  146.2038  139.5350  142.9726 LP  0  0  0  0  0  0  0  0  0  0  0  0  # atno 17320 bound_to 7965
  145.6015  141.0354  143.2016 LP  0  0  0  0  0  0  0  0  0  0  0  0  # atno 17321 bound_to 7965
  140.0377  144.6032  150.7436 LP  0  0  0  0  0  0  0  0  0  0  0  0  # atno 17342 bound_to 10162
  140.7341  143.2724  151.3846 LP  0  0  0  0  0  0  0  0  0  0  0  0  # atno 17343 bound_to 10162
  157.6759  130.9094  150.0149 LP  0  0  0  0  0  0  0  0  0  0  0  0  # atno 17370 bound_to 10713
  156.1375  130.3642  149.9635 LP  0  0  0  0  0  0  0  0  0  0  0  0  # atno 17371 bound_to 10713
  140.6732  133.9541  155.7868 LP  0  0  0  0  0  0  0  0  0  0  0  0  # atno 17394 bound_to 11000
  141.0563  134.0412  157.3718 LP  0  0  0  0  0  0  0  0  0  0  0  0  # atno 17395 bound_to 11000

$$$$
