AV-unprocessed.smi:264|AV-procd|sdf|2010|dock6
  -GOLD-   2262021203D 1   1.00000     0.00000
 Structure written by MMmdl.
 52 56  0  0  0  0  0  0  0  0  1 V2000
  150.9375  140.7660  157.5461 C   0  0  0  0  0  0  0  0  0  0  0  0
  151.3360  140.5999  156.0715 C   0  0  1  0  0  0  0  0  0  0  0  0
  152.5132  139.7980  156.0258 O   0  0  0  0  0  0  0  0  0  0  0  0
  152.5308  139.0829  154.8034 C   0  0  0  0  0  0  0  0  0  0  0  0
  151.0761  138.6666  154.6502 C   0  0  0  0  0  0  0  0  0  0  0  0
  150.3101  139.8934  155.1404 C   0  0  2  0  0  0  0  0  0  0  0  0
  150.0890  140.7390  154.0240 O   0  0  0  0  0  0  0  0  0  0  0  0
  148.9322  139.5511  155.7666 C   0  0  0  0  0  0  0  0  0  0  0  0
  148.1184  138.6822  154.9302 N   0  0  0  0  0  0  0  0  0  0  0  0
  147.7014  138.9296  153.6418 C   0  0  0  0  0  0  0  0  0  0  0  0
  146.9675  137.9937  153.1049 N   0  0  0  0  0  0  0  0  0  0  0  0
  146.8748  137.0238  154.0965 C   0  0  0  0  0  0  0  0  0  0  0  0
  146.2335  135.7560  154.1860 C   0  0  0  0  0  0  0  0  0  0  0  0
  145.4864  135.2426  153.1765 N   0  0  0  0  0  0  0  0  0  0  0  0
  144.4268  136.0705  152.6112 C   0  0  0  0  0  0  0  0  0  0  0  0
  143.5000  135.2093  151.7414 C   0  0  0  0  0  0  0  0  0  0  0  0
  144.2555  134.5036  150.7574 O   0  0  0  0  0  0  0  0  0  0  0  0
  145.3080  133.6777  151.2722 C   0  0  1  0  0  0  0  0  0  0  0  0
  144.7769  132.4198  151.9534 C   0  0  0  0  0  0  0  0  0  0  0  0
  144.4635  131.5222  150.7665 C   0  0  0  0  0  0  0  0  0  0  0  0
  145.5449  131.7526  149.8773 O   0  0  0  0  0  0  0  0  0  0  0  0
  146.0363  133.0793  150.0569 C   0  0  0  0  0  0  0  0  0  0  0  0
  146.2449  134.5261  152.1575 C   0  0  0  0  0  0  0  0  0  0  0  0
  146.3908  135.0560  155.3416 N   0  0  0  0  0  0  0  0  0  0  0  0
  147.1133  135.5627  156.3450 C   0  0  0  0  0  0  0  0  0  0  0  0
  147.7551  136.7309  156.4039 N   0  0  0  0  0  0  0  0  0  0  0  0
  147.6072  137.4353  155.2457 C   0  0  0  0  0  0  0  0  0  0  0  0
  150.0454  141.3833  157.6513 H   0  0  0  0  0  0  0  0  0  0  0  0
  151.7365  141.2521  158.1061 H   0  0  0  0  0  0  0  0  0  0  0  0
  150.7468  139.8035  158.0210 H   0  0  0  0  0  0  0  0  0  0  0  0
  151.5950  141.5833  155.6740 H   0  0  0  0  0  0  0  0  0  0  0  0
  152.8414  139.7423  153.9914 H   0  0  0  0  0  0  0  0  0  0  0  0
  153.2123  138.2329  154.8429 H   0  0  0  0  0  0  0  0  0  0  0  0
  150.8206  138.3615  153.6342 H   0  0  0  0  0  0  0  0  0  0  0  0
  150.8864  137.8181  155.3087 H   0  0  0  0  0  0  0  0  0  0  0  0
  149.8249  141.5896  154.3391 H   0  0  0  0  0  0  0  0  0  0  0  0
  149.0622  139.0536  156.7281 H   0  0  0  0  0  0  0  0  0  0  0  0
  148.3656  140.4620  155.9635 H   0  0  0  0  0  0  0  0  0  0  0  0
  147.9559  139.8348  153.1098 H   0  0  0  0  0  0  0  0  0  0  0  0
  143.8486  136.5436  153.4060 H   0  0  0  0  0  0  0  0  0  0  0  0
  144.8691  136.8662  152.0099 H   0  0  0  0  0  0  0  0  0  0  0  0
  142.9250  134.5195  152.3580 H   0  0  0  0  0  0  0  0  0  0  0  0
  142.7735  135.8435  151.2334 H   0  0  0  0  0  0  0  0  0  0  0  0
  145.5625  131.9595  152.5546 H   0  0  0  0  0  0  0  0  0  0  0  0
  143.9199  132.5774  152.6061 H   0  0  0  0  0  0  0  0  0  0  0  0
  144.3854  130.4700  151.0399 H   0  0  0  0  0  0  0  0  0  0  0  0
  143.5308  131.8250  150.2882 H   0  0  0  0  0  0  0  0  0  0  0  0
  145.8883  133.6743  149.1551 H   0  0  0  0  0  0  0  0  0  0  0  0
  147.1107  133.0126  150.2315 H   0  0  0  0  0  0  0  0  0  0  0  0
  146.7647  135.2615  151.5419 H   0  0  0  0  0  0  0  0  0  0  0  0
  147.0153  133.8924  152.5958 H   0  0  0  0  0  0  0  0  0  0  0  0
  147.1867  134.9445  157.2274 H   0  0  0  0  0  0  0  0  0  0  0  0
  1  2  1  0  0  0  0
  1 28  1  0  0  0  0
  1 29  1  0  0  0  0
  1 30  1  0  0  0  0
  2  6  1  0  0  0  0
  2  3  1  0  0  0  0
  2 31  1  0  0  0  0
  3  4  1  0  0  0  0
  4  5  1  0  0  0  0
  4 32  1  0  0  0  0
  4 33  1  0  0  0  0
  5  6  1  0  0  0  0
  5 34  1  0  0  0  0
  5 35  1  0  0  0  0
  6  7  1  0  0  0  0
  6  8  1  0  0  0  0
  7 36  1  0  0  0  0
  8  9  1  0  0  0  0
  8 37  1  0  0  0  0
  8 38  1  0  0  0  0
  9 27  1  0  0  0  0
  9 10  1  0  0  0  0
 10 11  2  0  0  0  0
 10 39  1  0  0  0  0
 11 12  1  0  0  0  0
 12 27  2  0  0  0  0
 12 13  1  0  0  0  0
 13 14  1  0  0  0  0
 13 24  2  0  0  0  0
 14 23  1  0  0  0  0
 14 15  1  0  0  0  0
 15 16  1  0  0  0  0
 15 40  1  0  0  0  0
 15 41  1  0  0  0  0
 16 17  1  0  0  0  0
 16 42  1  0  0  0  0
 16 43  1  0  0  0  0
 17 18  1  0  0  0  0
 18 22  1  0  0  0  0
 18 19  1  0  0  0  0
 18 23  1  0  0  0  0
 19 20  1  0  0  0  0
 19 44  1  0  0  0  0
 19 45  1  0  0  0  0
 20 21  1  0  0  0  0
 20 46  1  0  0  0  0
 20 47  1  0  0  0  0
 21 22  1  0  0  0  0
 22 48  1  0  0  0  0
 22 49  1  0  0  0  0
 23 50  1  0  0  0  0
 23 51  1  0  0  0  0
 24 25  1  0  0  0  0
 25 26  2  0  0  0  0
 25 52  1  0  0  0  0
 26 27  1  0  0  0  0
M  END
> <s_m_source_file>
AV-unprocessed.smi

> <i_m_source_file_index>
264

> <i_lp_mmshare_version>
43012

> <i_f3d_flags>
0

> <s_epik_input>
W0NIMl0xW0NIMl1PW0NAQEhdKFtDSDNdKVtDQEBdMShbT0hdKVtDSDJdbihbY0hdbjIpYyhjMjMpbltjSF1uYzNOKFtDSDJdNClbQ0gyXVtDSDJdT1tDQF00NVtDSDJdW0NIMl1PW0NIMl01

> <s_epik_cmdline>
J2VwaWtfcHl0aG9uJywgJy1waCcsICc3LjAnLCAnLXRuJywgJzgnLCAnLW1hJywgJzIwMCcsICctbWV0YWxfYmluZGluZycsICctaW1hZScsICc8aW5maWxlLm1hZT4nLCAnLW9tYWUnLCAnPG91dGZpbGUubWFlPic=

> <r_lp_tautomer_probability>
1

> <r_epik_Ionization_Penalty>
0.00539389

> <r_epik_Ionization_Penalty_Charging>
0

> <r_epik_Ionization_Penalty_Neutral>
0.00539389

> <r_epik_State_Penalty>
0.00375441

> <r_epik_Charging_Adjusted_Penalty>
0.00375441

> <i_epik_Tot_Q>
0

> <i_epik_Tot_abs_Q>
0

> <r_epik_Metal_State_Penalty>
-0

> <b_epik_Metal_Only>
0

> <s_lp_Force_Field>
OPLS_2005

> <r_lp_Energy>
53.4902

> <b_lp_Chiralities_Consistent>
1

> <s_lp_Variant>
AV-unprocessed.smi:264-4

> <Gold.Version>
5.8.1

> <Gold.Id.Protein>
6NUR|6NUR_protein|mol2

> <Gold.PLP.Fitness>
39.8575

> <Gold.PLP.PLP>
-32.5893

> <Gold.PLP.part.hbond>
-2.6603

> <Gold.PLP.part.metal>
0.0000

> <Gold.PLP.part.buried>
-4.1967

> <Gold.PLP.part.nonpolar>
-26.8888

> <Gold.PLP.part.repulsive>
2.0251

> <Gold.PLP.ligand.clash>
0.0000

> <Gold.PLP.ligand.torsion>
0.4874

> <Gold.PLP.Chemscore.Hbond>
1.6720

> <Gold.PLP.Chemscore.CHOScore>
0.9828

> <Gold.PLP.Chemscore.Metal>
0.0000

> <Gold.Chemscore.Hbonds>
donor molecule, donor type, donor heavy atom, donor atom, acceptor molecule, acceptor atom, score
      P1  H  7989  7998       L1     7  0.62
      P1  H  7997  8010       L1     3  0.96
      L1  C    10    39       P1  7957  0.87

> <Gold.PLP.Chemscore.Internal.Correction>
0.2787

> <Gold.Rescore>
     Score         DG    S(hbond)    S(metal)    S(lipo)     H(rot)  DE(clash)    DE(int)     intcor
     11.07     -12.58       1.14        0.00      74.27       2.11       0.83       0.69       ----

> <Gold.Chemscore.Fitness>
11.0658

> <Gold.Chemscore.DG>
-12.5840

> <Gold.Chemscore.ZeroCoef>
-5.4800

> <Gold.Chemscore.Hbond>
1.1397

> <Gold.Chemscore.Metal>
0.0000

> <Gold.Chemscore.Lipo>
74.2679

> <Gold.Chemscore.Internal_Hbond>
0.0000

> <Gold.Chemscore.DEClash>
0.8252

> <Gold.Chemscore.DEInternal>
0.6930

> <Gold.Chemscore.Rot>
2.1063

> <Gold.Chemscore.Internal.Correction>
   9.000000E+99

> <Gold.Chemscore.Hbonds>
donor molecule, donor type, donor heavy atom, donor atom, acceptor molecule, acceptor atom, score
      P1  H  7989  7998       L1     7  0.09
      P1  H  7997  8010       L1     3  0.59

> <Gold.Chemscore.Hbond.Weighted>
-3.8067

> <Gold.Chemscore.Metal.Weighted>
-0.0000

> <Gold.Chemscore.Lipo.Weighted>
-8.6893

> <Gold.Chemscore.Internal_Hbond.Weighted>
0.0000

> <Gold.Chemscore.DEClash.Weighted>
0.8252

> <Gold.Chemscore.DEInternal.Weighted>
0.6930

> <Gold.Chemscore.Rot.Weighted>
5.3921

> <Gold.Chemscore.Internal.Correction.Weighted>
   9.000000E+99

> <Gold.Protein.RotatedTorsions>
[ 6907 6896 6895 6894 ] final   49.08 input  -60.11 | X-H torsion
[ 7974 7965 7964 7962 ] final  108.00 input  175.53 | X-H torsion
[ 8008 7997 7996 7995 ] final   61.01 input   59.86 | X-H torsion
[ 10167 10162 10161 10158 ] final    8.25 input  -65.29 | X-H torsion
[ 10718 10713 10712 10709 ] final  -39.31 input   66.30 | X-H torsion
[ 10763 10752 10751 10750 ] final  -90.64 input  -60.55 | X-H torsion
[ 11005 11000 10999 10996 ] final  -96.67 input  -57.11 | X-H torsion

> <Gold.Protein.ActiveResidues>
 VAL166  LYS551  ARG553  GLY616  TRP617  ASP618  TYR619  PRO620  LYS621  CYS622 
 ASP623  PHE694  ASN695  SER759  ASP760  ASP761  ALA762  ILE779  LEU786  VAL792 
 PHE793  MET794  SER795  GLU796  ALA797  LYS798  CYS799  TRP800  GLU811  SER814 

> <Gold.Protein.RotatedAtoms>
  152.2868  134.7767  160.0385 H   0  0  0  0  0  0  0  0  0  0  0  0  # atno 6907 bound_to 6896
  151.8327  133.3406  159.3626 H   0  0  0  0  0  0  0  0  0  0  0  0  # atno 6908 bound_to 6896
  150.7213  134.5396  159.5785 H   0  0  0  0  0  0  0  0  0  0  0  0  # atno 6909 bound_to 6896
  145.2864  139.2615  143.3888 H   0  0  0  0  0  0  0  0  0  0  0  0  # atno 7974 bound_to 7965
  155.5914  140.3493  155.4567 H   0  0  0  0  0  0  0  0  0  0  0  0  # atno 8008 bound_to 7997
  156.0298  140.1272  157.0295 H   0  0  0  0  0  0  0  0  0  0  0  0  # atno 8009 bound_to 7997
  154.4348  140.1045  156.6069 H   0  0  0  0  0  0  0  0  0  0  0  0  # atno 8010 bound_to 7997
  140.6325  143.7961  150.7315 H   0  0  0  0  0  0  0  0  0  0  0  0  # atno 10167 bound_to 10162
  156.2938  130.4231  149.8211 H   0  0  0  0  0  0  0  0  0  0  0  0  # atno 10718 bound_to 10713
  154.6678  135.5297  153.8100 H   0  0  0  0  0  0  0  0  0  0  0  0  # atno 10763 bound_to 10752
  153.0482  135.6521  154.0771 H   0  0  0  0  0  0  0  0  0  0  0  0  # atno 10764 bound_to 10752
  154.0674  135.2957  155.3294 H   0  0  0  0  0  0  0  0  0  0  0  0  # atno 10765 bound_to 10752
  141.1404  133.8114  157.0602 H   0  0  0  0  0  0  0  0  0  0  0  0  # atno 11005 bound_to 11000
  146.3199  140.3344  142.8643 LP  0  0  0  0  0  0  0  0  0  0  0  0  # atno 17320 bound_to 7965
  144.9210  140.7867  143.5748 LP  0  0  0  0  0  0  0  0  0  0  0  0  # atno 17321 bound_to 7965
  140.1575  143.4304  152.2089 LP  0  0  0  0  0  0  0  0  0  0  0  0  # atno 17342 bound_to 10162
  139.5538  144.7358  151.4355 LP  0  0  0  0  0  0  0  0  0  0  0  0  # atno 17343 bound_to 10162
  156.5614  130.8385  151.3330 LP  0  0  0  0  0  0  0  0  0  0  0  0  # atno 17370 bound_to 10713
  157.7350  130.9755  150.2057 LP  0  0  0  0  0  0  0  0  0  0  0  0  # atno 17371 bound_to 10713
  140.0576  134.9772  157.1248 LP  0  0  0  0  0  0  0  0  0  0  0  0  # atno 17394 bound_to 11000
  140.3896  134.2199  155.7167 LP  0  0  0  0  0  0  0  0  0  0  0  0  # atno 17395 bound_to 11000

$$$$
