#       Name:                AV-unprocessed.smi:527
#       Creating user name   scv26
#       Creation time:       Thu Mar 26 23:31:00 2020


#       File generated by GOLD software.
#

@<TRIPOS>MOLECULE
AV-unprocessed.smi:527
    47    48     1
SMALL
NO_CHARGES


@<TRIPOS>ATOM
      1 ****        -4.2175  -2.0128   2.9301 C.3            1 S1                 0.0000
      2 ****        -3.7929  -1.3249   1.6193 C.3            1 S1                 0.0000
      3 ****        -4.2589  -2.1733   0.4192 C.3            1 S1                 0.0000
      4 ****        -3.8950  -1.5187  -0.9176 C.3            1 S1                 0.0000
      5 ****        -2.3854  -1.2784  -1.0063 C.3            1 S1                 0.0000
      6 ****        -1.8818  -0.4218   0.1715 C.3            1 S1                 0.0000
      7 ****        -0.4316  -0.2667   0.0661 N.am           1 S1                 0.0000
      8 ****         0.2022   0.6882  -0.6307 C.2            1 S1                 0.0000
      9 ****        -0.3836   1.5531  -1.2855 O.2            1 S1                 0.0000
     10 ****         1.5381   0.5643  -0.5105 N.am           1 S1                 0.0000
     11 ****         2.4902   1.3402  -1.0670 C.2            1 S1                 0.0000
     12 ****         2.2738   2.3116  -1.7962 O.2            1 S1                 0.0000
     13 ****         3.9296   0.9309  -0.7285 C.3            1 S1                 0.0000
     14 ****         4.9388   1.7514  -1.4104 N.pl3          1 S1                 0.0000
     15 ****         5.5106   2.9131  -0.9570 C.2            1 S1                 0.0000
     16 ****         6.3879   3.3220  -1.9282 C.2            1 S1                 0.0000
     17 ****         6.3139   2.3949  -2.9330 N.pl3          1 S1                 1.0000
     18 ****         5.4318   1.4409  -2.6170 C.2            1 S1                 0.0000
     19 ****        -2.2655  -1.0397   1.5440 C.3            1 S1                 0.0000
     20 ****        -1.7867  -0.1434   2.7074 C.3            1 S1                 0.0000
     21 ****        -3.6625  -2.9374   3.0910 H              1 S1                 0.0000
     22 ****        -5.2786  -2.2637   2.9133 H              1 S1                 0.0000
     23 ****        -4.0631  -1.3707   3.7965 H              1 S1                 0.0000
     24 ****        -4.3172  -0.3694   1.5684 H              1 S1                 0.0000
     25 ****        -3.8100  -3.1663   0.4714 H              1 S1                 0.0000
     26 ****        -5.3384  -2.3219   0.4631 H              1 S1                 0.0000
     27 ****        -4.2193  -2.1529  -1.7432 H              1 S1                 0.0000
     28 ****        -4.4273  -0.5726  -1.0239 H              1 S1                 0.0000
     29 ****        -1.8669  -2.2382  -1.0157 H              1 S1                 0.0000
     30 ****        -2.1512  -0.7915  -1.9539 H              1 S1                 0.0000
     31 ****        -2.3512   0.5621   0.1072 H              1 S1                 0.0000
     32 ****         0.1287  -0.9371   0.5714 H              1 S1                 0.0000
     33 ****         1.8637  -0.1984   0.0647 H              1 S1                 0.0000
     34 ****         4.0931   1.0206   0.3462 H              1 S1                 0.0000
     35 ****         4.0937  -0.1132  -0.9996 H              1 S1                 0.0000
     36 ****         5.2555   3.3524  -0.0035 H              1 S1                 0.0000
     37 ****         7.0404   4.1814  -1.9788 H              1 S1                 0.0000
     38 ****         5.1685   0.5897  -3.2195 H              1 S1                 0.0000
     39 ****        -1.7470  -1.9958   1.6339 H              1 S1                 0.0000
     40 ****        -2.3082   0.8141   2.7077 H              1 S1                 0.0000
     41 ****        -0.7184   0.0642   2.6494 H              1 S1                 0.0000
     42 ****        -1.9503  -0.6138   3.6760 H              1 S1                 0.0000
     43 ****         6.8475   2.4255  -3.7929 H              1 S1                 0.0000
     44 ****        -1.3831   1.5662  -1.3155 LP             1 S1                 0.0000
     45 ****         0.1407   2.2417  -1.7865 LP             1 S1                 0.0000
     46 ****         1.3337   2.5741  -2.0135 LP             1 S1                 0.0000
     47 ****         3.0386   2.8365  -2.1699 LP             1 S1                 0.0000
@<TRIPOS>BOND
    1    1    2 1     
    2    1   21 1     
    3    1   22 1     
    4    1   23 1     
    5    2   19 1     
    6    2    3 1     
    7    2   24 1     
    8    3    4 1     
    9    3   25 1     
   10    3   26 1     
   11    4    5 1     
   12    4   27 1     
   13    4   28 1     
   14    5    6 1     
   15    5   29 1     
   16    5   30 1     
   17    6    7 1     
   18    6   19 1     
   19    6   31 1     
   20    7    8 1     
   21    7   32 1     
   22    8    9 2     
   23    8   10 1     
   24   10   11 1     
   25   10   33 1     
   26   11   12 2     
   27   11   13 1     
   28   13   14 1     
   29   13   34 1     
   30   13   35 1     
   31   14   18 1     
   32   14   15 1     
   33   15   16 2     
   34   15   36 1     
   35   16   17 1     
   36   16   37 1     
   37   17   18 2     
   38   17   43 1     
   39   18   38 1     
   40   19   20 1     
   41   19   39 1     
   42   20   40 1     
   43   20   41 1     
   44   20   42 1     
   45    9   44 1     
   46    9   45 1     
   47   12   46 1     
   48   12   47 1     
@<TRIPOS>SUBSTRUCTURE
      1 S1             1
@<TRIPOS>SET
LONE_PAIRS      STATIC     ATOMS    <user>   **** ""
4 44 45 46 47
DONOR_HYDROGENS      STATIC     ATOMS    <user>   **** ""
3 32 33 43
ATOM$BLUE        STATIC     ATOMS    COLORGROUP SYSTEM
4 44 45 46 47
ATOM$RED        STATIC     ATOMS    COLORGROUP SYSTEM
3 32 33 43
