AV-unprocessed.smi:2013|AV-procd|sdf|8158|dock8
  -GOLD-   2272010403D 1   1.00000     0.00000
 Structure written by MMmdl.
 51 52  0  0  0  0  0  0  0  0  2 V2000
  146.5142  133.0714  156.6629 C   0  0  0  0  0  0  0  0  0  0  0  0
  148.0079  133.1972  156.3174 C   0  0  0  0  0  0  0  0  0  0  0  0
  148.8649  133.2231  157.5950 C   0  0  0  0  0  0  0  0  0  0  0  0
  148.3594  134.3724  155.3598 C   0  0  1  0  0  0  0  0  0  0  0  0
  149.8674  134.7410  155.3104 C   0  0  0  0  0  0  0  0  0  0  0  0
  150.1076  136.0752  154.7733 N   0  0  0  0  0  0  0  0  0  0  0  0
  150.8105  137.0414  155.3832 C   0  0  0  0  0  0  0  0  0  0  0  0
  151.3411  136.8972  156.4840 O   0  0  0  0  0  0  0  0  0  0  0  0
  150.9343  138.3763  154.6412 C   0  0  0  0  0  0  0  0  0  0  0  0
  150.4918  139.5089  155.4646 N   0  0  0  0  0  0  0  0  0  0  0  0
  149.4014  140.2553  155.0556 C   0  0  0  0  0  0  0  0  0  0  0  0
  148.9239  141.3168  155.7409 C   0  0  0  0  0  0  0  0  0  0  0  0
  149.5516  141.7457  156.9840 C   0  0  0  0  0  0  0  0  0  0  0  0
  149.1565  142.7051  157.6479 O   0  0  0  0  0  0  0  0  0  0  0  0
  150.6643  140.9695  157.3805 N   0  0  0  0  0  0  0  0  0  0  0  0
  151.3145  141.3637  158.6133 C   0  0  0  0  0  0  0  0  0  0  0  0
  151.1590  139.8563  156.6609 C   0  0  0  0  0  0  0  0  0  0  0  0
  152.1338  139.2037  157.0412 O   0  0  0  0  0  0  0  0  0  0  0  0
  147.7457  134.1820  154.0081 N   0  3  0  0  0  0  0  0  0  0  0  0
  148.0969  132.8868  153.3758 C   0  0  0  0  0  0  0  0  0  0  0  0
  147.5840  132.8439  151.9256 C   0  0  0  0  0  0  0  0  0  0  0  0
  146.1819  133.0827  151.8972 O   0  0  0  0  0  0  0  0  0  0  0  0
  145.8459  134.3583  152.4293 C   0  0  0  0  0  0  0  0  0  0  0  0
  146.2822  134.4225  153.9011 C   0  0  0  0  0  0  0  0  0  0  0  0
  146.1729  133.8976  157.2858 H   0  0  0  0  0  0  0  0  0  0  0  0
  146.3252  132.1528  157.2193 H   0  0  0  0  0  0  0  0  0  0  0  0
  145.8928  133.0374  155.7686 H   0  0  0  0  0  0  0  0  0  0  0  0
  148.2797  132.2737  155.8053 H   0  0  0  0  0  0  0  0  0  0  0  0
  148.6388  134.0910  158.2149 H   0  0  0  0  0  0  0  0  0  0  0  0
  149.9287  133.2508  157.3575 H   0  0  0  0  0  0  0  0  0  0  0  0
  148.6903  132.3330  158.2003 H   0  0  0  0  0  0  0  0  0  0  0  0
  147.8650  135.2376  155.8041 H   0  0  0  0  0  0  0  0  0  0  0  0
  150.3115  134.7194  156.3051 H   0  0  0  0  0  0  0  0  0  0  0  0
  150.4164  134.0100  154.7142 H   0  0  0  0  0  0  0  0  0  0  0  0
  149.7030  136.2848  153.8714 H   0  0  0  0  0  0  0  0  0  0  0  0
  151.9751  138.5239  154.3482 H   0  0  0  0  0  0  0  0  0  0  0  0
  150.3765  138.3229  153.7048 H   0  0  0  0  0  0  0  0  0  0  0  0
  148.9042  139.9769  154.1376 H   0  0  0  0  0  0  0  0  0  0  0  0
  148.0672  141.8563  155.3643 H   0  0  0  0  0  0  0  0  0  0  0  0
  152.1871  140.7453  158.8199 H   0  0  0  0  0  0  0  0  0  0  0  0
  150.5804  141.2521  159.4131 H   0  0  0  0  0  0  0  0  0  0  0  0
  151.6236  142.4045  158.5001 H   0  0  0  0  0  0  0  0  0  0  0  0
  149.1791  132.7496  153.3751 H   0  0  0  0  0  0  0  0  0  0  0  0
  147.6680  132.0671  153.9544 H   0  0  0  0  0  0  0  0  0  0  0  0
  148.1009  133.5822  151.3106 H   0  0  0  0  0  0  0  0  0  0  0  0
  147.7841  131.8669  151.4852 H   0  0  0  0  0  0  0  0  0  0  0  0
  146.3183  135.1502  151.8457 H   0  0  0  0  0  0  0  0  0  0  0  0
  144.7678  134.5010  152.3496 H   0  0  0  0  0  0  0  0  0  0  0  0
  145.7323  133.6680  154.4652 H   0  0  0  0  0  0  0  0  0  0  0  0
  146.0145  135.3914  154.3192 H   0  0  0  0  0  0  0  0  0  0  0  0
  148.1846  134.8815  153.4266 H   0  0  0  0  0  0  0  0  0  0  0  0
  1  2  1  0  0  0  0
  1 25  1  0  0  0  0
  1 26  1  0  0  0  0
  1 27  1  0  0  0  0
  2  3  1  0  0  0  0
  2  4  1  0  0  0  0
  2 28  1  0  0  0  0
  3 29  1  0  0  0  0
  3 30  1  0  0  0  0
  3 31  1  0  0  0  0
  4  5  1  0  0  0  0
  4 19  1  0  0  0  0
  4 32  1  0  0  0  0
  5  6  1  0  0  0  0
  5 33  1  0  0  0  0
  5 34  1  0  0  0  0
  6  7  1  0  0  0  0
  6 35  1  0  0  0  0
  7  8  2  0  0  0  0
  7  9  1  0  0  0  0
  9 10  1  0  0  0  0
  9 36  1  0  0  0  0
  9 37  1  0  0  0  0
 10 17  1  0  0  0  0
 10 11  1  0  0  0  0
 11 12  2  0  0  0  0
 11 38  1  0  0  0  0
 12 13  1  0  0  0  0
 12 39  1  0  0  0  0
 13 14  2  0  0  0  0
 13 15  1  0  0  0  0
 15 16  1  0  0  0  0
 15 17  1  0  0  0  0
 16 40  1  0  0  0  0
 16 41  1  0  0  0  0
 16 42  1  0  0  0  0
 17 18  2  0  0  0  0
 19 24  1  0  0  0  0
 19 20  1  0  0  0  0
 19 51  1  0  0  0  0
 20 21  1  0  0  0  0
 20 43  1  0  0  0  0
 20 44  1  0  0  0  0
 21 22  1  0  0  0  0
 21 45  1  0  0  0  0
 21 46  1  0  0  0  0
 22 23  1  0  0  0  0
 23 24  1  0  0  0  0
 23 47  1  0  0  0  0
 23 48  1  0  0  0  0
 24 49  1  0  0  0  0
 24 50  1  0  0  0  0
M  CHG  1  19   1
M  END
> <s_m_source_file>
AV-unprocessed.smi

> <i_m_source_file_index>
2013

> <i_lp_mmshare_version>
43012

> <i_f3d_flags>
0

> <s_epik_input>
W0NIMl0xW0NIMl1PW0NIMl1bQ0gyXU4xW0NASF0oW0NIXShbQ0gzXSlbQ0gzXSlbQ0gyXVtOSF1DKD1PKVtDSDJdbjJbY0hdW2NIXWMoPU8pbihbQ0gzXSljMj1P

> <s_epik_cmdline>
J2VwaWtfcHl0aG9uJywgJy1waCcsICc3LjAnLCAnLXRuJywgJzgnLCAnLW1hJywgJzIwMCcsICctbWV0YWxfYmluZGluZycsICctaW1hZScsICc8aW5maWxlLm1hZT4nLCAnLW9tYWUnLCAnPG91dGZpbGUubWFlPic=

> <r_lp_tautomer_probability>
1

> <r_epik_Ionization_Penalty>
0.370738

> <r_epik_Ionization_Penalty_Charging>
0.370738

> <r_epik_Ionization_Penalty_Neutral>
8.1827e-08

> <r_epik_State_Penalty>
0.368162

> <r_epik_Charging_Adjusted_Penalty>
0.7389

> <i_epik_Tot_Q>
1

> <i_epik_Tot_abs_Q>
1

> <r_epik_Metal_State_Penalty>
0.368194

> <b_epik_Metal_Only>
0

> <s_lp_Force_Field>
OPLS_2005

> <r_lp_Energy>
35.5949

> <b_lp_Chiralities_Consistent>
1

> <s_lp_Variant>
AV-unprocessed.smi:2013-2

> <Gold.Version>
5.8.1

> <Gold.Id.Protein>
6NUR|6NUR_protein|mol2

> <Gold.PLP.Fitness>
49.9939

> <Gold.PLP.PLP>
-35.8740

> <Gold.PLP.part.hbond>
-5.0000

> <Gold.PLP.part.metal>
0.0000

> <Gold.PLP.part.buried>
-3.1098

> <Gold.PLP.part.nonpolar>
-27.0145

> <Gold.PLP.part.repulsive>
0.3575

> <Gold.PLP.ligand.clash>
0.0000

> <Gold.PLP.ligand.torsion>
0.6605

> <Gold.PLP.Chemscore.Hbond>
5.0000

> <Gold.PLP.Chemscore.CHOScore>
0.0000

> <Gold.PLP.Chemscore.Metal>
0.0000

> <Gold.Chemscore.Hbonds>
donor molecule, donor type, donor heavy atom, donor atom, acceptor molecule, acceptor atom, score
      L1  H     6    35       P1  7948  0.80
      L1  H    19    51       P1  7948  1.27

> <Gold.PLP.Chemscore.Internal.Correction>
0.4409

> <Gold.Rescore>
     Score         DG    S(hbond)    S(metal)    S(lipo)     H(rot)  DE(clash)    DE(int)     intcor
     14.05     -16.99       3.04        0.00      61.53       2.28       0.41       2.54       ----

> <Gold.Chemscore.Fitness>
14.0458

> <Gold.Chemscore.DG>
-16.9889

> <Gold.Chemscore.ZeroCoef>
-5.4800

> <Gold.Chemscore.Hbond>
3.0388

> <Gold.Chemscore.Metal>
0.0000

> <Gold.Chemscore.Lipo>
61.5346

> <Gold.Chemscore.Internal_Hbond>
0.0000

> <Gold.Chemscore.DEClash>
0.4074

> <Gold.Chemscore.DEInternal>
2.5357

> <Gold.Chemscore.Rot>
2.2814

> <Gold.Chemscore.Internal.Correction>
   9.000000E+99

> <Gold.Chemscore.Hbonds>
donor molecule, donor type, donor heavy atom, donor atom, acceptor molecule, acceptor atom, score
      L1  H     6    35       P1  7948  0.39
      L1  H    19    51       P1  7948  0.58
      P1  H  7997  8008       L1    18  0.02

> <Gold.Chemscore.Hbond.Weighted>
-10.1497

> <Gold.Chemscore.Metal.Weighted>
-0.0000

> <Gold.Chemscore.Lipo.Weighted>
-7.1995

> <Gold.Chemscore.Internal_Hbond.Weighted>
0.0000

> <Gold.Chemscore.DEClash.Weighted>
0.4074

> <Gold.Chemscore.DEInternal.Weighted>
2.5357

> <Gold.Chemscore.Rot.Weighted>
5.8404

> <Gold.Chemscore.Internal.Correction.Weighted>
   9.000000E+99

> <Gold.Protein.RotatedTorsions>
[ 6907 6896 6895 6894 ] final  -45.27 input  -60.11 | X-H torsion
[ 7974 7965 7964 7962 ] final  145.76 input  175.53 | X-H torsion
[ 8008 7997 7996 7995 ] final  -44.40 input   59.86 | X-H torsion
[ 10167 10162 10161 10158 ] final -128.27 input  -65.29 | X-H torsion
[ 10718 10713 10712 10709 ] final  -53.20 input   66.30 | X-H torsion
[ 10763 10752 10751 10750 ] final -154.00 input  -60.55 | X-H torsion
[ 11005 11000 10999 10996 ] final   89.79 input  -57.11 | X-H torsion

> <Gold.Protein.ActiveResidues>
 VAL166  LYS551  ARG553  GLY616  TRP617  ASP618  TYR619  PRO620  LYS621  CYS622 
 ASP623  PHE694  ASN695  SER759  ASP760  ASP761  ALA762  ILE779  LEU786  VAL792 
 PHE793  MET794  SER795  GLU796  ALA797  LYS798  CYS799  TRP800  GLU811  SER814 

> <Gold.Protein.RotatedAtoms>
  150.9237  134.8654  159.7505 H   0  0  0  0  0  0  0  0  0  0  0  0  # atno 6907 bound_to 6896
  152.5005  134.4180  159.9481 H   0  0  0  0  0  0  0  0  0  0  0  0  # atno 6908 bound_to 6896
  151.4212  133.3658  159.2791 H   0  0  0  0  0  0  0  0  0  0  0  0  # atno 6909 bound_to 6896
  144.8726  139.5823  143.5880 H   0  0  0  0  0  0  0  0  0  0  0  0  # atno 7974 bound_to 7965
  154.3997  140.1423  156.3678 H   0  0  0  0  0  0  0  0  0  0  0  0  # atno 8008 bound_to 7997
  155.8121  140.3472  155.5443 H   0  0  0  0  0  0  0  0  0  0  0  0  # atno 8009 bound_to 7997
  155.8375  140.0921  157.1745 H   0  0  0  0  0  0  0  0  0  0  0  0  # atno 8010 bound_to 7997
  139.9521  143.6044  152.2472 H   0  0  0  0  0  0  0  0  0  0  0  0  # atno 10167 bound_to 10162
  156.1555  130.4150  149.9876 H   0  0  0  0  0  0  0  0  0  0  0  0  # atno 10718 bound_to 10713
  154.7889  135.3200  154.7822 H   0  0  0  0  0  0  0  0  0  0  0  0  # atno 10763 bound_to 10752
  153.8516  135.6862  153.4796 H   0  0  0  0  0  0  0  0  0  0  0  0  # atno 10764 bound_to 10752
  153.1552  135.4683  154.9633 H   0  0  0  0  0  0  0  0  0  0  0  0  # atno 10765 bound_to 10752
  139.8868  134.8574  156.3193 H   0  0  0  0  0  0  0  0  0  0  0  0  # atno 11005 bound_to 11000
  146.2940  139.7224  142.9140 LP  0  0  0  0  0  0  0  0  0  0  0  0  # atno 17320 bound_to 7965
  145.4103  141.0395  143.3021 LP  0  0  0  0  0  0  0  0  0  0  0  0  # atno 17321 bound_to 7965
  139.6620  144.7662  151.1944 LP  0  0  0  0  0  0  0  0  0  0  0  0  # atno 17342 bound_to 10162
  140.7580  143.5995  150.8714 LP  0  0  0  0  0  0  0  0  0  0  0  0  # atno 17343 bound_to 10162
  156.7720  130.9190  151.3644 LP  0  0  0  0  0  0  0  0  0  0  0  0  # atno 17370 bound_to 10713
  157.6691  130.9035  150.0000 LP  0  0  0  0  0  0  0  0  0  0  0  0  # atno 17371 bound_to 10713
  140.9798  133.7275  156.0655 LP  0  0  0  0  0  0  0  0  0  0  0  0  # atno 17394 bound_to 11000
  140.7764  134.3774  157.5497 LP  0  0  0  0  0  0  0  0  0  0  0  0  # atno 17395 bound_to 11000

$$$$
