AV-unprocessed.smi:1512|AV-procd|sdf|6100|dock3
  -GOLD-   22720 6233D 1   1.00000     0.00000
 Structure written by MMmdl.
 44 46  0  0  0  0  0  0  0  0  3 V2000
  145.6315  136.0728  152.3822 C   0  0  0  0  0  0  0  0  0  0  0  0
  145.8907  134.5583  152.3252 C   0  0  2  0  0  0  0  0  0  0  0  0
  147.2840  134.3195  152.6994 N   0  0  0  0  0  0  0  0  0  0  0  0
  147.7520  133.2479  153.3586 C   0  0  0  0  0  0  0  0  0  0  0  0
  147.0422  132.3062  153.7143 O   0  0  0  0  0  0  0  0  0  0  0  0
  149.2630  133.2383  153.6310 C   0  0  0  0  0  0  0  0  0  0  0  0
  149.7101  132.0553  154.3866 N   0  0  0  0  0  0  0  0  0  0  0  0
  149.4209  130.7965  153.8277 C   0  0  0  0  0  0  0  0  0  0  0  0
  149.7778  129.6541  154.4316 C   0  0  0  0  0  0  0  0  0  0  0  0
  150.4725  129.7369  155.6932 C   0  0  0  0  0  0  0  0  0  0  0  0
  150.7564  130.9354  156.2533 C   0  0  0  0  0  0  0  0  0  0  0  0
  151.4452  130.9465  157.5236 N   0  3  0  0  0  0  0  0  0  0  0  0
  151.7442  129.8768  158.0456 O   0  0  0  0  0  0  0  0  0  0  0  0
  151.7196  132.0296  158.0314 O   0  5  0  0  0  0  0  0  0  0  0  0
  150.3711  132.1924  155.5783 C   0  0  0  0  0  0  0  0  0  0  0  0
  150.6282  133.3058  156.0405 O   0  0  0  0  0  0  0  0  0  0  0  0
  145.5973  133.9629  150.9250 C   0  0  2  0  0  0  0  0  0  0  0  0
  144.1129  134.0879  150.5014 C   0  0  0  0  0  0  0  0  0  0  0  0
  143.7213  132.6439  150.1420 C   0  0  1  0  0  0  0  0  0  0  0  0
  144.4391  132.2218  148.8476 C   0  0  0  0  0  0  0  0  0  0  0  0
  145.8973  132.0523  149.3117 C   0  0  0  0  0  0  0  0  0  0  0  0
  145.8268  132.4333  150.8031 C   0  0  2  0  0  0  0  0  0  0  0  0
  144.4750  131.8502  151.2006 C   0  0  0  0  0  0  0  0  0  0  0  0
  144.5917  136.3127  152.1614 H   0  0  0  0  0  0  0  0  0  0  0  0
  146.2544  136.6098  151.6661 H   0  0  0  0  0  0  0  0  0  0  0  0
  145.8501  136.4690  153.3744 H   0  0  0  0  0  0  0  0  0  0  0  0
  145.2253  134.0859  153.0494 H   0  0  0  0  0  0  0  0  0  0  0  0
  147.9469  135.0362  152.4420 H   0  0  0  0  0  0  0  0  0  0  0  0
  149.7794  133.2992  152.6719 H   0  0  0  0  0  0  0  0  0  0  0  0
  149.5420  134.1507  154.1617 H   0  0  0  0  0  0  0  0  0  0  0  0
  148.8899  130.8198  152.8872 H   0  0  0  0  0  0  0  0  0  0  0  0
  149.5444  128.6967  153.9891 H   0  0  0  0  0  0  0  0  0  0  0  0
  150.7527  128.8209  156.1930 H   0  0  0  0  0  0  0  0  0  0  0  0
  146.2305  134.4791  150.2015 H   0  0  0  0  0  0  0  0  0  0  0  0
  143.4896  134.4407  151.3238 H   0  0  0  0  0  0  0  0  0  0  0  0
  143.9766  134.7761  149.6664 H   0  0  0  0  0  0  0  0  0  0  0  0
  142.6442  132.4762  150.1200 H   0  0  0  0  0  0  0  0  0  0  0  0
  144.0438  131.2766  148.4734 H   0  0  0  0  0  0  0  0  0  0  0  0
  144.3365  132.9657  148.0567 H   0  0  0  0  0  0  0  0  0  0  0  0
  146.2172  131.0162  149.1936 H   0  0  0  0  0  0  0  0  0  0  0  0
  146.5907  132.6800  148.7510 H   0  0  0  0  0  0  0  0  0  0  0  0
  146.6725  132.0493  151.3729 H   0  0  0  0  0  0  0  0  0  0  0  0
  144.1777  132.0942  152.2217 H   0  0  0  0  0  0  0  0  0  0  0  0
  144.4106  130.7699  151.0592 H   0  0  0  0  0  0  0  0  0  0  0  0
  1  2  1  0  0  0  0
  1 24  1  0  0  0  0
  1 25  1  0  0  0  0
  1 26  1  0  0  0  0
  2  3  1  0  0  0  0
  2 17  1  0  0  0  0
  2 27  1  0  0  0  0
  3  4  1  0  0  0  0
  3 28  1  0  0  0  0
  4  5  2  0  0  0  0
  4  6  1  0  0  0  0
  6  7  1  0  0  0  0
  6 29  1  0  0  0  0
  6 30  1  0  0  0  0
  7 15  1  0  0  0  0
  7  8  1  0  0  0  0
  8  9  2  0  0  0  0
  8 31  1  0  0  0  0
  9 10  1  0  0  0  0
  9 32  1  0  0  0  0
 10 11  2  0  0  0  0
 10 33  1  0  0  0  0
 11 12  1  0  0  0  0
 11 15  1  0  0  0  0
 12 13  2  0  0  0  0
 12 14  1  0  0  0  0
 15 16  2  0  0  0  0
 17 22  1  0  0  0  0
 17 18  1  0  0  0  0
 17 34  1  0  0  0  0
 18 19  1  0  0  0  0
 18 35  1  0  0  0  0
 18 36  1  0  0  0  0
 19 23  1  0  0  0  0
 19 20  1  0  0  0  0
 19 37  1  0  0  0  0
 20 21  1  0  0  0  0
 20 38  1  0  0  0  0
 20 39  1  0  0  0  0
 21 22  1  0  0  0  0
 21 40  1  0  0  0  0
 21 41  1  0  0  0  0
 22 23  1  0  0  0  0
 22 42  1  0  0  0  0
 23 43  1  0  0  0  0
 23 44  1  0  0  0  0
M  CHG  1  12   1
M  CHG  1  14  -1
M  END
> <s_m_source_file>
AV-unprocessed.smi

> <i_m_source_file_index>
1512

> <i_lp_mmshare_version>
43012

> <i_f3d_flags>
0

> <s_epik_input>
W0NIMl0xW0NIMl1bQ0BIXShbQ0gyXTIpW0NAQEhdKFtDSDJdW0NAQEhdMTIpW0NASF0oW0NIM10pW05IXUMoPU8pW0NIMl1uM1tjSF1bY0hdW2NIXWMoW04rXSg9TylbTy1dKWMzPU8=

> <s_epik_cmdline>
J2VwaWtfcHl0aG9uJywgJy1waCcsICc3LjAnLCAnLXRuJywgJzgnLCAnLW1hJywgJzIwMCcsICctbWV0YWxfYmluZGluZycsICctaW1hZScsICc8aW5maWxlLm1hZT4nLCAnLW9tYWUnLCAnPG91dGZpbGUubWFlPic=

> <r_lp_tautomer_probability>
1

> <r_epik_Ionization_Penalty>
2.17697e-08

> <r_epik_Ionization_Penalty_Charging>
1.42735e-10

> <r_epik_Ionization_Penalty_Neutral>
2.16269e-08

> <r_epik_State_Penalty>
-0

> <r_epik_Charging_Adjusted_Penalty>
1.42735e-10

> <i_epik_Tot_Q>
0

> <i_epik_Tot_abs_Q>
2

> <r_epik_Metal_State_Penalty>
-0

> <b_epik_Metal_Only>
0

> <s_lp_Force_Field>
OPLS_2005

> <r_lp_Energy>
64.3974

> <b_lp_Chiralities_Consistent>
1

> <s_lp_Variant>
AV-unprocessed.smi:1512-1

> <Gold.Version>
5.8.1

> <Gold.Id.Protein>
6NUR|6NUR_protein|mol2

> <Gold.PLP.Fitness>
49.5450

> <Gold.PLP.PLP>
-41.2724

> <Gold.PLP.part.hbond>
-2.0000

> <Gold.PLP.part.metal>
0.0000

> <Gold.PLP.part.buried>
-3.6422

> <Gold.PLP.part.nonpolar>
-35.1257

> <Gold.PLP.part.repulsive>
0.0903

> <Gold.PLP.ligand.clash>
0.0000

> <Gold.PLP.ligand.torsion>
0.3913

> <Gold.PLP.Chemscore.Hbond>
2.0000

> <Gold.PLP.Chemscore.CHOScore>
0.9942

> <Gold.PLP.Chemscore.Metal>
0.0000

> <Gold.Chemscore.Hbonds>
donor molecule, donor type, donor heavy atom, donor atom, acceptor molecule, acceptor atom, score
      L1  H     3    28       P1  7948  1.00
      P1  H  6896  6909       L1    14  1.00
      L1  C     8    31       P1 10747  0.87

> <Gold.PLP.Chemscore.Internal.Correction>
0.0725

> <Gold.Rescore>
     Score         DG    S(hbond)    S(metal)    S(lipo)     H(rot)  DE(clash)    DE(int)     intcor
     15.96     -19.42       1.94        0.00     101.91       1.75       0.17       3.28       ----

> <Gold.Chemscore.Fitness>
15.9637

> <Gold.Chemscore.DG>
-19.4192

> <Gold.Chemscore.ZeroCoef>
-5.4800

> <Gold.Chemscore.Hbond>
1.9430

> <Gold.Chemscore.Metal>
0.0000

> <Gold.Chemscore.Lipo>
101.9062

> <Gold.Chemscore.Internal_Hbond>
0.0000

> <Gold.Chemscore.DEClash>
0.1715

> <Gold.Chemscore.DEInternal>
3.2839

> <Gold.Chemscore.Rot>
1.7474

> <Gold.Chemscore.Internal.Correction>
   9.000000E+99

> <Gold.Chemscore.Hbonds>
donor molecule, donor type, donor heavy atom, donor atom, acceptor molecule, acceptor atom, score
      L1  H     3    28       P1  7948  0.90
      P1  H  6896  6909       L1    14  1.00

> <Gold.Chemscore.Hbond.Weighted>
-6.4895

> <Gold.Chemscore.Metal.Weighted>
-0.0000

> <Gold.Chemscore.Lipo.Weighted>
-11.9230

> <Gold.Chemscore.Internal_Hbond.Weighted>
0.0000

> <Gold.Chemscore.DEClash.Weighted>
0.1715

> <Gold.Chemscore.DEInternal.Weighted>
3.2839

> <Gold.Chemscore.Rot.Weighted>
4.4733

> <Gold.Chemscore.Internal.Correction.Weighted>
   9.000000E+99

> <Gold.Protein.RotatedTorsions>
[ 6907 6896 6895 6894 ] final  -56.43 input  -60.11 | X-H torsion
[ 7974 7965 7964 7962 ] final   77.31 input  175.53 | X-H torsion
[ 8008 7997 7996 7995 ] final   69.59 input   59.86 | X-H torsion
[ 10167 10162 10161 10158 ] final  177.91 input  -65.29 | X-H torsion
[ 10718 10713 10712 10709 ] final  155.84 input   66.30 | X-H torsion
[ 10763 10752 10751 10750 ] final -151.38 input  -60.55 | X-H torsion
[ 11005 11000 10999 10996 ] final -172.14 input  -57.11 | X-H torsion

> <Gold.Protein.ActiveResidues>
 VAL166  LYS551  ARG553  GLY616  TRP617  ASP618  TYR619  PRO620  LYS621  CYS622 
 ASP623  PHE694  ASN695  SER759  ASP760  ASP761  ALA762  ILE779  LEU786  VAL792 
 PHE793  MET794  SER795  GLU796  ALA797  LYS798  CYS799  TRP800  GLU811  SER814 

> <Gold.Protein.RotatedAtoms>
  150.8168  134.7355  159.6737 H   0  0  0  0  0  0  0  0  0  0  0  0  # atno 6907 bound_to 6896
  152.4286  134.5817  159.9959 H   0  0  0  0  0  0  0  0  0  0  0  0  # atno 6908 bound_to 6896
  151.6011  133.3319  159.3083 H   0  0  0  0  0  0  0  0  0  0  0  0  # atno 6909 bound_to 6896
  145.6916  139.2554  143.1756 H   0  0  0  0  0  0  0  0  0  0  0  0  # atno 7974 bound_to 7965
  155.7260  140.3492  155.5037 H   0  0  0  0  0  0  0  0  0  0  0  0  # atno 8008 bound_to 7997
  155.9226  140.1070  157.1216 H   0  0  0  0  0  0  0  0  0  0  0  0  # atno 8009 bound_to 7997
  154.4072  140.1246  156.4686 H   0  0  0  0  0  0  0  0  0  0  0  0  # atno 8010 bound_to 7997
  139.5272  144.2742  152.0602 H   0  0  0  0  0  0  0  0  0  0  0  0  # atno 10167 bound_to 10162
  157.2129  131.0701  151.1958 H   0  0  0  0  0  0  0  0  0  0  0  0  # atno 10718 bound_to 10713
  154.8061  135.3261  154.7427 H   0  0  0  0  0  0  0  0  0  0  0  0  # atno 10763 bound_to 10752
  153.8085  135.6897  153.4849 H   0  0  0  0  0  0  0  0  0  0  0  0  # atno 10764 bound_to 10752
  153.1808  135.4587  154.9970 H   0  0  0  0  0  0  0  0  0  0  0  0  # atno 10765 bound_to 10752
  140.5003  134.5899  157.4985 H   0  0  0  0  0  0  0  0  0  0  0  0  # atno 11005 bound_to 11000
  146.0876  140.7692  142.9611 LP  0  0  0  0  0  0  0  0  0  0  0  0  # atno 17320 bound_to 7965
  144.6995  140.3587  143.7168 LP  0  0  0  0  0  0  0  0  0  0  0  0  # atno 17321 bound_to 7965
  140.2200  144.4475  150.6346 LP  0  0  0  0  0  0  0  0  0  0  0  0  # atno 17342 bound_to 10162
  140.6424  143.2206  151.6260 LP  0  0  0  0  0  0  0  0  0  0  0  0  # atno 17343 bound_to 10162
  157.3654  130.7153  149.6529 LP  0  0  0  0  0  0  0  0  0  0  0  0  # atno 17370 bound_to 10713
  155.9689  130.4214  150.4466 LP  0  0  0  0  0  0  0  0  0  0  0  0  # atno 17371 bound_to 10713
  139.9717  134.7282  156.0029 LP  0  0  0  0  0  0  0  0  0  0  0  0  # atno 17394 bound_to 11000
  141.1439  133.6559  156.3809 LP  0  0  0  0  0  0  0  0  0  0  0  0  # atno 17395 bound_to 11000

$$$$
