AV-unprocessed.smi:2243|AV-procd|sdf|9062|dock3
  -GOLD-   2272012263D 1   1.00000     0.00000
 Structure written by MMmdl.
 34 35  0  0  0  0  0  0  0  0  1 V2000
  152.0920  144.5387  157.7855 C   0  0  0  0  0  0  0  0  0  0  0  0
  152.0215  143.0600  157.3667 C   0  0  2  0  0  0  0  0  0  0  0  0
  150.7395  142.8419  156.6955 N   0  0  0  0  0  0  0  0  0  0  0  0
  150.4425  141.8256  155.8710 C   0  0  0  0  0  0  0  0  0  0  0  0
  151.2319  140.9268  155.5793 O   0  0  0  0  0  0  0  0  0  0  0  0
  149.1816  141.9226  155.4178 N   0  0  0  0  0  0  0  0  0  0  0  0
  148.5105  141.0391  154.5350 C   0  0  0  0  0  0  0  0  0  0  0  0
  148.8741  139.7928  154.2283 N   0  0  0  0  0  0  0  0  0  0  0  0
  147.9063  139.3559  153.3354 C   0  0  0  0  0  0  0  0  0  0  0  0
  147.0044  140.3724  153.1513 C   0  0  0  0  0  0  0  0  0  0  0  0
  147.3767  141.4506  153.9085 O   0  0  0  0  0  0  0  0  0  0  0  0
  152.1873  142.0749  158.5545 C   0  0  0  0  0  0  0  0  0  0  0  0
  153.3920  142.4259  159.4514 C   0  0  0  0  0  0  0  0  0  0  0  0
  153.5790  141.3880  160.5699 C   0  0  0  0  0  0  0  0  0  0  0  0
  153.7339  140.0899  160.0105 O   0  0  0  0  0  0  0  0  0  0  0  0
  152.5877  139.6685  159.2820 C   0  0  0  0  0  0  0  0  0  0  0  0
  152.3448  140.6101  158.0916 C   0  0  0  0  0  0  0  0  0  0  0  0
  153.0759  144.8042  158.1708 H   0  0  0  0  0  0  0  0  0  0  0  0
  151.3552  144.7701  158.5555 H   0  0  0  0  0  0  0  0  0  0  0  0
  151.8997  145.1944  156.9352 H   0  0  0  0  0  0  0  0  0  0  0  0
  152.8398  142.8810  156.6668 H   0  0  0  0  0  0  0  0  0  0  0  0
  150.0199  143.5272  156.8736 H   0  0  0  0  0  0  0  0  0  0  0  0
  148.6420  142.7129  155.7383 H   0  0  0  0  0  0  0  0  0  0  0  0
  147.9346  138.3657  152.9051 H   0  0  0  0  0  0  0  0  0  0  0  0
  146.1084  140.4816  152.5585 H   0  0  0  0  0  0  0  0  0  0  0  0
  151.2872  142.1322  159.1690 H   0  0  0  0  0  0  0  0  0  0  0  0
  154.2999  142.4754  158.8489 H   0  0  0  0  0  0  0  0  0  0  0  0
  153.2633  143.4082  159.9050 H   0  0  0  0  0  0  0  0  0  0  0  0
  154.4670  141.6260  161.1555 H   0  0  0  0  0  0  0  0  0  0  0  0
  152.7321  141.4006  161.2578 H   0  0  0  0  0  0  0  0  0  0  0  0
  152.7525  138.6514  158.9258 H   0  0  0  0  0  0  0  0  0  0  0  0
  151.7168  139.6380  159.9384 H   0  0  0  0  0  0  0  0  0  0  0  0
  151.4578  140.2748  157.5538 H   0  0  0  0  0  0  0  0  0  0  0  0
  153.1789  140.5321  157.3929 H   0  0  0  0  0  0  0  0  0  0  0  0
  1  2  1  0  0  0  0
  1 18  1  0  0  0  0
  1 19  1  0  0  0  0
  1 20  1  0  0  0  0
  2  3  1  0  0  0  0
  2 12  1  0  0  0  0
  2 21  1  0  0  0  0
  3  4  1  0  0  0  0
  3 22  1  0  0  0  0
  4  5  2  0  0  0  0
  4  6  1  0  0  0  0
  6  7  1  0  0  0  0
  6 23  1  0  0  0  0
  7 11  1  0  0  0  0
  7  8  2  0  0  0  0
  8  9  1  0  0  0  0
  9 10  2  0  0  0  0
  9 24  1  0  0  0  0
 10 11  1  0  0  0  0
 10 25  1  0  0  0  0
 12 17  1  0  0  0  0
 12 13  1  0  0  0  0
 12 26  1  0  0  0  0
 13 14  1  0  0  0  0
 13 27  1  0  0  0  0
 13 28  1  0  0  0  0
 14 15  1  0  0  0  0
 14 29  1  0  0  0  0
 14 30  1  0  0  0  0
 15 16  1  0  0  0  0
 16 17  1  0  0  0  0
 16 31  1  0  0  0  0
 16 32  1  0  0  0  0
 17 33  1  0  0  0  0
 17 34  1  0  0  0  0
M  END
> <s_m_source_file>
AV-unprocessed.smi

> <i_m_source_file_index>
2243

> <i_lp_mmshare_version>
43012

> <i_f3d_flags>
0

> <s_epik_input>
W0NIMl0xW0NIMl1PW0NIMl1bQ0gyXVtDSF0xW0NASF0oW0NIM10pW05IXUMoPU8pW05IXWMybltjSF1bY0hdbzI=

> <s_epik_cmdline>
J2VwaWtfcHl0aG9uJywgJy1waCcsICc3LjAnLCAnLXRuJywgJzgnLCAnLW1hJywgJzIwMCcsICctbWV0YWxfYmluZGluZycsICctaW1hZScsICc8aW5maWxlLm1hZT4nLCAnLW9tYWUnLCAnPG91dGZpbGUubWFlPic=

> <r_lp_tautomer_probability>
0.785861

> <r_epik_Ionization_Penalty>
5.17761e-05

> <r_epik_Ionization_Penalty_Charging>
0

> <r_epik_Ionization_Penalty_Neutral>
5.17761e-05

> <r_epik_State_Penalty>
0.0447104

> <r_epik_Charging_Adjusted_Penalty>
0.0447104

> <i_epik_Tot_Q>
0

> <i_epik_Tot_abs_Q>
0

> <r_epik_Metal_State_Penalty>
0.0593601

> <b_epik_Metal_Only>
0

> <s_lp_Force_Field>
OPLS_2005

> <r_lp_Energy>
10.6877

> <b_lp_Chiralities_Consistent>
1

> <s_lp_Variant>
AV-unprocessed.smi:2243-1

> <Gold.Version>
5.8.1

> <Gold.Id.Protein>
6NUR|6NUR_protein|mol2

> <Gold.PLP.Fitness>
42.1493

> <Gold.PLP.PLP>
-31.5075

> <Gold.PLP.part.hbond>
-3.0000

> <Gold.PLP.part.metal>
0.0000

> <Gold.PLP.part.buried>
-3.0512

> <Gold.PLP.part.nonpolar>
-24.3430

> <Gold.PLP.part.repulsive>
0.5227

> <Gold.PLP.ligand.clash>
0.0000

> <Gold.PLP.ligand.torsion>
0.3983

> <Gold.PLP.Chemscore.Hbond>
1.8078

> <Gold.PLP.Chemscore.CHOScore>
2.0000

> <Gold.PLP.Chemscore.Metal>
0.0000

> <Gold.Chemscore.Hbonds>
donor molecule, donor type, donor heavy atom, donor atom, acceptor molecule, acceptor atom, score
      L1  H     3    22       P1  8028  0.67
      L1  H     6    23       P1  8028  0.70
      P1  H  7989  7998       L1     5  0.55
      L1  C     9    24       P1  7948  0.91
      L1  C    10    25       P1 10175  1.00

> <Gold.PLP.Chemscore.Internal.Correction>
0.0151

> <Gold.Rescore>
     Score         DG    S(hbond)    S(metal)    S(lipo)     H(rot)  DE(clash)    DE(int)     intcor
     12.81     -18.71       1.85        0.00      89.03       1.32       3.00       2.90       ----

> <Gold.Chemscore.Fitness>
12.8051

> <Gold.Chemscore.DG>
-18.7088

> <Gold.Chemscore.ZeroCoef>
-5.4800

> <Gold.Chemscore.Hbond>
1.8538

> <Gold.Chemscore.Metal>
0.0000

> <Gold.Chemscore.Lipo>
89.0304

> <Gold.Chemscore.Internal_Hbond>
0.0000

> <Gold.Chemscore.DEClash>
3.0014

> <Gold.Chemscore.DEInternal>
2.9023

> <Gold.Chemscore.Rot>
1.3201

> <Gold.Chemscore.Internal.Correction>
   9.000000E+99

> <Gold.Chemscore.Hbonds>
donor molecule, donor type, donor heavy atom, donor atom, acceptor molecule, acceptor atom, score
      L1  H     3    22       P1  8028  0.63
      L1  H     6    23       P1  8028  0.66
      P1  H  7989  7998       L1     5  0.45

> <Gold.Chemscore.Hbond.Weighted>
-6.1917

> <Gold.Chemscore.Metal.Weighted>
-0.0000

> <Gold.Chemscore.Lipo.Weighted>
-10.4166

> <Gold.Chemscore.Internal_Hbond.Weighted>
0.0000

> <Gold.Chemscore.DEClash.Weighted>
3.0014

> <Gold.Chemscore.DEInternal.Weighted>
2.9023

> <Gold.Chemscore.Rot.Weighted>
3.3794

> <Gold.Chemscore.Internal.Correction.Weighted>
   9.000000E+99

> <Gold.Protein.RotatedTorsions>
[ 6907 6896 6895 6894 ] final  -53.23 input  -60.11 | X-H torsion
[ 7974 7965 7964 7962 ] final  -21.04 input  175.53 | X-H torsion
[ 8008 7997 7996 7995 ] final   10.26 input   59.86 | X-H torsion
[ 10167 10162 10161 10158 ] final  -26.38 input  -65.29 | X-H torsion
[ 10718 10713 10712 10709 ] final   86.94 input   66.30 | X-H torsion
[ 10763 10752 10751 10750 ] final  -19.76 input  -60.55 | X-H torsion
[ 11005 11000 10999 10996 ] final  118.56 input  -57.11 | X-H torsion

> <Gold.Protein.ActiveResidues>
 VAL166  LYS551  ARG553  GLY616  TRP617  ASP618  TYR619  PRO620  LYS621  CYS622 
 ASP623  PHE694  ASN695  SER759  ASP760  ASP761  ALA762  ILE779  LEU786  VAL792 
 PHE793  MET794  SER795  GLU796  ALA797  LYS798  CYS799  TRP800  GLU811  SER814 

> <Gold.Protein.RotatedAtoms>
  150.8445  134.7750  159.6959 H   0  0  0  0  0  0  0  0  0  0  0  0  # atno 6907 bound_to 6896
  152.4525  134.5359  159.9834 H   0  0  0  0  0  0  0  0  0  0  0  0  # atno 6908 bound_to 6896
  151.5492  133.3382  159.2985 H   0  0  0  0  0  0  0  0  0  0  0  0  # atno 6909 bound_to 6896
  146.1755  140.4286  142.8515 H   0  0  0  0  0  0  0  0  0  0  0  0  # atno 7974 bound_to 7965
  154.7910  140.2835  155.5992 H   0  0  0  0  0  0  0  0  0  0  0  0  # atno 8008 bound_to 7997
  156.2964  140.2605  156.2686 H   0  0  0  0  0  0  0  0  0  0  0  0  # atno 8009 bound_to 7997
  154.9670  140.0376  157.2206 H   0  0  0  0  0  0  0  0  0  0  0  0  # atno 8010 bound_to 7997
  140.7283  143.4183  151.0993 H   0  0  0  0  0  0  0  0  0  0  0  0  # atno 10167 bound_to 10162
  157.6935  131.0236  150.3049 H   0  0  0  0  0  0  0  0  0  0  0  0  # atno 10718 bound_to 10713
  153.6098  135.6996  153.5351 H   0  0  0  0  0  0  0  0  0  0  0  0  # atno 10763 bound_to 10752
  153.3026  135.4124  155.1266 H   0  0  0  0  0  0  0  0  0  0  0  0  # atno 10764 bound_to 10752
  154.8566  135.3652  154.5636 H   0  0  0  0  0  0  0  0  0  0  0  0  # atno 10765 bound_to 10752
  139.9114  134.9621  156.7522 H   0  0  0  0  0  0  0  0  0  0  0  0  # atno 11005 bound_to 11000
  144.8229  140.6580  143.6341 LP  0  0  0  0  0  0  0  0  0  0  0  0  # atno 17320 bound_to 7965
  145.4224  139.1562  143.4067 LP  0  0  0  0  0  0  0  0  0  0  0  0  # atno 17321 bound_to 7965
  139.7825  143.8334  152.3140 LP  0  0  0  0  0  0  0  0  0  0  0  0  # atno 17342 bound_to 10162
  139.8290  144.7262  150.9474 LP  0  0  0  0  0  0  0  0  0  0  0  0  # atno 17343 bound_to 10162
  156.3559  130.3839  149.7291 LP  0  0  0  0  0  0  0  0  0  0  0  0  # atno 17370 bound_to 10713
  156.4753  130.8016  151.3032 LP  0  0  0  0  0  0  0  0  0  0  0  0  # atno 17371 bound_to 10713
  140.6764  133.9513  155.7885 LP  0  0  0  0  0  0  0  0  0  0  0  0  # atno 17394 bound_to 11000
  141.0541  134.0442  157.3745 LP  0  0  0  0  0  0  0  0  0  0  0  0  # atno 17395 bound_to 11000

$$$$
