AV-unprocessed.smi:243|AV-procd|sdf|1861|dock10
  -GOLD-   2262020493D 1   1.00000     0.00000
 Structure written by MMmdl.
 58 61  0  0  0  0  0  0  0  0  2 V2000
  150.5734  142.4200  158.7767 C   0  0  0  0  0  0  0  0  0  0  0  0
  150.6415  141.6797  157.4333 C   0  0  0  0  0  0  0  0  0  0  0  0
  149.4968  142.0100  156.5430 N   0  3  1  0  0  0  0  0  0  0  0  0
  149.7481  141.6938  155.1141 C   0  0  0  0  0  0  0  0  0  0  0  0
  149.6649  140.1829  154.8441 C   0  0  0  0  0  0  0  0  0  0  0  0
  148.3008  139.6166  155.2826 C   0  0  1  0  0  0  0  0  0  0  0  0
  148.2200  138.1760  155.0004 N   0  0  0  0  0  0  0  0  0  0  0  0
  149.1970  137.2441  155.5567 C   0  0  0  0  0  0  0  0  0  0  0  0
  147.2536  137.6903  154.1734 C   0  0  0  0  0  0  0  0  0  0  0  0
  146.6036  138.5559  153.3504 N   0  0  0  0  0  0  0  0  0  0  0  0
  145.6432  138.1250  152.5285 C   0  0  0  0  0  0  0  0  0  0  0  0
  145.1804  136.8858  152.3659 N   0  0  0  0  0  0  0  0  0  0  0  0
  145.8237  136.0066  153.1854 C   0  0  0  0  0  0  0  0  0  0  0  0
  146.8630  136.3186  154.1097 C   0  0  0  0  0  0  0  0  0  0  0  0
  147.2825  135.1547  154.7456 N   0  0  0  0  0  0  0  0  0  0  0  0
  146.5347  134.2169  154.2336 C   0  0  0  0  0  0  0  0  0  0  0  0
  145.6210  134.6417  153.2968 N   0  0  0  0  0  0  0  0  0  0  0  0
  144.6720  133.8142  152.5663 C   0  0  0  0  0  0  0  0  0  0  0  0
  145.0384  133.5856  151.0771 C   0  0  2  0  0  0  0  0  0  0  0  0
  145.2818  134.8344  150.4568 O   0  0  0  0  0  0  0  0  0  0  0  0
  143.9752  132.8301  150.2775 C   0  0  0  0  0  0  0  0  0  0  0  0
  144.4837  131.3967  150.3066 C   0  0  0  0  0  0  0  0  0  0  0  0
  145.8799  131.5699  150.1438 O   0  0  0  0  0  0  0  0  0  0  0  0
  146.2812  132.6826  150.9348 C   0  0  0  0  0  0  0  0  0  0  0  0
  148.0204  139.9650  156.7669 C   0  0  2  0  0  0  0  0  0  0  0  0
  146.6231  139.5087  157.2203 C   0  0  0  0  0  0  0  0  0  0  0  0
  148.1782  141.4870  156.9943 C   0  0  0  0  0  0  0  0  0  0  0  0
  151.4757  142.2363  159.3604 H   0  0  0  0  0  0  0  0  0  0  0  0
  149.7275  142.0958  159.3821 H   0  0  0  0  0  0  0  0  0  0  0  0
  150.4909  143.4972  158.6294 H   0  0  0  0  0  0  0  0  0  0  0  0
  151.5685  141.9773  156.9414 H   0  0  0  0  0  0  0  0  0  0  0  0
  150.7161  140.6044  157.5942 H   0  0  0  0  0  0  0  0  0  0  0  0
  149.0028  142.2122  154.5091 H   0  0  0  0  0  0  0  0  0  0  0  0
  150.7165  142.0869  154.8024 H   0  0  0  0  0  0  0  0  0  0  0  0
  149.8166  139.9959  153.7803 H   0  0  0  0  0  0  0  0  0  0  0  0
  150.4777  139.6736  155.3625 H   0  0  0  0  0  0  0  0  0  0  0  0
  147.5589  140.1456  154.6838 H   0  0  0  0  0  0  0  0  0  0  0  0
  148.7300  136.2905  155.8056 H   0  0  0  0  0  0  0  0  0  0  0  0
  149.6494  137.6335  156.4676 H   0  0  0  0  0  0  0  0  0  0  0  0
  149.9987  137.0633  154.8405 H   0  0  0  0  0  0  0  0  0  0  0  0
  145.1782  138.8817  151.9137 H   0  0  0  0  0  0  0  0  0  0  0  0
  146.6281  133.1821  154.5298 H   0  0  0  0  0  0  0  0  0  0  0  0
  144.5911  132.8564  153.0824 H   0  0  0  0  0  0  0  0  0  0  0  0
  143.6895  134.2818  152.6424 H   0  0  0  0  0  0  0  0  0  0  0  0
  145.6051  134.6767  149.5831 H   0  0  0  0  0  0  0  0  0  0  0  0
  142.9618  132.9249  150.6636 H   0  0  0  0  0  0  0  0  0  0  0  0
  143.9588  133.1704  149.2407 H   0  0  0  0  0  0  0  0  0  0  0  0
  144.2758  130.9230  151.2677 H   0  0  0  0  0  0  0  0  0  0  0  0
  144.0581  130.7801  149.5145 H   0  0  0  0  0  0  0  0  0  0  0  0
  147.1280  133.1867  150.4670 H   0  0  0  0  0  0  0  0  0  0  0  0
  146.6186  132.3149  151.9049 H   0  0  0  0  0  0  0  0  0  0  0  0
  148.7448  139.4532  157.3994 H   0  0  0  0  0  0  0  0  0  0  0  0
  145.8405  139.9660  156.6144 H   0  0  0  0  0  0  0  0  0  0  0  0
  146.4397  139.7801  158.2600 H   0  0  0  0  0  0  0  0  0  0  0  0
  146.5118  138.4267  157.1449 H   0  0  0  0  0  0  0  0  0  0  0  0
  148.0070  141.7366  158.0409 H   0  0  0  0  0  0  0  0  0  0  0  0
  147.4037  142.0147  156.4358 H   0  0  0  0  0  0  0  0  0  0  0  0
  149.4243  143.0168  156.5820 H   0  0  0  0  0  0  0  0  0  0  0  0
  1  2  1  0  0  0  0
  1 28  1  0  0  0  0
  1 29  1  0  0  0  0
  1 30  1  0  0  0  0
  2  3  1  0  0  0  0
  2 31  1  0  0  0  0
  2 32  1  0  0  0  0
  3 27  1  0  0  0  0
  3  4  1  0  0  0  0
  3 58  1  0  0  0  0
  4  5  1  0  0  0  0
  4 33  1  0  0  0  0
  4 34  1  0  0  0  0
  5  6  1  0  0  0  0
  5 35  1  0  0  0  0
  5 36  1  0  0  0  0
  6  7  1  0  0  0  0
  6 25  1  0  0  0  0
  6 37  1  0  0  0  0
  7  8  1  0  0  0  0
  7  9  1  0  0  0  0
  8 38  1  0  0  0  0
  8 39  1  0  0  0  0
  8 40  1  0  0  0  0
  9 14  1  0  0  0  0
  9 10  2  0  0  0  0
 10 11  1  0  0  0  0
 11 12  2  0  0  0  0
 11 41  1  0  0  0  0
 12 13  1  0  0  0  0
 13 17  1  0  0  0  0
 13 14  2  0  0  0  0
 14 15  1  0  0  0  0
 15 16  2  0  0  0  0
 16 17  1  0  0  0  0
 16 42  1  0  0  0  0
 17 18  1  0  0  0  0
 18 19  1  0  0  0  0
 18 43  1  0  0  0  0
 18 44  1  0  0  0  0
 19 24  1  0  0  0  0
 19 20  1  0  0  0  0
 19 21  1  0  0  0  0
 20 45  1  0  0  0  0
 21 22  1  0  0  0  0
 21 46  1  0  0  0  0
 21 47  1  0  0  0  0
 22 23  1  0  0  0  0
 22 48  1  0  0  0  0
 22 49  1  0  0  0  0
 23 24  1  0  0  0  0
 24 50  1  0  0  0  0
 24 51  1  0  0  0  0
 25 26  1  0  0  0  0
 25 27  1  0  0  0  0
 25 52  1  0  0  0  0
 26 53  1  0  0  0  0
 26 54  1  0  0  0  0
 26 55  1  0  0  0  0
 27 56  1  0  0  0  0
 27 57  1  0  0  0  0
M  CHG  1   3   1
M  END
> <s_m_source_file>
AV-unprocessed.smi

> <i_m_source_file_index>
243

> <i_lp_mmshare_version>
43012

> <i_f3d_flags>
0

> <s_epik_input>
W0NIM11bQ0gyXU4xW0NIMl1bQ0gyXVtDQEhdKFtDQEBIXShbQ0gzXSlbQ0gyXTEpTihbQ0gzXSljKG5bY0hdbjIpYyhjMjMpbltjSF1uM1tDSDJdW0NAQF00KFtPSF0pW0NIMl1bQ0gyXU9bQ0gyXTQ=

> <s_epik_cmdline>
J2VwaWtfcHl0aG9uJywgJy1waCcsICc3LjAnLCAnLXRuJywgJzgnLCAnLW1hJywgJzIwMCcsICctbWV0YWxfYmluZGluZycsICctaW1hZScsICc8aW5maWxlLm1hZT4nLCAnLW9tYWUnLCAnPG91dGZpbGUubWFlPic=

> <r_lp_tautomer_probability>
1

> <r_epik_Ionization_Penalty>
0.00253099

> <r_epik_Ionization_Penalty_Charging>
0.00137877

> <r_epik_Ionization_Penalty_Neutral>
0.00115221

> <r_epik_State_Penalty>
-0

> <r_epik_Charging_Adjusted_Penalty>
0.00137877

> <i_epik_Tot_Q>
1

> <i_epik_Tot_abs_Q>
1

> <r_epik_Metal_State_Penalty>
-0

> <b_epik_Metal_Only>
0

> <s_lp_Force_Field>
OPLS_2005

> <r_lp_Energy>
46.8505

> <b_lp_Chiralities_Consistent>
1

> <s_lp_Variant>
AV-unprocessed.smi:243-14

> <Gold.Version>
5.8.1

> <Gold.Id.Protein>
6NUR|6NUR_protein|mol2

> <Gold.PLP.Fitness>
39.7969

> <Gold.PLP.PLP>
-25.6949

> <Gold.PLP.part.hbond>
-2.0000

> <Gold.PLP.part.metal>
0.0000

> <Gold.PLP.part.buried>
0.0641

> <Gold.PLP.part.nonpolar>
-23.6495

> <Gold.PLP.part.repulsive>
0.7157

> <Gold.PLP.ligand.clash>
0.0000

> <Gold.PLP.ligand.torsion>
0.4936

> <Gold.PLP.Chemscore.Hbond>
2.9913

> <Gold.PLP.Chemscore.CHOScore>
1.9955

> <Gold.PLP.Chemscore.Metal>
0.0000

> <Gold.Chemscore.Hbonds>
donor molecule, donor type, donor heavy atom, donor atom, acceptor molecule, acceptor atom, score
      L1  H     3    58       P1  8028  1.92
      L1  H    20    45       P1  7921  1.00
      L1  C    11    41       P1 10171  0.99
      L1  C    11    41       P1 10175  1.00

> <Gold.PLP.Chemscore.Internal.Correction>
0.1290

> <Gold.Rescore>
     Score         DG    S(hbond)    S(metal)    S(lipo)     H(rot)  DE(clash)    DE(int)     intcor
     10.86     -14.57       1.79        0.00      75.51       2.24       1.13       2.58       ----

> <Gold.Chemscore.Fitness>
10.8607

> <Gold.Chemscore.DG>
-14.5671

> <Gold.Chemscore.ZeroCoef>
-5.4800

> <Gold.Chemscore.Hbond>
1.7910

> <Gold.Chemscore.Metal>
0.0000

> <Gold.Chemscore.Lipo>
75.5069

> <Gold.Chemscore.Internal_Hbond>
0.0000

> <Gold.Chemscore.DEClash>
1.1268

> <Gold.Chemscore.DEInternal>
2.5796

> <Gold.Chemscore.Rot>
2.2379

> <Gold.Chemscore.Internal.Correction>
   9.000000E+99

> <Gold.Chemscore.Hbonds>
donor molecule, donor type, donor heavy atom, donor atom, acceptor molecule, acceptor atom, score
      L1  H     3    58       P1  8028  0.88
      L1  H    20    45       P1  7921  0.89

> <Gold.Chemscore.Hbond.Weighted>
-5.9819

> <Gold.Chemscore.Metal.Weighted>
-0.0000

> <Gold.Chemscore.Lipo.Weighted>
-8.8343

> <Gold.Chemscore.Internal_Hbond.Weighted>
0.0000

> <Gold.Chemscore.DEClash.Weighted>
1.1268

> <Gold.Chemscore.DEInternal.Weighted>
2.5796

> <Gold.Chemscore.Rot.Weighted>
5.7291

> <Gold.Chemscore.Internal.Correction.Weighted>
   9.000000E+99

> <Gold.Protein.RotatedTorsions>
[ 6907 6896 6895 6894 ] final  155.84 input  -60.11 | X-H torsion
[ 7974 7965 7964 7962 ] final  129.80 input  175.53 | X-H torsion
[ 8008 7997 7996 7995 ] final  -53.33 input   59.86 | X-H torsion
[ 10167 10162 10161 10158 ] final   38.79 input  -65.29 | X-H torsion
[ 10718 10713 10712 10709 ] final  130.46 input   66.30 | X-H torsion
[ 10763 10752 10751 10750 ] final   55.44 input  -60.55 | X-H torsion
[ 11005 11000 10999 10996 ] final  113.22 input  -57.11 | X-H torsion

> <Gold.Protein.ActiveResidues>
 VAL166  LYS551  ARG553  GLY616  TRP617  ASP618  TYR619  PRO620  LYS621  CYS622 
 ASP623  PHE694  ASN695  SER759  ASP760  ASP761  ALA762  ILE779  LEU786  VAL792 
 PHE793  MET794  SER795  GLU796  ALA797  LYS798  CYS799  TRP800  GLU811  SER814 

> <Gold.Protein.RotatedAtoms>
  152.0384  133.3967  159.4326 H   0  0  0  0  0  0  0  0  0  0  0  0  # atno 6907 bound_to 6896
  150.6877  134.3443  159.4890 H   0  0  0  0  0  0  0  0  0  0  0  0  # atno 6908 bound_to 6896
  152.1238  134.9185  160.0612 H   0  0  0  0  0  0  0  0  0  0  0  0  # atno 6909 bound_to 6896
  145.0248  139.4099  143.5179 H   0  0  0  0  0  0  0  0  0  0  0  0  # atno 7974 bound_to 7965
  154.4130  140.1202  156.5136 H   0  0  0  0  0  0  0  0  0  0  0  0  # atno 8008 bound_to 7997
  155.6774  140.3496  155.4822 H   0  0  0  0  0  0  0  0  0  0  0  0  # atno 8009 bound_to 7997
  155.9581  140.1117  157.0909 H   0  0  0  0  0  0  0  0  0  0  0  0  # atno 8010 bound_to 7997
  140.3902  144.1862  150.6131 H   0  0  0  0  0  0  0  0  0  0  0  0  # atno 10167 bound_to 10162
  157.5060  131.1095  150.9361 H   0  0  0  0  0  0  0  0  0  0  0  0  # atno 10718 bound_to 10713
  152.9817  135.5711  154.5067 H   0  0  0  0  0  0  0  0  0  0  0  0  # atno 10763 bound_to 10752
  154.4577  135.2780  155.1737 H   0  0  0  0  0  0  0  0  0  0  0  0  # atno 10764 bound_to 10752
  154.3338  135.6244  153.5617 H   0  0  0  0  0  0  0  0  0  0  0  0  # atno 10765 bound_to 10752
  139.8947  134.9545  156.6706 H   0  0  0  0  0  0  0  0  0  0  0  0  # atno 11005 bound_to 11000
  146.3490  139.9766  142.8700 LP  0  0  0  0  0  0  0  0  0  0  0  0  # atno 17320 bound_to 7965
  145.1848  140.9784  143.4245 LP  0  0  0  0  0  0  0  0  0  0  0  0  # atno 17321 bound_to 7965
  140.4847  143.2367  151.8904 LP  0  0  0  0  0  0  0  0  0  0  0  0  # atno 17342 bound_to 10162
  139.4789  144.5231  151.8773 LP  0  0  0  0  0  0  0  0  0  0  0  0  # atno 17343 bound_to 10162
  157.0016  130.5602  149.5312 LP  0  0  0  0  0  0  0  0  0  0  0  0  # atno 17370 bound_to 10713
  156.0258  130.5352  150.8403 LP  0  0  0  0  0  0  0  0  0  0  0  0  # atno 17371 bound_to 10713
  140.7376  133.9005  155.8255 LP  0  0  0  0  0  0  0  0  0  0  0  0  # atno 17394 bound_to 11000
  141.0103  134.1029  157.4228 LP  0  0  0  0  0  0  0  0  0  0  0  0  # atno 17395 bound_to 11000

$$$$
