AV-unprocessed.smi:1787|AV-procd|sdf|7209|dock5
  -GOLD-   22720 8453D 1   1.00000     0.00000
 Structure written by MMmdl.
 45 47  0  0  0  0  0  0  0  0  2 V2000
  151.0805  141.0195  157.2083 O   0  0  0  0  0  0  0  0  0  0  0  0
  150.5303  142.0147  156.7403 C   0  0  0  0  0  0  0  0  0  0  0  0
  149.8550  142.0036  155.5824 N   0  0  0  0  0  0  0  0  0  0  0  0
  149.6477  140.8409  154.7185 C   0  0  0  0  0  0  0  0  0  0  0  0
  148.3374  140.0548  155.0399 C   0  0  2  0  0  0  0  0  0  0  0  0
  148.6766  138.9351  155.9935 N   0  3  0  0  0  0  0  0  0  0  0  0
  149.7241  137.9956  155.5034 C   0  0  0  0  0  0  0  0  0  0  0  0
  149.8313  136.7731  156.4269 C   0  0  0  0  0  0  0  0  0  0  0  0
  150.1459  137.2115  157.7405 O   0  0  0  0  0  0  0  0  0  0  0  0
  149.1208  138.0363  158.2752 C   0  0  0  0  0  0  0  0  0  0  0  0
  148.9434  139.2986  157.4118 C   0  0  0  0  0  0  0  0  0  0  0  0
  147.6784  139.5744  153.7152 C   0  0  0  0  0  0  0  0  0  0  0  0
  147.1142  140.7961  152.9841 C   0  0  0  0  0  0  0  0  0  0  0  0
  146.5147  141.9383  154.2518 S   0  0  0  0  0  0  0  0  0  0  0  0
  147.2724  141.0161  155.6189 C   0  0  0  0  0  0  0  0  0  0  0  0
  150.5269  143.2418  157.2880 N   0  0  0  0  0  0  0  0  0  0  0  0
  151.1328  143.7019  158.4904 C   0  0  0  0  0  0  0  0  0  0  0  0
  152.0247  142.9496  159.2948 C   0  0  0  0  0  0  0  0  0  0  0  0
  152.5478  143.5373  160.4628 C   0  0  0  0  0  0  0  0  0  0  0  0
  152.1627  144.8525  160.7867 C   0  0  0  0  0  0  0  0  0  0  0  0
  151.3161  145.5814  160.0303 N   0  0  0  0  0  0  0  0  0  0  0  0
  150.8187  145.0119  158.9124 C   0  0  0  0  0  0  0  0  0  0  0  0
  149.4342  142.8692  155.2766 H   0  0  0  0  0  0  0  0  0  0  0  0
  149.6791  141.1474  153.6727 H   0  0  0  0  0  0  0  0  0  0  0  0
  150.5237  140.2041  154.8357 H   0  0  0  0  0  0  0  0  0  0  0  0
  149.5020  137.6555  154.4931 H   0  0  0  0  0  0  0  0  0  0  0  0
  150.6932  138.4941  155.4658 H   0  0  0  0  0  0  0  0  0  0  0  0
  148.9056  136.1953  156.4281 H   0  0  0  0  0  0  0  0  0  0  0  0
  150.6215  136.1079  156.0784 H   0  0  0  0  0  0  0  0  0  0  0  0
  148.1862  137.4761  158.3364 H   0  0  0  0  0  0  0  0  0  0  0  0
  149.3889  138.3147  159.2944 H   0  0  0  0  0  0  0  0  0  0  0  0
  149.8312  139.9294  157.4727 H   0  0  0  0  0  0  0  0  0  0  0  0
  148.1081  139.8544  157.8356 H   0  0  0  0  0  0  0  0  0  0  0  0
  148.3557  139.0008  153.0820 H   0  0  0  0  0  0  0  0  0  0  0  0
  146.8185  138.9365  153.9174 H   0  0  0  0  0  0  0  0  0  0  0  0
  147.8906  141.2919  152.4015 H   0  0  0  0  0  0  0  0  0  0  0  0
  146.3125  140.5249  152.2967 H   0  0  0  0  0  0  0  0  0  0  0  0
  146.4721  140.4521  156.0994 H   0  0  0  0  0  0  0  0  0  0  0  0
  147.6792  141.7041  156.3607 H   0  0  0  0  0  0  0  0  0  0  0  0
  150.0206  143.9481  156.7738 H   0  0  0  0  0  0  0  0  0  0  0  0
  152.3230  141.9427  159.0524 H   0  0  0  0  0  0  0  0  0  0  0  0
  153.2294  142.9911  161.0982 H   0  0  0  0  0  0  0  0  0  0  0  0
  152.5449  145.3317  161.6758 H   0  0  0  0  0  0  0  0  0  0  0  0
  150.1444  145.6260  158.3333 H   0  0  0  0  0  0  0  0  0  0  0  0
  147.8297  138.3855  156.0358 H   0  0  0  0  0  0  0  0  0  0  0  0
  1  2  2  0  0  0  0
  2  3  1  0  0  0  0
  2 16  1  0  0  0  0
  3  4  1  0  0  0  0
  3 23  1  0  0  0  0
  4  5  1  0  0  0  0
  4 24  1  0  0  0  0
  4 25  1  0  0  0  0
  5 15  1  0  0  0  0
  5  6  1  0  0  0  0
  5 12  1  0  0  0  0
  6 11  1  0  0  0  0
  6  7  1  0  0  0  0
  6 45  1  0  0  0  0
  7  8  1  0  0  0  0
  7 26  1  0  0  0  0
  7 27  1  0  0  0  0
  8  9  1  0  0  0  0
  8 28  1  0  0  0  0
  8 29  1  0  0  0  0
  9 10  1  0  0  0  0
 10 11  1  0  0  0  0
 10 30  1  0  0  0  0
 10 31  1  0  0  0  0
 11 32  1  0  0  0  0
 11 33  1  0  0  0  0
 12 13  1  0  0  0  0
 12 34  1  0  0  0  0
 12 35  1  0  0  0  0
 13 14  1  0  0  0  0
 13 36  1  0  0  0  0
 13 37  1  0  0  0  0
 14 15  1  0  0  0  0
 15 38  1  0  0  0  0
 15 39  1  0  0  0  0
 16 17  1  0  0  0  0
 16 40  1  0  0  0  0
 17 22  1  0  0  0  0
 17 18  2  0  0  0  0
 18 19  1  0  0  0  0
 18 41  1  0  0  0  0
 19 20  2  0  0  0  0
 19 42  1  0  0  0  0
 20 21  1  0  0  0  0
 20 43  1  0  0  0  0
 21 22  2  0  0  0  0
 22 44  1  0  0  0  0
M  CHG  1   6   1
M  END
> <s_m_source_file>
AV-unprocessed.smi

> <i_m_source_file_index>
1787

> <i_lp_mmshare_version>
43012

> <i_f3d_flags>
0

> <s_epik_input>
W2NIXTFuW2NIXVtjSF1bY0hdYzFbTkhdQyg9TylbTkhdW0NIMl1bQ0BdMihbQ0gyXVtDSDJdU1tDSDJdMilOM1tDSDJdW0NIMl1PW0NIMl1bQ0gyXTM=

> <s_epik_cmdline>
J2VwaWtfcHl0aG9uJywgJy1waCcsICc3LjAnLCAnLXRuJywgJzgnLCAnLW1hJywgJzIwMCcsICctbWV0YWxfYmluZGluZycsICctaW1hZScsICc8aW5maWxlLm1hZT4nLCAnLW9tYWUnLCAnPG91dGZpbGUubWFlPic=

> <r_epik_Ionization_Penalty>
2.03633

> <r_epik_Ionization_Penalty_Charging>
2.03219

> <r_epik_Ionization_Penalty_Neutral>
0.00414252

> <r_epik_State_Penalty>
2.16328

> <r_epik_Charging_Adjusted_Penalty>
4.19546

> <i_epik_Tot_Q>
1

> <i_epik_Tot_abs_Q>
1

> <r_epik_Metal_State_Penalty>
2.16381

> <b_epik_Metal_Only>
0

> <s_lp_Force_Field>
OPLS_2005

> <r_lp_Energy>
44.9439

> <b_lp_Chiralities_Consistent>
1

> <s_lp_Variant>
AV-unprocessed.smi:1787-4

> <Gold.Version>
5.8.1

> <Gold.Id.Protein>
6NUR|6NUR_protein|mol2

> <Gold.PLP.Fitness>
42.4482

> <Gold.PLP.PLP>
-35.4363

> <Gold.PLP.part.hbond>
-2.0000

> <Gold.PLP.part.metal>
0.0000

> <Gold.PLP.part.buried>
-6.0575

> <Gold.PLP.part.nonpolar>
-27.6465

> <Gold.PLP.part.repulsive>
0.3722

> <Gold.PLP.ligand.clash>
0.0000

> <Gold.PLP.ligand.torsion>
1.0614

> <Gold.PLP.Chemscore.Hbond>
2.0000

> <Gold.PLP.Chemscore.CHOScore>
1.0000

> <Gold.PLP.Chemscore.Metal>
0.0000

> <Gold.Chemscore.Hbonds>
donor molecule, donor type, donor heavy atom, donor atom, acceptor molecule, acceptor atom, score
      L1  H     3    23       P1  8028  1.00
      L1  H    16    40       P1  8028  1.00
      L1  C    22    44       P1  8029  1.00

> <Gold.PLP.Chemscore.Internal.Correction>
0.1346

> <Gold.Rescore>
     Score         DG    S(hbond)    S(metal)    S(lipo)     H(rot)  DE(clash)    DE(int)     intcor
     16.56     -20.08       1.95        0.00     101.74       1.49       0.11       3.41       ----

> <Gold.Chemscore.Fitness>
16.5590

> <Gold.Chemscore.DG>
-20.0780

> <Gold.Chemscore.ZeroCoef>
-5.4800

> <Gold.Chemscore.Hbond>
1.9457

> <Gold.Chemscore.Metal>
0.0000

> <Gold.Chemscore.Lipo>
101.7398

> <Gold.Chemscore.Internal_Hbond>
0.0000

> <Gold.Chemscore.DEClash>
0.1054

> <Gold.Chemscore.DEInternal>
3.4136

> <Gold.Chemscore.Rot>
1.4860

> <Gold.Chemscore.Internal.Correction>
   9.000000E+99

> <Gold.Chemscore.Hbonds>
donor molecule, donor type, donor heavy atom, donor atom, acceptor molecule, acceptor atom, score
      L1  H     3    23       P1  8028  0.94
      L1  H    16    40       P1  8028  0.99

> <Gold.Chemscore.Hbond.Weighted>
-6.4986

> <Gold.Chemscore.Metal.Weighted>
-0.0000

> <Gold.Chemscore.Lipo.Weighted>
-11.9036

> <Gold.Chemscore.Internal_Hbond.Weighted>
0.0000

> <Gold.Chemscore.DEClash.Weighted>
0.1054

> <Gold.Chemscore.DEInternal.Weighted>
3.4136

> <Gold.Chemscore.Rot.Weighted>
3.8042

> <Gold.Chemscore.Internal.Correction.Weighted>
   9.000000E+99

> <Gold.Protein.RotatedTorsions>
[ 6907 6896 6895 6894 ] final  165.56 input  -60.11 | X-H torsion
[ 7974 7965 7964 7962 ] final  -72.65 input  175.53 | X-H torsion
[ 8008 7997 7996 7995 ] final  155.42 input   59.86 | X-H torsion
[ 10167 10162 10161 10158 ] final  -60.49 input  -65.29 | X-H torsion
[ 10718 10713 10712 10709 ] final  -61.52 input   66.30 | X-H torsion
[ 10763 10752 10751 10750 ] final  -76.01 input  -60.55 | X-H torsion
[ 11005 11000 10999 10996 ] final  -55.60 input  -57.11 | X-H torsion

> <Gold.Protein.ActiveResidues>
 VAL166  LYS551  ARG553  GLY616  TRP617  ASP618  TYR619  PRO620  LYS621  CYS622 
 ASP623  PHE694  ASN695  SER759  ASP760  ASP761  ALA762  ILE779  LEU786  VAL792 
 PHE793  MET794  SER795  GLU796  ALA797  LYS798  CYS799  TRP800  GLU811  SER814 

> <Gold.Protein.RotatedAtoms>
  151.8926  133.3519  159.3803 H   0  0  0  0  0  0  0  0  0  0  0  0  # atno 6907 bound_to 6896
  150.7099  134.4909  159.5524 H   0  0  0  0  0  0  0  0  0  0  0  0  # atno 6908 bound_to 6896
  152.2482  134.8160  160.0501 H   0  0  0  0  0  0  0  0  0  0  0  0  # atno 6909 bound_to 6896
  145.6623  140.9248  143.0927 H   0  0  0  0  0  0  0  0  0  0  0  0  # atno 7974 bound_to 7965
  156.2479  140.1940  156.6799 H   0  0  0  0  0  0  0  0  0  0  0  0  # atno 8008 bound_to 7997
  154.6330  140.0593  156.9781 H   0  0  0  0  0  0  0  0  0  0  0  0  # atno 8009 bound_to 7997
  155.1681  140.3266  155.4400 H   0  0  0  0  0  0  0  0  0  0  0  0  # atno 8010 bound_to 7997
  140.6067  143.2375  151.5803 H   0  0  0  0  0  0  0  0  0  0  0  0  # atno 10167 bound_to 10162
  156.0916  130.4199  150.1005 H   0  0  0  0  0  0  0  0  0  0  0  0  # atno 10718 bound_to 10713
  154.4942  135.5812  153.6482 H   0  0  0  0  0  0  0  0  0  0  0  0  # atno 10763 bound_to 10752
  152.9867  135.6120  154.3086 H   0  0  0  0  0  0  0  0  0  0  0  0  # atno 10764 bound_to 10752
  154.2988  135.2847  155.2600 H   0  0  0  0  0  0  0  0  0  0  0  0  # atno 10765 bound_to 10752
  141.1081  133.6612  156.4494 H   0  0  0  0  0  0  0  0  0  0  0  0  # atno 11005 bound_to 11000
  144.7085  139.8465  143.7422 LP  0  0  0  0  0  0  0  0  0  0  0  0  # atno 17320 bound_to 7965
  146.1114  139.4120  143.0285 LP  0  0  0  0  0  0  0  0  0  0  0  0  # atno 17321 bound_to 7965
  139.5331  144.2860  152.1191 LP  0  0  0  0  0  0  0  0  0  0  0  0  # atno 17342 bound_to 10162
  140.2051  144.4619  150.6412 LP  0  0  0  0  0  0  0  0  0  0  0  0  # atno 17343 bound_to 10162
  156.9014  130.9621  151.3576 LP  0  0  0  0  0  0  0  0  0  0  0  0  # atno 17370 bound_to 10713
  157.6067  130.8552  149.8887 LP  0  0  0  0  0  0  0  0  0  0  0  0  # atno 17371 bound_to 10713
  140.4848  134.6631  157.5186 LP  0  0  0  0  0  0  0  0  0  0  0  0  # atno 17394 bound_to 11000
  139.9961  134.6909  155.9607 LP  0  0  0  0  0  0  0  0  0  0  0  0  # atno 17395 bound_to 11000

$$$$
