AV-unprocessed.smi:109|AV-procd|sdf|1046|dock9
  -GOLD-   2262018 93D 1   1.00000     0.00000
 Structure written by MMmdl.
 58 61  0  0  0  0  0  0  0  0  1 V2000
  149.6330  140.9165  153.7112 O   0  0  0  0  0  0  0  0  0  0  0  0
  148.8790  140.8767  154.9032 C   0  0  0  0  0  0  0  0  0  0  0  0
  149.3560  141.9792  155.8621 C   0  0  0  0  0  0  0  0  0  0  0  0
  150.5641  141.5447  156.7212 C   0  0  1  0  0  0  0  0  0  0  0  0
  151.7409  141.3783  155.8688 N   0  0  0  0  0  0  0  0  0  0  0  0
  152.1815  140.1567  155.4955 C   0  0  0  0  0  0  0  0  0  0  0  0
  153.1309  140.0088  154.5351 N   0  0  0  0  0  0  0  0  0  0  0  0
  153.5553  138.7878  154.1974 C   0  0  0  0  0  0  0  0  0  0  0  0
  153.1730  137.6073  154.6882 N   0  0  0  0  0  0  0  0  0  0  0  0
  152.2167  137.7491  155.6520 C   0  0  0  0  0  0  0  0  0  0  0  0
  151.6725  138.9824  156.1070 C   0  0  0  0  0  0  0  0  0  0  0  0
  150.7275  138.7448  157.0961 N   0  0  0  0  0  0  0  0  0  0  0  0
  150.7201  137.4448  157.2199 C   0  0  0  0  0  0  0  0  0  0  0  0
  151.5899  136.7674  156.3947 N   0  0  0  0  0  0  0  0  0  0  0  0
  151.8127  135.2882  156.3305 C   0  0  1  0  0  0  0  0  0  0  0  0
  151.1160  134.6673  157.3641 O   0  0  0  0  0  0  0  0  0  0  0  0
  150.5875  133.4126  156.9357 C   0  0  1  0  0  0  0  0  0  0  0  0
  149.0672  133.4422  157.1664 C   0  0  0  0  0  0  0  0  0  0  0  0
  148.7811  133.6046  158.5396 O   0  0  0  0  0  0  0  0  0  0  0  0
  150.9795  133.2572  155.4542 C   0  0  2  0  0  0  0  0  0  0  0  0
  152.1139  132.4171  155.3571 O   0  0  0  0  0  0  0  0  0  0  0  0
  151.3324  134.6676  155.0128 C   0  0  1  0  0  0  0  0  0  0  0  0
  150.2089  135.3230  154.4521 O   0  0  0  0  0  0  0  0  0  0  0  0
  150.8765  142.4958  157.9091 C   0  0  0  0  0  0  0  0  0  0  0  0
  151.1890  143.9383  157.4553 C   0  0  0  0  0  0  0  0  0  0  0  0
  151.3887  144.8740  158.6588 C   0  0  0  0  0  0  0  0  0  0  0  0
  152.4910  144.3500  159.5923 C   0  0  0  0  0  0  0  0  0  0  0  0
  152.1933  142.9135  160.0492 C   0  0  0  0  0  0  0  0  0  0  0  0
  151.9899  141.9766  158.8472 C   0  0  0  0  0  0  0  0  0  0  0  0
  152.8833  135.1534  156.4908 H   0  0  0  0  0  0  0  0  0  0  0  0
  151.0270  132.6248  157.5500 H   0  0  0  0  0  0  0  0  0  0  0  0
  150.1867  132.8168  154.8479 H   0  0  0  0  0  0  0  0  0  0  0  0
  152.1384  134.6939  154.2782 H   0  0  0  0  0  0  0  0  0  0  0  0
  149.4088  140.1610  153.1895 H   0  0  0  0  0  0  0  0  0  0  0  0
  147.8244  141.0088  154.6596 H   0  0  0  0  0  0  0  0  0  0  0  0
  148.9888  139.8902  155.3545 H   0  0  0  0  0  0  0  0  0  0  0  0
  149.6040  142.8754  155.2920 H   0  0  0  0  0  0  0  0  0  0  0  0
  148.5194  142.2493  156.5052 H   0  0  0  0  0  0  0  0  0  0  0  0
  150.3052  140.5726  157.1416 H   0  0  0  0  0  0  0  0  0  0  0  0
  152.2191  142.2310  155.6154 H   0  0  0  0  0  0  0  0  0  0  0  0
  154.3108  138.7514  153.4265 H   0  0  0  0  0  0  0  0  0  0  0  0
  150.0804  136.9398  157.9290 H   0  0  0  0  0  0  0  0  0  0  0  0
  148.6223  134.2784  156.6262 H   0  0  0  0  0  0  0  0  0  0  0  0
  148.5933  132.5326  156.7969 H   0  0  0  0  0  0  0  0  0  0  0  0
  149.0843  134.4579  158.8101 H   0  0  0  0  0  0  0  0  0  0  0  0
  152.5546  132.4137  156.1932 H   0  0  0  0  0  0  0  0  0  0  0  0
  150.3351  135.3839  153.5175 H   0  0  0  0  0  0  0  0  0  0  0  0
  149.9665  142.5640  158.5072 H   0  0  0  0  0  0  0  0  0  0  0  0
  152.0889  143.9610  156.8412 H   0  0  0  0  0  0  0  0  0  0  0  0
  150.3792  144.3168  156.8307 H   0  0  0  0  0  0  0  0  0  0  0  0
  151.6411  145.8765  158.3120 H   0  0  0  0  0  0  0  0  0  0  0  0
  150.4530  144.9649  159.2119 H   0  0  0  0  0  0  0  0  0  0  0  0
  153.4509  144.3776  159.0750 H   0  0  0  0  0  0  0  0  0  0  0  0
  152.5875  145.0044  160.4589 H   0  0  0  0  0  0  0  0  0  0  0  0
  153.0082  142.5456  160.6732 H   0  0  0  0  0  0  0  0  0  0  0  0
  151.2986  142.9062  160.6731 H   0  0  0  0  0  0  0  0  0  0  0  0
  151.7461  140.9770  159.2081 H   0  0  0  0  0  0  0  0  0  0  0  0
  152.9307  141.8889  158.3034 H   0  0  0  0  0  0  0  0  0  0  0  0
  1  2  1  0  0  0  0
  1 34  1  0  0  0  0
  2  3  1  0  0  0  0
  2 35  1  0  0  0  0
  2 36  1  0  0  0  0
  3  4  1  0  0  0  0
  3 37  1  0  0  0  0
  3 38  1  0  0  0  0
  4  5  1  0  0  0  0
  4 24  1  0  0  0  0
  4 39  1  0  0  0  0
  5  6  1  0  0  0  0
  5 40  1  0  0  0  0
  6 11  1  0  0  0  0
  6  7  2  0  0  0  0
  7  8  1  0  0  0  0
  8  9  2  0  0  0  0
  8 41  1  0  0  0  0
  9 10  1  0  0  0  0
 10 14  1  0  0  0  0
 10 11  2  0  0  0  0
 11 12  1  0  0  0  0
 12 13  2  0  0  0  0
 13 14  1  0  0  0  0
 13 42  1  0  0  0  0
 14 15  1  0  0  0  0
 15 30  1  0  0  0  0
 15 22  1  0  0  0  0
 15 16  1  0  0  0  0
 16 17  1  0  0  0  0
 17 31  1  0  0  0  0
 17 18  1  0  0  0  0
 17 20  1  0  0  0  0
 18 19  1  0  0  0  0
 18 43  1  0  0  0  0
 18 44  1  0  0  0  0
 19 45  1  0  0  0  0
 20 32  1  0  0  0  0
 20 21  1  0  0  0  0
 20 22  1  0  0  0  0
 21 46  1  0  0  0  0
 22 33  1  0  0  0  0
 22 23  1  0  0  0  0
 23 47  1  0  0  0  0
 24 29  1  0  0  0  0
 24 25  1  0  0  0  0
 24 48  1  0  0  0  0
 25 26  1  0  0  0  0
 25 49  1  0  0  0  0
 25 50  1  0  0  0  0
 26 27  1  0  0  0  0
 26 51  1  0  0  0  0
 26 52  1  0  0  0  0
 27 28  1  0  0  0  0
 27 53  1  0  0  0  0
 27 54  1  0  0  0  0
 28 29  1  0  0  0  0
 28 55  1  0  0  0  0
 28 56  1  0  0  0  0
 29 57  1  0  0  0  0
 29 58  1  0  0  0  0
M  END
> <s_m_source_file>
AV-unprocessed.smi

> <i_m_source_file_index>
109

> <i_lp_mmshare_version>
43012

> <i_f3d_flags>
0

> <s_epik_input>
W0NIMl0xW0NIMl1bQ0gyXVtDSDJdW0NIMl1bQ0hdMVtDQEhdKFtDSDJdW0NIMl1bT0hdKVtOSF1jKG5bY0hdbjIpYyhjMjMpbltjSF1uM1tDQEBIXTRPW0NASF0oW0NIMl1bT0hdKVtDQEBIXShbT0hdKVtDQEhdNFtPSF0=

> <s_epik_cmdline>
J2VwaWtfcHl0aG9uJywgJy1waCcsICc3LjAnLCAnLXRuJywgJzgnLCAnLW1hJywgJzIwMCcsICctbWV0YWxfYmluZGluZycsICctaW1hZScsICc8aW5maWxlLm1hZT4nLCAnLW9tYWUnLCAnPG91dGZpbGUubWFlPic=

> <r_lp_tautomer_probability>
1

> <r_epik_Ionization_Penalty>
0.000793976

> <r_epik_Ionization_Penalty_Charging>
0

> <r_epik_Ionization_Penalty_Neutral>
0.000793976

> <r_epik_State_Penalty>
-0

> <r_epik_Charging_Adjusted_Penalty>
0

> <i_epik_Tot_Q>
0

> <i_epik_Tot_abs_Q>
0

> <r_epik_Metal_State_Penalty>
-0

> <b_epik_Metal_Only>
0

> <s_epik_Chemistry_Notes>
This compound contains an acetal/aminal-like group ( X-CH(R)-Y where X, Y are N, S, or O) that may be acid/base labile, releasing an aldehyde.

> <s_lp_Force_Field>
OPLS_2005

> <r_lp_Energy>
52.4563

> <b_lp_Chiralities_Consistent>
1

> <s_lp_Variant>
AV-unprocessed.smi:109-16

> <Gold.Version>
5.8.1

> <Gold.Id.Protein>
6NUR|6NUR_protein|mol2

> <Gold.PLP.Fitness>
58.3597

> <Gold.PLP.PLP>
-43.6080

> <Gold.PLP.part.hbond>
-7.7471

> <Gold.PLP.part.metal>
0.0000

> <Gold.PLP.part.buried>
0.5497

> <Gold.PLP.part.nonpolar>
-37.0584

> <Gold.PLP.part.repulsive>
0.2717

> <Gold.PLP.ligand.clash>
0.0000

> <Gold.PLP.ligand.torsion>
0.5249

> <Gold.PLP.Chemscore.Hbond>
5.2141

> <Gold.PLP.Chemscore.CHOScore>
0.0000

> <Gold.PLP.Chemscore.Metal>
0.0000

> <Gold.Chemscore.Hbonds>
donor molecule, donor type, donor heavy atom, donor atom, acceptor molecule, acceptor atom, score
      L1  H     1    34       P1  7957  0.48
      P1  H  6896  6908       L1    16  0.10
      P1  H  7989  7998       L1     1  0.36
      P1  H  7997  8008       L1     7  0.39
      P1  H  8011  8017       L1     1  0.98
      P1  H 10752 10765       L1     9  0.18

> <Gold.PLP.Chemscore.Internal.Correction>
0.1591

> <Gold.Rescore>
     Score         DG    S(hbond)    S(metal)    S(lipo)     H(rot)  DE(clash)    DE(int)     intcor
      9.00     -13.61       3.01        0.00     103.21       5.47       2.41       2.20       ----

> <Gold.Chemscore.Fitness>
9.0022

> <Gold.Chemscore.DG>
-13.6103

> <Gold.Chemscore.ZeroCoef>
-5.4800

> <Gold.Chemscore.Hbond>
3.0083

> <Gold.Chemscore.Metal>
0.0000

> <Gold.Chemscore.Lipo>
103.2147

> <Gold.Chemscore.Internal_Hbond>
0.0000

> <Gold.Chemscore.DEClash>
2.4077

> <Gold.Chemscore.DEInternal>
2.2004

> <Gold.Chemscore.Rot>
5.4662

> <Gold.Chemscore.Internal.Correction>
   9.000000E+99

> <Gold.Chemscore.Hbonds>
donor molecule, donor type, donor heavy atom, donor atom, acceptor molecule, acceptor atom, score
      L1  H     1    34       P1  7957  0.46
      P1  H  7989  7998       L1     1  0.08
      P1  H  8011  8017       L1     1  0.34
      P1  H 10752 10765       L1     9  0.03

> <Gold.Chemscore.Hbond.Weighted>
-10.0477

> <Gold.Chemscore.Metal.Weighted>
-0.0000

> <Gold.Chemscore.Lipo.Weighted>
-12.0761

> <Gold.Chemscore.Internal_Hbond.Weighted>
0.0000

> <Gold.Chemscore.DEClash.Weighted>
2.4077

> <Gold.Chemscore.DEInternal.Weighted>
2.2004

> <Gold.Chemscore.Rot.Weighted>
13.9935

> <Gold.Chemscore.Internal.Correction.Weighted>
   9.000000E+99

> <Gold.Protein.RotatedTorsions>
[ 6907 6896 6895 6894 ] final  142.16 input  -60.11 | X-H torsion
[ 7974 7965 7964 7962 ] final  -97.15 input  175.53 | X-H torsion
[ 8008 7997 7996 7995 ] final   -7.70 input   59.86 | X-H torsion
[ 10167 10162 10161 10158 ] final  -41.59 input  -65.29 | X-H torsion
[ 10718 10713 10712 10709 ] final -145.55 input   66.30 | X-H torsion
[ 10763 10752 10751 10750 ] final  172.79 input  -60.55 | X-H torsion
[ 11005 11000 10999 10996 ] final  -88.86 input  -57.11 | X-H torsion

> <Gold.Protein.ActiveResidues>
 VAL166  LYS551  ARG553  GLY616  TRP617  ASP618  TYR619  PRO620  LYS621  CYS622 
 ASP623  PHE694  ASN695  SER759  ASP760  ASP761  ALA762  ILE779  LEU786  VAL792 
 PHE793  MET794  SER795  GLU796  ALA797  LYS798  CYS799  TRP800  GLU811  SER814 

> <Gold.Protein.RotatedAtoms>
  152.2221  133.4992  159.5168 H   0  0  0  0  0  0  0  0  0  0  0  0  # atno 6907 bound_to 6896
  150.7015  134.1328  159.4085 H   0  0  0  0  0  0  0  0  0  0  0  0  # atno 6908 bound_to 6896
  151.9249  135.0282  160.0575 H   0  0  0  0  0  0  0  0  0  0  0  0  # atno 6909 bound_to 6896
  145.3375  140.9453  143.2626 H   0  0  0  0  0  0  0  0  0  0  0  0  # atno 7974 bound_to 7965
  154.5813  140.2400  155.8050 H   0  0  0  0  0  0  0  0  0  0  0  0  # atno 8008 bound_to 7997
  156.2181  140.3006  155.9843 H   0  0  0  0  0  0  0  0  0  0  0  0  # atno 8009 bound_to 7997
  155.2536  140.0411  157.2980 H   0  0  0  0  0  0  0  0  0  0  0  0  # atno 8010 bound_to 7997
  140.6997  143.3086  151.3089 H   0  0  0  0  0  0  0  0  0  0  0  0  # atno 10167 bound_to 10162
  156.3838  130.7851  151.2046 H   0  0  0  0  0  0  0  0  0  0  0  0  # atno 10718 bound_to 10713
  154.4310  135.2760  155.1912 H   0  0  0  0  0  0  0  0  0  0  0  0  # atno 10763 bound_to 10752
  154.3818  135.6086  153.5798 H   0  0  0  0  0  0  0  0  0  0  0  0  # atno 10764 bound_to 10752
  152.9836  135.5882  154.4622 H   0  0  0  0  0  0  0  0  0  0  0  0  # atno 10765 bound_to 10752
  141.1594  133.7595  156.9512 H   0  0  0  0  0  0  0  0  0  0  0  0  # atno 11005 bound_to 11000
  144.8816  139.4897  143.6720 LP  0  0  0  0  0  0  0  0  0  0  0  0  # atno 17320 bound_to 7965
  146.3021  139.7459  142.9084 LP  0  0  0  0  0  0  0  0  0  0  0  0  # atno 17321 bound_to 7965
  139.6500  144.0380  152.2619 LP  0  0  0  0  0  0  0  0  0  0  0  0  # atno 17342 bound_to 10162
  139.9913  144.6359  150.7812 LP  0  0  0  0  0  0  0  0  0  0  0  0  # atno 17343 bound_to 10162
  157.7494  131.0336  150.4279 LP  0  0  0  0  0  0  0  0  0  0  0  0  # atno 17370 bound_to 10713
  156.4528  130.4015  149.6625 LP  0  0  0  0  0  0  0  0  0  0  0  0  # atno 17371 bound_to 10713
  140.1256  134.9389  157.2265 LP  0  0  0  0  0  0  0  0  0  0  0  0  # atno 17394 bound_to 11000
  140.3017  134.3124  155.7288 LP  0  0  0  0  0  0  0  0  0  0  0  0  # atno 17395 bound_to 11000

$$$$
