#       Name:                AV-unprocessed.smi:1465
#       Creating user name   scv26
#       Creation time:       Fri Mar 27 06:03:42 2020


#       File generated by GOLD software.
#

@<TRIPOS>MOLECULE
AV-unprocessed.smi:1465
    60    61     1
SMALL
NO_CHARGES


@<TRIPOS>ATOM
      1 ****        -4.6455  -7.1570   2.5299 C.3            1 S1                 0.0000
      2 ****        -4.5537  -6.3921   1.3404 O.3            1 S1                 0.0000
      3 ****        -4.0139  -5.1014   1.5674 C.3            1 S1                 0.0000
      4 ****        -3.9371  -4.3504   0.2299 C.3            1 S1                 0.0000
      5 ****        -3.3493  -3.0152   0.4011 N.am           1 S1                 0.0000
      6 ****        -1.9543  -2.9091   0.2416 C.2            1 S1                 0.0000
      7 ****        -1.2976  -1.7417   0.3877 C.2            1 S1                 0.0000
      8 ****         0.1571  -1.7045   0.2220 C.2            1 S1                 0.0000
      9 ****         0.8503  -2.6753  -0.0849 O.2            1 S1                 0.0000
     10 ****         0.6944  -0.4917   0.4395 N.am           1 S1                 0.0000
     11 ****         2.1173  -0.1623   0.3671 C.3            1 S1                 0.0000
     12 ****         2.4086   1.1277   1.1522 C.3            1 S1                 0.0000
     13 ****         1.8494   2.3754   0.4439 C.3            1 S1                 0.0000
     14 ****         2.3634   2.4813  -0.9479 N.4            1 S1                 1.0000
     15 ****         1.9542   3.7344  -1.6345 C.3            1 S1                 0.0000
     16 ****         2.7483   4.9737  -1.1663 C.3            1 S1                 0.0000
     17 ****         2.1923   6.2476  -1.8195 C.3            1 S1                 0.0000
     18 ****         4.2526   4.8352  -1.4555 C.3            1 S1                 0.0000
     19 ****         2.0306   1.2719  -1.7442 C.3            1 S1                 0.0000
     20 ****         2.5961  -0.0005  -1.0888 C.3            1 S1                 0.0000
     21 ****        -2.0920  -0.5670   0.7166 C.2            1 S1                 0.0000
     22 ****        -3.4261  -0.6658   0.8790 C.2            1 S1                 0.0000
     23 ****        -4.1298  -1.9435   0.7321 C.2            1 S1                 0.0000
     24 ****        -5.3455  -2.0422   0.8994 O.2            1 S1                 0.0000
     25 ****        -5.0657  -8.1371   2.3040 H              1 S1                 0.0000
     26 ****        -5.2941  -6.6726   3.2613 H              1 S1                 0.0000
     27 ****        -3.6626  -7.3078   2.9790 H              1 S1                 0.0000
     28 ****        -4.6409  -4.5549   2.2738 H              1 S1                 0.0000
     29 ****        -3.0187  -5.1868   2.0070 H              1 S1                 0.0000
     30 ****        -3.3460  -4.9303  -0.4808 H              1 S1                 0.0000
     31 ****        -4.9303  -4.2835  -0.2177 H              1 S1                 0.0000
     32 ****        -1.4629  -3.8429   0.0053 H              1 S1                 0.0000
     33 ****         0.0662   0.2561   0.6950 H              1 S1                 0.0000
     34 ****         2.6757  -0.9756   0.8344 H              1 S1                 0.0000
     35 ****         2.0023   1.0559   2.1620 H              1 S1                 0.0000
     36 ****         3.4876   1.2397   1.2682 H              1 S1                 0.0000
     37 ****         0.7588   2.3447   0.4289 H              1 S1                 0.0000
     38 ****         2.1285   3.2557   1.0208 H              1 S1                 0.0000
     39 ****         2.1027   3.6251  -2.7100 H              1 S1                 0.0000
     40 ****         0.8831   3.8865  -1.4922 H              1 S1                 0.0000
     41 ****         2.6239   5.0960  -0.0910 H              1 S1                 0.0000
     42 ****         2.2906   6.2138  -2.9051 H              1 S1                 0.0000
     43 ****         2.7206   7.1338  -1.4659 H              1 S1                 0.0000
     44 ****         1.1359   6.3822  -1.5849 H              1 S1                 0.0000
     45 ****         4.4419   4.7077  -2.5220 H              1 S1                 0.0000
     46 ****         4.6837   3.9796  -0.9354 H              1 S1                 0.0000
     47 ****         4.7976   5.7207  -1.1265 H              1 S1                 0.0000
     48 ****         0.9482   1.1934  -1.8577 H              1 S1                 0.0000
     49 ****         2.4472   1.3661  -2.7477 H              1 S1                 0.0000
     50 ****         3.6857   0.0495  -1.1012 H              1 S1                 0.0000
     51 ****         2.3304  -0.8762  -1.6820 H              1 S1                 0.0000
     52 ****        -1.6368   0.4049   0.8364 H              1 S1                 0.0000
     53 ****        -3.9951   0.2191   1.1233 H              1 S1                 0.0000
     54 ****         3.3715   2.5082  -0.8891 H              1 S1                 0.0000
     55 ****        -5.4694  -6.2932   0.9509 LP             1 S1                 0.0000
     56 ****        -3.9662  -6.8763   0.6920 LP             1 S1                 0.0000
     57 ****         0.4229  -3.5661  -0.2391 LP             1 S1                 0.0000
     58 ****         1.8405  -2.5726  -0.1798 LP             1 S1                 0.0000
     59 ****        -5.7943  -2.9295   0.7936 LP             1 S1                 0.0000
     60 ****        -5.8841  -1.2350   1.1411 LP             1 S1                 0.0000
@<TRIPOS>BOND
    1    1    2 1     
    2    1   25 1     
    3    1   26 1     
    4    1   27 1     
    5    2    3 1     
    6    3    4 1     
    7    3   28 1     
    8    3   29 1     
    9    4    5 1     
   10    4   30 1     
   11    4   31 1     
   12    5   23 am    
   13    5    6 1     
   14    6    7 2     
   15    6   32 1     
   16    7    8 1     
   17    7   21 1     
   18    8    9 2     
   19    8   10 am    
   20   10   11 1     
   21   10   33 1     
   22   11   20 1     
   23   11   12 1     
   24   11   34 1     
   25   12   13 1     
   26   12   35 1     
   27   12   36 1     
   28   13   14 1     
   29   13   37 1     
   30   13   38 1     
   31   14   15 1     
   32   14   19 1     
   33   14   54 1     
   34   15   16 1     
   35   15   39 1     
   36   15   40 1     
   37   16   17 1     
   38   16   18 1     
   39   16   41 1     
   40   17   42 1     
   41   17   43 1     
   42   17   44 1     
   43   18   45 1     
   44   18   46 1     
   45   18   47 1     
   46   19   20 1     
   47   19   48 1     
   48   19   49 1     
   49   20   50 1     
   50   20   51 1     
   51   21   22 2     
   52   21   52 1     
   53   22   23 1     
   54   22   53 1     
   55   23   24 2     
   56    2   55 1     
   57    2   56 1     
   58    9   57 1     
   59    9   58 1     
   60   24   59 1     
   61   24   60 1     
@<TRIPOS>SUBSTRUCTURE
      1 S1             1
@<TRIPOS>SET
LONE_PAIRS      STATIC     ATOMS    <user>   **** ""
6 55 56 57 58 59 60
DONOR_HYDROGENS      STATIC     ATOMS    <user>   **** ""
2 33 54
ATOM$BLUE        STATIC     ATOMS    COLORGROUP SYSTEM
6 55 56 57 58 59 60
ATOM$RED        STATIC     ATOMS    COLORGROUP SYSTEM
2 33 54
