AV-unprocessed.smi:2026|AV-procd|sdf|8205|dock3
  -GOLD-   2272010463D 1   1.00000     0.00000
 Structure written by MMmdl.
 45 47  0  0  0  0  0  0  0  0  2 V2000
  153.0730  143.3057  162.7987 C   0  0  0  0  0  0  0  0  0  0  0  0
  152.7748  142.7709  161.4093 C   0  0  0  0  0  0  0  0  0  0  0  0
  151.9332  143.5159  160.5516 C   0  0  0  0  0  0  0  0  0  0  0  0
  151.6316  143.0527  159.2516 C   0  0  0  0  0  0  0  0  0  0  0  0
  150.8457  143.6082  158.2553 N   0  0  0  0  0  0  0  0  0  0  0  0
  150.9618  142.7037  157.2861 C   0  0  0  0  0  0  0  0  0  0  0  0
  151.7303  141.6274  157.5389 N   0  0  0  0  0  0  0  0  0  0  0  0
  152.0111  140.5093  156.6595 C   0  0  0  0  0  0  0  0  0  0  0  0
  150.7202  139.8955  156.0800 C   0  0  2  0  0  0  0  0  0  0  0  0
  150.2910  140.6659  154.9755 O   0  0  0  0  0  0  0  0  0  0  0  0
  149.5622  139.8015  157.0949 C   0  0  0  0  0  0  0  0  0  0  0  0
  149.5374  138.5101  157.7945 N   0  0  0  0  0  0  0  0  0  0  0  0
  150.5794  137.9506  158.4396 C   0  0  0  0  0  0  0  0  0  0  0  0
  151.6788  138.4984  158.5146 O   0  0  0  0  0  0  0  0  0  0  0  0
  150.2411  136.7456  158.9558 N   0  5  0  0  0  0  0  0  0  0  0  0
  148.8586  136.4649  158.6242 C   0  0  0  0  0  0  0  0  0  0  0  0
  148.7704  135.2050  157.7418 C   0  0  0  0  0  0  0  0  0  0  0  0
  148.0230  136.3185  159.9096 C   0  0  0  0  0  0  0  0  0  0  0  0
  148.4672  137.7097  157.8489 C   0  0  0  0  0  0  0  0  0  0  0  0
  147.3534  137.9085  157.3615 O   0  0  0  0  0  0  0  0  0  0  0  0
  152.1983  141.8141  158.8333 C   0  0  0  0  0  0  0  0  0  0  0  0
  153.0365  141.0642  159.6762 C   0  0  0  0  0  0  0  0  0  0  0  0
  153.3288  141.5412  160.9703 C   0  0  0  0  0  0  0  0  0  0  0  0
  154.2372  140.7226  161.8705 C   0  0  0  0  0  0  0  0  0  0  0  0
  152.6145  144.2823  162.9564 H   0  0  0  0  0  0  0  0  0  0  0  0
  154.1477  143.4150  162.9449 H   0  0  0  0  0  0  0  0  0  0  0  0
  152.6863  142.6265  163.5589 H   0  0  0  0  0  0  0  0  0  0  0  0
  151.5117  144.4525  160.8855 H   0  0  0  0  0  0  0  0  0  0  0  0
  150.4613  142.8305  156.3373 H   0  0  0  0  0  0  0  0  0  0  0  0
  152.6541  140.8821  155.8623 H   0  0  0  0  0  0  0  0  0  0  0  0
  152.5902  139.7602  157.2014 H   0  0  0  0  0  0  0  0  0  0  0  0
  150.9370  138.8954  155.7029 H   0  0  0  0  0  0  0  0  0  0  0  0
  149.6281  141.2698  155.2732 H   0  0  0  0  0  0  0  0  0  0  0  0
  149.6207  140.6284  157.8044 H   0  0  0  0  0  0  0  0  0  0  0  0
  148.6099  139.9294  156.5771 H   0  0  0  0  0  0  0  0  0  0  0  0
  147.7370  134.9806  157.4748 H   0  0  0  0  0  0  0  0  0  0  0  0
  149.1699  134.3323  158.2595 H   0  0  0  0  0  0  0  0  0  0  0  0
  149.3316  135.3197  156.8132 H   0  0  0  0  0  0  0  0  0  0  0  0
  146.9797  136.0987  159.6797 H   0  0  0  0  0  0  0  0  0  0  0  0
  148.0417  137.2288  160.5113 H   0  0  0  0  0  0  0  0  0  0  0  0
  148.3987  135.5060  160.5328 H   0  0  0  0  0  0  0  0  0  0  0  0
  153.4526  140.1309  159.3255 H   0  0  0  0  0  0  0  0  0  0  0  0
  154.5448  139.7952  161.3859 H   0  0  0  0  0  0  0  0  0  0  0  0
  153.7252  140.4620  162.7968 H   0  0  0  0  0  0  0  0  0  0  0  0
  155.1374  141.2857  162.1173 H   0  0  0  0  0  0  0  0  0  0  0  0
  1  2  1  0  0  0  0
  1 25  1  0  0  0  0
  1 26  1  0  0  0  0
  1 27  1  0  0  0  0
  2 23  1  0  0  0  0
  2  3  2  0  0  0  0
  3  4  1  0  0  0  0
  3 28  1  0  0  0  0
  4 21  2  0  0  0  0
  4  5  1  0  0  0  0
  5  6  2  0  0  0  0
  6  7  1  0  0  0  0
  6 29  1  0  0  0  0
  7  8  1  0  0  0  0
  7 21  1  0  0  0  0
  8  9  1  0  0  0  0
  8 30  1  0  0  0  0
  8 31  1  0  0  0  0
  9 10  1  0  0  0  0
  9 11  1  0  0  0  0
  9 32  1  0  0  0  0
 10 33  1  0  0  0  0
 11 12  1  0  0  0  0
 11 34  1  0  0  0  0
 11 35  1  0  0  0  0
 12 19  1  0  0  0  0
 12 13  1  0  0  0  0
 13 14  2  0  0  0  0
 13 15  1  0  0  0  0
 15 16  1  0  0  0  0
 16 17  1  0  0  0  0
 16 18  1  0  0  0  0
 16 19  1  0  0  0  0
 17 36  1  0  0  0  0
 17 37  1  0  0  0  0
 17 38  1  0  0  0  0
 18 39  1  0  0  0  0
 18 40  1  0  0  0  0
 18 41  1  0  0  0  0
 19 20  2  0  0  0  0
 21 22  1  0  0  0  0
 22 23  2  0  0  0  0
 22 42  1  0  0  0  0
 23 24  1  0  0  0  0
 24 43  1  0  0  0  0
 24 44  1  0  0  0  0
 24 45  1  0  0  0  0
M  CHG  1  15  -1
M  END
> <s_m_source_file>
AV-unprocessed.smi

> <i_m_source_file_index>
2026

> <i_lp_mmshare_version>
43012

> <i_f3d_flags>
0

> <s_epik_input>
W0NIM11jKFtjSF0xKWMoW0NIM10pW2NIXWMoYzEyKW4oW2NIXW4yKVtDSDJdW0NASF0oW09IXSlbQ0gyXU4oQzM9TylDKD1PKVtOSF1DMyhbQ0gzXSlbQ0gzXQ==

> <s_epik_cmdline>
J2VwaWtfcHl0aG9uJywgJy1waCcsICc3LjAnLCAnLXRuJywgJzgnLCAnLW1hJywgJzIwMCcsICctbWV0YWxfYmluZGluZycsICctaW1hZScsICc8aW5maWxlLm1hZT4nLCAnLW9tYWUnLCAnPG91dGZpbGUubWFlPic=

> <r_lp_tautomer_probability>
1

> <r_epik_Ionization_Penalty>
5.78785

> <r_epik_Ionization_Penalty_Charging>
5.68049

> <r_epik_Ionization_Penalty_Neutral>
0.107354

> <r_epik_State_Penalty>
5.7743

> <r_epik_Charging_Adjusted_Penalty>
11.4548

> <i_epik_Tot_Q>
-1

> <i_epik_Tot_abs_Q>
1

> <r_epik_Metal_State_Penalty>
1.83778

> <b_epik_Metal_Only>
1

> <s_lp_Force_Field>
OPLS_2005

> <r_lp_Energy>
16.8856

> <b_lp_Chiralities_Consistent>
1

> <s_lp_Variant>
AV-unprocessed.smi:2026-5

> <Gold.Version>
5.8.1

> <Gold.Id.Protein>
6NUR|6NUR_protein|mol2

> <Gold.PLP.Fitness>
52.0249

> <Gold.PLP.PLP>
-42.0080

> <Gold.PLP.part.hbond>
-2.0000

> <Gold.PLP.part.metal>
0.0000

> <Gold.PLP.part.buried>
-6.6567

> <Gold.PLP.part.nonpolar>
-32.9903

> <Gold.PLP.part.repulsive>
0.1394

> <Gold.PLP.ligand.clash>
0.0000

> <Gold.PLP.ligand.torsion>
0.7565

> <Gold.PLP.Chemscore.Hbond>
2.8723

> <Gold.PLP.Chemscore.CHOScore>
0.9646

> <Gold.PLP.Chemscore.Metal>
0.0000

> <Gold.Chemscore.Hbonds>
donor molecule, donor type, donor heavy atom, donor atom, acceptor molecule, acceptor atom, score
      P1  H  6896  6909       L1    15  1.76
      P1  H  7989  7998       L1    10  0.90
      L1  C     6    29       P1  8028  0.90

> <Gold.PLP.Chemscore.Internal.Correction>
0.0192

> <Gold.Rescore>
     Score         DG    S(hbond)    S(metal)    S(lipo)     H(rot)  DE(clash)    DE(int)     intcor
     14.52     -17.41       1.73        0.00     104.74       2.38       0.08       2.81       ----

> <Gold.Chemscore.Fitness>
14.5199

> <Gold.Chemscore.DG>
-17.4120

> <Gold.Chemscore.ZeroCoef>
-5.4800

> <Gold.Chemscore.Hbond>
1.7262

> <Gold.Chemscore.Metal>
0.0000

> <Gold.Chemscore.Lipo>
104.7412

> <Gold.Chemscore.Internal_Hbond>
0.0000

> <Gold.Chemscore.DEClash>
0.0775

> <Gold.Chemscore.DEInternal>
2.8145

> <Gold.Chemscore.Rot>
2.3783

> <Gold.Chemscore.Internal.Correction>
   9.000000E+99

> <Gold.Chemscore.Hbonds>
donor molecule, donor type, donor heavy atom, donor atom, acceptor molecule, acceptor atom, score
      P1  H  6896  6909       L1    15  0.34
      P1  H  7989  7998       L1    10  0.77

> <Gold.Chemscore.Hbond.Weighted>
-5.7656

> <Gold.Chemscore.Metal.Weighted>
-0.0000

> <Gold.Chemscore.Lipo.Weighted>
-12.2547

> <Gold.Chemscore.Internal_Hbond.Weighted>
0.0000

> <Gold.Chemscore.DEClash.Weighted>
0.0775

> <Gold.Chemscore.DEInternal.Weighted>
2.8145

> <Gold.Chemscore.Rot.Weighted>
6.0884

> <Gold.Chemscore.Internal.Correction.Weighted>
   9.000000E+99

> <Gold.Protein.RotatedTorsions>
[ 6907 6896 6895 6894 ] final   75.11 input  -60.11 | X-H torsion
[ 7974 7965 7964 7962 ] final  -86.93 input  175.53 | X-H torsion
[ 8008 7997 7996 7995 ] final  170.14 input   59.86 | X-H torsion
[ 10167 10162 10161 10158 ] final -176.63 input  -65.29 | X-H torsion
[ 10718 10713 10712 10709 ] final   56.61 input   66.30 | X-H torsion
[ 10763 10752 10751 10750 ] final   56.88 input  -60.55 | X-H torsion
[ 11005 11000 10999 10996 ] final  110.47 input  -57.11 | X-H torsion

> <Gold.Protein.ActiveResidues>
 VAL166  LYS551  ARG553  GLY616  TRP617  ASP618  TYR619  PRO620  LYS621  CYS622 
 ASP623  PHE694  ASN695  SER759  ASP760  ASP761  ALA762  ILE779  LEU786  VAL792 
 PHE793  MET794  SER795  GLU796  ALA797  LYS798  CYS799  TRP800  GLU811  SER814 

> <Gold.Protein.RotatedAtoms>
  152.5009  134.4171  159.9467 H   0  0  0  0  0  0  0  0  0  0  0  0  # atno 6907 bound_to 6896
  151.4141  133.3712  159.2755 H   0  0  0  0  0  0  0  0  0  0  0  0  # atno 6908 bound_to 6896
  150.9270  134.8708  159.7585 H   0  0  0  0  0  0  0  0  0  0  0  0  # atno 6909 bound_to 6896
  145.4733  140.9559  143.1905 H   0  0  0  0  0  0  0  0  0  0  0  0  # atno 7974 bound_to 7965
  156.1393  140.1545  156.8946 H   0  0  0  0  0  0  0  0  0  0  0  0  # atno 8008 bound_to 7997
  154.4973  140.0834  156.7763 H   0  0  0  0  0  0  0  0  0  0  0  0  # atno 8009 bound_to 7997
  155.4110  140.3419  155.4266 H   0  0  0  0  0  0  0  0  0  0  0  0  # atno 8010 bound_to 7997
  139.5520  144.2085  152.1093 H   0  0  0  0  0  0  0  0  0  0  0  0  # atno 10167 bound_to 10162
  157.5445  130.8721  149.8871 H   0  0  0  0  0  0  0  0  0  0  0  0  # atno 10718 bound_to 10713
  152.9840  135.5661  154.5301 H   0  0  0  0  0  0  0  0  0  0  0  0  # atno 10763 bound_to 10752
  154.4774  135.2787  155.1599 H   0  0  0  0  0  0  0  0  0  0  0  0  # atno 10764 bound_to 10752
  154.3122  135.6286  153.5523 H   0  0  0  0  0  0  0  0  0  0  0  0  # atno 10765 bound_to 10752
  139.8882  134.9485  156.6284 H   0  0  0  0  0  0  0  0  0  0  0  0  # atno 11005 bound_to 11000
  144.7932  139.6286  143.7104 LP  0  0  0  0  0  0  0  0  0  0  0  0  # atno 17320 bound_to 7965
  146.2384  139.5951  142.9508 LP  0  0  0  0  0  0  0  0  0  0  0  0  # atno 17321 bound_to 7965
  140.1582  144.5050  150.6647 LP  0  0  0  0  0  0  0  0  0  0  0  0  # atno 17342 bound_to 10162
  140.6784  143.2315  151.5447 LP  0  0  0  0  0  0  0  0  0  0  0  0  # atno 17343 bound_to 10162
  156.0524  130.3715  150.1169 LP  0  0  0  0  0  0  0  0  0  0  0  0  # atno 17370 bound_to 10713
  156.9347  130.9725  151.3527 LP  0  0  0  0  0  0  0  0  0  0  0  0  # atno 17371 bound_to 10713
  140.7686  133.8757  155.8474 LP  0  0  0  0  0  0  0  0  0  0  0  0  # atno 17394 bound_to 11000
  140.9861  134.1340  157.4450 LP  0  0  0  0  0  0  0  0  0  0  0  0  # atno 17395 bound_to 11000

$$$$
