AV-unprocessed.smi:653|AV-procd|sdf|3211|dock10
  -GOLD-   22720 0153D 1   1.00000     0.00000
 Structure written by MMmdl.
 45 46  0  0  0  0  0  0  0  0  2 V2000
  143.7839  131.7231  150.7977 C   0  0  0  0  0  0  0  0  0  0  0  0
  144.4288  133.0765  151.0101 C   0  0  0  0  0  0  0  0  0  0  0  0
  145.6840  133.2227  151.6388 C   0  0  0  0  0  0  0  0  0  0  0  0
  146.2285  134.5139  151.7977 C   0  0  0  0  0  0  0  0  0  0  0  0
  145.5087  135.6333  151.3240 C   0  0  0  0  0  0  0  0  0  0  0  0
  146.0704  137.0360  151.4742 C   0  0  0  0  0  0  0  0  0  0  0  0
  146.1247  137.4328  152.9497 C   0  0  0  0  0  0  0  0  0  0  0  0
  145.0829  137.5366  153.5960 O   0  0  0  0  0  0  0  0  0  0  0  0
  147.3430  137.6549  153.4668 N   0  0  0  0  0  0  0  0  0  0  0  0
  147.6086  138.0387  154.8490 C   0  0  0  0  0  0  0  0  0  0  0  0
  148.9599  138.7653  154.9942 C   0  0  1  0  0  0  0  0  0  0  0  0
  150.1534  137.9678  154.5040 C   0  0  0  0  0  0  0  0  0  0  0  0
  151.1987  139.0610  154.3199 C   0  0  0  0  0  0  0  0  0  0  0  0
  150.4749  140.2039  153.8772 O   0  0  0  0  0  0  0  0  0  0  0  0
  149.0820  140.0374  154.1405 C   0  0  2  0  0  0  0  0  0  0  0  0
  148.4695  141.3224  154.7439 C   0  0  0  0  0  0  0  0  0  0  0  0
  148.9159  141.5065  156.2027 C   0  0  0  0  0  0  0  0  0  0  0  0
  146.9341  141.3774  154.6377 C   0  0  0  0  0  0  0  0  0  0  0  0
  144.2565  135.4257  150.7053 C   0  0  0  0  0  0  0  0  0  0  0  0
  143.7698  134.1726  150.5715 N   0  3  0  0  0  0  0  0  0  0  0  0
  144.2723  130.9581  151.4020 H   0  0  0  0  0  0  0  0  0  0  0  0
  143.8581  131.4301  149.7501 H   0  0  0  0  0  0  0  0  0  0  0  0
  142.7296  131.7512  151.0746 H   0  0  0  0  0  0  0  0  0  0  0  0
  146.2256  132.3580  151.9942 H   0  0  0  0  0  0  0  0  0  0  0  0
  147.1895  134.6406  152.2747 H   0  0  0  0  0  0  0  0  0  0  0  0
  147.0724  137.0763  151.0443 H   0  0  0  0  0  0  0  0  0  0  0  0
  145.4608  137.7506  150.9191 H   0  0  0  0  0  0  0  0  0  0  0  0
  148.1450  137.5437  152.8637 H   0  0  0  0  0  0  0  0  0  0  0  0
  146.7960  138.6853  155.1811 H   0  0  0  0  0  0  0  0  0  0  0  0
  147.5807  137.1572  155.4915 H   0  0  0  0  0  0  0  0  0  0  0  0
  149.1295  139.0051  156.0436 H   0  0  0  0  0  0  0  0  0  0  0  0
  150.4710  137.1933  155.2028 H   0  0  0  0  0  0  0  0  0  0  0  0
  149.9329  137.4960  153.5453 H   0  0  0  0  0  0  0  0  0  0  0  0
  151.6721  139.2972  155.2736 H   0  0  0  0  0  0  0  0  0  0  0  0
  151.9791  138.7813  153.6121 H   0  0  0  0  0  0  0  0  0  0  0  0
  148.6119  139.8399  153.1756 H   0  0  0  0  0  0  0  0  0  0  0  0
  148.8658  142.1709  154.1849 H   0  0  0  0  0  0  0  0  0  0  0  0
  148.5534  140.6941  156.8336 H   0  0  0  0  0  0  0  0  0  0  0  0
  148.5370  142.4419  156.6153 H   0  0  0  0  0  0  0  0  0  0  0  0
  150.0029  141.5301  156.2832 H   0  0  0  0  0  0  0  0  0  0  0  0
  146.4689  140.5359  155.1523 H   0  0  0  0  0  0  0  0  0  0  0  0
  146.5938  141.3648  153.6031 H   0  0  0  0  0  0  0  0  0  0  0  0
  146.5462  142.2917  155.0875 H   0  0  0  0  0  0  0  0  0  0  0  0
  143.6368  136.2181  150.3108 H   0  0  0  0  0  0  0  0  0  0  0  0
  142.8644  134.0481  150.1177 H   0  0  0  0  0  0  0  0  0  0  0  0
  1  2  1  0  0  0  0
  1 21  1  0  0  0  0
  1 22  1  0  0  0  0
  1 23  1  0  0  0  0
  2 20  1  0  0  0  0
  2  3  2  0  0  0  0
  3  4  1  0  0  0  0
  3 24  1  0  0  0  0
  4  5  2  0  0  0  0
  4 25  1  0  0  0  0
  5  6  1  0  0  0  0
  5 19  1  0  0  0  0
  6  7  1  0  0  0  0
  6 26  1  0  0  0  0
  6 27  1  0  0  0  0
  7  8  2  0  0  0  0
  7  9  1  0  0  0  0
  9 10  1  0  0  0  0
  9 28  1  0  0  0  0
 10 11  1  0  0  0  0
 10 29  1  0  0  0  0
 10 30  1  0  0  0  0
 11 15  1  0  0  0  0
 11 12  1  0  0  0  0
 11 31  1  0  0  0  0
 12 13  1  0  0  0  0
 12 32  1  0  0  0  0
 12 33  1  0  0  0  0
 13 14  1  0  0  0  0
 13 34  1  0  0  0  0
 13 35  1  0  0  0  0
 14 15  1  0  0  0  0
 15 16  1  0  0  0  0
 15 36  1  0  0  0  0
 16 17  1  0  0  0  0
 16 18  1  0  0  0  0
 16 37  1  0  0  0  0
 17 38  1  0  0  0  0
 17 39  1  0  0  0  0
 17 40  1  0  0  0  0
 18 41  1  0  0  0  0
 18 42  1  0  0  0  0
 18 43  1  0  0  0  0
 19 20  2  0  0  0  0
 19 44  1  0  0  0  0
 20 45  1  0  0  0  0
M  CHG  1  20   1
M  END
> <s_m_source_file>
AV-unprocessed.smi

> <i_m_source_file_index>
653

> <i_lp_mmshare_version>
43012

> <i_f3d_flags>
0

> <s_epik_input>
W0NIM11jMVtjSF1bY0hdYyhbY0hdbjEpW0NIMl1DKD1PKVtOSF1bQ0gyXVtDQEBIXTJbQ0gyXVtDSDJdT1tDQEhdMltDSF0oW0NIM10pW0NIM10=

> <s_epik_cmdline>
J2VwaWtfcHl0aG9uJywgJy1waCcsICc3LjAnLCAnLXRuJywgJzgnLCAnLW1hJywgJzIwMCcsICctbWV0YWxfYmluZGluZycsICctaW1hZScsICc8aW5maWxlLm1hZT4nLCAnLW9tYWUnLCAnPG91dGZpbGUubWFlPic=

> <r_epik_Ionization_Penalty>
2.12486

> <r_epik_Ionization_Penalty_Charging>
2.12486

> <r_epik_Ionization_Penalty_Neutral>
9.0873e-08

> <r_epik_State_Penalty>
2.26279

> <r_epik_Charging_Adjusted_Penalty>
4.38765

> <i_epik_Tot_Q>
1

> <i_epik_Tot_abs_Q>
1

> <r_epik_Metal_State_Penalty>
2.27914

> <b_epik_Metal_Only>
0

> <s_lp_Force_Field>
OPLS_2005

> <r_lp_Energy>
26.1393

> <b_lp_Chiralities_Consistent>
1

> <s_lp_Variant>
AV-unprocessed.smi:653-8

> <Gold.Version>
5.8.1

> <Gold.Id.Protein>
6NUR|6NUR_protein|mol2

> <Gold.PLP.Fitness>
45.2327

> <Gold.PLP.PLP>
-34.6721

> <Gold.PLP.part.hbond>
-2.8108

> <Gold.PLP.part.metal>
0.0000

> <Gold.PLP.part.buried>
-0.6991

> <Gold.PLP.part.nonpolar>
-31.4134

> <Gold.PLP.part.repulsive>
0.8951

> <Gold.PLP.ligand.clash>
0.0000

> <Gold.PLP.ligand.torsion>
0.4607

> <Gold.PLP.Chemscore.Hbond>
3.8160

> <Gold.PLP.Chemscore.CHOScore>
0.0000

> <Gold.PLP.Chemscore.Metal>
0.0000

> <Gold.Chemscore.Hbonds>
donor molecule, donor type, donor heavy atom, donor atom, acceptor molecule, acceptor atom, score
      L1  H     9    28       P1  7948  0.80
      L1  H    20    45       P1 10186  2.00
      P1  H  7989  7998       L1    14  0.41

> <Gold.PLP.Chemscore.Internal.Correction>
0.0339

> <Gold.Rescore>
     Score         DG    S(hbond)    S(metal)    S(lipo)     H(rot)  DE(clash)    DE(int)     intcor
     19.73     -21.97       2.87        0.00      93.25       1.57       1.78       0.45       ----

> <Gold.Chemscore.Fitness>
19.7334

> <Gold.Chemscore.DG>
-21.9674

> <Gold.Chemscore.ZeroCoef>
-5.4800

> <Gold.Chemscore.Hbond>
2.8732

> <Gold.Chemscore.Metal>
0.0000

> <Gold.Chemscore.Lipo>
93.2516

> <Gold.Chemscore.Internal_Hbond>
0.0000

> <Gold.Chemscore.DEClash>
1.7836

> <Gold.Chemscore.DEInternal>
0.4504

> <Gold.Chemscore.Rot>
1.5701

> <Gold.Chemscore.Internal.Correction>
   9.000000E+99

> <Gold.Chemscore.Hbonds>
donor molecule, donor type, donor heavy atom, donor atom, acceptor molecule, acceptor atom, score
      L1  H     9    28       P1  7948  0.80
      L1  H    20    45       P1 10186  0.96
      P1  H  7989  7998       L1    14  0.04

> <Gold.Chemscore.Hbond.Weighted>
-9.5965

> <Gold.Chemscore.Metal.Weighted>
-0.0000

> <Gold.Chemscore.Lipo.Weighted>
-10.9104

> <Gold.Chemscore.Internal_Hbond.Weighted>
0.0000

> <Gold.Chemscore.DEClash.Weighted>
1.7836

> <Gold.Chemscore.DEInternal.Weighted>
0.4504

> <Gold.Chemscore.Rot.Weighted>
4.0196

> <Gold.Chemscore.Internal.Correction.Weighted>
   9.000000E+99

> <Gold.Protein.RotatedTorsions>
[ 6907 6896 6895 6894 ] final -145.86 input  -60.11 | X-H torsion
[ 7974 7965 7964 7962 ] final   74.95 input  175.53 | X-H torsion
[ 8008 7997 7996 7995 ] final  -81.30 input   59.86 | X-H torsion
[ 10167 10162 10161 10158 ] final   22.45 input  -65.29 | X-H torsion
[ 10718 10713 10712 10709 ] final  117.24 input   66.30 | X-H torsion
[ 10763 10752 10751 10750 ] final  173.09 input  -60.55 | X-H torsion
[ 11005 11000 10999 10996 ] final   31.08 input  -57.11 | X-H torsion

> <Gold.Protein.ActiveResidues>
 VAL166  LYS551  ARG553  GLY616  TRP617  ASP618  TYR619  PRO620  LYS621  CYS622 
 ASP623  PHE694  ASN695  SER759  ASP760  ASP761  ALA762  ILE779  LEU786  VAL792 
 PHE793  MET794  SER795  GLU796  ALA797  LYS798  CYS799  TRP800  GLU811  SER814 

> <Gold.Protein.RotatedAtoms>
  151.1336  133.5019  159.2598 H   0  0  0  0  0  0  0  0  0  0  0  0  # atno 6907 bound_to 6896
  151.1730  135.0326  159.8770 H   0  0  0  0  0  0  0  0  0  0  0  0  # atno 6908 bound_to 6896
  152.5460  134.1197  159.8447 H   0  0  0  0  0  0  0  0  0  0  0  0  # atno 6909 bound_to 6896
  145.7217  139.2651  143.1592 H   0  0  0  0  0  0  0  0  0  0  0  0  # atno 7974 bound_to 7965
  154.5970  140.0650  156.9317 H   0  0  0  0  0  0  0  0  0  0  0  0  # atno 8008 bound_to 7997
  155.2197  140.3329  155.4299 H   0  0  0  0  0  0  0  0  0  0  0  0  # atno 8009 bound_to 7997
  156.2293  140.1834  156.7266 H   0  0  0  0  0  0  0  0  0  0  0  0  # atno 8010 bound_to 7997
  140.5347  143.9780  150.6485 H   0  0  0  0  0  0  0  0  0  0  0  0  # atno 10167 bound_to 10162
  157.6109  131.1035  150.7587 H   0  0  0  0  0  0  0  0  0  0  0  0  # atno 10718 bound_to 10713
  154.4352  135.2760  155.1885 H   0  0  0  0  0  0  0  0  0  0  0  0  # atno 10763 bound_to 10752
  154.3774  135.6095  153.5776 H   0  0  0  0  0  0  0  0  0  0  0  0  # atno 10764 bound_to 10752
  152.9838  135.5872  154.4670 H   0  0  0  0  0  0  0  0  0  0  0  0  # atno 10765 bound_to 10752
  140.2877  134.2900  155.7784 H   0  0  0  0  0  0  0  0  0  0  0  0  # atno 11005 bound_to 11000
  146.0619  140.7961  142.9730 LP  0  0  0  0  0  0  0  0  0  0  0  0  # atno 17320 bound_to 7965
  144.6915  140.3210  143.7232 LP  0  0  0  0  0  0  0  0  0  0  0  0  # atno 17321 bound_to 7965
  140.3165  143.3164  152.0827 LP  0  0  0  0  0  0  0  0  0  0  0  0  # atno 17342 bound_to 10162
  139.4967  144.6602  151.6482 LP  0  0  0  0  0  0  0  0  0  0  0  0  # atno 17343 bound_to 10162
  156.7965  130.4907  149.5376 LP  0  0  0  0  0  0  0  0  0  0  0  0  # atno 17370 bound_to 10713
  156.1211  130.6111  151.0195 LP  0  0  0  0  0  0  0  0  0  0  0  0  # atno 17371 bound_to 10713
  141.2152  133.7565  156.9577 LP  0  0  0  0  0  0  0  0  0  0  0  0  # atno 17394 bound_to 11000
  140.1224  134.9408  157.2223 LP  0  0  0  0  0  0  0  0  0  0  0  0  # atno 17395 bound_to 11000

$$$$
