AV-unprocessed.smi:2049|AV-procd|sdf|8322|dock3
  -GOLD-   2272010583D 1   1.00000     0.00000
 Structure written by MMmdl.
 51 53  0  0  0  0  0  0  0  0  2 V2000
  150.3396  136.5696  156.4566 O   0  0  0  0  0  0  0  0  0  0  0  0
  150.1959  136.6806  155.2396 C   0  0  0  0  0  0  0  0  0  0  0  0
  151.0233  137.7037  154.4551 C   0  0  0  0  0  0  0  0  0  0  0  0
  150.7888  139.0699  154.9477 N   0  0  0  0  0  0  0  0  0  0  0  0
  149.6932  139.7750  154.4219 C   0  0  0  0  0  0  0  0  0  0  0  0
  149.4323  141.0309  154.8123 C   0  0  0  0  0  0  0  0  0  0  0  0
  150.3473  141.6101  155.8048 C   0  0  0  0  0  0  0  0  0  0  0  0
  151.3476  140.9703  156.2854 N   0  0  0  0  0  0  0  0  0  0  0  0
  151.6199  139.6526  155.8736 C   0  0  0  0  0  0  0  0  0  0  0  0
  152.5836  139.0339  156.3274 O   0  0  0  0  0  0  0  0  0  0  0  0
  149.3216  135.9575  154.5256 N   0  0  0  0  0  0  0  0  0  0  0  0
  148.3302  135.0333  155.0722 C   0  0  0  0  0  0  0  0  0  0  0  0
  147.8269  133.9772  154.0291 C   0  0  0  0  0  0  0  0  0  0  0  0
  147.0225  134.6984  152.9668 N   0  3  0  0  0  0  0  0  0  0  0  0
  146.4625  133.8225  151.8973 C   0  0  0  0  0  0  0  0  0  0  0  0
  145.8574  134.6630  150.7642 C   0  0  0  0  0  0  0  0  0  0  0  0
  144.8259  135.4800  151.2955 O   0  0  0  0  0  0  0  0  0  0  0  0
  145.3342  136.4002  152.2491 C   0  0  0  0  0  0  0  0  0  0  0  0
  145.9729  135.6508  153.4331 C   0  0  0  0  0  0  0  0  0  0  0  0
  149.0510  133.2389  153.4096 C   0  0  0  0  0  0  0  0  0  0  0  0
  149.8340  132.3816  154.4239 C   0  0  0  0  0  0  0  0  0  0  0  0
  148.9302  131.3622  155.1303 C   0  0  0  0  0  0  0  0  0  0  0  0
  147.7201  132.0452  155.7810 C   0  0  0  0  0  0  0  0  0  0  0  0
  146.9557  132.8940  154.7485 C   0  0  0  0  0  0  0  0  0  0  0  0
  152.0764  137.4315  154.5397 H   0  0  0  0  0  0  0  0  0  0  0  0
  150.7937  137.6463  153.3891 H   0  0  0  0  0  0  0  0  0  0  0  0
  149.0991  139.2422  153.6938 H   0  0  0  0  0  0  0  0  0  0  0  0
  148.6112  141.6297  154.4467 H   0  0  0  0  0  0  0  0  0  0  0  0
  150.1178  142.6342  156.1103 H   0  0  0  0  0  0  0  0  0  0  0  0
  149.3045  136.1007  153.5264 H   0  0  0  0  0  0  0  0  0  0  0  0
  148.8029  134.5319  155.9158 H   0  0  0  0  0  0  0  0  0  0  0  0
  147.5152  135.5921  155.5288 H   0  0  0  0  0  0  0  0  0  0  0  0
  147.2260  133.1752  151.4703 H   0  0  0  0  0  0  0  0  0  0  0  0
  145.6857  133.1761  152.3070 H   0  0  0  0  0  0  0  0  0  0  0  0
  146.6195  135.2736  150.2766 H   0  0  0  0  0  0  0  0  0  0  0  0
  145.4319  134.0122  150.0000 H   0  0  0  0  0  0  0  0  0  0  0  0
  146.0570  137.0655  151.7748 H   0  0  0  0  0  0  0  0  0  0  0  0
  144.5157  137.0279  152.6022 H   0  0  0  0  0  0  0  0  0  0  0  0
  145.2060  135.1178  153.9960 H   0  0  0  0  0  0  0  0  0  0  0  0
  146.3880  136.4188  154.0824 H   0  0  0  0  0  0  0  0  0  0  0  0
  148.7203  132.5914  152.5972 H   0  0  0  0  0  0  0  0  0  0  0  0
  149.7483  133.9486  152.9645 H   0  0  0  0  0  0  0  0  0  0  0  0
  150.6415  131.8572  153.9119 H   0  0  0  0  0  0  0  0  0  0  0  0
  150.3156  133.0208  155.1639 H   0  0  0  0  0  0  0  0  0  0  0  0
  148.5837  130.6234  154.4065 H   0  0  0  0  0  0  0  0  0  0  0  0
  149.4996  130.8144  155.8817 H   0  0  0  0  0  0  0  0  0  0  0  0
  147.0537  131.2850  156.1896 H   0  0  0  0  0  0  0  0  0  0  0  0
  148.0355  132.6450  156.6333 H   0  0  0  0  0  0  0  0  0  0  0  0
  146.0740  133.3409  155.2073 H   0  0  0  0  0  0  0  0  0  0  0  0
  146.5827  132.1680  154.0280 H   0  0  0  0  0  0  0  0  0  0  0  0
  147.7009  135.2853  152.5018 H   0  0  0  0  0  0  0  0  0  0  0  0
  1  2  2  0  0  0  0
  2  3  1  0  0  0  0
  2 11  1  0  0  0  0
  3  4  1  0  0  0  0
  3 25  1  0  0  0  0
  3 26  1  0  0  0  0
  4  9  1  0  0  0  0
  4  5  1  0  0  0  0
  5  6  2  0  0  0  0
  5 27  1  0  0  0  0
  6  7  1  0  0  0  0
  6 28  1  0  0  0  0
  7  8  2  0  0  0  0
  7 29  1  0  0  0  0
  8  9  1  0  0  0  0
  9 10  2  0  0  0  0
 11 12  1  0  0  0  0
 11 30  1  0  0  0  0
 12 13  1  0  0  0  0
 12 31  1  0  0  0  0
 12 32  1  0  0  0  0
 13 24  1  0  0  0  0
 13 14  1  0  0  0  0
 13 20  1  0  0  0  0
 14 19  1  0  0  0  0
 14 15  1  0  0  0  0
 14 51  1  0  0  0  0
 15 16  1  0  0  0  0
 15 33  1  0  0  0  0
 15 34  1  0  0  0  0
 16 17  1  0  0  0  0
 16 35  1  0  0  0  0
 16 36  1  0  0  0  0
 17 18  1  0  0  0  0
 18 19  1  0  0  0  0
 18 37  1  0  0  0  0
 18 38  1  0  0  0  0
 19 39  1  0  0  0  0
 19 40  1  0  0  0  0
 20 21  1  0  0  0  0
 20 41  1  0  0  0  0
 20 42  1  0  0  0  0
 21 22  1  0  0  0  0
 21 43  1  0  0  0  0
 21 44  1  0  0  0  0
 22 23  1  0  0  0  0
 22 45  1  0  0  0  0
 22 46  1  0  0  0  0
 23 24  1  0  0  0  0
 23 47  1  0  0  0  0
 23 48  1  0  0  0  0
 24 49  1  0  0  0  0
 24 50  1  0  0  0  0
M  CHG  1  14   1
M  END
> <s_m_source_file>
AV-unprocessed.smi

> <i_m_source_file_index>
2049

> <i_lp_mmshare_version>
43012

> <i_f3d_flags>
0

> <s_epik_input>
Tz1jMW5bY0hdW2NIXVtjSF1uMVtDSDJdQyg9TylbTkhdW0NIMl1DMihbQ0gyXVtDSDJdW0NIMl1bQ0gyXVtDSDJdMilOM1tDSDJdW0NIMl1PW0NIMl1bQ0gyXTM=

> <s_epik_cmdline>
J2VwaWtfcHl0aG9uJywgJy1waCcsICc3LjAnLCAnLXRuJywgJzgnLCAnLW1hJywgJzIwMCcsICctbWV0YWxfYmluZGluZycsICctaW1hZScsICc8aW5maWxlLm1hZT4nLCAnLW9tYWUnLCAnPG91dGZpbGUubWFlPic=

> <r_lp_tautomer_probability>
1

> <r_epik_Ionization_Penalty>
0.40042

> <r_epik_Ionization_Penalty_Charging>
0.400415

> <r_epik_Ionization_Penalty_Neutral>
5.09538e-06

> <r_epik_State_Penalty>
0.399732

> <r_epik_Charging_Adjusted_Penalty>
0.800147

> <i_epik_Tot_Q>
1

> <i_epik_Tot_abs_Q>
1

> <r_epik_Metal_State_Penalty>
0.399734

> <b_epik_Metal_Only>
0

> <s_lp_Force_Field>
OPLS_2005

> <r_lp_Energy>
43.1449

> <b_lp_Chiralities_Consistent>
1

> <s_lp_Variant>
AV-unprocessed.smi:2049-1

> <Gold.Version>
5.8.1

> <Gold.Id.Protein>
6NUR|6NUR_protein|mol2

> <Gold.PLP.Fitness>
53.0553

> <Gold.PLP.PLP>
-37.7492

> <Gold.PLP.part.hbond>
-3.0000

> <Gold.PLP.part.metal>
0.0000

> <Gold.PLP.part.buried>
-2.6598

> <Gold.PLP.part.nonpolar>
-30.9412

> <Gold.PLP.part.repulsive>
0.2570

> <Gold.PLP.ligand.clash>
0.0000

> <Gold.PLP.ligand.torsion>
0.6435

> <Gold.PLP.Chemscore.Hbond>
4.0000

> <Gold.PLP.Chemscore.CHOScore>
1.4865

> <Gold.PLP.Chemscore.Metal>
0.0000

> <Gold.Chemscore.Hbonds>
donor molecule, donor type, donor heavy atom, donor atom, acceptor molecule, acceptor atom, score
      L1  H    11    30       P1  7948  1.00
      L1  H    14    51       P1  7948  2.00
      P1  H  7997  8010       L1    10  0.93
      L1  C     5    27       P1  7957  0.37
      L1  C     7    29       P1  8028  1.00

> <Gold.PLP.Chemscore.Internal.Correction>
0.1335

> <Gold.Rescore>
     Score         DG    S(hbond)    S(metal)    S(lipo)     H(rot)  DE(clash)    DE(int)     intcor
     18.41     -19.04       2.93        0.00      76.32       2.02       0.05       0.59       ----

> <Gold.Chemscore.Fitness>
18.4052

> <Gold.Chemscore.DG>
-19.0419

> <Gold.Chemscore.ZeroCoef>
-5.4800

> <Gold.Chemscore.Hbond>
2.9322

> <Gold.Chemscore.Metal>
0.0000

> <Gold.Chemscore.Lipo>
76.3216

> <Gold.Chemscore.Internal_Hbond>
0.0000

> <Gold.Chemscore.DEClash>
0.0464

> <Gold.Chemscore.DEInternal>
0.5903

> <Gold.Chemscore.Rot>
2.0162

> <Gold.Chemscore.Internal.Correction>
   9.000000E+99

> <Gold.Chemscore.Hbonds>
donor molecule, donor type, donor heavy atom, donor atom, acceptor molecule, acceptor atom, score
      L1  H    11    30       P1  7948  0.74
      L1  H    14    51       P1  7948  1.00
      P1  H  7997  8010       L1    10  0.80

> <Gold.Chemscore.Hbond.Weighted>
-9.7937

> <Gold.Chemscore.Metal.Weighted>
-0.0000

> <Gold.Chemscore.Lipo.Weighted>
-8.9296

> <Gold.Chemscore.Internal_Hbond.Weighted>
0.0000

> <Gold.Chemscore.DEClash.Weighted>
0.0464

> <Gold.Chemscore.DEInternal.Weighted>
0.5903

> <Gold.Chemscore.Rot.Weighted>
5.1614

> <Gold.Chemscore.Internal.Correction.Weighted>
   9.000000E+99

> <Gold.Protein.RotatedTorsions>
[ 6907 6896 6895 6894 ] final  -21.12 input  -60.11 | X-H torsion
[ 7974 7965 7964 7962 ] final   21.52 input  175.53 | X-H torsion
[ 8008 7997 7996 7995 ] final   74.85 input   59.86 | X-H torsion
[ 10167 10162 10161 10158 ] final    9.98 input  -65.29 | X-H torsion
[ 10718 10713 10712 10709 ] final  157.74 input   66.30 | X-H torsion
[ 10763 10752 10751 10750 ] final  -13.26 input  -60.55 | X-H torsion
[ 11005 11000 10999 10996 ] final  -71.73 input  -57.11 | X-H torsion

> <Gold.Protein.ActiveResidues>
 VAL166  LYS551  ARG553  GLY616  TRP617  ASP618  TYR619  PRO620  LYS621  CYS622 
 ASP623  PHE694  ASN695  SER759  ASP760  ASP761  ALA762  ILE779  LEU786  VAL792 
 PHE793  MET794  SER795  GLU796  ALA797  LYS798  CYS799  TRP800  GLU811  SER814 

> <Gold.Protein.RotatedAtoms>
  151.2380  135.0578  159.9013 H   0  0  0  0  0  0  0  0  0  0  0  0  # atno 6907 bound_to 6896
  152.5397  134.0465  159.8101 H   0  0  0  0  0  0  0  0  0  0  0  0  # atno 6908 bound_to 6896
  151.0655  133.5460  159.2662 H   0  0  0  0  0  0  0  0  0  0  0  0  # atno 6909 bound_to 6896
  146.2068  139.8016  142.8720 H   0  0  0  0  0  0  0  0  0  0  0  0  # atno 7974 bound_to 7965
  155.8043  140.3475  155.5421 H   0  0  0  0  0  0  0  0  0  0  0  0  # atno 8008 bound_to 7997
  155.8506  140.0955  157.1697 H   0  0  0  0  0  0  0  0  0  0  0  0  # atno 8009 bound_to 7997
  154.4007  140.1377  156.3827 H   0  0  0  0  0  0  0  0  0  0  0  0  # atno 8010 bound_to 7997
  140.6222  143.8179  150.7189 H   0  0  0  0  0  0  0  0  0  0  0  0  # atno 10167 bound_to 10162
  157.1873  131.0646  151.2099 H   0  0  0  0  0  0  0  0  0  0  0  0  # atno 10718 bound_to 10713
  153.5107  135.7016  153.5782 H   0  0  0  0  0  0  0  0  0  0  0  0  # atno 10763 bound_to 10752
  153.3874  135.3904  155.1899 H   0  0  0  0  0  0  0  0  0  0  0  0  # atno 10764 bound_to 10752
  154.8703  135.3850  154.4587 H   0  0  0  0  0  0  0  0  0  0  0  0  # atno 10765 bound_to 10752
  141.1597  133.6826  156.6950 H   0  0  0  0  0  0  0  0  0  0  0  0  # atno 11005 bound_to 11000
  145.3290  141.0262  143.3457 LP  0  0  0  0  0  0  0  0  0  0  0  0  # atno 17320 bound_to 7965
  144.8812  139.4901  143.6722 LP  0  0  0  0  0  0  0  0  0  0  0  0  # atno 17321 bound_to 7965
  140.1772  143.4145  152.1959 LP  0  0  0  0  0  0  0  0  0  0  0  0  # atno 17342 bound_to 10162
  139.5449  144.7289  151.4616 LP  0  0  0  0  0  0  0  0  0  0  0  0  # atno 17343 bound_to 10162
  157.3894  130.7274  149.6687 LP  0  0  0  0  0  0  0  0  0  0  0  0  # atno 17370 bound_to 10713
  155.9716  130.4150  150.4162 LP  0  0  0  0  0  0  0  0  0  0  0  0  # atno 17371 bound_to 10713
  140.3001  134.8170  157.4091 LP  0  0  0  0  0  0  0  0  0  0  0  0  # atno 17394 bound_to 11000
  140.1269  134.5146  155.8137 LP  0  0  0  0  0  0  0  0  0  0  0  0  # atno 17395 bound_to 11000

$$$$
