AV-unprocessed.smi:734|AV-procd|sdf|3530|dock2
  -GOLD-   22720 0523D 1   1.00000     0.00000
 Structure written by MMmdl.
 39 40  0  0  0  0  0  0  0  0  2 V2000
  151.5919  140.7375  159.1492 C   0  0  0  0  0  0  0  0  0  0  0  0
  151.9172  141.4994  157.8561 C   0  0  0  0  0  0  0  0  0  0  0  0
  151.3591  142.9302  157.8437 C   0  0  0  0  0  0  0  0  0  0  0  0
  151.5241  140.7299  156.6334 C   0  0  0  0  0  0  0  0  0  0  0  0
  152.4166  140.2309  155.7675 N   0  0  0  0  0  0  0  0  0  0  0  0
  151.8132  139.5564  154.7162 N   0  0  0  0  0  0  0  0  0  0  0  0
  150.4775  139.5618  154.8198 C   0  0  0  0  0  0  0  0  0  0  0  0
  149.6114  138.9445  153.8781 N   0  0  0  0  0  0  0  0  0  0  0  0
  148.3412  139.2702  153.5795 C   0  0  0  0  0  0  0  0  0  0  0  0
  147.7047  140.1947  154.0849 O   0  0  0  0  0  0  0  0  0  0  0  0
  147.8338  138.4527  152.6455 N   0  0  0  0  0  0  0  0  0  0  0  0
  146.4981  138.5687  152.0636 C   0  0  0  0  0  0  0  0  0  0  0  0
  145.5578  137.4025  152.4387 C   0  0  0  0  0  0  0  0  0  0  0  0
  146.0500  136.0859  151.9683 N   0  3  0  0  0  0  0  0  0  0  0  0
  145.4517  135.6123  150.6878 C   0  0  0  0  0  0  0  0  0  0  0  0
  145.3033  134.1331  150.9062 C   0  0  0  0  0  0  0  0  0  0  0  0
  145.5760  133.7979  152.1624 C   0  0  0  0  0  0  0  0  0  0  0  0
  145.9505  135.0000  152.9831 C   0  0  0  0  0  0  0  0  0  0  0  0
  149.8428  140.4067  156.2210 S   0  0  0  0  0  0  0  0  0  0  0  0
  152.0700  139.7575  159.1583 H   0  0  0  0  0  0  0  0  0  0  0  0
  150.5177  140.5858  159.2607 H   0  0  0  0  0  0  0  0  0  0  0  0
  151.9420  141.2838  160.0252 H   0  0  0  0  0  0  0  0  0  0  0  0
  153.0033  141.5946  157.8230 H   0  0  0  0  0  0  0  0  0  0  0  0
  151.6819  143.4695  156.9525 H   0  0  0  0  0  0  0  0  0  0  0  0
  151.7015  143.4929  158.7124 H   0  0  0  0  0  0  0  0  0  0  0  0
  150.2686  142.9313  157.8568 H   0  0  0  0  0  0  0  0  0  0  0  0
  150.0104  138.1708  153.3673 H   0  0  0  0  0  0  0  0  0  0  0  0
  148.4284  137.7233  152.2788 H   0  0  0  0  0  0  0  0  0  0  0  0
  146.0513  139.5193  152.3587 H   0  0  0  0  0  0  0  0  0  0  0  0
  146.6145  138.6129  150.9806 H   0  0  0  0  0  0  0  0  0  0  0  0
  145.4576  137.3609  153.5241 H   0  0  0  0  0  0  0  0  0  0  0  0
  144.5558  137.5853  152.0480 H   0  0  0  0  0  0  0  0  0  0  0  0
  144.4708  136.0519  150.5015 H   0  0  0  0  0  0  0  0  0  0  0  0
  146.1090  135.8305  149.8460 H   0  0  0  0  0  0  0  0  0  0  0  0
  144.9900  133.4549  150.1258 H   0  0  0  0  0  0  0  0  0  0  0  0
  145.5218  132.8012  152.5754 H   0  0  0  0  0  0  0  0  0  0  0  0
  146.9019  134.8575  153.4962 H   0  0  0  0  0  0  0  0  0  0  0  0
  145.1703  135.1943  153.7205 H   0  0  0  0  0  0  0  0  0  0  0  0
  147.0383  136.1919  151.7891 H   0  0  0  0  0  0  0  0  0  0  0  0
  1  2  1  0  0  0  0
  1 20  1  0  0  0  0
  1 21  1  0  0  0  0
  1 22  1  0  0  0  0
  2  3  1  0  0  0  0
  2  4  1  0  0  0  0
  2 23  1  0  0  0  0
  3 24  1  0  0  0  0
  3 25  1  0  0  0  0
  3 26  1  0  0  0  0
  4 19  1  0  0  0  0
  4  5  2  0  0  0  0
  5  6  1  0  0  0  0
  6  7  2  0  0  0  0
  7  8  1  0  0  0  0
  7 19  1  0  0  0  0
  8  9  1  0  0  0  0
  8 27  1  0  0  0  0
  9 10  2  0  0  0  0
  9 11  1  0  0  0  0
 11 12  1  0  0  0  0
 11 28  1  0  0  0  0
 12 13  1  0  0  0  0
 12 29  1  0  0  0  0
 12 30  1  0  0  0  0
 13 14  1  0  0  0  0
 13 31  1  0  0  0  0
 13 32  1  0  0  0  0
 14 18  1  0  0  0  0
 14 15  1  0  0  0  0
 14 39  1  0  0  0  0
 15 16  1  0  0  0  0
 15 33  1  0  0  0  0
 15 34  1  0  0  0  0
 16 17  2  0  0  0  0
 16 35  1  0  0  0  0
 17 18  1  0  0  0  0
 17 36  1  0  0  0  0
 18 37  1  0  0  0  0
 18 38  1  0  0  0  0
M  CHG  1  14   1
M  END
> <s_m_source_file>
AV-unprocessed.smi

> <i_m_source_file_index>
734

> <i_lp_mmshare_version>
43012

> <i_f3d_flags>
0

> <s_epik_input>
W0NIM11bQ0hdKFtDSDNdKWMxbm5jKHMxKVtOSF1DKD1PKVtOSF1bQ0gyXVtDSDJdTjJbQ0gyXVtDSF09W0NIXVtDSDJdMg==

> <s_epik_cmdline>
J2VwaWtfcHl0aG9uJywgJy1waCcsICc3LjAnLCAnLXRuJywgJzgnLCAnLW1hJywgJzIwMCcsICctbWV0YWxfYmluZGluZycsICctaW1hZScsICc8aW5maWxlLm1hZT4nLCAnLW9tYWUnLCAnPG91dGZpbGUubWFlPic=

> <r_lp_tautomer_probability>
1

> <r_epik_Ionization_Penalty>
0.00760515

> <r_epik_Ionization_Penalty_Charging>
0.00331807

> <r_epik_Ionization_Penalty_Neutral>
0.00428708

> <r_epik_State_Penalty>
0.0025644

> <r_epik_Charging_Adjusted_Penalty>
0.00588246

> <i_epik_Tot_Q>
1

> <i_epik_Tot_abs_Q>
1

> <r_epik_Metal_State_Penalty>
0.375529

> <b_epik_Metal_Only>
0

> <s_lp_Force_Field>
OPLS_2005

> <r_lp_Energy>
21.5214

> <b_lp_Chiralities_Consistent>
1

> <s_lp_Variant>
AV-unprocessed.smi:734-1

> <Gold.Version>
5.8.1

> <Gold.Id.Protein>
6NUR|6NUR_protein|mol2

> <Gold.PLP.Fitness>
44.3320

> <Gold.PLP.PLP>
-32.6138

> <Gold.PLP.part.hbond>
-6.4102

> <Gold.PLP.part.metal>
0.0000

> <Gold.PLP.part.buried>
-0.0364

> <Gold.PLP.part.nonpolar>
-26.1281

> <Gold.PLP.part.repulsive>
0.3870

> <Gold.PLP.ligand.clash>
0.0000

> <Gold.PLP.ligand.torsion>
0.8163

> <Gold.PLP.Chemscore.Hbond>
4.4000

> <Gold.PLP.Chemscore.CHOScore>
0.0000

> <Gold.PLP.Chemscore.Metal>
0.0000

> <Gold.Chemscore.Hbonds>
donor molecule, donor type, donor heavy atom, donor atom, acceptor molecule, acceptor atom, score
      L1  H    11    28       P1  7948  1.00
      L1  H    14    39       P1  7948  2.00
      P1  H  7989  7998       L1     6  0.40
      P1  H  7997  8008       L1     5  0.99

> <Gold.PLP.Chemscore.Internal.Correction>
0.1509

> <Gold.Rescore>
     Score         DG    S(hbond)    S(metal)    S(lipo)     H(rot)  DE(clash)    DE(int)     intcor
     16.92     -18.76       2.98        0.00      66.10       1.72       0.08       1.76       ----

> <Gold.Chemscore.Fitness>
16.9237

> <Gold.Chemscore.DG>
-18.7566

> <Gold.Chemscore.ZeroCoef>
-5.4800

> <Gold.Chemscore.Hbond>
2.9800

> <Gold.Chemscore.Metal>
0.0000

> <Gold.Chemscore.Lipo>
66.0994

> <Gold.Chemscore.Internal_Hbond>
0.0000

> <Gold.Chemscore.DEClash>
0.0778

> <Gold.Chemscore.DEInternal>
1.7551

> <Gold.Chemscore.Rot>
1.7227

> <Gold.Chemscore.Internal.Correction>
   9.000000E+99

> <Gold.Chemscore.Hbonds>
donor molecule, donor type, donor heavy atom, donor atom, acceptor molecule, acceptor atom, score
      L1  H    11    28       P1  7948  0.99
      L1  H    14    39       P1  7948  1.00
      P1  H  7997  8008       L1     5  0.84

> <Gold.Chemscore.Hbond.Weighted>
-9.9532

> <Gold.Chemscore.Metal.Weighted>
-0.0000

> <Gold.Chemscore.Lipo.Weighted>
-7.7336

> <Gold.Chemscore.Internal_Hbond.Weighted>
0.0000

> <Gold.Chemscore.DEClash.Weighted>
0.0778

> <Gold.Chemscore.DEInternal.Weighted>
1.7551

> <Gold.Chemscore.Rot.Weighted>
4.4102

> <Gold.Chemscore.Internal.Correction.Weighted>
   9.000000E+99

> <Gold.Protein.RotatedTorsions>
[ 6907 6896 6895 6894 ] final   22.99 input  -60.11 | X-H torsion
[ 7974 7965 7964 7962 ] final   60.61 input  175.53 | X-H torsion
[ 8008 7997 7996 7995 ] final  -46.38 input   59.86 | X-H torsion
[ 10167 10162 10161 10158 ] final  143.30 input  -65.29 | X-H torsion
[ 10718 10713 10712 10709 ] final  -30.96 input   66.30 | X-H torsion
[ 10763 10752 10751 10750 ] final   -3.67 input  -60.55 | X-H torsion
[ 11005 11000 10999 10996 ] final   36.62 input  -57.11 | X-H torsion

> <Gold.Protein.ActiveResidues>
 VAL166  LYS551  ARG553  GLY616  TRP617  ASP618  TYR619  PRO620  LYS621  CYS622 
 ASP623  PHE694  ASN695  SER759  ASP760  ASP761  ALA762  ILE779  LEU786  VAL792 
 PHE793  MET794  SER795  GLU796  ALA797  LYS798  CYS799  TRP800  GLU811  SER814 

> <Gold.Protein.RotatedAtoms>
  151.9355  135.0237  160.0531 H   0  0  0  0  0  0  0  0  0  0  0  0  # atno 6907 bound_to 6896
  152.2081  133.4886  159.5103 H   0  0  0  0  0  0  0  0  0  0  0  0  # atno 6908 bound_to 6896
  150.6970  134.1419  159.4151 H   0  0  0  0  0  0  0  0  0  0  0  0  # atno 6909 bound_to 6896
  145.8941  139.3532  143.0632 H   0  0  0  0  0  0  0  0  0  0  0  0  # atno 7974 bound_to 7965
  154.4007  140.1373  156.4002 H   0  0  0  0  0  0  0  0  0  0  0  0  # atno 8008 bound_to 7997
  155.7831  140.3481  155.5288 H   0  0  0  0  0  0  0  0  0  0  0  0  # atno 8009 bound_to 7997
  155.8654  140.0963  157.1576 H   0  0  0  0  0  0  0  0  0  0  0  0  # atno 8010 bound_to 7997
  139.4973  144.6050  151.6399 H   0  0  0  0  0  0  0  0  0  0  0  0  # atno 10167 bound_to 10162
  156.3932  130.4377  149.7378 H   0  0  0  0  0  0  0  0  0  0  0  0  # atno 10718 bound_to 10713
  153.3745  135.6996  153.6612 H   0  0  0  0  0  0  0  0  0  0  0  0  # atno 10763 bound_to 10752
  153.5248  135.3604  155.2649 H   0  0  0  0  0  0  0  0  0  0  0  0  # atno 10764 bound_to 10752
  154.8685  135.4166  154.3030 H   0  0  0  0  0  0  0  0  0  0  0  0  # atno 10765 bound_to 10752
  140.2307  134.3531  155.7965 H   0  0  0  0  0  0  0  0  0  0  0  0  # atno 11005 bound_to 11000
  145.8872  140.9326  143.0571 LP  0  0  0  0  0  0  0  0  0  0  0  0  # atno 17320 bound_to 7965
  144.6732  140.0858  143.7467 LP  0  0  0  0  0  0  0  0  0  0  0  0  # atno 17321 bound_to 7965
  140.5709  144.0110  150.6216 LP  0  0  0  0  0  0  0  0  0  0  0  0  # atno 17342 bound_to 10162
  140.3227  143.3127  152.0767 LP  0  0  0  0  0  0  0  0  0  0  0  0  # atno 17343 bound_to 10162
  156.4423  130.7867  151.2888 LP  0  0  0  0  0  0  0  0  0  0  0  0  # atno 17370 bound_to 10713
  157.7500  131.0121  150.3371 LP  0  0  0  0  0  0  0  0  0  0  0  0  # atno 17371 bound_to 10713
  141.2218  133.7244  156.8727 LP  0  0  0  0  0  0  0  0  0  0  0  0  # atno 17394 bound_to 11000
  140.1753  134.9071  157.2884 LP  0  0  0  0  0  0  0  0  0  0  0  0  # atno 17395 bound_to 11000

$$$$
