AV-unprocessed.smi:1701|AV-procd|sdf|6836|dock1
  -GOLD-   22720 8 13D 1   1.00000     0.00000
 Structure written by MMmdl.
 54 56  0  0  0  0  0  0  0  0  2 V2000
  152.1023  139.5457  158.4421 C   0  0  0  0  0  0  0  0  0  0  0  0
  151.9860  141.0531  158.1734 C   0  0  0  0  0  0  0  0  0  0  0  0
  150.9804  141.3802  157.1622 N   0  0  0  0  0  0  0  0  0  0  0  0
  150.8145  142.7761  156.7491 C   0  0  0  0  0  0  0  0  0  0  0  0
  151.3918  143.7772  157.7617 C   0  0  0  0  0  0  0  0  0  0  0  0
  150.2881  140.3525  156.4740 C   0  0  0  0  0  0  0  0  0  0  0  0
  149.3651  139.5007  157.1320 C   0  0  0  0  0  0  0  0  0  0  0  0
  148.7030  138.4966  156.4001 C   0  0  0  0  0  0  0  0  0  0  0  0
  148.9807  138.3560  155.0214 C   0  0  0  0  0  0  0  0  0  0  0  0
  148.3676  137.3987  154.1692 N   0  0  0  0  0  0  0  0  0  0  0  0
  147.1373  136.8554  154.2548 C   0  0  0  0  0  0  0  0  0  0  0  0
  146.3289  137.0853  155.1510 O   0  0  0  0  0  0  0  0  0  0  0  0
  146.8508  135.9848  153.2706 N   0  0  0  0  0  0  0  0  0  0  0  0
  145.6149  135.2266  153.0701 C   0  0  1  0  0  0  0  0  0  0  0  0
  144.3386  135.9963  153.4495 C   0  0  0  0  0  0  0  0  0  0  0  0
  143.3025  135.6343  152.3671 C   0  0  0  0  0  0  0  0  0  0  0  0
  143.9365  134.6203  151.4941 N   0  3  2  0  0  0  0  0  0  0  0  0
  143.5418  133.2341  151.8675 C   0  0  0  0  0  0  0  0  0  0  0  0
  144.3718  132.1778  151.1269 C   0  0  0  0  0  0  0  0  0  0  0  0
  145.8617  132.3803  151.4136 C   0  0  0  0  0  0  0  0  0  0  0  0
  146.2786  133.7911  150.9833 C   0  0  0  0  0  0  0  0  0  0  0  0
  145.3896  134.9000  151.5901 C   0  0  2  0  0  0  0  0  0  0  0  0
  149.9015  139.2543  154.4498 C   0  0  0  0  0  0  0  0  0  0  0  0
  150.5375  140.2170  155.1482 N   0  0  0  0  0  0  0  0  0  0  0  0
  152.8208  139.3543  159.2391 H   0  0  0  0  0  0  0  0  0  0  0  0
  152.4466  139.0091  157.5588 H   0  0  0  0  0  0  0  0  0  0  0  0
  151.1481  139.1158  158.7469 H   0  0  0  0  0  0  0  0  0  0  0  0
  151.7856  141.5936  159.0983 H   0  0  0  0  0  0  0  0  0  0  0  0
  152.9528  141.4263  157.8346 H   0  0  0  0  0  0  0  0  0  0  0  0
  151.2627  142.9325  155.7675 H   0  0  0  0  0  0  0  0  0  0  0  0
  149.7519  142.9819  156.6183 H   0  0  0  0  0  0  0  0  0  0  0  0
  151.2377  144.7998  157.4172 H   0  0  0  0  0  0  0  0  0  0  0  0
  152.4638  143.6359  157.8994 H   0  0  0  0  0  0  0  0  0  0  0  0
  150.9159  143.6851  158.7369 H   0  0  0  0  0  0  0  0  0  0  0  0
  149.1512  139.5890  158.1858 H   0  0  0  0  0  0  0  0  0  0  0  0
  147.9906  137.8679  156.9105 H   0  0  0  0  0  0  0  0  0  0  0  0
  148.9530  137.0495  153.4247 H   0  0  0  0  0  0  0  0  0  0  0  0
  147.5863  135.8131  152.6001 H   0  0  0  0  0  0  0  0  0  0  0  0
  145.6575  134.2951  153.6370 H   0  0  0  0  0  0  0  0  0  0  0  0
  143.9953  135.7132  154.4452 H   0  0  0  0  0  0  0  0  0  0  0  0
  144.5067  137.0744  153.4562 H   0  0  0  0  0  0  0  0  0  0  0  0
  142.3578  135.2914  152.7917 H   0  0  0  0  0  0  0  0  0  0  0  0
  143.0831  136.5157  151.7633 H   0  0  0  0  0  0  0  0  0  0  0  0
  143.6543  133.0920  152.9437 H   0  0  0  0  0  0  0  0  0  0  0  0
  142.4832  133.0949  151.6451 H   0  0  0  0  0  0  0  0  0  0  0  0
  144.0652  131.1790  151.4392 H   0  0  0  0  0  0  0  0  0  0  0  0
  144.1849  132.2402  150.0540 H   0  0  0  0  0  0  0  0  0  0  0  0
  146.0631  132.2330  152.4752 H   0  0  0  0  0  0  0  0  0  0  0  0
  146.4528  131.6362  150.8790 H   0  0  0  0  0  0  0  0  0  0  0  0
  147.3252  133.9669  151.2340 H   0  0  0  0  0  0  0  0  0  0  0  0
  146.2175  133.8517  149.8960 H   0  0  0  0  0  0  0  0  0  0  0  0
  145.5674  135.8122  151.0164 H   0  0  0  0  0  0  0  0  0  0  0  0
  150.1404  139.1996  153.3978 H   0  0  0  0  0  0  0  0  0  0  0  0
  143.6404  134.7682  150.5395 H   0  0  0  0  0  0  0  0  0  0  0  0
  1  2  1  0  0  0  0
  1 25  1  0  0  0  0
  1 26  1  0  0  0  0
  1 27  1  0  0  0  0
  2  3  1  0  0  0  0
  2 28  1  0  0  0  0
  2 29  1  0  0  0  0
  3  4  1  0  0  0  0
  3  6  1  0  0  0  0
  4  5  1  0  0  0  0
  4 30  1  0  0  0  0
  4 31  1  0  0  0  0
  5 32  1  0  0  0  0
  5 33  1  0  0  0  0
  5 34  1  0  0  0  0
  6 24  1  0  0  0  0
  6  7  2  0  0  0  0
  7  8  1  0  0  0  0
  7 35  1  0  0  0  0
  8  9  2  0  0  0  0
  8 36  1  0  0  0  0
  9 10  1  0  0  0  0
  9 23  1  0  0  0  0
 10 11  1  0  0  0  0
 10 37  1  0  0  0  0
 11 12  2  0  0  0  0
 11 13  1  0  0  0  0
 13 14  1  0  0  0  0
 13 38  1  0  0  0  0
 14 22  1  0  0  0  0
 14 15  1  0  0  0  0
 14 39  1  0  0  0  0
 15 16  1  0  0  0  0
 15 40  1  0  0  0  0
 15 41  1  0  0  0  0
 16 17  1  0  0  0  0
 16 42  1  0  0  0  0
 16 43  1  0  0  0  0
 17 22  1  0  0  0  0
 17 18  1  0  0  0  0
 17 54  1  0  0  0  0
 18 19  1  0  0  0  0
 18 44  1  0  0  0  0
 18 45  1  0  0  0  0
 19 20  1  0  0  0  0
 19 46  1  0  0  0  0
 19 47  1  0  0  0  0
 20 21  1  0  0  0  0
 20 48  1  0  0  0  0
 20 49  1  0  0  0  0
 21 22  1  0  0  0  0
 21 50  1  0  0  0  0
 21 51  1  0  0  0  0
 22 52  1  0  0  0  0
 23 24  2  0  0  0  0
 23 53  1  0  0  0  0
M  CHG  1  17   1
M  END
> <s_m_source_file>
AV-unprocessed.smi

> <i_m_source_file_index>
1701

> <i_lp_mmshare_version>
43012

> <i_f3d_flags>
0

> <s_epik_input>
W0NIM11bQ0gyXU4oW0NIMl1bQ0gzXSljMVtjSF1bY0hdYyhbY0hdbjEpW05IXUMoPU8pW05IXVtDQEhdKFtDSDJdW0NIMl0yKVtDQEBIXShOMjMpW0NIMl1bQ0gyXVtDSDJdW0NIMl0z

> <s_epik_cmdline>
J2VwaWtfcHl0aG9uJywgJy1waCcsICc3LjAnLCAnLXRuJywgJzgnLCAnLW1hJywgJzIwMCcsICctbWV0YWxfYmluZGluZycsICctaW1hZScsICc8aW5maWxlLm1hZT4nLCAnLW9tYWUnLCAnPG91dGZpbGUubWFlPic=

> <r_lp_tautomer_probability>
1

> <r_epik_Ionization_Penalty>
0.56662

> <r_epik_Ionization_Penalty_Charging>
0.000974069

> <r_epik_Ionization_Penalty_Neutral>
0.565646

> <r_epik_State_Penalty>
2.0247

> <r_epik_Charging_Adjusted_Penalty>
2.02568

> <i_epik_Tot_Q>
1

> <i_epik_Tot_abs_Q>
1

> <r_epik_Metal_State_Penalty>
1.51504

> <b_epik_Metal_Only>
0

> <s_lp_Force_Field>
OPLS_2005

> <r_lp_Energy>
57.4509

> <b_lp_Chiralities_Consistent>
1

> <s_lp_Variant>
AV-unprocessed.smi:1701-16

> <Gold.Version>
5.8.1

> <Gold.Id.Protein>
6NUR|6NUR_protein|mol2

> <Gold.PLP.Fitness>
42.8365

> <Gold.PLP.PLP>
-35.6308

> <Gold.PLP.part.hbond>
-2.9233

> <Gold.PLP.part.metal>
0.0000

> <Gold.PLP.part.buried>
-4.5960

> <Gold.PLP.part.nonpolar>
-28.7943

> <Gold.PLP.part.repulsive>
0.0987

> <Gold.PLP.ligand.clash>
0.0000

> <Gold.PLP.ligand.torsion>
1.9630

> <Gold.PLP.Chemscore.Hbond>
2.6280

> <Gold.PLP.Chemscore.CHOScore>
1.0000

> <Gold.PLP.Chemscore.Metal>
0.0000

> <Gold.Chemscore.Hbonds>
donor molecule, donor type, donor heavy atom, donor atom, acceptor molecule, acceptor atom, score
      L1  H    10    37       P1  7948  0.91
      L1  H    13    38       P1  7948  1.00
      P1  H  7989  7998       L1    24  0.60
      L1  C    23    53       P1  7957  1.00

> <Gold.PLP.Chemscore.Internal.Correction>
0.2478

> <Gold.Rescore>
     Score         DG    S(hbond)    S(metal)    S(lipo)     H(rot)  DE(clash)    DE(int)     intcor
     17.07     -18.85       1.98        0.00      85.80       1.28       0.13       1.66       ----

> <Gold.Chemscore.Fitness>
17.0658

> <Gold.Chemscore.DG>
-18.8534

> <Gold.Chemscore.ZeroCoef>
-5.4800

> <Gold.Chemscore.Hbond>
1.9825

> <Gold.Chemscore.Metal>
0.0000

> <Gold.Chemscore.Lipo>
85.7986

> <Gold.Chemscore.Internal_Hbond>
0.0000

> <Gold.Chemscore.DEClash>
0.1303

> <Gold.Chemscore.DEInternal>
1.6573

> <Gold.Chemscore.Rot>
1.2838

> <Gold.Chemscore.Internal.Correction>
   9.000000E+99

> <Gold.Chemscore.Hbonds>
donor molecule, donor type, donor heavy atom, donor atom, acceptor molecule, acceptor atom, score
      L1  H    10    37       P1  7948  0.90
      L1  H    13    38       P1  7948  0.95
      P1  H  7989  7998       L1    24  0.06

> <Gold.Chemscore.Hbond.Weighted>
-6.6215

> <Gold.Chemscore.Metal.Weighted>
-0.0000

> <Gold.Chemscore.Lipo.Weighted>
-10.0384

> <Gold.Chemscore.Internal_Hbond.Weighted>
0.0000

> <Gold.Chemscore.DEClash.Weighted>
0.1303

> <Gold.Chemscore.DEInternal.Weighted>
1.6573

> <Gold.Chemscore.Rot.Weighted>
3.2865

> <Gold.Chemscore.Internal.Correction.Weighted>
   9.000000E+99

> <Gold.Protein.RotatedTorsions>
[ 6907 6896 6895 6894 ] final   61.01 input  -60.11 | X-H torsion
[ 7974 7965 7964 7962 ] final   50.18 input  175.53 | X-H torsion
[ 8008 7997 7996 7995 ] final  155.93 input   59.86 | X-H torsion
[ 10167 10162 10161 10158 ] final  173.49 input  -65.29 | X-H torsion
[ 10718 10713 10712 10709 ] final   37.44 input   66.30 | X-H torsion
[ 10763 10752 10751 10750 ] final  -82.64 input  -60.55 | X-H torsion
[ 11005 11000 10999 10996 ] final   99.33 input  -57.11 | X-H torsion

> <Gold.Protein.ActiveResidues>
 VAL166  LYS551  ARG553  GLY616  TRP617  ASP618  TYR619  PRO620  LYS621  CYS622 
 ASP623  PHE694  ASN695  SER759  ASP760  ASP761  ALA762  ILE779  LEU786  VAL792 
 PHE793  MET794  SER795  GLU796  ALA797  LYS798  CYS799  TRP800  GLU811  SER814 

> <Gold.Protein.RotatedAtoms>
  152.4052  134.6218  160.0052 H   0  0  0  0  0  0  0  0  0  0  0  0  # atno 6907 bound_to 6896
  151.6411  133.3320  159.3138 H   0  0  0  0  0  0  0  0  0  0  0  0  # atno 6908 bound_to 6896
  150.7948  134.7041  159.6611 H   0  0  0  0  0  0  0  0  0  0  0  0  # atno 6909 bound_to 6896
  146.0037  139.4467  142.9999 H   0  0  0  0  0  0  0  0  0  0  0  0  # atno 7974 bound_to 7965
  156.2451  140.1926  156.6878 H   0  0  0  0  0  0  0  0  0  0  0  0  # atno 8008 bound_to 7997
  154.6274  140.0600  156.9716 H   0  0  0  0  0  0  0  0  0  0  0  0  # atno 8009 bound_to 7997
  155.1765  140.3272  155.4385 H   0  0  0  0  0  0  0  0  0  0  0  0  # atno 8010 bound_to 7997
  139.5110  144.3254  152.0162 H   0  0  0  0  0  0  0  0  0  0  0  0  # atno 10167 bound_to 10162
  157.3469  130.7577  149.6951 H   0  0  0  0  0  0  0  0  0  0  0  0  # atno 10718 bound_to 10713
  154.5782  135.5584  153.7160 H   0  0  0  0  0  0  0  0  0  0  0  0  # atno 10763 bound_to 10752
  153.0072  135.6313  154.2019 H   0  0  0  0  0  0  0  0  0  0  0  0  # atno 10764 bound_to 10752
  154.1960  135.2880  155.2986 H   0  0  0  0  0  0  0  0  0  0  0  0  # atno 10765 bound_to 10752
  139.8771  134.9090  156.4590 H   0  0  0  0  0  0  0  0  0  0  0  0  # atno 11005 bound_to 11000
  145.7448  140.9994  143.1281 LP  0  0  0  0  0  0  0  0  0  0  0  0  # atno 17320 bound_to 7965
  144.6928  139.9143  143.7465 LP  0  0  0  0  0  0  0  0  0  0  0  0  # atno 17321 bound_to 7965
  140.2695  144.3980  150.6156 LP  0  0  0  0  0  0  0  0  0  0  0  0  # atno 17342 bound_to 10162
  140.6099  143.2169  151.6907 LP  0  0  0  0  0  0  0  0  0  0  0  0  # atno 17343 bound_to 10162
  155.9715  130.4151  150.4168 LP  0  0  0  0  0  0  0  0  0  0  0  0  # atno 17370 bound_to 10713
  157.2225  131.0485  151.2539 LP  0  0  0  0  0  0  0  0  0  0  0  0  # atno 17371 bound_to 10713
  140.8878  133.7871  155.9537 LP  0  0  0  0  0  0  0  0  0  0  0  0  # atno 17394 bound_to 11000
  140.8786  134.2639  157.5155 LP  0  0  0  0  0  0  0  0  0  0  0  0  # atno 17395 bound_to 11000

$$$$
