AV-unprocessed.smi:232|AV-procd|sdf|1769|dock5
  -GOLD-   2262020303D 1   1.00000     0.00000
 Structure written by MMmdl.
 52 55  0  0  0  0  0  0  0  0  1 V2000
  152.3744  144.6733  159.2876 C   0  0  0  0  0  0  0  0  0  0  0  0
  153.2650  143.4565  159.0086 C   0  0  0  0  0  0  0  0  0  0  0  0
  152.9904  142.2757  159.9621 C   0  0  2  0  0  0  0  0  0  0  0  0
  153.7619  142.3511  161.2860 C   0  0  0  0  0  0  0  0  0  0  0  0
  153.9836  140.8891  161.6902 C   0  0  0  0  0  0  0  0  0  0  0  0
  153.4025  140.0690  160.5308 C   0  0  2  0  0  0  0  0  0  0  0  0
  154.1801  138.7707  160.2555 C   0  0  0  0  0  0  0  0  0  0  0  0
  153.3744  140.9858  159.3969 N   0  0  0  0  0  0  0  0  0  0  0  0
  152.6562  140.5414  158.3374 C   0  0  0  0  0  0  0  0  0  0  0  0
  153.0342  139.4204  157.6669 N   0  0  0  0  0  0  0  0  0  0  0  0
  152.3272  139.0010  156.6130 C   0  0  0  0  0  0  0  0  0  0  0  0
  151.2359  139.5449  156.0692 N   0  0  0  0  0  0  0  0  0  0  0  0
  150.8589  140.6715  156.7396 C   0  0  0  0  0  0  0  0  0  0  0  0
  151.5060  141.2331  157.8748 C   0  0  0  0  0  0  0  0  0  0  0  0
  150.8394  142.3805  158.2860 N   0  0  0  0  0  0  0  0  0  0  0  0
  149.8546  142.4946  157.4364 C   0  0  0  0  0  0  0  0  0  0  0  0
  149.7940  141.5126  156.4733 N   0  0  0  0  0  0  0  0  0  0  0  0
  148.8175  141.3968  155.4050 C   0  0  0  0  0  0  0  0  0  0  0  0
  148.8939  140.0332  154.6913 C   0  0  2  0  0  0  0  0  0  0  0  0
  149.9920  139.9992  153.7988 O   0  0  0  0  0  0  0  0  0  0  0  0
  147.5856  139.6653  153.9625 C   0  0  2  0  0  0  0  0  0  0  0  0
  147.4810  138.2343  153.4276 C   0  0  0  0  0  0  0  0  0  0  0  0
  146.4384  138.4019  152.3450 C   0  0  0  0  0  0  0  0  0  0  0  0
  146.8092  139.7649  151.7652 C   0  0  0  0  0  0  0  0  0  0  0  0
  147.3272  140.5243  152.8543 O   0  0  0  0  0  0  0  0  0  0  0  0
  152.5773  145.4732  158.5753 H   0  0  0  0  0  0  0  0  0  0  0  0
  152.5446  145.0721  160.2879 H   0  0  0  0  0  0  0  0  0  0  0  0
  151.3188  144.4139  159.2042 H   0  0  0  0  0  0  0  0  0  0  0  0
  153.0995  143.1434  157.9772 H   0  0  0  0  0  0  0  0  0  0  0  0
  154.3138  143.7488  159.0718 H   0  0  0  0  0  0  0  0  0  0  0  0
  151.9250  142.2511  160.1976 H   0  0  0  0  0  0  0  0  0  0  0  0
  154.7277  142.8379  161.1441 H   0  0  0  0  0  0  0  0  0  0  0  0
  153.2147  142.9138  162.0429 H   0  0  0  0  0  0  0  0  0  0  0  0
  155.0510  140.7002  161.8133 H   0  0  0  0  0  0  0  0  0  0  0  0
  153.4931  140.6431  162.6325 H   0  0  0  0  0  0  0  0  0  0  0  0
  152.3719  139.8097  160.7809 H   0  0  0  0  0  0  0  0  0  0  0  0
  154.2206  138.1470  161.1487 H   0  0  0  0  0  0  0  0  0  0  0  0
  155.2051  138.9804  159.9482 H   0  0  0  0  0  0  0  0  0  0  0  0
  153.7100  138.1809  159.4684 H   0  0  0  0  0  0  0  0  0  0  0  0
  152.6906  138.1035  156.1346 H   0  0  0  0  0  0  0  0  0  0  0  0
  149.1433  143.3065  157.4852 H   0  0  0  0  0  0  0  0  0  0  0  0
  147.8256  141.5454  155.8333 H   0  0  0  0  0  0  0  0  0  0  0  0
  148.9774  142.2106  154.6965 H   0  0  0  0  0  0  0  0  0  0  0  0
  149.0823  139.2627  155.4399 H   0  0  0  0  0  0  0  0  0  0  0  0
  149.6909  139.6689  152.9663 H   0  0  0  0  0  0  0  0  0  0  0  0
  146.7566  139.8194  154.6552 H   0  0  0  0  0  0  0  0  0  0  0  0
  148.4179  137.8993  152.9814 H   0  0  0  0  0  0  0  0  0  0  0  0
  147.1913  137.5143  154.1934 H   0  0  0  0  0  0  0  0  0  0  0  0
  146.4553  137.6032  151.6029 H   0  0  0  0  0  0  0  0  0  0  0  0
  145.4416  138.4389  152.7867 H   0  0  0  0  0  0  0  0  0  0  0  0
  147.5945  139.6567  151.0162 H   0  0  0  0  0  0  0  0  0  0  0  0
  145.9610  140.2645  151.2967 H   0  0  0  0  0  0  0  0  0  0  0  0
  1  2  1  0  0  0  0
  1 26  1  0  0  0  0
  1 27  1  0  0  0  0
  1 28  1  0  0  0  0
  2  3  1  0  0  0  0
  2 29  1  0  0  0  0
  2 30  1  0  0  0  0
  3  8  1  0  0  0  0
  3  4  1  0  0  0  0
  3 31  1  0  0  0  0
  4  5  1  0  0  0  0
  4 32  1  0  0  0  0
  4 33  1  0  0  0  0
  5  6  1  0  0  0  0
  5 34  1  0  0  0  0
  5 35  1  0  0  0  0
  6  7  1  0  0  0  0
  6  8  1  0  0  0  0
  6 36  1  0  0  0  0
  7 37  1  0  0  0  0
  7 38  1  0  0  0  0
  7 39  1  0  0  0  0
  8  9  1  0  0  0  0
  9 14  1  0  0  0  0
  9 10  2  0  0  0  0
 10 11  1  0  0  0  0
 11 12  2  0  0  0  0
 11 40  1  0  0  0  0
 12 13  1  0  0  0  0
 13 17  1  0  0  0  0
 13 14  2  0  0  0  0
 14 15  1  0  0  0  0
 15 16  2  0  0  0  0
 16 17  1  0  0  0  0
 16 41  1  0  0  0  0
 17 18  1  0  0  0  0
 18 19  1  0  0  0  0
 18 42  1  0  0  0  0
 18 43  1  0  0  0  0
 19 20  1  0  0  0  0
 19 21  1  0  0  0  0
 19 44  1  0  0  0  0
 20 45  1  0  0  0  0
 21 25  1  0  0  0  0
 21 22  1  0  0  0  0
 21 46  1  0  0  0  0
 22 23  1  0  0  0  0
 22 47  1  0  0  0  0
 22 48  1  0  0  0  0
 23 24  1  0  0  0  0
 23 49  1  0  0  0  0
 23 50  1  0  0  0  0
 24 25  1  0  0  0  0
 24 51  1  0  0  0  0
 24 52  1  0  0  0  0
M  END
> <s_m_source_file>
AV-unprocessed.smi

> <i_m_source_file_index>
232

> <i_lp_mmshare_version>
43012

> <i_f3d_flags>
0

> <s_epik_input>
W0NIM11bQ0gyXVtDQEBIXTFbQ0gyXVtDSDJdW0NAQEhdKFtDSDNdKU4xYyhuW2NIXW4yKWMoYzIzKW5bY0hdbjNbQ0gyXVtDQEhdKFtPSF0pW0NAQEhdNFtDSDJdW0NIMl1bQ0gyXU80

> <s_epik_cmdline>
J2VwaWtfcHl0aG9uJywgJy1waCcsICc3LjAnLCAnLXRuJywgJzgnLCAnLW1hJywgJzIwMCcsICctbWV0YWxfYmluZGluZycsICctaW1hZScsICc8aW5maWxlLm1hZT4nLCAnLW9tYWUnLCAnPG91dGZpbGUubWFlPic=

> <r_lp_tautomer_probability>
1

> <r_epik_Ionization_Penalty>
0.00258048

> <r_epik_Ionization_Penalty_Charging>
0

> <r_epik_Ionization_Penalty_Neutral>
0.00258048

> <r_epik_State_Penalty>
0.00168551

> <r_epik_Charging_Adjusted_Penalty>
0.00168551

> <i_epik_Tot_Q>
0

> <i_epik_Tot_abs_Q>
0

> <r_epik_Metal_State_Penalty>
-0

> <b_epik_Metal_Only>
0

> <s_lp_Force_Field>
OPLS_2005

> <r_lp_Energy>
54.2743

> <b_lp_Chiralities_Consistent>
1

> <s_lp_Variant>
AV-unprocessed.smi:232-3

> <Gold.Version>
5.8.1

> <Gold.Id.Protein>
6NUR|6NUR_protein|mol2

> <Gold.PLP.Fitness>
51.2080

> <Gold.PLP.PLP>
-43.2452

> <Gold.PLP.part.hbond>
-3.0000

> <Gold.PLP.part.metal>
0.0000

> <Gold.PLP.part.buried>
1.5969

> <Gold.PLP.part.nonpolar>
-42.6577

> <Gold.PLP.part.repulsive>
1.5057

> <Gold.PLP.ligand.clash>
0.7639

> <Gold.PLP.ligand.torsion>
0.6760

> <Gold.PLP.Chemscore.Hbond>
2.6640

> <Gold.PLP.Chemscore.CHOScore>
0.6609

> <Gold.PLP.Chemscore.Metal>
0.0000

> <Gold.Chemscore.Hbonds>
donor molecule, donor type, donor heavy atom, donor atom, acceptor molecule, acceptor atom, score
      L1  H    20    45       P1  7957  0.88
      P1  H  7989  7998       L1    20  0.82
      P1  H  7997  8009       L1    10  0.85
      L1  C    16    41       P1  8028  0.81

> <Gold.PLP.Chemscore.Internal.Correction>
0.1041

> <Gold.Rescore>
     Score         DG    S(hbond)    S(metal)    S(lipo)     H(rot)  DE(clash)    DE(int)     intcor
     11.45     -18.73       1.63        0.00     119.91       2.43       1.31       5.98       ----

> <Gold.Chemscore.Fitness>
11.4467

> <Gold.Chemscore.DG>
-18.7298

> <Gold.Chemscore.ZeroCoef>
-5.4800

> <Gold.Chemscore.Hbond>
1.6261

> <Gold.Chemscore.Metal>
0.0000

> <Gold.Chemscore.Lipo>
119.9077

> <Gold.Chemscore.Internal_Hbond>
0.0000

> <Gold.Chemscore.DEClash>
1.3062

> <Gold.Chemscore.DEInternal>
5.9769

> <Gold.Chemscore.Rot>
2.4260

> <Gold.Chemscore.Internal.Correction>
   9.000000E+99

> <Gold.Chemscore.Hbonds>
donor molecule, donor type, donor heavy atom, donor atom, acceptor molecule, acceptor atom, score
      L1  H    20    45       P1  7957  0.87
      P1  H  7989  7998       L1    20  0.45
      P1  H  7997  8009       L1    10  0.10

> <Gold.Chemscore.Hbond.Weighted>
-5.4313

> <Gold.Chemscore.Metal.Weighted>
-0.0000

> <Gold.Chemscore.Lipo.Weighted>
-14.0292

> <Gold.Chemscore.Internal_Hbond.Weighted>
0.0000

> <Gold.Chemscore.DEClash.Weighted>
1.3062

> <Gold.Chemscore.DEInternal.Weighted>
5.9769

> <Gold.Chemscore.Rot.Weighted>
6.2107

> <Gold.Chemscore.Internal.Correction.Weighted>
   9.000000E+99

> <Gold.Protein.RotatedTorsions>
[ 6907 6896 6895 6894 ] final -164.03 input  -60.11 | X-H torsion
[ 7974 7965 7964 7962 ] final  166.54 input  175.53 | X-H torsion
[ 8008 7997 7996 7995 ] final  145.26 input   59.86 | X-H torsion
[ 10167 10162 10161 10158 ] final  161.27 input  -65.29 | X-H torsion
[ 10718 10713 10712 10709 ] final  -33.71 input   66.30 | X-H torsion
[ 10763 10752 10751 10750 ] final   49.43 input  -60.55 | X-H torsion
[ 11005 11000 10999 10996 ] final  102.51 input  -57.11 | X-H torsion

> <Gold.Protein.ActiveResidues>
 VAL166  LYS551  ARG553  GLY616  TRP617  ASP618  TYR619  PRO620  LYS621  CYS622 
 ASP623  PHE694  ASN695  SER759  ASP760  ASP761  ALA762  ILE779  LEU786  VAL792 
 PHE793  MET794  SER795  GLU796  ALA797  LYS798  CYS799  TRP800  GLU811  SER814 

> <Gold.Protein.RotatedAtoms>
  151.4054  133.3744  159.2737 H   0  0  0  0  0  0  0  0  0  0  0  0  # atno 6907 bound_to 6896
  150.9402  134.8813  159.7618 H   0  0  0  0  0  0  0  0  0  0  0  0  # atno 6908 bound_to 6896
  152.5068  134.4004  159.9467 H   0  0  0  0  0  0  0  0  0  0  0  0  # atno 6909 bound_to 6896
  144.7458  139.8630  143.6382 H   0  0  0  0  0  0  0  0  0  0  0  0  # atno 7974 bound_to 7965
  156.2888  140.2214  156.5186 H   0  0  0  0  0  0  0  0  0  0  0  0  # atno 8008 bound_to 7997
  154.7548  140.0477  157.0945 H   0  0  0  0  0  0  0  0  0  0  0  0  # atno 8009 bound_to 7997
  155.0065  140.3108  155.4850 H   0  0  0  0  0  0  0  0  0  0  0  0  # atno 8010 bound_to 7997
  139.4848  144.4552  151.8777 H   0  0  0  0  0  0  0  0  0  0  0  0  # atno 10167 bound_to 10162
  156.3593  130.4321  149.7637 H   0  0  0  0  0  0  0  0  0  0  0  0  # atno 10718 bound_to 10713
  152.9787  135.5912  154.4088 H   0  0  0  0  0  0  0  0  0  0  0  0  # atno 10763 bound_to 10752
  154.3726  135.2767  155.2260 H   0  0  0  0  0  0  0  0  0  0  0  0  # atno 10764 bound_to 10752
  154.4208  135.6059  153.6064 H   0  0  0  0  0  0  0  0  0  0  0  0  # atno 10765 bound_to 10752
  139.8778  134.9227  156.5069 H   0  0  0  0  0  0  0  0  0  0  0  0  # atno 11005 bound_to 11000
  146.1334  139.4375  143.0154 LP  0  0  0  0  0  0  0  0  0  0  0  0  # atno 17320 bound_to 7965
  145.7128  141.0101  143.1444 LP  0  0  0  0  0  0  0  0  0  0  0  0  # atno 17321 bound_to 7965
  140.4012  144.2491  150.5893 LP  0  0  0  0  0  0  0  0  0  0  0  0  # atno 17342 bound_to 10162
  140.5056  143.2305  151.8614 LP  0  0  0  0  0  0  0  0  0  0  0  0  # atno 17343 bound_to 10162
  156.4807  130.8040  151.3054 LP  0  0  0  0  0  0  0  0  0  0  0  0  # atno 17370 bound_to 10713
  157.7471  131.0006  150.2934 LP  0  0  0  0  0  0  0  0  0  0  0  0  # atno 17371 bound_to 10713
  140.8548  133.8104  155.9205 LP  0  0  0  0  0  0  0  0  0  0  0  0  # atno 17394 bound_to 11000
  140.9108  134.2263  157.4987 LP  0  0  0  0  0  0  0  0  0  0  0  0  # atno 17395 bound_to 11000

$$$$
