AV-unprocessed.smi:1003|AV-procd|sdf|4360|dock6
  -GOLD-   22720 2263D 1   1.00000     0.00000
 Structure written by MMmdl.
 43 44  0  0  0  0  0  0  0  0  1 V2000
  154.1084  132.0822  162.3521 C   0  0  0  0  0  0  0  0  0  0  0  0
  155.0525  133.1817  161.8527 C   0  0  0  0  0  0  0  0  0  0  0  0
  154.6245  134.5467  162.3052 C   0  0  0  0  0  0  0  0  0  0  0  0
  154.4675  135.5640  161.3590 N   0  0  0  0  0  0  0  0  0  0  0  0
  154.0814  136.7195  161.9033 C   0  0  0  0  0  0  0  0  0  0  0  0
  153.8714  137.9709  161.1198 C   0  0  0  0  0  0  0  0  0  0  0  0
  155.0151  138.9799  161.3108 C   0  0  0  0  0  0  0  0  0  0  0  0
  154.5405  140.3545  161.2070 N   0  0  0  0  0  0  0  0  0  0  0  0
  153.9159  140.8749  160.1392 C   0  0  0  0  0  0  0  0  0  0  0  0
  153.6738  140.2285  159.1191 O   0  0  0  0  0  0  0  0  0  0  0  0
  153.5057  142.3505  160.2366 C   0  0  0  0  0  0  0  0  0  0  0  0
  152.6962  142.6164  161.5242 C   0  0  0  0  0  0  0  0  0  0  0  0
  152.2670  144.0897  161.6215 C   0  0  0  0  0  0  0  0  0  0  0  0
  151.4701  144.5202  160.3799 C   0  0  0  0  0  0  0  0  0  0  0  0
  152.2634  144.2535  159.0911 C   0  0  0  0  0  0  0  0  0  0  0  0
  152.6927  142.7802  158.9963 C   0  0  0  0  0  0  0  0  0  0  0  0
  153.9144  136.6381  163.6510 S   0  0  0  0  0  0  0  0  0  0  0  0
  154.3701  134.9546  163.5943 C   0  0  0  0  0  0  0  0  0  0  0  0
  154.4498  134.1439  164.8450 C   0  0  0  0  0  0  0  0  0  0  0  0
  154.4390  131.1011  162.0108 H   0  0  0  0  0  0  0  0  0  0  0  0
  153.0941  132.2390  161.9842 H   0  0  0  0  0  0  0  0  0  0  0  0
  154.0709  132.0604  163.4416 H   0  0  0  0  0  0  0  0  0  0  0  0
  156.0625  132.9720  162.2062 H   0  0  0  0  0  0  0  0  0  0  0  0
  155.1067  133.1422  160.7644 H   0  0  0  0  0  0  0  0  0  0  0  0
  153.7710  137.7117  160.0650 H   0  0  0  0  0  0  0  0  0  0  0  0
  152.9207  138.4100  161.4242 H   0  0  0  0  0  0  0  0  0  0  0  0
  155.5061  138.8251  162.2732 H   0  0  0  0  0  0  0  0  0  0  0  0
  155.7768  138.8264  160.5457 H   0  0  0  0  0  0  0  0  0  0  0  0
  154.6989  140.9542  162.0039 H   0  0  0  0  0  0  0  0  0  0  0  0
  154.4125  142.9574  160.2751 H   0  0  0  0  0  0  0  0  0  0  0  0
  151.8077  141.9830  161.5484 H   0  0  0  0  0  0  0  0  0  0  0  0
  153.2873  142.3506  162.4016 H   0  0  0  0  0  0  0  0  0  0  0  0
  151.6677  144.2435  162.5192 H   0  0  0  0  0  0  0  0  0  0  0  0
  153.1495  144.7219  161.7267 H   0  0  0  0  0  0  0  0  0  0  0  0
  150.5250  143.9764  160.3462 H   0  0  0  0  0  0  0  0  0  0  0  0
  151.2157  145.5783  160.4491 H   0  0  0  0  0  0  0  0  0  0  0  0
  151.6618  144.5221  158.2223 H   0  0  0  0  0  0  0  0  0  0  0  0
  153.1461  144.8938  159.0658 H   0  0  0  0  0  0  0  0  0  0  0  0
  153.2817  142.6306  158.0905 H   0  0  0  0  0  0  0  0  0  0  0  0
  151.8047  142.1544  158.8919 H   0  0  0  0  0  0  0  0  0  0  0  0
  155.3652  133.5523  164.8671 H   0  0  0  0  0  0  0  0  0  0  0  0
  153.6034  133.4607  164.9159 H   0  0  0  0  0  0  0  0  0  0  0  0
  154.4433  134.7812  165.7297 H   0  0  0  0  0  0  0  0  0  0  0  0
  1  2  1  0  0  0  0
  1 20  1  0  0  0  0
  1 21  1  0  0  0  0
  1 22  1  0  0  0  0
  2  3  1  0  0  0  0
  2 23  1  0  0  0  0
  2 24  1  0  0  0  0
  3 18  2  0  0  0  0
  3  4  1  0  0  0  0
  4  5  2  0  0  0  0
  5  6  1  0  0  0  0
  5 17  1  0  0  0  0
  6  7  1  0  0  0  0
  6 25  1  0  0  0  0
  6 26  1  0  0  0  0
  7  8  1  0  0  0  0
  7 27  1  0  0  0  0
  7 28  1  0  0  0  0
  8  9  1  0  0  0  0
  8 29  1  0  0  0  0
  9 10  2  0  0  0  0
  9 11  1  0  0  0  0
 11 16  1  0  0  0  0
 11 12  1  0  0  0  0
 11 30  1  0  0  0  0
 12 13  1  0  0  0  0
 12 31  1  0  0  0  0
 12 32  1  0  0  0  0
 13 14  1  0  0  0  0
 13 33  1  0  0  0  0
 13 34  1  0  0  0  0
 14 15  1  0  0  0  0
 14 35  1  0  0  0  0
 14 36  1  0  0  0  0
 15 16  1  0  0  0  0
 15 37  1  0  0  0  0
 15 38  1  0  0  0  0
 16 39  1  0  0  0  0
 16 40  1  0  0  0  0
 17 18  1  0  0  0  0
 18 19  1  0  0  0  0
 19 41  1  0  0  0  0
 19 42  1  0  0  0  0
 19 43  1  0  0  0  0
M  END
> <s_m_source_file>
AV-unprocessed.smi

> <i_m_source_file_index>
1003

> <i_lp_mmshare_version>
43012

> <i_f3d_flags>
0

> <s_epik_input>
W0NIM11bQ0gyXWMxbmMoc2MxW0NIM10pW0NIMl1bQ0gyXVtOSF1DKD1PKVtDSF0yW0NIMl1bQ0gyXVtDSDJdW0NIMl1bQ0gyXTI=

> <s_epik_cmdline>
J2VwaWtfcHl0aG9uJywgJy1waCcsICc3LjAnLCAnLXRuJywgJzgnLCAnLW1hJywgJzIwMCcsICctbWV0YWxfYmluZGluZycsICctaW1hZScsICc8aW5maWxlLm1hZT4nLCAnLW9tYWUnLCAnPG91dGZpbGUubWFlPic=

> <r_epik_Ionization_Penalty>
0.00242092

> <r_epik_Ionization_Penalty_Charging>
0

> <r_epik_Ionization_Penalty_Neutral>
0.00242092

> <r_epik_State_Penalty>
0.00167523

> <r_epik_Charging_Adjusted_Penalty>
0.00167523

> <i_epik_Tot_Q>
0

> <i_epik_Tot_abs_Q>
0

> <r_epik_Metal_State_Penalty>
-0

> <b_epik_Metal_Only>
0

> <s_lp_Force_Field>
OPLS_2005

> <r_lp_Energy>
0.647585

> <b_lp_Chiralities_Consistent>
1

> <s_lp_Variant>
AV-unprocessed.smi:1003-1

> <Gold.Version>
5.8.1

> <Gold.Id.Protein>
6NUR|6NUR_protein|mol2

> <Gold.PLP.Fitness>
47.0928

> <Gold.PLP.PLP>
-46.0960

> <Gold.PLP.part.hbond>
-1.0000

> <Gold.PLP.part.metal>
0.0000

> <Gold.PLP.part.buried>
-4.2214

> <Gold.PLP.part.nonpolar>
-40.6070

> <Gold.PLP.part.repulsive>
0.0055

> <Gold.PLP.ligand.clash>
0.0000

> <Gold.PLP.ligand.torsion>
0.5026

> <Gold.PLP.Chemscore.Hbond>
0.6599

> <Gold.PLP.Chemscore.CHOScore>
0.0000

> <Gold.PLP.Chemscore.Metal>
0.0000

> <Gold.Chemscore.Hbonds>
donor molecule, donor type, donor heavy atom, donor atom, acceptor molecule, acceptor atom, score
      P1  H  7997  8008       L1    10  0.39

> <Gold.PLP.Chemscore.Internal.Correction>
0.0224

> <Gold.Rescore>
     Score         DG    S(hbond)    S(metal)    S(lipo)     H(rot)  DE(clash)    DE(int)     intcor
     18.75     -20.45       0.88        0.00     133.52       1.40       0.14       1.55       ----

> <Gold.Chemscore.Fitness>
18.7531

> <Gold.Chemscore.DG>
-20.4478

> <Gold.Chemscore.ZeroCoef>
-5.4800

> <Gold.Chemscore.Hbond>
0.8762

> <Gold.Chemscore.Metal>
0.0000

> <Gold.Chemscore.Lipo>
133.5246

> <Gold.Chemscore.Internal_Hbond>
0.0000

> <Gold.Chemscore.DEClash>
0.1448

> <Gold.Chemscore.DEInternal>
1.5499

> <Gold.Chemscore.Rot>
1.3988

> <Gold.Chemscore.Internal.Correction>
   9.000000E+99

> <Gold.Chemscore.Hbonds>
donor molecule, donor type, donor heavy atom, donor atom, acceptor molecule, acceptor atom, score
      P1  H  7997  8008       L1    10  0.39

> <Gold.Chemscore.Hbond.Weighted>
-2.9264

> <Gold.Chemscore.Metal.Weighted>
-0.0000

> <Gold.Chemscore.Lipo.Weighted>
-15.6224

> <Gold.Chemscore.Internal_Hbond.Weighted>
0.0000

> <Gold.Chemscore.DEClash.Weighted>
0.1448

> <Gold.Chemscore.DEInternal.Weighted>
1.5499

> <Gold.Chemscore.Rot.Weighted>
3.5810

> <Gold.Chemscore.Internal.Correction.Weighted>
   9.000000E+99

> <Gold.Protein.RotatedTorsions>
[ 6907 6896 6895 6894 ] final   -6.50 input  -60.11 | X-H torsion
[ 7974 7965 7964 7962 ] final   46.91 input  175.53 | X-H torsion
[ 8008 7997 7996 7995 ] final -114.11 input   59.86 | X-H torsion
[ 10167 10162 10161 10158 ] final   45.85 input  -65.29 | X-H torsion
[ 10718 10713 10712 10709 ] final -149.74 input   66.30 | X-H torsion
[ 10763 10752 10751 10750 ] final   49.26 input  -60.55 | X-H torsion
[ 11005 11000 10999 10996 ] final   -0.05 input  -57.11 | X-H torsion

> <Gold.Protein.ActiveResidues>
 VAL166  LYS551  ARG553  GLY616  TRP617  ASP618  TYR619  PRO620  LYS621  CYS622 
 ASP623  PHE694  ASN695  SER759  ASP760  ASP761  ALA762  ILE779  LEU786  VAL792 
 PHE793  MET794  SER795  GLU796  ALA797  LYS798  CYS799  TRP800  GLU811  SER814 

> <Gold.Protein.RotatedAtoms>
  151.4645  135.1041  159.9733 H   0  0  0  0  0  0  0  0  0  0  0  0  # atno 6907 bound_to 6896
  152.4840  133.8322  159.7119 H   0  0  0  0  0  0  0  0  0  0  0  0  # atno 6908 bound_to 6896
  150.8934  133.7152  159.2925 H   0  0  0  0  0  0  0  0  0  0  0  0  # atno 6909 bound_to 6896
  146.0347  139.4806  142.9816 H   0  0  0  0  0  0  0  0  0  0  0  0  # atno 7974 bound_to 7965
  155.0312  140.0393  157.2474 H   0  0  0  0  0  0  0  0  0  0  0  0  # atno 8008 bound_to 7997
  154.7295  140.2728  155.6445 H   0  0  0  0  0  0  0  0  0  0  0  0  # atno 8009 bound_to 7997
  156.2838  140.2687  156.1991 H   0  0  0  0  0  0  0  0  0  0  0  0  # atno 8010 bound_to 7997
  140.3199  144.2718  150.6184 H   0  0  0  0  0  0  0  0  0  0  0  0  # atno 10167 bound_to 10162
  156.4370  130.8103  151.2332 H   0  0  0  0  0  0  0  0  0  0  0  0  # atno 10718 bound_to 10713
  152.9787  135.5917  154.4060 H   0  0  0  0  0  0  0  0  0  0  0  0  # atno 10763 bound_to 10752
  154.3701  135.2767  155.2273 H   0  0  0  0  0  0  0  0  0  0  0  0  # atno 10764 bound_to 10752
  154.4232  135.6054  153.6077 H   0  0  0  0  0  0  0  0  0  0  0  0  # atno 10765 bound_to 10752
  140.6320  133.9567  155.8279 H   0  0  0  0  0  0  0  0  0  0  0  0  # atno 11005 bound_to 11000
  145.6984  141.0143  143.1518 LP  0  0  0  0  0  0  0  0  0  0  0  0  # atno 17320 bound_to 7965
  144.7046  139.8615  143.7434 LP  0  0  0  0  0  0  0  0  0  0  0  0  # atno 17321 bound_to 7965
  140.5493  143.2209  151.7954 LP  0  0  0  0  0  0  0  0  0  0  0  0  # atno 17342 bound_to 10162
  139.4876  144.4498  151.9667 LP  0  0  0  0  0  0  0  0  0  0  0  0  # atno 17343 bound_to 10162
  157.7507  131.0180  150.3608 LP  0  0  0  0  0  0  0  0  0  0  0  0  # atno 17370 bound_to 10713
  156.3958  130.3906  149.6996 LP  0  0  0  0  0  0  0  0  0  0  0  0  # atno 17371 bound_to 10713
  141.0669  134.0264  157.3581 LP  0  0  0  0  0  0  0  0  0  0  0  0  # atno 17394 bound_to 11000
  139.9112  135.0190  156.7701 LP  0  0  0  0  0  0  0  0  0  0  0  0  # atno 17395 bound_to 11000

$$$$
