#       Name:                AV-unprocessed.smi:1560
#       Creating user name   scv26
#       Creation time:       Fri Mar 27 06:46:59 2020


#       File generated by GOLD software.
#

@<TRIPOS>MOLECULE
AV-unprocessed.smi:1560
    56    57     1
SMALL
NO_CHARGES


@<TRIPOS>ATOM
      1 ****        -2.6045  -1.3621  -0.3640 C.3            1 S1                 0.0000
      2 ****        -1.0793  -1.1859  -0.4749 C.3            1 S1                 0.0000
      3 ****        -0.3860  -0.5170   0.7554 C.3            1 S1                 0.0000
      4 ****        -0.8813   0.9555   0.7892 C.3            1 S1                 0.0000
      5 ****         1.1543  -0.5104   0.5008 C.3            1 S1                 0.0000
      6 ****         1.5158   0.2325  -0.7014 N.am           1 S1                 0.0000
      7 ****         2.5952   0.0213  -1.4708 C.2            1 S1                 0.0000
      8 ****         3.4444  -0.8307  -1.2126 O.2            1 S1                 0.0000
      9 ****         2.7585   0.8910  -2.7300 C.3            1 S1                 0.0000
     10 ****         1.6490   1.8297  -2.9714 N.am           1 S1                 0.0000
     11 ****         1.7393   3.1433  -2.5328 C.2            1 S1                 0.0000
     12 ****         0.7479   4.0519  -2.6901 C.2            1 S1                 0.0000
     13 ****        -0.4994   3.6779  -3.3478 C.2            1 S1                 0.0000
     14 ****        -1.4554   4.4272  -3.5341 O.2            1 S1                 0.0000
     15 ****        -0.5518   2.3488  -3.7762 N.am           1 S1                 0.0000
     16 ****         0.4664   1.4075  -3.6184 C.2            1 S1                 0.0000
     17 ****         0.3124   0.2563  -4.0238 O.2            1 S1                 0.0000
     18 ****        -0.7431  -1.2196   2.0205 N.3            1 S1                 0.0000
     19 ****        -0.2602  -0.5789   3.2494 C.3            1 S1                 0.0000
     20 ****        -0.7890  -1.2817   4.5113 C.3            1 S1                 0.0000
     21 ****        -0.4191  -2.6549   4.4870 O.3            1 S1                 0.0000
     22 ****        -0.9135  -3.3306   3.3368 C.3            1 S1                 0.0000
     23 ****        -0.3871  -2.6434   2.0653 C.3            1 S1                 0.0000
     24 ****        -1.3973   2.0444  -4.2370 H              1 S1                 0.0000
     25 ****        -2.9988  -1.8378  -1.2620 H              1 S1                 0.0000
     26 ****        -3.1158  -0.4064  -0.2545 H              1 S1                 0.0000
     27 ****        -2.8802  -1.9898   0.4833 H              1 S1                 0.0000
     28 ****        -0.6277  -2.1560  -0.6822 H              1 S1                 0.0000
     29 ****        -0.8866  -0.6022  -1.3756 H              1 S1                 0.0000
     30 ****        -0.8546   1.4221  -0.1965 H              1 S1                 0.0000
     31 ****        -0.2660   1.5775   1.4396 H              1 S1                 0.0000
     32 ****        -1.9084   1.0268   1.1482 H              1 S1                 0.0000
     33 ****         1.6896  -0.0515   1.3317 H              1 S1                 0.0000
     34 ****         1.5282  -1.5310   0.4140 H              1 S1                 0.0000
     35 ****         0.8720   0.9541  -0.9919 H              1 S1                 0.0000
     36 ****         3.6967   1.4406  -2.6409 H              1 S1                 0.0000
     37 ****         2.8958   0.2359  -3.5922 H              1 S1                 0.0000
     38 ****         2.6433   3.4629  -2.0337 H              1 S1                 0.0000
     39 ****         0.8773   5.0604  -2.3246 H              1 S1                 0.0000
     40 ****         0.8293  -0.5846   3.2773 H              1 S1                 0.0000
     41 ****        -0.5733   0.4628   3.2948 H              1 S1                 0.0000
     42 ****        -0.3733  -0.8175   5.4058 H              1 S1                 0.0000
     43 ****        -1.8744  -1.1905   4.5774 H              1 S1                 0.0000
     44 ****        -0.5866  -4.3699   3.3682 H              1 S1                 0.0000
     45 ****        -2.0045  -3.3374   3.3490 H              1 S1                 0.0000
     46 ****        -0.7926  -3.1754   1.2067 H              1 S1                 0.0000
     47 ****         0.6955  -2.7640   2.0295 H              1 S1                 0.0000
     48 ****         3.3469  -1.4031  -0.3985 LP             1 S1                 0.0000
     49 ****         4.2320  -0.9508  -1.8169 LP             1 S1                 0.0000
     50 ****        -1.4139   5.3772  -3.2246 LP             1 S1                 0.0000
     51 ****        -2.2749   4.0869  -3.9953 LP             1 S1                 0.0000
     52 ****         1.0395  -0.4189  -3.8999 LP             1 S1                 0.0000
     53 ****        -0.5399  -0.0043  -4.4773 LP             1 S1                 0.0000
     54 ****        -1.7400  -1.1437   1.9970 LP             1 S1                 0.0000
     55 ****        -0.7860  -3.1006   5.3035 LP             1 S1                 0.0000
     56 ****         0.5788  -2.7186   4.4924 LP             1 S1                 0.0000
@<TRIPOS>BOND
    1    1    2 1     
    2    1   25 1     
    3    1   26 1     
    4    1   27 1     
    5    2    3 1     
    6    2   28 1     
    7    2   29 1     
    8    3    4 1     
    9    3    5 1     
   10    3   18 1     
   11    4   30 1     
   12    4   31 1     
   13    4   32 1     
   14    5    6 1     
   15    5   33 1     
   16    5   34 1     
   17    6    7 am    
   18    6   35 1     
   19    7    8 2     
   20    7    9 1     
   21    9   10 1     
   22    9   36 1     
   23    9   37 1     
   24   10   16 1     
   25   10   11 1     
   26   11   12 2     
   27   11   38 1     
   28   12   13 1     
   29   12   39 1     
   30   13   14 2     
   31   13   15 1     
   32   15   24 1     
   33   15   16 1     
   34   16   17 2     
   35   18   23 1     
   36   18   19 1     
   37   19   20 1     
   38   19   40 1     
   39   19   41 1     
   40   20   21 1     
   41   20   42 1     
   42   20   43 1     
   43   21   22 1     
   44   22   23 1     
   45   22   44 1     
   46   22   45 1     
   47   23   46 1     
   48   23   47 1     
   49    8   48 1     
   50    8   49 1     
   51   14   50 1     
   52   14   51 1     
   53   17   52 1     
   54   17   53 1     
   55   18   54 1     
   56   21   55 1     
   57   21   56 1     
@<TRIPOS>SUBSTRUCTURE
      1 S1             1
@<TRIPOS>SET
LONE_PAIRS      STATIC     ATOMS    <user>   **** ""
9 48 49 50 51 52 53 54 55 56
DONOR_HYDROGENS      STATIC     ATOMS    <user>   **** ""
2 35 24
ATOM$BLUE        STATIC     ATOMS    COLORGROUP SYSTEM
9 48 49 50 51 52 53 54 55 56
ATOM$RED        STATIC     ATOMS    COLORGROUP SYSTEM
2 35 24
