AV-unprocessed.smi:3338|AV-procd|sdf|12873|dock1
  -GOLD-   2272019273D 1   1.00000     0.00000
 Structure written by MMmdl.
 44 45  0  0  0  0  0  0  0  0  2 V2000
  156.6918  138.8566  165.0452 C   0  0  0  0  0  0  0  0  0  0  0  0
  155.5477  138.5087  164.0823 C   0  0  2  0  0  0  0  0  0  0  0  0
  154.9214  137.1458  164.4236 C   0  0  0  0  0  0  0  0  0  0  0  0
  153.8049  136.8075  163.4277 C   0  0  0  0  0  0  0  0  0  0  0  0
  154.3193  136.8699  161.9807 C   0  0  0  0  0  0  0  0  0  0  0  0
  154.9079  138.2006  161.6810 N   0  3  2  0  0  0  0  0  0  0  0  0
  155.2887  138.3414  160.2536 C   0  0  0  0  0  0  0  0  0  0  0  0
  155.6003  139.8022  159.8747 C   0  0  0  0  0  0  0  0  0  0  0  0
  154.5908  140.7109  160.4037 N   0  0  0  0  0  0  0  0  0  0  0  0
  153.5567  141.1975  159.6989 C   0  0  0  0  0  0  0  0  0  0  0  0
  153.3793  140.9383  158.5078 O   0  0  0  0  0  0  0  0  0  0  0  0
  152.5757  142.1021  160.4621 C   0  0  1  0  0  0  0  0  0  0  0  0
  153.0876  142.4890  161.8639 C   0  0  0  0  0  0  0  0  0  0  0  0
  152.2388  143.2757  159.6643 N   0  0  0  0  0  0  0  0  0  0  0  0
  152.3939  144.6054  160.0006 C   0  0  0  0  0  0  0  0  0  0  0  0
  151.9237  145.3509  158.9577 C   0  0  0  0  0  0  0  0  0  0  0  0
  151.4862  144.3778  158.0170 C   0  0  0  0  0  0  0  0  0  0  0  0
  151.6688  143.1393  158.4441 N   0  0  0  0  0  0  0  0  0  0  0  0
  156.0198  138.5272  162.6143 C   0  0  0  0  0  0  0  0  0  0  0  0
  157.4996  138.1265  164.9829 H   0  0  0  0  0  0  0  0  0  0  0  0
  156.3427  138.8786  166.0781 H   0  0  0  0  0  0  0  0  0  0  0  0
  157.1116  139.8371  164.8191 H   0  0  0  0  0  0  0  0  0  0  0  0
  154.7777  139.2734  164.1971 H   0  0  0  0  0  0  0  0  0  0  0  0
  155.6852  136.3672  164.3953 H   0  0  0  0  0  0  0  0  0  0  0  0
  154.5230  137.1552  165.4391 H   0  0  0  0  0  0  0  0  0  0  0  0
  153.4061  135.8146  163.6391 H   0  0  0  0  0  0  0  0  0  0  0  0
  152.9773  137.5070  163.5531 H   0  0  0  0  0  0  0  0  0  0  0  0
  155.0662  136.0928  161.8107 H   0  0  0  0  0  0  0  0  0  0  0  0
  153.4910  136.6696  161.2998 H   0  0  0  0  0  0  0  0  0  0  0  0
  156.1331  137.6857  160.0343 H   0  0  0  0  0  0  0  0  0  0  0  0
  154.4668  138.0011  159.6218 H   0  0  0  0  0  0  0  0  0  0  0  0
  156.5680  140.0940  160.2840 H   0  0  0  0  0  0  0  0  0  0  0  0
  155.6711  139.9310  158.7941 H   0  0  0  0  0  0  0  0  0  0  0  0
  154.6715  140.9746  161.3754 H   0  0  0  0  0  0  0  0  0  0  0  0
  151.6554  141.5326  160.6030 H   0  0  0  0  0  0  0  0  0  0  0  0
  153.2940  141.6036  162.4664 H   0  0  0  0  0  0  0  0  0  0  0  0
  152.3438  143.0805  162.3985 H   0  0  0  0  0  0  0  0  0  0  0  0
  154.0043  143.0784  161.8176 H   0  0  0  0  0  0  0  0  0  0  0  0
  152.8239  144.9087  160.9437 H   0  0  0  0  0  0  0  0  0  0  0  0
  151.8960  146.4276  158.8788 H   0  0  0  0  0  0  0  0  0  0  0  0
  151.0423  144.5329  157.0446 H   0  0  0  0  0  0  0  0  0  0  0  0
  156.4237  139.5127  162.3837 H   0  0  0  0  0  0  0  0  0  0  0  0
  156.8344  137.8149  162.4715 H   0  0  0  0  0  0  0  0  0  0  0  0
  154.1742  138.8742  161.8483 H   0  0  0  0  0  0  0  0  0  0  0  0
  1  2  1  0  0  0  0
  1 20  1  0  0  0  0
  1 21  1  0  0  0  0
  1 22  1  0  0  0  0
  2 19  1  0  0  0  0
  2  3  1  0  0  0  0
  2 23  1  0  0  0  0
  3  4  1  0  0  0  0
  3 24  1  0  0  0  0
  3 25  1  0  0  0  0
  4  5  1  0  0  0  0
  4 26  1  0  0  0  0
  4 27  1  0  0  0  0
  5  6  1  0  0  0  0
  5 28  1  0  0  0  0
  5 29  1  0  0  0  0
  6  7  1  0  0  0  0
  6 19  1  0  0  0  0
  6 44  1  0  0  0  0
  7  8  1  0  0  0  0
  7 30  1  0  0  0  0
  7 31  1  0  0  0  0
  8  9  1  0  0  0  0
  8 32  1  0  0  0  0
  8 33  1  0  0  0  0
  9 10  1  0  0  0  0
  9 34  1  0  0  0  0
 10 11  2  0  0  0  0
 10 12  1  0  0  0  0
 12 13  1  0  0  0  0
 12 14  1  0  0  0  0
 12 35  1  0  0  0  0
 13 36  1  0  0  0  0
 13 37  1  0  0  0  0
 13 38  1  0  0  0  0
 14 18  1  0  0  0  0
 14 15  1  0  0  0  0
 15 16  2  0  0  0  0
 15 39  1  0  0  0  0
 16 17  1  0  0  0  0
 16 40  1  0  0  0  0
 17 18  2  0  0  0  0
 17 41  1  0  0  0  0
 19 42  1  0  0  0  0
 19 43  1  0  0  0  0
M  CHG  1   6   1
M  END
> <s_m_source_file>
AV-unprocessed.smi

> <i_m_source_file_index>
3338

> <i_lp_mmshare_version>
43012

> <i_f3d_flags>
0

> <s_epik_input>
W0NIM11bQ0BASF0xW0NIMl1bQ0gyXVtDSDJdTihbQ0gyXTEpW0NIMl1bQ0gyXVtOSF1DKD1PKVtDQEhdKFtDSDNdKW4yW2NIXVtjSF1bY0hdbjI=

> <s_epik_cmdline>
J2VwaWtfcHl0aG9uJywgJy1waCcsICc3LjAnLCAnLXRuJywgJzgnLCAnLW1hJywgJzIwMCcsICctbWV0YWxfYmluZGluZycsICctaW1hZScsICc8aW5maWxlLm1hZT4nLCAnLW9tYWUnLCAnPG91dGZpbGUubWFlPic=

> <r_lp_tautomer_probability>
1

> <r_epik_Ionization_Penalty>
0.00225707

> <r_epik_Ionization_Penalty_Charging>
0.00223709

> <r_epik_Ionization_Penalty_Neutral>
1.99775e-05

> <r_epik_State_Penalty>
0.00153978

> <r_epik_Charging_Adjusted_Penalty>
0.00377687

> <i_epik_Tot_Q>
1

> <i_epik_Tot_abs_Q>
1

> <r_epik_Metal_State_Penalty>
-0

> <b_epik_Metal_Only>
0

> <s_lp_Force_Field>
OPLS_2005

> <r_lp_Energy>
19.822

> <b_lp_Chiralities_Consistent>
1

> <s_lp_Variant>
AV-unprocessed.smi:3338-5

> <Gold.Version>
5.8.1

> <Gold.Id.Protein>
6NUR|6NUR_protein|mol2

> <Gold.PLP.Fitness>
47.3941

> <Gold.PLP.PLP>
-43.9263

> <Gold.PLP.part.hbond>
-1.0000

> <Gold.PLP.part.metal>
0.0000

> <Gold.PLP.part.buried>
-3.7619

> <Gold.PLP.part.nonpolar>
-38.5637

> <Gold.PLP.part.repulsive>
0.0846

> <Gold.PLP.ligand.clash>
0.0601

> <Gold.PLP.ligand.torsion>
0.5591

> <Gold.PLP.Chemscore.Hbond>
0.4563

> <Gold.PLP.Chemscore.CHOScore>
0.9994

> <Gold.PLP.Chemscore.Metal>
0.0000

> <Gold.Chemscore.Hbonds>
donor molecule, donor type, donor heavy atom, donor atom, acceptor molecule, acceptor atom, score
      P1  H  7997  8010       L1    11  0.44
      L1  C    17    41       P1  8028  0.99

> <Gold.PLP.Chemscore.Internal.Correction>
0.2790

> <Gold.Rescore>
     Score         DG    S(hbond)    S(metal)    S(lipo)     H(rot)  DE(clash)    DE(int)     intcor
     14.22     -16.36       0.88        0.00     106.30       1.76       0.10       2.03       ----

> <Gold.Chemscore.Fitness>
14.2213

> <Gold.Chemscore.DG>
-16.3582

> <Gold.Chemscore.ZeroCoef>
-5.4800

> <Gold.Chemscore.Hbond>
0.8800

> <Gold.Chemscore.Metal>
0.0000

> <Gold.Chemscore.Lipo>
106.2975

> <Gold.Chemscore.Internal_Hbond>
0.0000

> <Gold.Chemscore.DEClash>
0.1039

> <Gold.Chemscore.DEInternal>
2.0329

> <Gold.Chemscore.Rot>
1.7570

> <Gold.Chemscore.Internal.Correction>
   9.000000E+99

> <Gold.Chemscore.Hbonds>
donor molecule, donor type, donor heavy atom, donor atom, acceptor molecule, acceptor atom, score
      P1  H  7997  8010       L1    11  0.43

> <Gold.Chemscore.Hbond.Weighted>
-2.9392

> <Gold.Chemscore.Metal.Weighted>
-0.0000

> <Gold.Chemscore.Lipo.Weighted>
-12.4368

> <Gold.Chemscore.Internal_Hbond.Weighted>
0.0000

> <Gold.Chemscore.DEClash.Weighted>
0.1039

> <Gold.Chemscore.DEInternal.Weighted>
2.0329

> <Gold.Chemscore.Rot.Weighted>
4.4979

> <Gold.Chemscore.Internal.Correction.Weighted>
   9.000000E+99

> <Gold.Protein.RotatedTorsions>
[ 6907 6896 6895 6894 ] final   12.86 input  -60.11 | X-H torsion
[ 7974 7965 7964 7962 ] final   18.01 input  175.53 | X-H torsion
[ 8008 7997 7996 7995 ] final   23.06 input   59.86 | X-H torsion
[ 10167 10162 10161 10158 ] final  -46.20 input  -65.29 | X-H torsion
[ 10718 10713 10712 10709 ] final -157.32 input   66.30 | X-H torsion
[ 10763 10752 10751 10750 ] final  136.33 input  -60.55 | X-H torsion
[ 11005 11000 10999 10996 ] final  -97.33 input  -57.11 | X-H torsion

> <Gold.Protein.ActiveResidues>
 VAL166  LYS551  ARG553  GLY616  TRP617  ASP618  TYR619  PRO620  LYS621  CYS622 
 ASP623  PHE694  ASN695  SER759  ASP760  ASP761  ALA762  ILE779  LEU786  VAL792 
 PHE793  MET794  SER795  GLU796  ALA797  LYS798  CYS799  TRP800  GLU811  SER814 

> <Gold.Protein.RotatedAtoms>
  151.7771  135.0771  160.0368 H   0  0  0  0  0  0  0  0  0  0  0  0  # atno 6907 bound_to 6896
  152.3248  133.5889  159.5778 H   0  0  0  0  0  0  0  0  0  0  0  0  # atno 6908 bound_to 6896
  150.7390  133.9872  159.3637 H   0  0  0  0  0  0  0  0  0  0  0  0  # atno 6909 bound_to 6896
  146.2199  139.8519  142.8621 H   0  0  0  0  0  0  0  0  0  0  0  0  # atno 7974 bound_to 7965
  154.9751  140.3095  155.4971 H   0  0  0  0  0  0  0  0  0  0  0  0  # atno 8008 bound_to 7997
  156.2961  140.2277  156.4786 H   0  0  0  0  0  0  0  0  0  0  0  0  # atno 8009 bound_to 7997
  154.7841  140.0444  157.1138 H   0  0  0  0  0  0  0  0  0  0  0  0  # atno 8010 bound_to 7997
  140.6827  143.2842  151.3748 H   0  0  0  0  0  0  0  0  0  0  0  0  # atno 10167 bound_to 10162
  156.5387  130.8553  151.2741 H   0  0  0  0  0  0  0  0  0  0  0  0  # atno 10718 bound_to 10713
  153.8547  135.3075  155.3434 H   0  0  0  0  0  0  0  0  0  0  0  0  # atno 10763 bound_to 10752
  154.7875  135.4801  153.9982 H   0  0  0  0  0  0  0  0  0  0  0  0  # atno 10764 bound_to 10752
  153.1497  135.6840  153.8994 H   0  0  0  0  0  0  0  0  0  0  0  0  # atno 10765 bound_to 10752
  141.1382  133.8163  157.0691 H   0  0  0  0  0  0  0  0  0  0  0  0  # atno 11005 bound_to 11000
  145.2792  141.0133  143.3727 LP  0  0  0  0  0  0  0  0  0  0  0  0  # atno 17320 bound_to 7965
  144.9163  139.4466  143.6563 LP  0  0  0  0  0  0  0  0  0  0  0  0  # atno 17321 bound_to 7965
  139.6162  144.0999  152.2347 LP  0  0  0  0  0  0  0  0  0  0  0  0  # atno 17342 bound_to 10162
  140.0429  144.5993  150.7397 LP  0  0  0  0  0  0  0  0  0  0  0  0  # atno 17343 bound_to 10162
  157.7409  130.9859  150.2409 LP  0  0  0  0  0  0  0  0  0  0  0  0  # atno 17370 bound_to 10713
  156.2992  130.3756  149.7767 LP  0  0  0  0  0  0  0  0  0  0  0  0  # atno 17371 bound_to 10713
  140.0522  134.9799  157.1157 LP  0  0  0  0  0  0  0  0  0  0  0  0  # atno 17394 bound_to 11000
  140.3972  134.2121  155.7164 LP  0  0  0  0  0  0  0  0  0  0  0  0  # atno 17395 bound_to 11000

$$$$
