#       Name:                AV-unprocessed.smi:34
#       Creating user name   scv26
#       Creation time:       Thu Mar 26 15:57:59 2020


#       File generated by GOLD software.
#

@<TRIPOS>MOLECULE
AV-unprocessed.smi:34
    66    70     1
SMALL
NO_CHARGES


@<TRIPOS>ATOM
      1 ****        -5.3724  -0.2930  -1.6034 O.2            1 S1                 0.0000
      2 ****        -5.7012  -0.3592  -0.4169 C.2            1 S1                 0.0000
      3 ****        -4.9167  -0.1828   0.6763 N.pl3          1 S1                -1.0000
      4 ****        -3.6020   0.0389   0.5280 C.ar           1 S1                 0.0000
      5 ****        -3.1115   1.3044   0.5574 N.ar           1 S1                 0.0000
      6 ****        -1.7988   1.5239   0.4188 C.ar           1 S1                 0.0000
      7 ****        -0.8126   0.6384   0.2485 N.ar           1 S1                 0.0000
      8 ****        -1.2920  -0.6390   0.2246 C.ar           1 S1                 0.0000
      9 ****        -2.6605  -1.0133   0.3599 C.ar           1 S1                 0.0000
     10 ****        -2.8024  -2.3918   0.2960 N.2            1 S1                 0.0000
     11 ****        -1.5415  -2.7842   0.1285 C.2            1 S1                 0.0000
     12 ****        -0.5948  -1.8265   0.0721 N.pl3          1 S1                 0.0000
     13 ****         0.8764  -2.0123  -0.0991 C.3            1 S1                 0.0000
     14 ****         1.5177  -1.2564   0.8796 O.3            1 S1                 0.0000
     15 ****         2.7379  -0.7762   0.3410 C.3            1 S1                 0.0000
     16 ****         3.2777   0.3964   1.1695 C.3            1 S1                 0.0000
     17 ****         4.5487   0.7782   0.6689 O.3            1 S1                 0.0000
     18 ****         5.1582   1.8815   1.1447 C.2            1 S1                 0.0000
     19 ****         4.6786   2.6005   2.0239 O.2            1 S1                 0.0000
     20 ****         6.4730   2.1448   0.4915 C.ar           1 S1                 0.0000
     21 ****         7.2072   3.2988   0.8516 C.ar           1 S1                 0.0000
     22 ****         8.4504   3.5750   0.2501 C.ar           1 S1                 0.0000
     23 ****         8.9750   2.7002  -0.7190 C.ar           1 S1                 0.0000
     24 ****         8.2548   1.5484  -1.0857 C.ar           1 S1                 0.0000
     25 ****         7.0111   1.2707  -0.4853 C.ar           1 S1                 0.0000
     26 ****         2.3818  -0.4412  -1.1094 C.3            1 S1                 0.0000
     27 ****         1.8291   0.7695  -1.1999 F              1 S1                 0.0000
     28 ****         1.3480  -1.5008  -1.4736 C.3            1 S1                 0.0000
     29 ****         1.9611  -2.5228  -2.2332 O.3            1 S1                 0.0000
     30 ****        -7.1478  -0.6011  -0.0774 C.ar           1 S1                 0.0000
     31 ****        -8.1608  -0.0571  -0.8997 C.ar           1 S1                 0.0000
     32 ****        -9.5196  -0.2934  -0.6137 C.ar           1 S1                 0.0000
     33 ****        -9.8803  -1.0847   0.4930 C.ar           1 S1                 0.0000
     34 ****        -8.8805  -1.6436   1.3108 C.ar           1 S1                 0.0000
     35 ****        -7.5214  -1.4080   1.0253 C.ar           1 S1                 0.0000
     36 ****        -1.4944   2.5594   0.4501 H              1 S1                 0.0000
     37 ****        -1.2917  -3.8313   0.0412 H              1 S1                 0.0000
     38 ****         1.0543  -3.0774   0.0591 H              1 S1                 0.0000
     39 ****         3.4530  -1.6009   0.3583 H              1 S1                 0.0000
     40 ****         2.5832   1.2372   1.1374 H              1 S1                 0.0000
     41 ****         3.3792   0.0986   2.2138 H              1 S1                 0.0000
     42 ****         6.8233   3.9861   1.5920 H              1 S1                 0.0000
     43 ****         9.0017   4.4598   0.5327 H              1 S1                 0.0000
     44 ****         9.9282   2.9124  -1.1805 H              1 S1                 0.0000
     45 ****         8.6567   0.8755  -1.8289 H              1 S1                 0.0000
     46 ****         6.4852   0.3774  -0.7893 H              1 S1                 0.0000
     47 ****         3.2537  -0.4332  -1.7649 H              1 S1                 0.0000
     48 ****         0.5210  -1.0779  -2.0465 H              1 S1                 0.0000
     49 ****         1.3065  -3.1704  -2.4469 H              1 S1                 0.0000
     50 ****        -7.9008   0.5511  -1.7541 H              1 S1                 0.0000
     51 ****       -10.2850   0.1321  -1.2455 H              1 S1                 0.0000
     52 ****       -10.9220  -1.2665   0.7120 H              1 S1                 0.0000
     53 ****        -9.1546  -2.2572   2.1562 H              1 S1                 0.0000
     54 ****        -6.7696  -1.8561   1.6589 H              1 S1                 0.0000
     55 ****        -4.4251  -0.0874  -1.8490 LP             1 S1                 0.0000
     56 ****        -6.0530  -0.4450  -2.3201 LP             1 S1                 0.0000
     57 ****        -5.3182  -0.2181   1.5915 LP             1 S1                 0.0000
     58 ****        -3.7343   2.0765   0.6833 LP             1 S1                 0.0000
     59 ****         0.1527   0.8807   0.1511 LP             1 S1                 0.0000
     60 ****        -3.6330  -2.9450   0.3592 LP             1 S1                 0.0000
     61 ****         1.7024  -1.8263   1.6804 LP             1 S1                 0.0000
     62 ****         0.9387  -0.4857   1.1454 LP             1 S1                 0.0000
     63 ****         3.7899   2.3762   2.4237 LP             1 S1                 0.0000
     64 ****         5.1784   3.4080   2.3373 LP             1 S1                 0.0000
     65 ****         2.6936  -2.9464  -1.7001 LP             1 S1                 0.0000
     66 ****         2.3411  -2.1368  -3.0738 LP             1 S1                 0.0000
@<TRIPOS>BOND
    1    1    2 2     
    2    2    3 1     
    3    2   30 1     
    4    3    4 1     
    5    4    9 ar    
    6    4    5 ar    
    7    5    6 ar    
    8    6    7 ar    
    9    6   36 1     
   10    7    8 ar    
   11    8   12 1     
   12    8    9 ar    
   13    9   10 1     
   14   10   11 2     
   15   11   12 1     
   16   11   37 1     
   17   12   13 1     
   18   13   28 1     
   19   13   14 1     
   20   13   38 1     
   21   14   15 1     
   22   15   16 1     
   23   15   26 1     
   24   15   39 1     
   25   16   17 1     
   26   16   40 1     
   27   16   41 1     
   28   17   18 1     
   29   18   19 2     
   30   18   20 1     
   31   20   25 ar    
   32   20   21 ar    
   33   21   22 ar    
   34   21   42 1     
   35   22   23 ar    
   36   22   43 1     
   37   23   24 ar    
   38   23   44 1     
   39   24   25 ar    
   40   24   45 1     
   41   25   46 1     
   42   26   27 1     
   43   26   28 1     
   44   26   47 1     
   45   28   29 1     
   46   28   48 1     
   47   29   49 1     
   48   30   35 ar    
   49   30   31 ar    
   50   31   32 ar    
   51   31   50 1     
   52   32   33 ar    
   53   32   51 1     
   54   33   34 ar    
   55   33   52 1     
   56   34   35 ar    
   57   34   53 1     
   58   35   54 1     
   59    1   55 1     
   60    1   56 1     
   61    3   57 1     
   62    5   58 1     
   63    7   59 1     
   64   10   60 1     
   65   14   61 1     
   66   14   62 1     
   67   19   63 1     
   68   19   64 1     
   69   29   65 1     
   70   29   66 1     
@<TRIPOS>SUBSTRUCTURE
      1 S1             1
@<TRIPOS>SET
LONE_PAIRS      STATIC     ATOMS    <user>   **** ""
12 55 56 57 58 59 60 61 62 63 64 65 66
DONOR_HYDROGENS      STATIC     ATOMS    <user>   **** ""
1 49
ATOM$BLUE        STATIC     ATOMS    COLORGROUP SYSTEM
12 55 56 57 58 59 60 61 62 63 64 65 66
ATOM$RED        STATIC     ATOMS    COLORGROUP SYSTEM
1 49
