AV-unprocessed.smi:72|AV-procd|sdf|723|dock1
  -GOLD-   2262017 53D 1   1.00000     0.00000
 Structure written by MMmdl.
 28 29  0  0  0  0  0  0  0  0  2 V2000
  153.5683  137.8323  154.8666 N   0  0  0  0  0  0  0  0  0  0  0  0
  152.4156  138.3319  154.9696 C   0  0  0  0  0  0  0  0  0  0  0  0
  151.3020  137.7415  154.2592 N   0  0  0  0  0  0  0  0  0  0  0  0
  150.1342  138.2882  154.4049 C   0  0  0  0  0  0  0  0  0  0  0  0
  149.9310  139.4510  155.2579 N   0  0  0  0  0  0  0  0  0  0  0  0
  148.5594  140.0796  155.4086 C   0  0  2  0  0  0  0  0  0  0  0  0
  147.6013  139.0689  155.5236 O   0  0  0  0  0  0  0  0  0  0  0  0
  146.4383  139.4296  154.7860 C   0  0  2  0  0  0  0  0  0  0  0  0
  145.5902  138.1911  154.4476 C   0  0  0  0  0  0  0  0  0  0  0  0
  144.5582  138.5435  153.5515 O   0  0  0  0  0  0  0  0  0  0  0  0
  147.0095  140.1909  153.5818 C   0  0  2  0  0  0  0  0  0  0  0  0
  147.4462  139.2895  152.5780 O   0  0  0  0  0  0  0  0  0  0  0  0
  148.1636  140.9671  154.2087 C   0  0  2  0  0  0  0  0  0  0  0  0
  149.1980  141.2669  153.2858 O   0  0  0  0  0  0  0  0  0  0  0  0
  151.0465  140.0241  155.9247 C   0  0  0  0  0  0  0  0  0  0  0  0
  150.8626  141.0333  156.6057 O   0  0  0  0  0  0  0  0  0  0  0  0
  152.2694  139.4436  155.7701 N   0  5  0  0  0  0  0  0  0  0  0  0
  148.5718  140.6281  156.3514 H   0  0  0  0  0  0  0  0  0  0  0  0
  145.8547  140.1322  155.3846 H   0  0  0  0  0  0  0  0  0  0  0  0
  146.2715  140.8602  153.1384 H   0  0  0  0  0  0  0  0  0  0  0  0
  147.7845  141.9046  154.6175 H   0  0  0  0  0  0  0  0  0  0  0  0
  153.5829  137.0234  154.2625 H   0  0  0  0  0  0  0  0  0  0  0  0
  149.2407  137.9182  153.9009 H   0  0  0  0  0  0  0  0  0  0  0  0
  146.2056  137.4368  153.9567 H   0  0  0  0  0  0  0  0  0  0  0  0
  145.1714  137.7369  155.3460 H   0  0  0  0  0  0  0  0  0  0  0  0
  144.7659  139.3861  153.1765 H   0  0  0  0  0  0  0  0  0  0  0  0
  148.0956  139.7286  152.0498 H   0  0  0  0  0  0  0  0  0  0  0  0
  149.2861  140.5383  152.6896 H   0  0  0  0  0  0  0  0  0  0  0  0
  1  2  2  0  0  0  0
  1 22  1  0  0  0  0
  2 17  1  0  0  0  0
  2  3  1  0  0  0  0
  3  4  2  0  0  0  0
  4  5  1  0  0  0  0
  4 23  1  0  0  0  0
  5  6  1  0  0  0  0
  5 15  1  0  0  0  0
  6 18  1  0  0  0  0
  6 13  1  0  0  0  0
  6  7  1  0  0  0  0
  7  8  1  0  0  0  0
  8 19  1  0  0  0  0
  8  9  1  0  0  0  0
  8 11  1  0  0  0  0
  9 10  1  0  0  0  0
  9 24  1  0  0  0  0
  9 25  1  0  0  0  0
 10 26  1  0  0  0  0
 11 20  1  0  0  0  0
 11 12  1  0  0  0  0
 11 13  1  0  0  0  0
 12 27  1  0  0  0  0
 13 21  1  0  0  0  0
 13 14  1  0  0  0  0
 14 28  1  0  0  0  0
 15 16  2  0  0  0  0
 15 17  1  0  0  0  0
M  CHG  1  17  -1
M  END
> <s_m_source_file>
AV-unprocessed.smi

> <i_m_source_file_index>
72

> <i_lp_mmshare_version>
43012

> <i_f3d_flags>
0

> <s_epik_input>
W05IMl1jMW5bY0hdbihjKD1PKW4xKVtDQEBIXTJPW0NASF0oW0NIMl1bT0hdKVtDQEBIXShbT0hdKVtDQEhdMltPSF0=

> <s_epik_cmdline>
J2VwaWtfcHl0aG9uJywgJy1waCcsICc3LjAnLCAnLXRuJywgJzgnLCAnLW1hJywgJzIwMCcsICctbWV0YWxfYmluZGluZycsICctaW1hZScsICc8aW5maWxlLm1hZT4nLCAnLW9tYWUnLCAnPG91dGZpbGUubWFlPic=

> <r_lp_tautomer_probability>
7.17554e-07

> <r_epik_Ionization_Penalty>
12.8705

> <r_epik_Ionization_Penalty_Charging>
5.64144

> <r_epik_Ionization_Penalty_Neutral>
7.22905

> <r_epik_State_Penalty>
3.30104

> <r_epik_Charging_Adjusted_Penalty>
8.94249

> <i_epik_Tot_Q>
-1

> <i_epik_Tot_abs_Q>
1

> <r_epik_Metal_State_Penalty>
0.529074

> <b_epik_Metal_Only>
1

> <s_epik_Chemistry_Notes>
This compound contains an acetal/aminal-like group ( X-CH(R)-Y where X, Y are N, S, or O) that may be acid/base labile, releasing an aldehyde.

> <s_lp_Force_Field>
OPLS_2005

> <r_lp_Energy>
42.0282

> <b_lp_Chiralities_Consistent>
1

> <s_lp_Variant>
AV-unprocessed.smi:72-61

> <Gold.Version>
5.8.1

> <Gold.Id.Protein>
6NUR|6NUR_protein|mol2

> <Gold.PLP.Fitness>
45.8948

> <Gold.PLP.PLP>
-27.7854

> <Gold.PLP.part.hbond>
-7.1687

> <Gold.PLP.part.metal>
0.0000

> <Gold.PLP.part.buried>
-5.3805

> <Gold.PLP.part.nonpolar>
-16.0288

> <Gold.PLP.part.repulsive>
0.2663

> <Gold.PLP.ligand.clash>
0.0000

> <Gold.PLP.ligand.torsion>
0.5543

> <Gold.PLP.Chemscore.Hbond>
5.6580

> <Gold.PLP.Chemscore.CHOScore>
0.7444

> <Gold.PLP.Chemscore.Metal>
0.0000

> <Gold.Chemscore.Hbonds>
donor molecule, donor type, donor heavy atom, donor atom, acceptor molecule, acceptor atom, score
      L1  H    10    26       P1 10175  0.53
      L1  H    12    27       P1  7957  1.00
      L1  H    14    28       P1  7957  0.93
      P1  H  7997  8008       L1    17  0.94
      P1  H  8011  8017       L1    14  0.90
      L1  C     4    23       P1  7948  0.73

> <Gold.PLP.Chemscore.Internal.Correction>
0.0107

> <Gold.Rescore>
     Score         DG    S(hbond)    S(metal)    S(lipo)     H(rot)  DE(clash)    DE(int)     intcor
     10.10     -10.28       3.93        0.00      17.21       4.04       0.00       0.17       ----

> <Gold.Chemscore.Fitness>
10.1020

> <Gold.Chemscore.DG>
-10.2759

> <Gold.Chemscore.ZeroCoef>
-5.4800

> <Gold.Chemscore.Hbond>
3.9299

> <Gold.Chemscore.Metal>
0.0000

> <Gold.Chemscore.Lipo>
17.2076

> <Gold.Chemscore.Internal_Hbond>
0.0000

> <Gold.Chemscore.DEClash>
0.0004

> <Gold.Chemscore.DEInternal>
0.1735

> <Gold.Chemscore.Rot>
4.0403

> <Gold.Chemscore.Internal.Correction>
   9.000000E+99

> <Gold.Chemscore.Hbonds>
donor molecule, donor type, donor heavy atom, donor atom, acceptor molecule, acceptor atom, score
      L1  H    10    26       P1 10175  0.52
      L1  H    12    27       P1  7957  1.00
      L1  H    14    28       P1  7957  0.89
      P1  H  7997  8008       L1    17  0.29
      P1  H  8011  8017       L1    14  0.17

> <Gold.Chemscore.Hbond.Weighted>
-13.1257

> <Gold.Chemscore.Metal.Weighted>
-0.0000

> <Gold.Chemscore.Lipo.Weighted>
-2.0133

> <Gold.Chemscore.Internal_Hbond.Weighted>
0.0000

> <Gold.Chemscore.DEClash.Weighted>
0.0004

> <Gold.Chemscore.DEInternal.Weighted>
0.1735

> <Gold.Chemscore.Rot.Weighted>
10.3431

> <Gold.Chemscore.Internal.Correction.Weighted>
   9.000000E+99

> <Gold.Protein.RotatedTorsions>
[ 6907 6896 6895 6894 ] final   36.74 input  -60.11 | X-H torsion
[ 7974 7965 7964 7962 ] final  -90.34 input  175.53 | X-H torsion
[ 8008 7997 7996 7995 ] final  -41.11 input   59.86 | X-H torsion
[ 10167 10162 10161 10158 ] final  -69.08 input  -65.29 | X-H torsion
[ 10718 10713 10712 10709 ] final -154.05 input   66.30 | X-H torsion
[ 10763 10752 10751 10750 ] final   94.25 input  -60.55 | X-H torsion
[ 11005 11000 10999 10996 ] final  114.41 input  -57.11 | X-H torsion

> <Gold.Protein.ActiveResidues>
 VAL166  LYS551  ARG553  GLY616  TRP617  ASP618  TYR619  PRO620  LYS621  CYS622 
 ASP623  PHE694  ASN695  SER759  ASP760  ASP761  ALA762  ILE779  LEU786  VAL792 
 PHE793  MET794  SER795  GLU796  ALA797  LYS798  CYS799  TRP800  GLU811  SER814 

> <Gold.Protein.RotatedAtoms>
  152.1338  134.9115  160.0557 H   0  0  0  0  0  0  0  0  0  0  0  0  # atno 6907 bound_to 6896
  152.0209  133.3893  159.4266 H   0  0  0  0  0  0  0  0  0  0  0  0  # atno 6908 bound_to 6896
  150.6858  134.3549  159.4968 H   0  0  0  0  0  0  0  0  0  0  0  0  # atno 6909 bound_to 6896
  145.4278  140.9554  143.2145 H   0  0  0  0  0  0  0  0  0  0  0  0  # atno 7974 bound_to 7965
  154.4006  140.1508  156.3137 H   0  0  0  0  0  0  0  0  0  0  0  0  # atno 8008 bound_to 7997
  155.8592  140.3454  155.5723 H   0  0  0  0  0  0  0  0  0  0  0  0  # atno 8009 bound_to 7997
  155.7898  140.0855  157.2005 H   0  0  0  0  0  0  0  0  0  0  0  0  # atno 8010 bound_to 7997
  140.5458  143.2313  151.7004 H   0  0  0  0  0  0  0  0  0  0  0  0  # atno 10167 bound_to 10162
  156.4940  130.8360  151.2582 H   0  0  0  0  0  0  0  0  0  0  0  0  # atno 10718 bound_to 10713
  153.2395  135.4296  155.0682 H   0  0  0  0  0  0  0  0  0  0  0  0  # atno 10763 bound_to 10752
  154.8334  135.3399  154.6670 H   0  0  0  0  0  0  0  0  0  0  0  0  # atno 10764 bound_to 10752
  153.7094  135.7023  153.5098 H   0  0  0  0  0  0  0  0  0  0  0  0  # atno 10765 bound_to 10752
  139.8980  134.9567  156.6887 H   0  0  0  0  0  0  0  0  0  0  0  0  # atno 11005 bound_to 11000
  144.8202  139.5804  143.6990 LP  0  0  0  0  0  0  0  0  0  0  0  0  # atno 17320 bound_to 7965
  146.2623  139.6438  142.9353 LP  0  0  0  0  0  0  0  0  0  0  0  0  # atno 17321 bound_to 7965
  139.5007  144.3897  152.0292 LP  0  0  0  0  0  0  0  0  0  0  0  0  # atno 17342 bound_to 10162
  140.3010  144.3647  150.6060 LP  0  0  0  0  0  0  0  0  0  0  0  0  # atno 17343 bound_to 10162
  157.7470  131.0004  150.2924 LP  0  0  0  0  0  0  0  0  0  0  0  0  # atno 17370 bound_to 10713
  156.3398  130.3813  149.7418 LP  0  0  0  0  0  0  0  0  0  0  0  0  # atno 17371 bound_to 10713
  140.7242  133.9115  155.8167 LP  0  0  0  0  0  0  0  0  0  0  0  0  # atno 17394 bound_to 11000
  141.0204  134.0897  157.4127 LP  0  0  0  0  0  0  0  0  0  0  0  0  # atno 17395 bound_to 11000

$$$$
