AV-unprocessed.smi:1388|AV-procd|sdf|5641|dock5
  -GOLD-   22720 5263D 1   1.00000     0.00000
 Structure written by MMmdl.
 45 46  0  0  0  0  0  0  0  0  1 V2000
  145.8390  135.0007  152.7571 C   0  0  0  0  0  0  0  0  0  0  0  0
  146.3894  136.2794  152.3350 N   0  0  0  0  0  0  0  0  0  0  0  0
  145.7957  137.4637  152.5428 C   0  0  0  0  0  0  0  0  0  0  0  0
  144.7118  137.5880  153.1126 O   0  0  0  0  0  0  0  0  0  0  0  0
  146.5381  138.7000  152.0233 C   0  0  0  0  0  0  0  0  0  0  0  0
  147.0718  139.5883  153.0820 N   0  0  0  0  0  0  0  0  0  0  0  0
  147.3136  140.9553  152.5964 C   0  0  0  0  0  0  0  0  0  0  0  0
  147.8058  141.8602  153.7400 C   0  0  0  0  0  0  0  0  0  0  0  0
  149.0795  141.2980  154.3904 C   0  0  0  0  0  0  0  0  0  0  0  0
  149.4551  142.0920  155.5567 N   0  0  0  0  0  0  0  0  0  0  0  0
  150.3681  141.7365  156.4725 C   0  0  0  0  0  0  0  0  0  0  0  0
  150.9866  140.6720  156.4373 O   0  0  0  0  0  0  0  0  0  0  0  0
  150.5166  142.6929  157.4063 N   0  0  0  0  0  0  0  0  0  0  0  0
  151.3604  142.6877  158.5530 C   0  0  0  0  0  0  0  0  0  0  0  0
  151.8762  141.5472  159.0770 N   0  0  0  0  0  0  0  0  0  0  0  0
  152.6639  141.6135  160.1698 C   0  0  0  0  0  0  0  0  0  0  0  0
  152.9873  142.8216  160.8107 C   0  0  0  0  0  0  0  0  0  0  0  0
  152.4608  144.0124  160.2819 C   0  0  0  0  0  0  0  0  0  0  0  0
  151.6351  143.9527  159.1390 C   0  0  0  0  0  0  0  0  0  0  0  0
  151.0658  145.2398  158.5645 C   0  0  0  0  0  0  0  0  0  0  0  0
  148.8273  139.8415  154.8033 C   0  0  0  0  0  0  0  0  0  0  0  0
  148.3120  139.0131  153.6136 C   0  0  0  0  0  0  0  0  0  0  0  0
  146.5010  134.1918  152.4486 H   0  0  0  0  0  0  0  0  0  0  0  0
  144.8598  134.8303  152.3074 H   0  0  0  0  0  0  0  0  0  0  0  0
  145.7360  134.9623  153.8422 H   0  0  0  0  0  0  0  0  0  0  0  0
  147.2810  136.2675  151.8609 H   0  0  0  0  0  0  0  0  0  0  0  0
  147.3579  138.3452  151.3970 H   0  0  0  0  0  0  0  0  0  0  0  0
  145.8728  139.2661  151.3684 H   0  0  0  0  0  0  0  0  0  0  0  0
  148.0432  140.9422  151.7848 H   0  0  0  0  0  0  0  0  0  0  0  0
  146.4011  141.3924  152.1912 H   0  0  0  0  0  0  0  0  0  0  0  0
  147.9935  142.8643  153.3577 H   0  0  0  0  0  0  0  0  0  0  0  0
  147.0172  141.9577  154.4880 H   0  0  0  0  0  0  0  0  0  0  0  0
  149.8896  141.3102  153.6584 H   0  0  0  0  0  0  0  0  0  0  0  0
  148.9953  142.9844  155.6644 H   0  0  0  0  0  0  0  0  0  0  0  0
  149.9627  143.5273  157.2830 H   0  0  0  0  0  0  0  0  0  0  0  0
  153.0464  140.6756  160.5440 H   0  0  0  0  0  0  0  0  0  0  0  0
  153.6219  142.8338  161.6846 H   0  0  0  0  0  0  0  0  0  0  0  0
  152.6898  144.9583  160.7507 H   0  0  0  0  0  0  0  0  0  0  0  0
  151.3794  146.1076  159.1456 H   0  0  0  0  0  0  0  0  0  0  0  0
  149.9758  145.2102  158.5681 H   0  0  0  0  0  0  0  0  0  0  0  0
  151.4062  145.3824  157.5384 H   0  0  0  0  0  0  0  0  0  0  0  0
  149.7460  139.3988  155.1900 H   0  0  0  0  0  0  0  0  0  0  0  0
  148.0988  139.8014  155.6148 H   0  0  0  0  0  0  0  0  0  0  0  0
  148.1314  137.9911  153.9498 H   0  0  0  0  0  0  0  0  0  0  0  0
  149.0725  138.9599  152.8323 H   0  0  0  0  0  0  0  0  0  0  0  0
  1  2  1  0  0  0  0
  1 23  1  0  0  0  0
  1 24  1  0  0  0  0
  1 25  1  0  0  0  0
  2  3  1  0  0  0  0
  2 26  1  0  0  0  0
  3  4  2  0  0  0  0
  3  5  1  0  0  0  0
  5  6  1  0  0  0  0
  5 27  1  0  0  0  0
  5 28  1  0  0  0  0
  6 22  1  0  0  0  0
  6  7  1  0  0  0  0
  7  8  1  0  0  0  0
  7 29  1  0  0  0  0
  7 30  1  0  0  0  0
  8  9  1  0  0  0  0
  8 31  1  0  0  0  0
  8 32  1  0  0  0  0
  9 10  1  0  0  0  0
  9 21  1  0  0  0  0
  9 33  1  0  0  0  0
 10 11  1  0  0  0  0
 10 34  1  0  0  0  0
 11 12  2  0  0  0  0
 11 13  1  0  0  0  0
 13 14  1  0  0  0  0
 13 35  1  0  0  0  0
 14 19  1  0  0  0  0
 14 15  2  0  0  0  0
 15 16  1  0  0  0  0
 16 17  2  0  0  0  0
 16 36  1  0  0  0  0
 17 18  1  0  0  0  0
 17 37  1  0  0  0  0
 18 19  2  0  0  0  0
 18 38  1  0  0  0  0
 19 20  1  0  0  0  0
 20 39  1  0  0  0  0
 20 40  1  0  0  0  0
 20 41  1  0  0  0  0
 21 22  1  0  0  0  0
 21 42  1  0  0  0  0
 21 43  1  0  0  0  0
 22 44  1  0  0  0  0
 22 45  1  0  0  0  0
M  END
> <s_m_source_file>
AV-unprocessed.smi

> <i_m_source_file_index>
1388

> <i_lp_mmshare_version>
43012

> <i_f3d_flags>
0

> <s_epik_input>
W0NIM11bTkhdQyg9TylbQ0gyXU4xW0NIMl1bQ0gyXVtDSF0oW0NIMl1bQ0gyXTEpW05IXUMoPU8pW05IXWMybltjSF1bY0hdW2NIXWMyW0NIM10=

> <s_epik_cmdline>
J2VwaWtfcHl0aG9uJywgJy1waCcsICc3LjAnLCAnLXRuJywgJzgnLCAnLW1hJywgJzIwMCcsICctbWV0YWxfYmluZGluZycsICctaW1hZScsICc8aW5maWxlLm1hZT4nLCAnLW9tYWUnLCAnPG91dGZpbGUubWFlPic=

> <r_epik_Ionization_Penalty>
0.164795

> <r_epik_Ionization_Penalty_Charging>
0

> <r_epik_Ionization_Penalty_Neutral>
0.164795

> <r_epik_State_Penalty>
0.154069

> <r_epik_Charging_Adjusted_Penalty>
0.154069

> <i_epik_Tot_Q>
0

> <i_epik_Tot_abs_Q>
0

> <r_epik_Metal_State_Penalty>
0.158585

> <b_epik_Metal_Only>
0

> <s_lp_Force_Field>
OPLS_2005

> <r_lp_Energy>
17.3475

> <b_lp_Chiralities_Consistent>
1

> <s_lp_Variant>
AV-unprocessed.smi:1388-1

> <Gold.Version>
5.8.1

> <Gold.Id.Protein>
6NUR|6NUR_protein|mol2

> <Gold.PLP.Fitness>
47.7781

> <Gold.PLP.PLP>
-41.7943

> <Gold.PLP.part.hbond>
-2.7381

> <Gold.PLP.part.metal>
0.0000

> <Gold.PLP.part.buried>
-3.2663

> <Gold.PLP.part.nonpolar>
-34.7732

> <Gold.PLP.part.repulsive>
0.6429

> <Gold.PLP.ligand.clash>
0.0000

> <Gold.PLP.ligand.torsion>
0.4869

> <Gold.PLP.Chemscore.Hbond>
2.3058

> <Gold.PLP.Chemscore.CHOScore>
0.0000

> <Gold.PLP.Chemscore.Metal>
0.0000

> <Gold.Chemscore.Hbonds>
donor molecule, donor type, donor heavy atom, donor atom, acceptor molecule, acceptor atom, score
      L1  H     2    26       P1  7948  1.00
      L1  H    10    34       P1  8028  1.00
      L1  H    13    35       P1  8028  0.34

> <Gold.PLP.Chemscore.Internal.Correction>
0.0404

> <Gold.Rescore>
     Score         DG    S(hbond)    S(metal)    S(lipo)     H(rot)  DE(clash)    DE(int)     intcor
     18.36     -22.87       2.82        0.00     104.48       1.66       1.62       2.89       ----

> <Gold.Chemscore.Fitness>
18.3582

> <Gold.Chemscore.DG>
-22.8715

> <Gold.Chemscore.ZeroCoef>
-5.4800

> <Gold.Chemscore.Hbond>
2.8208

> <Gold.Chemscore.Metal>
0.0000

> <Gold.Chemscore.Lipo>
104.4769

> <Gold.Chemscore.Internal_Hbond>
0.0000

> <Gold.Chemscore.DEClash>
1.6241

> <Gold.Chemscore.DEInternal>
2.8892

> <Gold.Chemscore.Rot>
1.6616

> <Gold.Chemscore.Internal.Correction>
   9.000000E+99

> <Gold.Chemscore.Hbonds>
donor molecule, donor type, donor heavy atom, donor atom, acceptor molecule, acceptor atom, score
      L1  H     2    26       P1  7948  0.97
      L1  H    10    34       P1  8028  0.99
      L1  H    13    35       P1  8028  0.31

> <Gold.Chemscore.Hbond.Weighted>
-9.4215

> <Gold.Chemscore.Metal.Weighted>
-0.0000

> <Gold.Chemscore.Lipo.Weighted>
-12.2238

> <Gold.Chemscore.Internal_Hbond.Weighted>
0.0000

> <Gold.Chemscore.DEClash.Weighted>
1.6241

> <Gold.Chemscore.DEInternal.Weighted>
2.8892

> <Gold.Chemscore.Rot.Weighted>
4.2538

> <Gold.Chemscore.Internal.Correction.Weighted>
   9.000000E+99

> <Gold.Protein.RotatedTorsions>
[ 6907 6896 6895 6894 ] final   45.55 input  -60.11 | X-H torsion
[ 7974 7965 7964 7962 ] final  -20.95 input  175.53 | X-H torsion
[ 8008 7997 7996 7995 ] final   62.04 input   59.86 | X-H torsion
[ 10167 10162 10161 10158 ] final -123.22 input  -65.29 | X-H torsion
[ 10718 10713 10712 10709 ] final -146.08 input   66.30 | X-H torsion
[ 10763 10752 10751 10750 ] final  102.80 input  -60.55 | X-H torsion
[ 11005 11000 10999 10996 ] final -108.09 input  -57.11 | X-H torsion

> <Gold.Protein.ActiveResidues>
 VAL166  LYS551  ARG553  GLY616  TRP617  ASP618  TYR619  PRO620  LYS621  CYS622 
 ASP623  PHE694  ASN695  SER759  ASP760  ASP761  ALA762  ILE779  LEU786  VAL792 
 PHE793  MET794  SER795  GLU796  ALA797  LYS798  CYS799  TRP800  GLU811  SER814 

> <Gold.Protein.RotatedAtoms>
  152.2459  134.8182  160.0453 H   0  0  0  0  0  0  0  0  0  0  0  0  # atno 6907 bound_to 6896
  151.8879  133.3504  159.3796 H   0  0  0  0  0  0  0  0  0  0  0  0  # atno 6908 bound_to 6896
  150.7068  134.4879  159.5546 H   0  0  0  0  0  0  0  0  0  0  0  0  # atno 6909 bound_to 6896
  146.1760  140.4273  142.8513 H   0  0  0  0  0  0  0  0  0  0  0  0  # atno 7974 bound_to 7965
  155.6080  140.3494  155.4614 H   0  0  0  0  0  0  0  0  0  0  0  0  # atno 8008 bound_to 7997
  156.0176  140.1247  157.0414 H   0  0  0  0  0  0  0  0  0  0  0  0  # atno 8009 bound_to 7997
  154.4303  140.1069  156.5904 H   0  0  0  0  0  0  0  0  0  0  0  0  # atno 8010 bound_to 7997
  140.0058  143.5493  152.2284 H   0  0  0  0  0  0  0  0  0  0  0  0  # atno 10167 bound_to 10162
  156.3904  130.7883  151.2084 H   0  0  0  0  0  0  0  0  0  0  0  0  # atno 10718 bound_to 10713
  153.3444  135.3998  155.1597 H   0  0  0  0  0  0  0  0  0  0  0  0  # atno 10763 bound_to 10752
  154.8650  135.3641  154.5304 H   0  0  0  0  0  0  0  0  0  0  0  0  # atno 10764 bound_to 10752
  153.5751  135.7078  153.5547 H   0  0  0  0  0  0  0  0  0  0  0  0  # atno 10765 bound_to 10752
  141.0920  133.9038  157.2053 H   0  0  0  0  0  0  0  0  0  0  0  0  # atno 11005 bound_to 11000
  144.8237  140.6593  143.6336 LP  0  0  0  0  0  0  0  0  0  0  0  0  # atno 17320 bound_to 7965
  145.4210  139.1564  143.4074 LP  0  0  0  0  0  0  0  0  0  0  0  0  # atno 17321 bound_to 7965
  139.6239  144.7634  151.2680 LP  0  0  0  0  0  0  0  0  0  0  0  0  # atno 17342 bound_to 10162
  140.7401  143.6598  150.8174 LP  0  0  0  0  0  0  0  0  0  0  0  0  # atno 17343 bound_to 10162
  157.7498  131.0317  150.4194 LP  0  0  0  0  0  0  0  0  0  0  0  0  # atno 17370 bound_to 10713
  156.4454  130.4000  149.6670 LP  0  0  0  0  0  0  0  0  0  0  0  0  # atno 17371 bound_to 10713
  139.9748  135.0117  156.9603 LP  0  0  0  0  0  0  0  0  0  0  0  0  # atno 17394 bound_to 11000
  140.5230  134.0889  155.7296 LP  0  0  0  0  0  0  0  0  0  0  0  0  # atno 17395 bound_to 11000

$$$$
