AV-unprocessed.smi:866|AV-procd|sdf|3993|dock6
  -GOLD-   22720 1473D 1   1.00000     0.00000
 Structure written by MMmdl.
 34 34  0  0  0  0  0  0  0  0  2 V2000
  153.1584  142.6390  162.4042 C   0  0  0  0  0  0  0  0  0  0  0  0
  152.5630  143.2332  161.1601 C   0  0  0  0  0  0  0  0  0  0  0  0
  151.8857  144.4784  161.0233 C   0  0  0  0  0  0  0  0  0  0  0  0
  151.4806  144.7099  159.7850 N   0  0  0  0  0  0  0  0  0  0  0  0
  151.8809  143.6240  159.0909 N   0  0  0  0  0  0  0  0  0  0  0  0
  151.6052  143.5373  157.6701 C   0  0  0  0  0  0  0  0  0  0  0  0
  150.7975  142.2791  157.3208 C   0  0  0  0  0  0  0  0  0  0  0  0
  150.3803  142.2996  155.9030 N   0  3  0  0  0  0  0  0  0  0  0  0
  149.6728  141.0883  155.4286 C   0  0  1  0  0  0  0  0  0  0  0  0
  148.8246  141.3965  154.1784 C   0  0  0  0  0  0  0  0  0  0  0  0
  150.7059  139.9669  155.1724 C   0  0  0  0  0  0  0  0  0  0  0  0
  150.0887  138.6253  154.7578 C   0  0  0  0  0  0  0  0  0  0  0  0
  149.6574  138.5204  153.4985 N   0  0  0  0  0  0  0  0  0  0  0  0
  150.0058  137.6947  155.5566 O   0  0  0  0  0  0  0  0  0  0  0  0
  152.5386  142.7177  159.8952 C   0  0  0  0  0  0  0  0  0  0  0  0
  153.3263  143.3934  163.1730 H   0  0  0  0  0  0  0  0  0  0  0  0
  154.1201  142.1656  162.2053 H   0  0  0  0  0  0  0  0  0  0  0  0
  152.5081  141.8787  162.8368 H   0  0  0  0  0  0  0  0  0  0  0  0
  151.6783  145.2172  161.7836 H   0  0  0  0  0  0  0  0  0  0  0  0
  151.0656  144.4361  157.3679 H   0  0  0  0  0  0  0  0  0  0  0  0
  152.5543  143.5410  157.1321 H   0  0  0  0  0  0  0  0  0  0  0  0
  151.4007  141.3896  157.5082 H   0  0  0  0  0  0  0  0  0  0  0  0
  149.9188  142.2150  157.9622 H   0  0  0  0  0  0  0  0  0  0  0  0
  149.7940  143.1059  155.7409 H   0  0  0  0  0  0  0  0  0  0  0  0
  149.0086  140.7659  156.2323 H   0  0  0  0  0  0  0  0  0  0  0  0
  148.2973  140.5105  153.8243 H   0  0  0  0  0  0  0  0  0  0  0  0
  149.4453  141.7598  153.3586 H   0  0  0  0  0  0  0  0  0  0  0  0
  148.0644  142.1510  154.3792 H   0  0  0  0  0  0  0  0  0  0  0  0
  151.4249  140.2907  154.4179 H   0  0  0  0  0  0  0  0  0  0  0  0
  151.2791  139.7837  156.0823 H   0  0  0  0  0  0  0  0  0  0  0  0
  149.2390  137.6608  153.1732 H   0  0  0  0  0  0  0  0  0  0  0  0
  149.7483  139.3080  152.8723 H   0  0  0  0  0  0  0  0  0  0  0  0
  152.9316  141.7899  159.5060 H   0  0  0  0  0  0  0  0  0  0  0  0
  151.2186  142.3975  155.3483 H   0  0  0  0  0  0  0  0  0  0  0  0
  1  2  1  0  0  0  0
  1 16  1  0  0  0  0
  1 17  1  0  0  0  0
  1 18  1  0  0  0  0
  2 15  2  0  0  0  0
  2  3  1  0  0  0  0
  3  4  2  0  0  0  0
  3 19  1  0  0  0  0
  4  5  1  0  0  0  0
  5  6  1  0  0  0  0
  5 15  1  0  0  0  0
  6  7  1  0  0  0  0
  6 20  1  0  0  0  0
  6 21  1  0  0  0  0
  7  8  1  0  0  0  0
  7 22  1  0  0  0  0
  7 23  1  0  0  0  0
  8  9  1  0  0  0  0
  8 24  1  0  0  0  0
  8 34  1  0  0  0  0
  9 10  1  0  0  0  0
  9 11  1  0  0  0  0
  9 25  1  0  0  0  0
 10 26  1  0  0  0  0
 10 27  1  0  0  0  0
 10 28  1  0  0  0  0
 11 12  1  0  0  0  0
 11 29  1  0  0  0  0
 11 30  1  0  0  0  0
 12 13  1  0  0  0  0
 12 14  2  0  0  0  0
 13 31  1  0  0  0  0
 13 32  1  0  0  0  0
 15 33  1  0  0  0  0
M  CHG  1   8   1
M  END
> <s_m_source_file>
AV-unprocessed.smi

> <i_m_source_file_index>
866

> <i_lp_mmshare_version>
43012

> <i_f3d_flags>
0

> <s_epik_input>
W0NIM11jMVtjSF1ubihbY0hdMSlbQ0gyXVtDSDJdW05IXVtDQEhdKFtDSDNdKVtDSDJdQyg9TylbTkgyXQ==

> <s_epik_cmdline>
J2VwaWtfcHl0aG9uJywgJy1waCcsICc3LjAnLCAnLXRuJywgJzgnLCAnLW1hJywgJzIwMCcsICctbWV0YWxfYmluZGluZycsICctaW1hZScsICc8aW5maWxlLm1hZT4nLCAnLW9tYWUnLCAnPG91dGZpbGUubWFlPic=

> <r_lp_tautomer_probability>
1

> <r_epik_Ionization_Penalty>
0.0061413

> <r_epik_Ionization_Penalty_Charging>
0.00613574

> <r_epik_Ionization_Penalty_Neutral>
5.56035e-06

> <r_epik_State_Penalty>
0.00452343

> <r_epik_Charging_Adjusted_Penalty>
0.0106592

> <i_epik_Tot_Q>
1

> <i_epik_Tot_abs_Q>
1

> <r_epik_Metal_State_Penalty>
-0

> <b_epik_Metal_Only>
0

> <s_lp_Force_Field>
OPLS_2005

> <r_lp_Energy>
3.04196

> <b_lp_Chiralities_Consistent>
1

> <s_lp_Variant>
AV-unprocessed.smi:866-2

> <Gold.Version>
5.8.1

> <Gold.Id.Protein>
6NUR|6NUR_protein|mol2

> <Gold.PLP.Fitness>
51.3021

> <Gold.PLP.PLP>
-40.0942

> <Gold.PLP.part.hbond>
-3.0000

> <Gold.PLP.part.metal>
0.0000

> <Gold.PLP.part.buried>
-2.8745

> <Gold.PLP.part.nonpolar>
-34.1901

> <Gold.PLP.part.repulsive>
0.3705

> <Gold.PLP.ligand.clash>
0.0000

> <Gold.PLP.ligand.torsion>
0.4270

> <Gold.PLP.Chemscore.Hbond>
3.9920

> <Gold.PLP.Chemscore.CHOScore>
0.0000

> <Gold.PLP.Chemscore.Metal>
0.0000

> <Gold.Chemscore.Hbonds>
donor molecule, donor type, donor heavy atom, donor atom, acceptor molecule, acceptor atom, score
      L1  H     8    24       P1  8028  2.00
      L1  H    13    31       P1  7948  1.00
      L1  H    13    32       P1  7957  0.99

> <Gold.PLP.Chemscore.Internal.Correction>
0.0860

> <Gold.Rescore>
     Score         DG    S(hbond)    S(metal)    S(lipo)     H(rot)  DE(clash)    DE(int)     intcor
     17.77     -18.44       2.93        0.00      87.94       2.77       0.15       0.52       ----

> <Gold.Chemscore.Fitness>
17.7749

> <Gold.Chemscore.DG>
-18.4436

> <Gold.Chemscore.ZeroCoef>
-5.4800

> <Gold.Chemscore.Hbond>
2.9269

> <Gold.Chemscore.Metal>
0.0000

> <Gold.Chemscore.Lipo>
87.9406

> <Gold.Chemscore.Internal_Hbond>
0.0000

> <Gold.Chemscore.DEClash>
0.1468

> <Gold.Chemscore.DEInternal>
0.5219

> <Gold.Chemscore.Rot>
2.7740

> <Gold.Chemscore.Internal.Correction>
   9.000000E+99

> <Gold.Chemscore.Hbonds>
donor molecule, donor type, donor heavy atom, donor atom, acceptor molecule, acceptor atom, score
      L1  H     8    24       P1  8028  1.00
      L1  H    13    31       P1  7948  0.94
      L1  H    13    32       P1  7957  0.93

> <Gold.Chemscore.Hbond.Weighted>
-9.7760

> <Gold.Chemscore.Metal.Weighted>
-0.0000

> <Gold.Chemscore.Lipo.Weighted>
-10.2891

> <Gold.Chemscore.Internal_Hbond.Weighted>
0.0000

> <Gold.Chemscore.DEClash.Weighted>
0.1468

> <Gold.Chemscore.DEInternal.Weighted>
0.5219

> <Gold.Chemscore.Rot.Weighted>
7.1014

> <Gold.Chemscore.Internal.Correction.Weighted>
   9.000000E+99

> <Gold.Protein.RotatedTorsions>
[ 6907 6896 6895 6894 ] final  -83.93 input  -60.11 | X-H torsion
[ 7974 7965 7964 7962 ] final  -46.62 input  175.53 | X-H torsion
[ 8008 7997 7996 7995 ] final  -59.17 input   59.86 | X-H torsion
[ 10167 10162 10161 10158 ] final  158.99 input  -65.29 | X-H torsion
[ 10718 10713 10712 10709 ] final -122.35 input   66.30 | X-H torsion
[ 10763 10752 10751 10750 ] final   35.52 input  -60.55 | X-H torsion
[ 11005 11000 10999 10996 ] final  -45.35 input  -57.11 | X-H torsion

> <Gold.Protein.ActiveResidues>
 VAL166  LYS551  ARG553  GLY616  TRP617  ASP618  TYR619  PRO620  LYS621  CYS622 
 ASP623  PHE694  ASN695  SER759  ASP760  ASP761  ALA762  ILE779  LEU786  VAL792 
 PHE793  MET794  SER795  GLU796  ALA797  LYS798  CYS799  TRP800  GLU811  SER814 

> <Gold.Protein.RotatedAtoms>
  150.6881  134.3436  159.4878 H   0  0  0  0  0  0  0  0  0  0  0  0  # atno 6907 bound_to 6896
  152.1286  134.9149  160.0569 H   0  0  0  0  0  0  0  0  0  0  0  0  # atno 6908 bound_to 6896
  152.0327  133.3909  159.4341 H   0  0  0  0  0  0  0  0  0  0  0  0  # atno 6909 bound_to 6896
  145.9700  140.7393  142.9415 H   0  0  0  0  0  0  0  0  0  0  0  0  # atno 7974 bound_to 7965
  154.4341  140.1067  156.6074 H   0  0  0  0  0  0  0  0  0  0  0  0  # atno 8008 bound_to 7997
  155.5846  140.3491  155.4531 H   0  0  0  0  0  0  0  0  0  0  0  0  # atno 8009 bound_to 7997
  156.0292  140.1257  157.0265 H   0  0  0  0  0  0  0  0  0  0  0  0  # atno 8010 bound_to 7997
  139.4830  144.4773  151.8494 H   0  0  0  0  0  0  0  0  0  0  0  0  # atno 10167 bound_to 10162
  156.1411  130.6467  150.9773 H   0  0  0  0  0  0  0  0  0  0  0  0  # atno 10718 bound_to 10713
  153.0115  135.6331  154.1840 H   0  0  0  0  0  0  0  0  0  0  0  0  # atno 10763 bound_to 10752
  154.1582  135.2825  155.3118 H   0  0  0  0  0  0  0  0  0  0  0  0  # atno 10764 bound_to 10752
  154.6002  135.5590  153.7427 H   0  0  0  0  0  0  0  0  0  0  0  0  # atno 10765 bound_to 10752
  141.0509  133.6743  156.3000 H   0  0  0  0  0  0  0  0  0  0  0  0  # atno 11005 bound_to 11000
  144.6834  140.2733  143.7303 LP  0  0  0  0  0  0  0  0  0  0  0  0  # atno 17320 bound_to 7965
  145.7919  139.1930  143.2098 LP  0  0  0  0  0  0  0  0  0  0  0  0  # atno 17321 bound_to 7965
  140.4246  144.2198  150.5887 LP  0  0  0  0  0  0  0  0  0  0  0  0  # atno 17342 bound_to 10162
  140.4840  143.2369  151.8914 LP  0  0  0  0  0  0  0  0  0  0  0  0  # atno 17343 bound_to 10162
  157.6577  131.0886  150.7911 LP  0  0  0  0  0  0  0  0  0  0  0  0  # atno 17370 bound_to 10713
  156.7986  130.4913  149.5373 LP  0  0  0  0  0  0  0  0  0  0  0  0  # atno 17371 bound_to 10713
  140.6056  134.5510  157.5525 LP  0  0  0  0  0  0  0  0  0  0  0  0  # atno 17394 bound_to 11000
  139.9350  134.7892  156.0827 LP  0  0  0  0  0  0  0  0  0  0  0  0  # atno 17395 bound_to 11000

$$$$
