AV-unprocessed.smi:1335|AV-procd|sdf|5494|dock4
  -GOLD-   22720 5 73D 1   1.00000     0.00000
 Structure written by MMmdl.
 47 49  0  0  0  0  0  0  0  0  1 V2000
  146.1643  139.1276  158.9825 C   0  0  0  0  0  0  0  0  0  0  0  0
  146.7501  139.3204  157.7029 O   0  0  0  0  0  0  0  0  0  0  0  0
  146.2639  140.3350  156.9031 C   0  0  0  0  0  0  0  0  0  0  0  0
  145.2179  141.2072  157.3014 C   0  0  0  0  0  0  0  0  0  0  0  0
  144.7720  142.2323  156.4461 C   0  0  0  0  0  0  0  0  0  0  0  0
  145.3666  142.4055  155.1848 C   0  0  0  0  0  0  0  0  0  0  0  0
  146.4037  141.5481  154.7778 C   0  0  0  0  0  0  0  0  0  0  0  0
  146.8471  140.5069  155.6227 C   0  0  0  0  0  0  0  0  0  0  0  0
  147.9790  139.6026  155.1569 C   0  0  0  0  0  0  0  0  0  0  0  0
  149.0994  139.6628  156.0246 O   0  0  0  0  0  0  0  0  0  0  0  0
  150.3388  139.5280  155.3490 C   0  0  0  0  0  0  0  0  0  0  0  0
  151.4395  140.1557  156.2171 C   0  0  2  0  0  0  0  0  0  0  0  0
  152.6736  139.9266  155.5684 O   0  0  0  0  0  0  0  0  0  0  0  0
  151.4973  139.5368  157.6294 C   0  0  0  0  0  0  0  0  0  0  0  0
  152.1349  140.4420  158.5818 N   0  0  0  0  0  0  0  0  0  0  0  0
  153.0996  140.1246  159.4769 C   0  0  0  0  0  0  0  0  0  0  0  0
  153.5872  139.0074  159.6475 O   0  0  0  0  0  0  0  0  0  0  0  0
  153.4391  141.2533  160.1432 N   0  0  0  0  0  0  0  0  0  0  0  0
  154.4442  141.3857  161.1908 C   0  0  0  0  0  0  0  0  0  0  0  0
  152.6832  142.3244  159.6493 C   0  0  0  0  0  0  0  0  0  0  0  0
  152.6739  143.6861  159.9968 C   0  0  0  0  0  0  0  0  0  0  0  0
  151.7815  144.5265  159.2903 C   0  0  0  0  0  0  0  0  0  0  0  0
  150.9393  144.0031  158.2747 C   0  0  0  0  0  0  0  0  0  0  0  0
  150.9705  142.6278  157.9450 C   0  0  0  0  0  0  0  0  0  0  0  0
  151.8634  141.8151  158.6651 C   0  0  0  0  0  0  0  0  0  0  0  0
  146.6523  138.2882  159.4779 H   0  0  0  0  0  0  0  0  0  0  0  0
  145.1024  138.8907  158.9042 H   0  0  0  0  0  0  0  0  0  0  0  0
  146.2944  140.0050  159.6174 H   0  0  0  0  0  0  0  0  0  0  0  0
  144.7392  141.1137  158.2640 H   0  0  0  0  0  0  0  0  0  0  0  0
  143.9755  142.8900  156.7617 H   0  0  0  0  0  0  0  0  0  0  0  0
  145.0298  143.1964  154.5308 H   0  0  0  0  0  0  0  0  0  0  0  0
  146.8590  141.6962  153.8097 H   0  0  0  0  0  0  0  0  0  0  0  0
  147.6008  138.5805  155.1047 H   0  0  0  0  0  0  0  0  0  0  0  0
  148.2997  139.8847  154.1533 H   0  0  0  0  0  0  0  0  0  0  0  0
  150.5552  138.4769  155.1501 H   0  0  0  0  0  0  0  0  0  0  0  0
  150.2821  140.0410  154.3873 H   0  0  0  0  0  0  0  0  0  0  0  0
  151.2709  141.2323  156.2696 H   0  0  0  0  0  0  0  0  0  0  0  0
  152.9062  139.0171  155.6768 H   0  0  0  0  0  0  0  0  0  0  0  0
  150.4888  139.3436  157.9964 H   0  0  0  0  0  0  0  0  0  0  0  0
  151.9901  138.5630  157.6174 H   0  0  0  0  0  0  0  0  0  0  0  0
  154.0238  141.8965  162.0574 H   0  0  0  0  0  0  0  0  0  0  0  0
  155.2901  141.9692  160.8266 H   0  0  0  0  0  0  0  0  0  0  0  0
  154.8190  140.4168  161.5230 H   0  0  0  0  0  0  0  0  0  0  0  0
  153.3205  144.0772  160.7684 H   0  0  0  0  0  0  0  0  0  0  0  0
  151.7422  145.5799  159.5255 H   0  0  0  0  0  0  0  0  0  0  0  0
  150.2665  144.6622  157.7462 H   0  0  0  0  0  0  0  0  0  0  0  0
  150.3355  142.2239  157.1709 H   0  0  0  0  0  0  0  0  0  0  0  0
  1  2  1  0  0  0  0
  1 26  1  0  0  0  0
  1 27  1  0  0  0  0
  1 28  1  0  0  0  0
  2  3  1  0  0  0  0
  3  8  1  0  0  0  0
  3  4  2  0  0  0  0
  4  5  1  0  0  0  0
  4 29  1  0  0  0  0
  5  6  2  0  0  0  0
  5 30  1  0  0  0  0
  6  7  1  0  0  0  0
  6 31  1  0  0  0  0
  7  8  2  0  0  0  0
  7 32  1  0  0  0  0
  8  9  1  0  0  0  0
  9 10  1  0  0  0  0
  9 33  1  0  0  0  0
  9 34  1  0  0  0  0
 10 11  1  0  0  0  0
 11 12  1  0  0  0  0
 11 35  1  0  0  0  0
 11 36  1  0  0  0  0
 12 13  1  0  0  0  0
 12 14  1  0  0  0  0
 12 37  1  0  0  0  0
 13 38  1  0  0  0  0
 14 15  1  0  0  0  0
 14 39  1  0  0  0  0
 14 40  1  0  0  0  0
 15 25  1  0  0  0  0
 15 16  1  0  0  0  0
 16 17  2  0  0  0  0
 16 18  1  0  0  0  0
 18 19  1  0  0  0  0
 18 20  1  0  0  0  0
 19 41  1  0  0  0  0
 19 42  1  0  0  0  0
 19 43  1  0  0  0  0
 20 25  2  0  0  0  0
 20 21  1  0  0  0  0
 21 22  2  0  0  0  0
 21 44  1  0  0  0  0
 22 23  1  0  0  0  0
 22 45  1  0  0  0  0
 23 24  2  0  0  0  0
 23 46  1  0  0  0  0
 24 25  1  0  0  0  0
 24 47  1  0  0  0  0
M  END
> <s_m_source_file>
AV-unprocessed.smi

> <i_m_source_file_index>
1335

> <i_lp_mmshare_version>
43012

> <i_f3d_flags>
0

> <s_epik_input>
W0NIM11PYzFbY0hdW2NIXVtjSF1bY0hdYzFbQ0gyXU9bQ0gyXVtDQEhdKFtPSF0pW0NIMl1uKGMoPU8pbjJbQ0gzXSljKGMyMylbY0hdW2NIXVtjSF1bY0hdMw==

> <s_epik_cmdline>
J2VwaWtfcHl0aG9uJywgJy1waCcsICc3LjAnLCAnLXRuJywgJzgnLCAnLW1hJywgJzIwMCcsICctbWV0YWxfYmluZGluZycsICctaW1hZScsICc8aW5maWxlLm1hZT4nLCAnLW9tYWUnLCAnPG91dGZpbGUubWFlPic=

> <r_lp_tautomer_probability>
1

> <r_epik_Ionization_Penalty>
1.07897e-06

> <r_epik_Ionization_Penalty_Charging>
2.2947e-09

> <r_epik_Ionization_Penalty_Neutral>
1.07667e-06

> <r_epik_State_Penalty>
-0

> <r_epik_Charging_Adjusted_Penalty>
2.2947e-09

> <i_epik_Tot_Q>
0

> <i_epik_Tot_abs_Q>
0

> <r_epik_Metal_State_Penalty>
-0

> <b_epik_Metal_Only>
0

> <s_lp_Force_Field>
OPLS_2005

> <r_lp_Energy>
50.1795

> <b_lp_Chiralities_Consistent>
1

> <s_lp_Variant>
AV-unprocessed.smi:1335-1

> <Gold.Version>
5.8.1

> <Gold.Id.Protein>
6NUR|6NUR_protein|mol2

> <Gold.PLP.Fitness>
55.4923

> <Gold.PLP.PLP>
-53.9276

> <Gold.PLP.part.hbond>
-1.0000

> <Gold.PLP.part.metal>
0.0000

> <Gold.PLP.part.buried>
-6.7006

> <Gold.PLP.part.nonpolar>
-46.7233

> <Gold.PLP.part.repulsive>
0.0453

> <Gold.PLP.ligand.clash>
0.0000

> <Gold.PLP.ligand.torsion>
0.7678

> <Gold.PLP.Chemscore.Hbond>
1.0000

> <Gold.PLP.Chemscore.CHOScore>
0.0000

> <Gold.PLP.Chemscore.Metal>
0.0000

> <Gold.Chemscore.Hbonds>
donor molecule, donor type, donor heavy atom, donor atom, acceptor molecule, acceptor atom, score
      P1  H  7997  8010       L1    13  0.10

> <Gold.PLP.Chemscore.Internal.Correction>
0.1002

> <Gold.Rescore>
     Score         DG    S(hbond)    S(metal)    S(lipo)     H(rot)  DE(clash)    DE(int)     intcor
     16.43     -17.38       0.96        0.00     129.09       2.50       0.06       0.89       ----

> <Gold.Chemscore.Fitness>
16.4344

> <Gold.Chemscore.DG>
-17.3845

> <Gold.Chemscore.ZeroCoef>
-5.4800

> <Gold.Chemscore.Hbond>
0.9614

> <Gold.Chemscore.Metal>
0.0000

> <Gold.Chemscore.Lipo>
129.0866

> <Gold.Chemscore.Internal_Hbond>
0.0000

> <Gold.Chemscore.DEClash>
0.0567

> <Gold.Chemscore.DEInternal>
0.8934

> <Gold.Chemscore.Rot>
2.5038

> <Gold.Chemscore.Internal.Correction>
   9.000000E+99

> <Gold.Chemscore.Hbond.Weighted>
-3.2112

> <Gold.Chemscore.Metal.Weighted>
-0.0000

> <Gold.Chemscore.Lipo.Weighted>
-15.1031

> <Gold.Chemscore.Internal_Hbond.Weighted>
0.0000

> <Gold.Chemscore.DEClash.Weighted>
0.0567

> <Gold.Chemscore.DEInternal.Weighted>
0.8934

> <Gold.Chemscore.Rot.Weighted>
6.4098

> <Gold.Chemscore.Internal.Correction.Weighted>
   9.000000E+99

> <Gold.Protein.RotatedTorsions>
[ 6907 6896 6895 6894 ] final -118.08 input  -60.11 | X-H torsion
[ 7974 7965 7964 7962 ] final   50.26 input  175.53 | X-H torsion
[ 8008 7997 7996 7995 ] final   91.04 input   59.86 | X-H torsion
[ 10167 10162 10161 10158 ] final -104.17 input  -65.29 | X-H torsion
[ 10718 10713 10712 10709 ] final  -47.78 input   66.30 | X-H torsion
[ 10763 10752 10751 10750 ] final   12.77 input  -60.55 | X-H torsion
[ 11005 11000 10999 10996 ] final  126.28 input  -57.11 | X-H torsion

> <Gold.Protein.ActiveResidues>
 VAL166  LYS551  ARG553  GLY616  TRP617  ASP618  TYR619  PRO620  LYS621  CYS622 
 ASP623  PHE694  ASN695  SER759  ASP760  ASP761  ALA762  ILE779  LEU786  VAL792 
 PHE793  MET794  SER795  GLU796  ALA797  LYS798  CYS799  TRP800  GLU811  SER814 

> <Gold.Protein.RotatedAtoms>
  150.8190  133.8287  159.3147 H   0  0  0  0  0  0  0  0  0  0  0  0  # atno 6907 bound_to 6896
  151.6050  135.1043  160.0078 H   0  0  0  0  0  0  0  0  0  0  0  0  # atno 6908 bound_to 6896
  152.4280  133.7187  159.6577 H   0  0  0  0  0  0  0  0  0  0  0  0  # atno 6909 bound_to 6896
  146.0029  139.4459  143.0004 H   0  0  0  0  0  0  0  0  0  0  0  0  # atno 7974 bound_to 7965
  156.0190  140.3342  155.7019 H   0  0  0  0  0  0  0  0  0  0  0  0  # atno 8008 bound_to 7997
  155.6049  140.0659  157.2740 H   0  0  0  0  0  0  0  0  0  0  0  0  # atno 8009 bound_to 7997
  154.4309  140.1804  156.1199 H   0  0  0  0  0  0  0  0  0  0  0  0  # atno 8010 bound_to 7997
  140.2122  143.3738  152.1041 H   0  0  0  0  0  0  0  0  0  0  0  0  # atno 10167 bound_to 10162
  156.2051  130.4158  149.9188 H   0  0  0  0  0  0  0  0  0  0  0  0  # atno 10718 bound_to 10713
  153.1788  135.6824  153.8506 H   0  0  0  0  0  0  0  0  0  0  0  0  # atno 10763 bound_to 10752
  153.7845  135.3178  155.3371 H   0  0  0  0  0  0  0  0  0  0  0  0  # atno 10764 bound_to 10752
  154.8046  135.4756  154.0455 H   0  0  0  0  0  0  0  0  0  0  0  0  # atno 10765 bound_to 10752
  139.9448  134.9631  156.8683 H   0  0  0  0  0  0  0  0  0  0  0  0  # atno 11005 bound_to 11000
  145.7460  140.9990  143.1276 LP  0  0  0  0  0  0  0  0  0  0  0  0  # atno 17320 bound_to 7965
  144.6925  139.9156  143.7465 LP  0  0  0  0  0  0  0  0  0  0  0  0  # atno 17321 bound_to 7965
  139.5176  144.6993  151.5539 LP  0  0  0  0  0  0  0  0  0  0  0  0  # atno 17342 bound_to 10162
  140.6315  143.9066  150.6610 LP  0  0  0  0  0  0  0  0  0  0  0  0  # atno 17343 bound_to 10162
  156.6885  130.8886  151.3585 LP  0  0  0  0  0  0  0  0  0  0  0  0  # atno 17370 bound_to 10713
  157.7008  130.9331  150.0779 LP  0  0  0  0  0  0  0  0  0  0  0  0  # atno 17371 bound_to 10713
  140.5862  134.0305  155.7482 LP  0  0  0  0  0  0  0  0  0  0  0  0  # atno 17394 bound_to 11000
  141.1095  133.9640  157.2936 LP  0  0  0  0  0  0  0  0  0  0  0  0  # atno 17395 bound_to 11000

$$$$
