AV-unprocessed.smi:47|AV-procd|sdf|433|dock6
  -GOLD-   2262016303D 1   1.00000     0.00000
 Structure written by MMmdl.
 32 34  0  0  0  0  0  0  0  0  2 V2000
  146.3944  139.8641  153.2732 O   0  0  0  0  0  0  0  0  0  0  0  0
  147.2866  140.9189  153.5633 C   0  0  1  0  0  0  0  0  0  0  0  0
  146.8202  141.7607  154.7564 C   0  0  0  0  0  0  0  0  0  0  0  0
  148.0457  142.2772  155.3989 N   0  3  0  0  0  0  0  0  0  0  0  0
  149.2102  141.6094  154.7796 C   0  0  1  0  0  0  0  0  0  0  0  0
  150.1230  141.2619  155.9179 C   0  0  0  0  0  0  0  0  0  0  0  0
  150.5887  140.0204  156.0914 N   0  0  0  0  0  0  0  0  0  0  0  0
  151.3717  139.9812  157.1907 N   0  0  0  0  0  0  0  0  0  0  0  0
  151.3096  141.2438  157.6098 C   0  0  0  0  0  0  0  0  0  0  0  0
  152.0294  141.7004  158.8219 C   0  0  0  0  0  0  0  0  0  0  0  0
  152.8896  140.8278  159.5324 C   0  0  0  0  0  0  0  0  0  0  0  0
  153.5752  141.2578  160.6851 C   0  0  0  0  0  0  0  0  0  0  0  0
  153.4127  142.5742  161.1514 C   0  0  0  0  0  0  0  0  0  0  0  0
  152.5639  143.4569  160.4606 C   0  0  0  0  0  0  0  0  0  0  0  0
  151.8804  143.0224  159.3084 C   0  0  0  0  0  0  0  0  0  0  0  0
  150.5470  142.0992  156.8635 N   0  0  0  0  0  0  0  0  0  0  0  0
  148.6544  140.4103  154.0079 C   0  0  0  0  0  0  0  0  0  0  0  0
  147.3983  141.5542  152.6833 H   0  0  0  0  0  0  0  0  0  0  0  0
  149.6949  142.3119  154.0999 H   0  0  0  0  0  0  0  0  0  0  0  0
  145.5158  140.2109  153.2337 H   0  0  0  0  0  0  0  0  0  0  0  0
  146.1494  142.5677  154.4608 H   0  0  0  0  0  0  0  0  0  0  0  0
  146.2988  141.1404  155.4871 H   0  0  0  0  0  0  0  0  0  0  0  0
  148.1189  143.2772  155.2798 H   0  0  0  0  0  0  0  0  0  0  0  0
  153.0358  139.8112  159.1984 H   0  0  0  0  0  0  0  0  0  0  0  0
  154.2267  140.5759  161.2115 H   0  0  0  0  0  0  0  0  0  0  0  0
  153.9377  142.9059  162.0352 H   0  0  0  0  0  0  0  0  0  0  0  0
  152.4358  144.4694  160.8139 H   0  0  0  0  0  0  0  0  0  0  0  0
  151.2350  143.7233  158.7997 H   0  0  0  0  0  0  0  0  0  0  0  0
  148.5251  139.5594  154.6800 H   0  0  0  0  0  0  0  0  0  0  0  0
  149.2955  140.0940  153.1846 H   0  0  0  0  0  0  0  0  0  0  0  0
  148.0190  142.0516  156.3835 H   0  0  0  0  0  0  0  0  0  0  0  0
  150.4075  139.2089  155.5173 H   0  0  0  0  0  0  0  0  0  0  0  0
  1  2  1  0  0  0  0
  1 20  1  0  0  0  0
  2 18  1  0  0  0  0
  2 17  1  0  0  0  0
  2  3  1  0  0  0  0
  3  4  1  0  0  0  0
  3 21  1  0  0  0  0
  3 22  1  0  0  0  0
  4  5  1  0  0  0  0
  4 23  1  0  0  0  0
  4 31  1  0  0  0  0
  5 19  1  0  0  0  0
  5  6  1  0  0  0  0
  5 17  1  0  0  0  0
  6 16  2  0  0  0  0
  6  7  1  0  0  0  0
  7  8  1  0  0  0  0
  7 32  1  0  0  0  0
  8  9  2  0  0  0  0
  9 10  1  0  0  0  0
  9 16  1  0  0  0  0
 10 15  1  0  0  0  0
 10 11  2  0  0  0  0
 11 12  1  0  0  0  0
 11 24  1  0  0  0  0
 12 13  2  0  0  0  0
 12 25  1  0  0  0  0
 13 14  1  0  0  0  0
 13 26  1  0  0  0  0
 14 15  2  0  0  0  0
 14 27  1  0  0  0  0
 15 28  1  0  0  0  0
 17 29  1  0  0  0  0
 17 30  1  0  0  0  0
M  CHG  1   4   1
M  END
> <s_m_source_file>
AV-unprocessed.smi

> <i_m_source_file_index>
47

> <i_lp_mmshare_version>
43012

> <i_f3d_flags>
0

> <s_epik_input>
W09IXVtDQEhdMVtDSDJdW05IXVtDQEBIXShbQ0gyXTEpYzJuW25IXWMobjIpLWMzW2NIXVtjSF1bY0hdW2NIXVtjSF0z

> <s_epik_cmdline>
J2VwaWtfcHl0aG9uJywgJy1waCcsICc3LjAnLCAnLXRuJywgJzgnLCAnLW1hJywgJzIwMCcsICctbWV0YWxfYmluZGluZycsICctaW1hZScsICc8aW5maWxlLm1hZT4nLCAnLW9tYWUnLCAnPG91dGZpbGUubWFlPic=

> <r_epik_Ionization_Penalty>
1.14296

> <r_epik_Ionization_Penalty_Charging>
0.0688988

> <r_epik_Ionization_Penalty_Neutral>
1.07406

> <r_epik_State_Penalty>
1.72347

> <r_epik_Charging_Adjusted_Penalty>
1.79237

> <i_epik_Tot_Q>
1

> <i_epik_Tot_abs_Q>
1

> <r_epik_Metal_State_Penalty>
2.22085

> <b_epik_Metal_Only>
0

> <s_lp_Force_Field>
OPLS_2005

> <r_lp_Energy>
30.8137

> <b_lp_Chiralities_Consistent>
1

> <s_lp_Variant>
AV-unprocessed.smi:47-11

> <Gold.Version>
5.8.1

> <Gold.Id.Protein>
6NUR|6NUR_protein|mol2

> <Gold.PLP.Fitness>
44.9140

> <Gold.PLP.PLP>
-36.2872

> <Gold.PLP.part.hbond>
-2.0000

> <Gold.PLP.part.metal>
0.0000

> <Gold.PLP.part.buried>
-3.9354

> <Gold.PLP.part.nonpolar>
-30.8461

> <Gold.PLP.part.repulsive>
0.2971

> <Gold.PLP.ligand.clash>
0.0000

> <Gold.PLP.ligand.torsion>
0.1932

> <Gold.PLP.Chemscore.Hbond>
3.0000

> <Gold.PLP.Chemscore.CHOScore>
0.0000

> <Gold.PLP.Chemscore.Metal>
0.0000

> <Gold.Chemscore.Hbonds>
donor molecule, donor type, donor heavy atom, donor atom, acceptor molecule, acceptor atom, score
      L1  H     1    20       P1 10175  1.00
      L1  H     4    23       P1  8028  2.00

> <Gold.PLP.Chemscore.Internal.Correction>
0.0133

> <Gold.Rescore>
     Score         DG    S(hbond)    S(metal)    S(lipo)     H(rot)  DE(clash)    DE(int)     intcor
     17.65     -18.35       1.82        0.00      90.84       1.50       0.49       0.21       ----

> <Gold.Chemscore.Fitness>
17.6459

> <Gold.Chemscore.DG>
-18.3460

> <Gold.Chemscore.ZeroCoef>
-5.4800

> <Gold.Chemscore.Hbond>
1.8170

> <Gold.Chemscore.Metal>
0.0000

> <Gold.Chemscore.Lipo>
90.8423

> <Gold.Chemscore.Internal_Hbond>
0.0000

> <Gold.Chemscore.DEClash>
0.4863

> <Gold.Chemscore.DEInternal>
0.2138

> <Gold.Chemscore.Rot>
1.4966

> <Gold.Chemscore.Internal.Correction>
   9.000000E+99

> <Gold.Chemscore.Hbonds>
donor molecule, donor type, donor heavy atom, donor atom, acceptor molecule, acceptor atom, score
      L1  H     1    20       P1 10175  0.94
      L1  H     4    23       P1  8028  0.84

> <Gold.Chemscore.Hbond.Weighted>
-6.0687

> <Gold.Chemscore.Metal.Weighted>
-0.0000

> <Gold.Chemscore.Lipo.Weighted>
-10.6285

> <Gold.Chemscore.Internal_Hbond.Weighted>
0.0000

> <Gold.Chemscore.DEClash.Weighted>
0.4863

> <Gold.Chemscore.DEInternal.Weighted>
0.2138

> <Gold.Chemscore.Rot.Weighted>
3.8312

> <Gold.Chemscore.Internal.Correction.Weighted>
   9.000000E+99

> <Gold.Protein.RotatedTorsions>
[ 6907 6896 6895 6894 ] final   -3.83 input  -60.11 | X-H torsion
[ 7974 7965 7964 7962 ] final  -22.16 input  175.53 | X-H torsion
[ 8008 7997 7996 7995 ] final  -80.33 input   59.86 | X-H torsion
[ 10167 10162 10161 10158 ] final -129.07 input  -65.29 | X-H torsion
[ 10718 10713 10712 10709 ] final -154.39 input   66.30 | X-H torsion
[ 10763 10752 10751 10750 ] final  173.87 input  -60.55 | X-H torsion
[ 11005 11000 10999 10996 ] final  116.82 input  -57.11 | X-H torsion

> <Gold.Protein.ActiveResidues>
 VAL166  LYS551  ARG553  GLY616  TRP617  ASP618  TYR619  PRO620  LYS621  CYS622 
 ASP623  PHE694  ASN695  SER759  ASP760  ASP761  ALA762  ILE779  LEU786  VAL792 
 PHE793  MET794  SER795  GLU796  ALA797  LYS798  CYS799  TRP800  GLU811  SER814 

> <Gold.Protein.RotatedAtoms>
  151.5074  135.1064  159.9844 H   0  0  0  0  0  0  0  0  0  0  0  0  # atno 6907 bound_to 6896
  152.4676  133.7953  159.6934 H   0  0  0  0  0  0  0  0  0  0  0  0  # atno 6908 bound_to 6896
  150.8667  133.7500  159.3000 H   0  0  0  0  0  0  0  0  0  0  0  0  # atno 6909 bound_to 6896
  146.1692  140.4441  142.8539 H   0  0  0  0  0  0  0  0  0  0  0  0  # atno 7974 bound_to 7965
  154.5873  140.0664  156.9189 H   0  0  0  0  0  0  0  0  0  0  0  0  # atno 8008 bound_to 7997
  155.2357  140.3341  155.4280 H   0  0  0  0  0  0  0  0  0  0  0  0  # atno 8009 bound_to 7997
  156.2231  140.1807  156.7413 H   0  0  0  0  0  0  0  0  0  0  0  0  # atno 8010 bound_to 7997
  139.9437  143.6134  152.2496 H   0  0  0  0  0  0  0  0  0  0  0  0  # atno 10167 bound_to 10162
  156.4986  130.8381  151.2600 H   0  0  0  0  0  0  0  0  0  0  0  0  # atno 10718 bound_to 10713
  154.4461  135.2763  155.1814 H   0  0  0  0  0  0  0  0  0  0  0  0  # atno 10763 bound_to 10752
  154.3660  135.6119  153.5719 H   0  0  0  0  0  0  0  0  0  0  0  0  # atno 10764 bound_to 10752
  152.9844  135.5846  154.4797 H   0  0  0  0  0  0  0  0  0  0  0  0  # atno 10765 bound_to 10752
  139.9054  134.9603  156.7256 H   0  0  0  0  0  0  0  0  0  0  0  0  # atno 11005 bound_to 11000
  144.8137  140.6430  143.6398 LP  0  0  0  0  0  0  0  0  0  0  0  0  # atno 17320 bound_to 7965
  145.4387  139.1539  143.3982 LP  0  0  0  0  0  0  0  0  0  0  0  0  # atno 17321 bound_to 7965
  139.6684  144.7661  151.1829 LP  0  0  0  0  0  0  0  0  0  0  0  0  # atno 17342 bound_to 10162
  140.7603  143.5902  150.8804 LP  0  0  0  0  0  0  0  0  0  0  0  0  # atno 17343 bound_to 10162
  157.7465  130.9989  150.2870 LP  0  0  0  0  0  0  0  0  0  0  0  0  # atno 17370 bound_to 10713
  156.3355  130.3807  149.7454 LP  0  0  0  0  0  0  0  0  0  0  0  0  # atno 17371 bound_to 10713
  140.6965  133.9343  155.7998 LP  0  0  0  0  0  0  0  0  0  0  0  0  # atno 17394 bound_to 11000
  141.0403  134.0631  157.3910 LP  0  0  0  0  0  0  0  0  0  0  0  0  # atno 17395 bound_to 11000

$$$$
