AV-unprocessed.smi:2752|AV-procd|sdf|10607|dock6
  -GOLD-   2272015 63D 1   1.00000     0.00000
 Structure written by MMmdl.
 34 35  0  0  0  0  0  0  0  0  1 V2000
  144.4926  135.7874  155.1571 C   0  0  0  0  0  0  0  0  0  0  0  0
  145.2496  136.1515  154.0142 O   0  0  0  0  0  0  0  0  0  0  0  0
  144.4628  136.6703  152.9449 C   0  0  2  0  0  0  0  0  0  0  0  0
  143.5528  135.5585  152.4113 C   0  0  0  0  0  0  0  0  0  0  0  0
  144.4529  134.7573  151.4751 C   0  0  0  0  0  0  0  0  0  0  0  0
  145.3489  135.8032  150.8063 C   0  0  0  0  0  0  0  0  0  0  0  0
  145.3689  137.0268  151.7438 C   0  0  2  0  0  0  0  0  0  0  0  0
  146.7336  137.3708  152.1377 N   0  0  0  0  0  0  0  0  0  0  0  0
  147.0565  138.3289  153.0180 C   0  0  0  0  0  0  0  0  0  0  0  0
  146.2241  139.0421  153.5790 O   0  0  0  0  0  0  0  0  0  0  0  0
  148.3871  138.3935  153.2001 N   0  0  0  0  0  0  0  0  0  0  0  0
  149.1152  139.2640  154.0540 C   0  0  0  0  0  0  0  0  0  0  0  0
  148.4957  140.5092  154.3072 C   0  0  0  0  0  0  0  0  0  0  0  0
  149.1364  141.4450  155.1427 C   0  0  0  0  0  0  0  0  0  0  0  0
  150.3817  141.1092  155.7029 C   0  0  0  0  0  0  0  0  0  0  0  0
  151.0356  141.9761  156.5121 F   0  0  0  0  0  0  0  0  0  0  0  0
  150.9305  139.8493  155.4007 C   0  0  0  0  0  0  0  0  0  0  0  0
  150.3172  138.9516  154.6005 N   0  0  0  0  0  0  0  0  0  0  0  0
  145.1575  135.3828  155.9199 H   0  0  0  0  0  0  0  0  0  0  0  0
  143.7471  135.0269  154.9249 H   0  0  0  0  0  0  0  0  0  0  0  0
  143.9861  136.6548  155.5820 H   0  0  0  0  0  0  0  0  0  0  0  0
  143.8985  137.5461  153.2704 H   0  0  0  0  0  0  0  0  0  0  0  0
  143.1080  134.9429  153.1931 H   0  0  0  0  0  0  0  0  0  0  0  0
  142.7364  136.0006  151.8387 H   0  0  0  0  0  0  0  0  0  0  0  0
  145.0656  134.0697  152.0596 H   0  0  0  0  0  0  0  0  0  0  0  0
  143.8879  134.1666  150.7536 H   0  0  0  0  0  0  0  0  0  0  0  0
  146.3430  135.3984  150.6111 H   0  0  0  0  0  0  0  0  0  0  0  0
  144.9271  136.0907  149.8424 H   0  0  0  0  0  0  0  0  0  0  0  0
  144.9295  137.8683  151.2043 H   0  0  0  0  0  0  0  0  0  0  0  0
  147.4773  136.8262  151.7267 H   0  0  0  0  0  0  0  0  0  0  0  0
  148.9434  137.7395  152.6699 H   0  0  0  0  0  0  0  0  0  0  0  0
  147.5385  140.7495  153.8677 H   0  0  0  0  0  0  0  0  0  0  0  0
  148.6798  142.4017  155.3487 H   0  0  0  0  0  0  0  0  0  0  0  0
  151.8849  139.5540  155.8108 H   0  0  0  0  0  0  0  0  0  0  0  0
  1  2  1  0  0  0  0
  1 19  1  0  0  0  0
  1 20  1  0  0  0  0
  1 21  1  0  0  0  0
  2  3  1  0  0  0  0
  3  7  1  0  0  0  0
  3  4  1  0  0  0  0
  3 22  1  0  0  0  0
  4  5  1  0  0  0  0
  4 23  1  0  0  0  0
  4 24  1  0  0  0  0
  5  6  1  0  0  0  0
  5 25  1  0  0  0  0
  5 26  1  0  0  0  0
  6  7  1  0  0  0  0
  6 27  1  0  0  0  0
  6 28  1  0  0  0  0
  7  8  1  0  0  0  0
  7 29  1  0  0  0  0
  8  9  1  0  0  0  0
  8 30  1  0  0  0  0
  9 10  2  0  0  0  0
  9 11  1  0  0  0  0
 11 12  1  0  0  0  0
 11 31  1  0  0  0  0
 12 18  1  0  0  0  0
 12 13  2  0  0  0  0
 13 14  1  0  0  0  0
 13 32  1  0  0  0  0
 14 15  2  0  0  0  0
 14 33  1  0  0  0  0
 15 16  1  0  0  0  0
 15 17  1  0  0  0  0
 17 18  2  0  0  0  0
 17 34  1  0  0  0  0
M  END
> <s_m_source_file>
AV-unprocessed.smi

> <i_m_source_file_index>
2752

> <i_lp_mmshare_version>
43012

> <i_f3d_flags>
0

> <s_epik_input>
W0NIM11PW0NAQEhdMVtDSDJdW0NIMl1bQ0gyXVtDQEhdMVtOSF1DKD1PKVtOSF1jMltjSF1bY0hdYyhGKVtjSF1uMg==

> <s_epik_cmdline>
J2VwaWtfcHl0aG9uJywgJy1waCcsICc3LjAnLCAnLXRuJywgJzgnLCAnLW1hJywgJzIwMCcsICctbWV0YWxfYmluZGluZycsICctaW1hZScsICc8aW5maWxlLm1hZT4nLCAnLW9tYWUnLCAnPG91dGZpbGUubWFlPic=

> <r_lp_tautomer_probability>
1

> <r_epik_Ionization_Penalty>
3.49853e-05

> <r_epik_Ionization_Penalty_Charging>
0

> <r_epik_Ionization_Penalty_Neutral>
3.49853e-05

> <r_epik_State_Penalty>
-0

> <r_epik_Charging_Adjusted_Penalty>
0

> <i_epik_Tot_Q>
0

> <i_epik_Tot_abs_Q>
0

> <r_epik_Metal_State_Penalty>
-0

> <b_epik_Metal_Only>
0

> <s_lp_Force_Field>
OPLS_2005

> <r_lp_Energy>
23.7965

> <b_lp_Chiralities_Consistent>
1

> <s_lp_Variant>
AV-unprocessed.smi:2752-3

> <Gold.Version>
5.8.1

> <Gold.Id.Protein>
6NUR|6NUR_protein|mol2

> <Gold.PLP.Fitness>
34.0827

> <Gold.PLP.PLP>
-28.5833

> <Gold.PLP.part.hbond>
-2.8496

> <Gold.PLP.part.metal>
0.0000

> <Gold.PLP.part.buried>
-0.1177

> <Gold.PLP.part.nonpolar>
-26.6779

> <Gold.PLP.part.repulsive>
0.8203

> <Gold.PLP.ligand.clash>
0.0000

> <Gold.PLP.ligand.torsion>
0.1961

> <Gold.PLP.Chemscore.Hbond>
1.9600

> <Gold.PLP.Chemscore.CHOScore>
0.0000

> <Gold.PLP.Chemscore.Metal>
0.0000

> <Gold.Chemscore.Hbonds>
donor molecule, donor type, donor heavy atom, donor atom, acceptor molecule, acceptor atom, score
      L1  H     8    30       P1  7948  0.99
      L1  H    11    31       P1  7948  0.94

> <Gold.PLP.Chemscore.Internal.Correction>
0.0115

> <Gold.Rescore>
     Score         DG    S(hbond)    S(metal)    S(lipo)     H(rot)  DE(clash)    DE(int)     intcor
     11.57     -14.70       1.93        0.00      51.64       1.28       0.11       3.02       ----

> <Gold.Chemscore.Fitness>
11.5666

> <Gold.Chemscore.DG>
-14.6957

> <Gold.Chemscore.ZeroCoef>
-5.4800

> <Gold.Chemscore.Hbond>
1.9331

> <Gold.Chemscore.Metal>
0.0000

> <Gold.Chemscore.Lipo>
51.6358

> <Gold.Chemscore.Internal_Hbond>
0.0000

> <Gold.Chemscore.DEClash>
0.1065

> <Gold.Chemscore.DEInternal>
3.0225

> <Gold.Chemscore.Rot>
1.2821

> <Gold.Chemscore.Internal.Correction>
   9.000000E+99

> <Gold.Chemscore.Hbonds>
donor molecule, donor type, donor heavy atom, donor atom, acceptor molecule, acceptor atom, score
      L1  H     8    30       P1  7948  0.91
      L1  H    11    31       P1  7948  0.91

> <Gold.Chemscore.Hbond.Weighted>
-6.4565

> <Gold.Chemscore.Metal.Weighted>
-0.0000

> <Gold.Chemscore.Lipo.Weighted>
-6.0414

> <Gold.Chemscore.Internal_Hbond.Weighted>
0.0000

> <Gold.Chemscore.DEClash.Weighted>
0.1065

> <Gold.Chemscore.DEInternal.Weighted>
3.0225

> <Gold.Chemscore.Rot.Weighted>
3.2822

> <Gold.Chemscore.Internal.Correction.Weighted>
   9.000000E+99

> <Gold.Protein.RotatedTorsions>
[ 6907 6896 6895 6894 ] final  -53.13 input  -60.11 | X-H torsion
[ 7974 7965 7964 7962 ] final -145.41 input  175.53 | X-H torsion
[ 8008 7997 7996 7995 ] final  -20.37 input   59.86 | X-H torsion
[ 10167 10162 10161 10158 ] final  -41.37 input  -65.29 | X-H torsion
[ 10718 10713 10712 10709 ] final -143.25 input   66.30 | X-H torsion
[ 10763 10752 10751 10750 ] final -107.38 input  -60.55 | X-H torsion
[ 11005 11000 10999 10996 ] final   99.78 input  -57.11 | X-H torsion

> <Gold.Protein.ActiveResidues>
 VAL166  LYS551  ARG553  GLY616  TRP617  ASP618  TYR619  PRO620  LYS621  CYS622 
 ASP623  PHE694  ASN695  SER759  ASP760  ASP761  ALA762  ILE779  LEU786  VAL792 
 PHE793  MET794  SER795  GLU796  ALA797  LYS798  CYS799  TRP800  GLU811  SER814 

> <Gold.Protein.RotatedAtoms>
  150.8454  134.7761  159.6966 H   0  0  0  0  0  0  0  0  0  0  0  0  # atno 6907 bound_to 6896
  152.4532  134.5345  159.9830 H   0  0  0  0  0  0  0  0  0  0  0  0  # atno 6908 bound_to 6896
  151.5476  133.3384  159.2983 H   0  0  0  0  0  0  0  0  0  0  0  0  # atno 6909 bound_to 6896
  144.8230  140.5587  143.5566 H   0  0  0  0  0  0  0  0  0  0  0  0  # atno 7974 bound_to 7965
  154.4774  140.2063  155.9845 H   0  0  0  0  0  0  0  0  0  0  0  0  # atno 8008 bound_to 7997
  156.1111  140.3229  155.8044 H   0  0  0  0  0  0  0  0  0  0  0  0  # atno 8009 bound_to 7997
  155.4633  140.0525  157.2979 H   0  0  0  0  0  0  0  0  0  0  0  0  # atno 8010 bound_to 7997
  140.7004  143.3098  151.3057 H   0  0  0  0  0  0  0  0  0  0  0  0  # atno 10167 bound_to 10162
  156.3557  130.7712  151.1872 H   0  0  0  0  0  0  0  0  0  0  0  0  # atno 10718 bound_to 10713
  154.8071  135.4677  154.0421 H   0  0  0  0  0  0  0  0  0  0  0  0  # atno 10763 bound_to 10752
  153.1881  135.6851  153.8396 H   0  0  0  0  0  0  0  0  0  0  0  0  # atno 10764 bound_to 10752
  153.7923  135.3241  155.3357 H   0  0  0  0  0  0  0  0  0  0  0  0  # atno 10765 bound_to 10752
  139.8770  134.9111  156.4657 H   0  0  0  0  0  0  0  0  0  0  0  0  # atno 11005 bound_to 11000
  145.5064  139.1481  143.3629 LP  0  0  0  0  0  0  0  0  0  0  0  0  # atno 17320 bound_to 7965
  146.2535  140.5204  142.8883 LP  0  0  0  0  0  0  0  0  0  0  0  0  # atno 17321 bound_to 7965
  139.6517  144.0350  152.2631 LP  0  0  0  0  0  0  0  0  0  0  0  0  # atno 17342 bound_to 10162
  139.9889  144.6376  150.7833 LP  0  0  0  0  0  0  0  0  0  0  0  0  # atno 17343 bound_to 10162
  157.7467  131.0414  150.4647 LP  0  0  0  0  0  0  0  0  0  0  0  0  # atno 17370 bound_to 10713
  156.4849  130.4082  149.6440 LP  0  0  0  0  0  0  0  0  0  0  0  0  # atno 17371 bound_to 10713
  140.8832  133.7902  155.9489 LP  0  0  0  0  0  0  0  0  0  0  0  0  # atno 17394 bound_to 11000
  140.8832  134.2586  157.5133 LP  0  0  0  0  0  0  0  0  0  0  0  0  # atno 17395 bound_to 11000

$$$$
