AV-unprocessed.smi:644|AV-procd|sdf|3156|dock8
  -GOLD-   22720 0 83D 1   1.00000     0.00000
 Structure written by MMmdl.
 37 39  0  0  0  0  0  0  0  0  1 V2000
  153.4007  143.2365  163.3971 C   0  0  0  0  0  0  0  0  0  0  0  0
  152.9548  142.9288  161.9785 C   0  0  0  0  0  0  0  0  0  0  0  0
  152.0752  143.8218  161.3255 C   0  0  0  0  0  0  0  0  0  0  0  0
  151.6384  143.5729  160.0060 C   0  0  0  0  0  0  0  0  0  0  0  0
  150.7916  144.2996  159.1866 N   0  0  0  0  0  0  0  0  0  0  0  0
  150.7807  143.5554  158.0844 C   0  0  0  0  0  0  0  0  0  0  0  0
  151.5185  142.4285  158.0948 N   0  0  0  0  0  0  0  0  0  0  0  0
  151.6673  141.4662  157.0179 C   0  0  0  0  0  0  0  0  0  0  0  0
  150.4124  141.3752  156.1293 C   0  0  1  0  0  0  0  0  0  0  0  0
  150.6450  140.4595  155.0758 O   0  0  0  0  0  0  0  0  0  0  0  0
  149.1771  140.9301  156.9285 C   0  0  0  0  0  0  0  0  0  0  0  0
  147.9532  140.0814  155.8828 S   0  0  0  0  0  0  0  0  0  0  0  0
  146.9925  141.4607  155.3468 C   0  0  0  0  0  0  0  0  0  0  0  0
  146.2929  142.2755  156.1499 N   0  0  0  0  0  0  0  0  0  0  0  0
  145.6362  143.2759  155.4458 N   0  0  0  0  0  0  0  0  0  0  0  0
  145.8643  143.1799  154.1340 C   0  0  0  0  0  0  0  0  0  0  0  0
  146.9036  141.8583  153.6348 S   0  0  0  0  0  0  0  0  0  0  0  0
  152.1101  142.3972  159.3524 C   0  0  0  0  0  0  0  0  0  0  0  0
  152.9849  141.5010  159.9913 C   0  0  0  0  0  0  0  0  0  0  0  0
  153.4104  141.7640  161.3101 C   0  0  0  0  0  0  0  0  0  0  0  0
  154.3537  140.7890  161.9922 C   0  0  0  0  0  0  0  0  0  0  0  0
  152.9571  144.1633  163.7620 H   0  0  0  0  0  0  0  0  0  0  0  0
  154.4846  143.3446  163.4408 H   0  0  0  0  0  0  0  0  0  0  0  0
  153.1046  142.4353  164.0744 H   0  0  0  0  0  0  0  0  0  0  0  0
  151.7282  144.7091  161.8341 H   0  0  0  0  0  0  0  0  0  0  0  0
  150.2008  143.8444  157.2198 H   0  0  0  0  0  0  0  0  0  0  0  0
  152.5390  141.7393  156.4213 H   0  0  0  0  0  0  0  0  0  0  0  0
  151.8862  140.4943  157.4620 H   0  0  0  0  0  0  0  0  0  0  0  0
  150.2147  142.3531  155.6886 H   0  0  0  0  0  0  0  0  0  0  0  0
  149.8672  139.9360  154.9567 H   0  0  0  0  0  0  0  0  0  0  0  0
  149.4736  140.2738  157.7478 H   0  0  0  0  0  0  0  0  0  0  0  0
  148.6976  141.8036  157.3717 H   0  0  0  0  0  0  0  0  0  0  0  0
  145.4191  143.8929  153.4559 H   0  0  0  0  0  0  0  0  0  0  0  0
  153.3244  140.6179  159.4704 H   0  0  0  0  0  0  0  0  0  0  0  0
  154.5889  139.9434  161.3450 H   0  0  0  0  0  0  0  0  0  0  0  0
  153.9028  140.3958  162.9035 H   0  0  0  0  0  0  0  0  0  0  0  0
  155.2902  141.2822  162.2529 H   0  0  0  0  0  0  0  0  0  0  0  0
  1  2  1  0  0  0  0
  1 22  1  0  0  0  0
  1 23  1  0  0  0  0
  1 24  1  0  0  0  0
  2 20  1  0  0  0  0
  2  3  2  0  0  0  0
  3  4  1  0  0  0  0
  3 25  1  0  0  0  0
  4 18  2  0  0  0  0
  4  5  1  0  0  0  0
  5  6  2  0  0  0  0
  6  7  1  0  0  0  0
  6 26  1  0  0  0  0
  7  8  1  0  0  0  0
  7 18  1  0  0  0  0
  8  9  1  0  0  0  0
  8 27  1  0  0  0  0
  8 28  1  0  0  0  0
  9 10  1  0  0  0  0
  9 11  1  0  0  0  0
  9 29  1  0  0  0  0
 10 30  1  0  0  0  0
 11 12  1  0  0  0  0
 11 31  1  0  0  0  0
 11 32  1  0  0  0  0
 12 13  1  0  0  0  0
 13 17  1  0  0  0  0
 13 14  2  0  0  0  0
 14 15  1  0  0  0  0
 15 16  2  0  0  0  0
 16 17  1  0  0  0  0
 16 33  1  0  0  0  0
 18 19  1  0  0  0  0
 19 20  2  0  0  0  0
 19 34  1  0  0  0  0
 20 21  1  0  0  0  0
 21 35  1  0  0  0  0
 21 36  1  0  0  0  0
 21 37  1  0  0  0  0
M  END
> <s_m_source_file>
AV-unprocessed.smi

> <i_m_source_file_index>
644

> <i_lp_mmshare_version>
43012

> <i_f3d_flags>
0

> <s_epik_input>
W0NIM11jKFtjSF0xKWMoW0NIM10pW2NIXWMoYzEyKW4oW2NIXW4yKVtDSDJdW0NASF0oW09IXSlbQ0gyXVNjM25uW2NIXXMz

> <s_epik_cmdline>
J2VwaWtfcHl0aG9uJywgJy1waCcsICc3LjAnLCAnLXRuJywgJzgnLCAnLW1hJywgJzIwMCcsICctbWV0YWxfYmluZGluZycsICctaW1hZScsICc8aW5maWxlLm1hZT4nLCAnLW9tYWUnLCAnPG91dGZpbGUubWFlPic=

> <r_lp_tautomer_probability>
1

> <r_epik_Ionization_Penalty>
0.105397

> <r_epik_Ionization_Penalty_Charging>
0

> <r_epik_Ionization_Penalty_Neutral>
0.105397

> <r_epik_State_Penalty>
0.0952713

> <r_epik_Charging_Adjusted_Penalty>
0.0952713

> <i_epik_Tot_Q>
0

> <i_epik_Tot_abs_Q>
0

> <r_epik_Metal_State_Penalty>
0.0807681

> <b_epik_Metal_Only>
0

> <s_lp_Force_Field>
OPLS_2005

> <r_lp_Energy>
7.47595

> <b_lp_Chiralities_Consistent>
1

> <s_lp_Variant>
AV-unprocessed.smi:644-2

> <Gold.Version>
5.8.1

> <Gold.Id.Protein>
6NUR|6NUR_protein|mol2

> <Gold.PLP.Fitness>
50.6594

> <Gold.PLP.PLP>
-46.4102

> <Gold.PLP.part.hbond>
-1.0000

> <Gold.PLP.part.metal>
0.0000

> <Gold.PLP.part.buried>
-7.3385

> <Gold.PLP.part.nonpolar>
-37.7782

> <Gold.PLP.part.repulsive>
0.4407

> <Gold.PLP.ligand.clash>
0.0000

> <Gold.PLP.ligand.torsion>
0.8879

> <Gold.PLP.Chemscore.Hbond>
1.0000

> <Gold.PLP.Chemscore.CHOScore>
1.0000

> <Gold.PLP.Chemscore.Metal>
0.0000

> <Gold.Chemscore.Hbonds>
donor molecule, donor type, donor heavy atom, donor atom, acceptor molecule, acceptor atom, score
      P1  H  7989  7998       L1    10  1.00
      L1  C     6    26       P1  8028  1.00

> <Gold.PLP.Chemscore.Internal.Correction>
0.0251

> <Gold.Rescore>
     Score         DG    S(hbond)    S(metal)    S(lipo)     H(rot)  DE(clash)    DE(int)     intcor
     15.53     -16.76       0.93        0.00     123.71       2.46       0.35       0.88       ----

> <Gold.Chemscore.Fitness>
15.5322

> <Gold.Chemscore.DG>
-16.7568

> <Gold.Chemscore.ZeroCoef>
-5.4800

> <Gold.Chemscore.Hbond>
0.9274

> <Gold.Chemscore.Metal>
0.0000

> <Gold.Chemscore.Lipo>
123.7070

> <Gold.Chemscore.Internal_Hbond>
0.0000

> <Gold.Chemscore.DEClash>
0.3473

> <Gold.Chemscore.DEInternal>
0.8773

> <Gold.Chemscore.Rot>
2.4588

> <Gold.Chemscore.Internal.Correction>
   9.000000E+99

> <Gold.Chemscore.Hbonds>
donor molecule, donor type, donor heavy atom, donor atom, acceptor molecule, acceptor atom, score
      P1  H  7989  7998       L1    10  0.89

> <Gold.Chemscore.Hbond.Weighted>
-3.0976

> <Gold.Chemscore.Metal.Weighted>
-0.0000

> <Gold.Chemscore.Lipo.Weighted>
-14.4737

> <Gold.Chemscore.Internal_Hbond.Weighted>
0.0000

> <Gold.Chemscore.DEClash.Weighted>
0.3473

> <Gold.Chemscore.DEInternal.Weighted>
0.8773

> <Gold.Chemscore.Rot.Weighted>
6.2946

> <Gold.Chemscore.Internal.Correction.Weighted>
   9.000000E+99

> <Gold.Protein.RotatedTorsions>
[ 6907 6896 6895 6894 ] final   -1.19 input  -60.11 | X-H torsion
[ 7974 7965 7964 7962 ] final  -41.46 input  175.53 | X-H torsion
[ 8008 7997 7996 7995 ] final  154.13 input   59.86 | X-H torsion
[ 10167 10162 10161 10158 ] final   83.22 input  -65.29 | X-H torsion
[ 10718 10713 10712 10709 ] final    9.53 input   66.30 | X-H torsion
[ 10763 10752 10751 10750 ] final  -75.95 input  -60.55 | X-H torsion
[ 11005 11000 10999 10996 ] final  -47.64 input  -57.11 | X-H torsion

> <Gold.Protein.ActiveResidues>
 VAL166  LYS551  ARG553  GLY616  TRP617  ASP618  TYR619  PRO620  LYS621  CYS622 
 ASP623  PHE694  ASN695  SER759  ASP760  ASP761  ALA762  ILE779  LEU786  VAL792 
 PHE793  MET794  SER795  GLU796  ALA797  LYS798  CYS799  TRP800  GLU811  SER814 

> <Gold.Protein.RotatedAtoms>
  151.5500  135.1067  159.9947 H   0  0  0  0  0  0  0  0  0  0  0  0  # atno 6907 bound_to 6896
  152.4496  133.7598  159.6751 H   0  0  0  0  0  0  0  0  0  0  0  0  # atno 6908 bound_to 6896
  150.8420  133.7853  159.3081 H   0  0  0  0  0  0  0  0  0  0  0  0  # atno 6909 bound_to 6896
  146.0208  140.6852  142.9179 H   0  0  0  0  0  0  0  0  0  0  0  0  # atno 7974 bound_to 7965
  156.2546  140.1975  156.6599 H   0  0  0  0  0  0  0  0  0  0  0  0  # atno 8008 bound_to 7997
  154.6472  140.0576  156.9940 H   0  0  0  0  0  0  0  0  0  0  0  0  # atno 8009 bound_to 7997
  155.1472  140.3248  155.4442 H   0  0  0  0  0  0  0  0  0  0  0  0  # atno 8010 bound_to 7997
  139.9207  144.6215  150.8443 H   0  0  0  0  0  0  0  0  0  0  0  0  # atno 10167 bound_to 10162
  156.9676  130.5957  149.5666 H   0  0  0  0  0  0  0  0  0  0  0  0  # atno 10718 bound_to 10713
  154.4933  135.5814  153.6476 H   0  0  0  0  0  0  0  0  0  0  0  0  # atno 10763 bound_to 10752
  152.9866  135.6118  154.3096 H   0  0  0  0  0  0  0  0  0  0  0  0  # atno 10764 bound_to 10752
  154.2998  135.2847  155.2596 H   0  0  0  0  0  0  0  0  0  0  0  0  # atno 10765 bound_to 10752
  141.0653  133.6696  156.3327 H   0  0  0  0  0  0  0  0  0  0  0  0  # atno 11005 bound_to 11000
  144.6989  140.3563  143.7172 LP  0  0  0  0  0  0  0  0  0  0  0  0  # atno 17320 bound_to 7965
  145.7195  139.1706  143.2492 LP  0  0  0  0  0  0  0  0  0  0  0  0  # atno 17321 bound_to 7965
  140.7663  143.3299  151.2433 LP  0  0  0  0  0  0  0  0  0  0  0  0  # atno 17342 bound_to 10162
  139.6864  143.9766  152.2836 LP  0  0  0  0  0  0  0  0  0  0  0  0  # atno 17343 bound_to 10162
  156.0296  130.5388  150.8499 LP  0  0  0  0  0  0  0  0  0  0  0  0  # atno 17370 bound_to 10713
  157.5615  131.0946  150.9552 LP  0  0  0  0  0  0  0  0  0  0  0  0  # atno 17371 bound_to 10713
  140.5786  134.5769  157.5474 LP  0  0  0  0  0  0  0  0  0  0  0  0  # atno 17394 bound_to 11000
  139.9470  134.7683  156.0537 LP  0  0  0  0  0  0  0  0  0  0  0  0  # atno 17395 bound_to 11000

$$$$
