AV-unprocessed.smi:573|AV-procd|sdf|2968|dock5
  -GOLD-   2262023473D 1   1.00000     0.00000
 Structure written by MMmdl.
 45 47  0  0  0  0  0  0  0  0  2 V2000
  146.7955  140.4644  154.0871 C   0  0  0  0  0  0  0  0  0  0  0  0
  147.5159  141.8174  154.1483 C   0  0  1  0  0  0  0  0  0  0  0  0
  146.9431  142.5477  155.2139 O   0  0  0  0  0  0  0  0  0  0  0  0
  149.0271  141.6449  154.3932 C   0  0  0  0  0  0  0  0  0  0  0  0
  149.3158  140.9992  155.6662 N   0  0  0  0  0  0  0  0  0  0  0  0
  150.1400  141.6512  156.5911 C   0  0  0  0  0  0  0  0  0  0  0  0
  150.4279  142.9800  156.6122 N   0  3  0  0  0  0  0  0  0  0  0  0
  151.2997  143.2247  157.6764 C   0  0  0  0  0  0  0  0  0  0  0  0
  151.8876  144.4080  158.1124 C   0  0  0  0  0  0  0  0  0  0  0  0
  152.7416  144.3165  159.2309 C   0  0  0  0  0  0  0  0  0  0  0  0
  152.9862  143.0839  159.8702 C   0  0  0  0  0  0  0  0  0  0  0  0
  152.3859  141.8890  159.4216 C   0  0  0  0  0  0  0  0  0  0  0  0
  151.5376  141.9852  158.3185 C   0  0  0  0  0  0  0  0  0  0  0  0
  150.7858  141.0350  157.6137 N   0  0  0  0  0  0  0  0  0  0  0  0
  150.8108  139.6220  158.0176 C   0  0  0  0  0  0  0  0  0  0  0  0
  151.3270  138.7103  156.8925 C   0  0  2  0  0  0  0  0  0  0  0  0
  152.2496  139.4639  155.9160 C   0  0  0  0  0  0  0  0  0  0  0  0
  152.6990  138.5384  154.7798 C   0  0  0  0  0  0  0  0  0  0  0  0
  151.4736  137.8958  154.1208 C   0  0  0  0  0  0  0  0  0  0  0  0
  150.5837  137.2277  155.1814 C   0  0  0  0  0  0  0  0  0  0  0  0
  150.2142  138.1789  156.1750 O   0  0  0  0  0  0  0  0  0  0  0  0
  147.1741  139.8570  153.2647 H   0  0  0  0  0  0  0  0  0  0  0  0
  145.7239  140.5950  153.9318 H   0  0  0  0  0  0  0  0  0  0  0  0
  146.9328  139.8978  155.0090 H   0  0  0  0  0  0  0  0  0  0  0  0
  147.3400  142.3526  153.2141 H   0  0  0  0  0  0  0  0  0  0  0  0
  147.6074  143.1092  155.5832 H   0  0  0  0  0  0  0  0  0  0  0  0
  149.5080  141.1273  153.5622 H   0  0  0  0  0  0  0  0  0  0  0  0
  149.4922  142.6298  154.4410 H   0  0  0  0  0  0  0  0  0  0  0  0
  149.2209  139.9951  155.7236 H   0  0  0  0  0  0  0  0  0  0  0  0
  151.7055  145.3534  157.6223 H   0  0  0  0  0  0  0  0  0  0  0  0
  153.2212  145.2098  159.6042 H   0  0  0  0  0  0  0  0  0  0  0  0
  153.6495  143.0533  160.7225 H   0  0  0  0  0  0  0  0  0  0  0  0
  152.5877  140.9505  159.9162 H   0  0  0  0  0  0  0  0  0  0  0  0
  151.4124  139.5158  158.9202 H   0  0  0  0  0  0  0  0  0  0  0  0
  149.7938  139.3409  158.2928 H   0  0  0  0  0  0  0  0  0  0  0  0
  151.8786  137.8840  157.3451 H   0  0  0  0  0  0  0  0  0  0  0  0
  151.7212  140.3225  155.4992 H   0  0  0  0  0  0  0  0  0  0  0  0
  153.1198  139.8570  156.4424 H   0  0  0  0  0  0  0  0  0  0  0  0
  153.2802  139.0939  154.0433 H   0  0  0  0  0  0  0  0  0  0  0  0
  153.3536  137.7610  155.1759 H   0  0  0  0  0  0  0  0  0  0  0  0
  150.8997  138.6581  153.5921 H   0  0  0  0  0  0  0  0  0  0  0  0
  151.7864  137.1651  153.3744 H   0  0  0  0  0  0  0  0  0  0  0  0
  149.6789  136.8344  154.7176 H   0  0  0  0  0  0  0  0  0  0  0  0
  151.0958  136.3828  155.6446 H   0  0  0  0  0  0  0  0  0  0  0  0
  150.0658  143.6566  155.9527 H   0  0  0  0  0  0  0  0  0  0  0  0
  1  2  1  0  0  0  0
  1 22  1  0  0  0  0
  1 23  1  0  0  0  0
  1 24  1  0  0  0  0
  2  3  1  0  0  0  0
  2  4  1  0  0  0  0
  2 25  1  0  0  0  0
  3 26  1  0  0  0  0
  4  5  1  0  0  0  0
  4 27  1  0  0  0  0
  4 28  1  0  0  0  0
  5  6  1  0  0  0  0
  5 29  1  0  0  0  0
  6 14  1  0  0  0  0
  6  7  2  0  0  0  0
  7  8  1  0  0  0  0
  7 45  1  0  0  0  0
  8 13  2  0  0  0  0
  8  9  1  0  0  0  0
  9 10  2  0  0  0  0
  9 30  1  0  0  0  0
 10 11  1  0  0  0  0
 10 31  1  0  0  0  0
 11 12  2  0  0  0  0
 11 32  1  0  0  0  0
 12 13  1  0  0  0  0
 12 33  1  0  0  0  0
 13 14  1  0  0  0  0
 14 15  1  0  0  0  0
 15 16  1  0  0  0  0
 15 34  1  0  0  0  0
 15 35  1  0  0  0  0
 16 21  1  0  0  0  0
 16 17  1  0  0  0  0
 16 36  1  0  0  0  0
 17 18  1  0  0  0  0
 17 37  1  0  0  0  0
 17 38  1  0  0  0  0
 18 19  1  0  0  0  0
 18 39  1  0  0  0  0
 18 40  1  0  0  0  0
 19 20  1  0  0  0  0
 19 41  1  0  0  0  0
 19 42  1  0  0  0  0
 20 21  1  0  0  0  0
 20 43  1  0  0  0  0
 20 44  1  0  0  0  0
M  CHG  1   7   1
M  END
> <s_m_source_file>
AV-unprocessed.smi

> <i_m_source_file_index>
573

> <i_lp_mmshare_version>
43012

> <i_f3d_flags>
0

> <s_epik_input>
W0NIM11bQ0BIXShbT0hdKVtDSDJdW05IXWMobjEpbihjKGMxMilbY0hdW2NIXVtjSF1bY0hdMilbQ0gyXVtDQEBIXTNbQ0gyXVtDSDJdW0NIMl1bQ0gyXU8z

> <s_epik_cmdline>
J2VwaWtfcHl0aG9uJywgJy1waCcsICc3LjAnLCAnLXRuJywgJzgnLCAnLW1hJywgJzIwMCcsICctbWV0YWxfYmluZGluZycsICctaW1hZScsICc8aW5maWxlLm1hZT4nLCAnLW9tYWUnLCAnPG91dGZpbGUubWFlPic=

> <r_epik_Ionization_Penalty>
0.0692245

> <r_epik_Ionization_Penalty_Charging>
0.0692223

> <r_epik_Ionization_Penalty_Neutral>
2.1869e-06

> <r_epik_State_Penalty>
0.0606215

> <r_epik_Charging_Adjusted_Penalty>
0.129844

> <i_epik_Tot_Q>
1

> <i_epik_Tot_abs_Q>
1

> <r_epik_Metal_State_Penalty>
2.77811

> <b_epik_Metal_Only>
0

> <s_lp_Force_Field>
OPLS_2005

> <r_lp_Energy>
22.2685

> <b_lp_Chiralities_Consistent>
1

> <s_lp_Variant>
AV-unprocessed.smi:573-2

> <Gold.Version>
5.8.1

> <Gold.Id.Protein>
6NUR|6NUR_protein|mol2

> <Gold.PLP.Fitness>
54.1549

> <Gold.PLP.PLP>
-46.9865

> <Gold.PLP.part.hbond>
-1.8863

> <Gold.PLP.part.metal>
0.0000

> <Gold.PLP.part.buried>
-4.1892

> <Gold.PLP.part.nonpolar>
-40.8218

> <Gold.PLP.part.repulsive>
0.1513

> <Gold.PLP.ligand.clash>
0.4600

> <Gold.PLP.ligand.torsion>
0.4821

> <Gold.PLP.Chemscore.Hbond>
2.8560

> <Gold.PLP.Chemscore.CHOScore>
0.0000

> <Gold.PLP.Chemscore.Metal>
0.0000

> <Gold.Chemscore.Hbonds>
donor molecule, donor type, donor heavy atom, donor atom, acceptor molecule, acceptor atom, score
      L1  H     3    26       P1  8028  1.00
      L1  H     7    45       P1  8028  1.82

> <Gold.PLP.Chemscore.Internal.Correction>
0.0246

> <Gold.Rescore>
     Score         DG    S(hbond)    S(metal)    S(lipo)     H(rot)  DE(clash)    DE(int)     intcor
     18.05     -18.89       1.22        0.00     125.19       2.07       0.31       0.53       ----

> <Gold.Chemscore.Fitness>
18.0491

> <Gold.Chemscore.DG>
-18.8927

> <Gold.Chemscore.ZeroCoef>
-5.4800

> <Gold.Chemscore.Hbond>
1.2168

> <Gold.Chemscore.Metal>
0.0000

> <Gold.Chemscore.Lipo>
125.1936

> <Gold.Chemscore.Internal_Hbond>
0.0000

> <Gold.Chemscore.DEClash>
0.3129

> <Gold.Chemscore.DEInternal>
0.5306

> <Gold.Chemscore.Rot>
2.0699

> <Gold.Chemscore.Internal.Correction>
   9.000000E+99

> <Gold.Chemscore.Hbonds>
donor molecule, donor type, donor heavy atom, donor atom, acceptor molecule, acceptor atom, score
      L1  H     3    26       P1  8028  0.27
      L1  H     7    45       P1  8028  0.89

> <Gold.Chemscore.Hbond.Weighted>
-4.0641

> <Gold.Chemscore.Metal.Weighted>
-0.0000

> <Gold.Chemscore.Lipo.Weighted>
-14.6477

> <Gold.Chemscore.Internal_Hbond.Weighted>
0.0000

> <Gold.Chemscore.DEClash.Weighted>
0.3129

> <Gold.Chemscore.DEInternal.Weighted>
0.5306

> <Gold.Chemscore.Rot.Weighted>
5.2991

> <Gold.Chemscore.Internal.Correction.Weighted>
   9.000000E+99

> <Gold.Protein.RotatedTorsions>
[ 6907 6896 6895 6894 ] final   29.67 input  -60.11 | X-H torsion
[ 7974 7965 7964 7962 ] final   39.22 input  175.53 | X-H torsion
[ 8008 7997 7996 7995 ] final  176.06 input   59.86 | X-H torsion
[ 10167 10162 10161 10158 ] final  123.78 input  -65.29 | X-H torsion
[ 10718 10713 10712 10709 ] final   -0.42 input   66.30 | X-H torsion
[ 10763 10752 10751 10750 ] final -107.35 input  -60.55 | X-H torsion
[ 11005 11000 10999 10996 ] final   31.65 input  -57.11 | X-H torsion

> <Gold.Protein.ActiveResidues>
 VAL166  LYS551  ARG553  GLY616  TRP617  ASP618  TYR619  PRO620  LYS621  CYS622 
 ASP623  PHE694  ASN695  SER759  ASP760  ASP761  ALA762  ILE779  LEU786  VAL792 
 PHE793  MET794  SER795  GLU796  ALA797  LYS798  CYS799  TRP800  GLU811  SER814 

> <Gold.Protein.RotatedAtoms>
  152.0349  134.9746  160.0572 H   0  0  0  0  0  0  0  0  0  0  0  0  # atno 6907 bound_to 6896
  152.1207  133.4347  159.4682 H   0  0  0  0  0  0  0  0  0  0  0  0  # atno 6908 bound_to 6896
  150.6849  134.2456  159.4533 H   0  0  0  0  0  0  0  0  0  0  0  0  # atno 6909 bound_to 6896
  146.1001  139.5678  142.9419 H   0  0  0  0  0  0  0  0  0  0  0  0  # atno 7974 bound_to 7965
  156.0805  140.1393  156.9718 H   0  0  0  0  0  0  0  0  0  0  0  0  # atno 8008 bound_to 7997
  154.4582  140.0953  156.6867 H   0  0  0  0  0  0  0  0  0  0  0  0  # atno 8009 bound_to 7997
  155.5084  140.3453  155.4386 H   0  0  0  0  0  0  0  0  0  0  0  0  # atno 8010 bound_to 7997
  139.5780  144.6972  151.3603 H   0  0  0  0  0  0  0  0  0  0  0  0  # atno 10167 bound_to 10162
  156.8207  130.5455  149.5697 H   0  0  0  0  0  0  0  0  0  0  0  0  # atno 10718 bound_to 10713
  154.8069  135.4678  154.0416 H   0  0  0  0  0  0  0  0  0  0  0  0  # atno 10763 bound_to 10752
  153.1878  135.6850  153.8399 H   0  0  0  0  0  0  0  0  0  0  0  0  # atno 10764 bound_to 10752
  153.7928  135.3241  155.3358 H   0  0  0  0  0  0  0  0  0  0  0  0  # atno 10765 bound_to 10752
  140.2816  134.2966  155.7799 H   0  0  0  0  0  0  0  0  0  0  0  0  # atno 11005 bound_to 11000
  145.5870  141.0375  143.2091 LP  0  0  0  0  0  0  0  0  0  0  0  0  # atno 17320 bound_to 7965
  144.7426  139.7406  143.7305 LP  0  0  0  0  0  0  0  0  0  0  0  0  # atno 17321 bound_to 7965
  140.7061  143.7511  150.7484 LP  0  0  0  0  0  0  0  0  0  0  0  0  # atno 17342 bound_to 10162
  140.1036  143.4765  152.2411 LP  0  0  0  0  0  0  0  0  0  0  0  0  # atno 17343 bound_to 10162
  156.0990  130.5955  150.9863 LP  0  0  0  0  0  0  0  0  0  0  0  0  # atno 17370 bound_to 10713
  157.6458  131.0904  150.8156 LP  0  0  0  0  0  0  0  0  0  0  0  0  # atno 17371 bound_to 10713
  141.2161  133.7529  156.9490 LP  0  0  0  0  0  0  0  0  0  0  0  0  # atno 17394 bound_to 11000
  140.1278  134.9376  157.2294 LP  0  0  0  0  0  0  0  0  0  0  0  0  # atno 17395 bound_to 11000

$$$$
