AV-unprocessed.smi:227|AV-procd|sdf|1730|dock10
  -GOLD-   2262020223D 1   1.00000     0.00000
 Structure written by MMmdl.
 54 58  0  0  0  0  0  0  0  0  1 V2000
  149.7633  140.0782  153.9279 O   0  0  0  0  0  0  0  0  0  0  0  0
  150.0773  140.9849  154.9651 C   0  0  0  0  0  0  0  0  0  0  0  0
  149.9407  140.3218  156.3579 C   0  0  1  0  0  0  0  0  0  0  0  0
  150.5498  138.8982  156.4056 C   0  0  0  0  0  0  0  0  0  0  0  0
  150.0711  138.1109  157.5287 N   0  0  0  0  0  0  0  0  0  0  0  0
  150.8192  137.2650  158.3129 C   0  0  0  0  0  0  0  0  0  0  0  0
  150.1610  136.6702  159.2691 N   0  0  0  0  0  0  0  0  0  0  0  0
  148.8578  137.1391  159.1393 C   0  0  0  0  0  0  0  0  0  0  0  0
  147.6365  136.9153  159.8424 C   0  0  0  0  0  0  0  0  0  0  0  0
  147.5054  136.0929  160.9207 N   0  0  0  0  0  0  0  0  0  0  0  0
  147.2500  136.6293  162.2480 C   0  0  1  0  0  0  0  0  0  0  0  0
  145.7740  137.0706  162.1955 C   0  0  0  0  0  0  0  0  0  0  0  0
  145.1731  135.9970  161.2743 C   0  0  0  0  0  0  0  0  0  0  0  0
  146.4136  135.1279  160.9742 C   0  0  2  0  0  0  0  0  0  0  0  0
  146.7505  134.2920  162.2264 C   0  0  1  0  0  0  0  0  0  0  0  0
  147.7016  133.1213  161.9195 C   0  0  0  0  0  0  0  0  0  0  0  0
  147.0905  132.2166  161.0242 O   0  0  0  0  0  0  0  0  0  0  0  0
  147.3728  135.3759  163.1308 C   0  0  0  0  0  0  0  0  0  0  0  0
  146.5294  137.5544  159.3787 N   0  0  0  0  0  0  0  0  0  0  0  0
  146.6049  138.3722  158.3259 C   0  0  0  0  0  0  0  0  0  0  0  0
  147.6717  138.6862  157.5909 N   0  0  0  0  0  0  0  0  0  0  0  0
  148.7853  138.0380  158.0353 C   0  0  0  0  0  0  0  0  0  0  0  0
  150.4969  141.2202  157.4914 C   0  0  2  0  0  0  0  0  0  0  0  0
  150.9476  142.6011  157.0486 C   0  0  0  0  0  0  0  0  0  0  0  0
  151.8344  143.0350  158.2099 C   0  0  0  0  0  0  0  0  0  0  0  0
  152.4480  141.8430  158.6862 O   0  0  0  0  0  0  0  0  0  0  0  0
  151.7823  140.7043  158.1479 C   0  0  0  0  0  0  0  0  0  0  0  0
  149.8702  140.5198  153.0992 H   0  0  0  0  0  0  0  0  0  0  0  0
  151.0905  141.3545  154.8085 H   0  0  0  0  0  0  0  0  0  0  0  0
  149.4267  141.8551  154.8787 H   0  0  0  0  0  0  0  0  0  0  0  0
  148.8701  140.2094  156.5363 H   0  0  0  0  0  0  0  0  0  0  0  0
  150.3314  138.3611  155.4818 H   0  0  0  0  0  0  0  0  0  0  0  0
  151.6360  138.9475  156.4810 H   0  0  0  0  0  0  0  0  0  0  0  0
  151.8759  137.1061  158.1540 H   0  0  0  0  0  0  0  0  0  0  0  0
  147.9239  137.4165  162.5798 H   0  0  0  0  0  0  0  0  0  0  0  0
  145.3073  137.0948  163.1808 H   0  0  0  0  0  0  0  0  0  0  0  0
  145.6761  138.0608  161.7485 H   0  0  0  0  0  0  0  0  0  0  0  0
  144.3653  135.4361  161.7452 H   0  0  0  0  0  0  0  0  0  0  0  0
  144.7799  136.4502  160.3634 H   0  0  0  0  0  0  0  0  0  0  0  0
  146.2966  134.5123  160.0814 H   0  0  0  0  0  0  0  0  0  0  0  0
  145.8362  133.8925  162.6682 H   0  0  0  0  0  0  0  0  0  0  0  0
  148.6191  133.4911  161.4608 H   0  0  0  0  0  0  0  0  0  0  0  0
  147.9871  132.5944  162.8307 H   0  0  0  0  0  0  0  0  0  0  0  0
  147.4589  131.3580  161.1673 H   0  0  0  0  0  0  0  0  0  0  0  0
  148.4217  135.1644  163.3435 H   0  0  0  0  0  0  0  0  0  0  0  0
  146.8533  135.4800  164.0839 H   0  0  0  0  0  0  0  0  0  0  0  0
  145.6781  138.8413  158.0302 H   0  0  0  0  0  0  0  0  0  0  0  0
  149.7376  141.3427  158.2655 H   0  0  0  0  0  0  0  0  0  0  0  0
  151.5357  142.5368  156.1318 H   0  0  0  0  0  0  0  0  0  0  0  0
  150.1211  143.2917  156.8783 H   0  0  0  0  0  0  0  0  0  0  0  0
  152.5764  143.7775  157.9157 H   0  0  0  0  0  0  0  0  0  0  0  0
  151.2290  143.4588  159.0122 H   0  0  0  0  0  0  0  0  0  0  0  0
  151.5842  139.9654  158.9247 H   0  0  0  0  0  0  0  0  0  0  0  0
  152.4395  140.2461  157.4076 H   0  0  0  0  0  0  0  0  0  0  0  0
  1  2  1  0  0  0  0
  1 28  1  0  0  0  0
  2  3  1  0  0  0  0
  2 29  1  0  0  0  0
  2 30  1  0  0  0  0
  3  4  1  0  0  0  0
  3 23  1  0  0  0  0
  3 31  1  0  0  0  0
  4  5  1  0  0  0  0
  4 32  1  0  0  0  0
  4 33  1  0  0  0  0
  5 22  1  0  0  0  0
  5  6  1  0  0  0  0
  6  7  2  0  0  0  0
  6 34  1  0  0  0  0
  7  8  1  0  0  0  0
  8 22  2  0  0  0  0
  8  9  1  0  0  0  0
  9 10  1  0  0  0  0
  9 19  2  0  0  0  0
 10 14  1  0  0  0  0
 10 11  1  0  0  0  0
 11 18  1  0  0  0  0
 11 12  1  0  0  0  0
 11 35  1  0  0  0  0
 12 13  1  0  0  0  0
 12 36  1  0  0  0  0
 12 37  1  0  0  0  0
 13 14  1  0  0  0  0
 13 38  1  0  0  0  0
 13 39  1  0  0  0  0
 14 15  1  0  0  0  0
 14 40  1  0  0  0  0
 15 16  1  0  0  0  0
 15 18  1  0  0  0  0
 15 41  1  0  0  0  0
 16 17  1  0  0  0  0
 16 42  1  0  0  0  0
 16 43  1  0  0  0  0
 17 44  1  0  0  0  0
 18 45  1  0  0  0  0
 18 46  1  0  0  0  0
 19 20  1  0  0  0  0
 20 21  2  0  0  0  0
 20 47  1  0  0  0  0
 21 22  1  0  0  0  0
 23 27  1  0  0  0  0
 23 24  1  0  0  0  0
 23 48  1  0  0  0  0
 24 25  1  0  0  0  0
 24 49  1  0  0  0  0
 24 50  1  0  0  0  0
 25 26  1  0  0  0  0
 25 51  1  0  0  0  0
 25 52  1  0  0  0  0
 26 27  1  0  0  0  0
 27 53  1  0  0  0  0
 27 54  1  0  0  0  0
M  END
> <s_m_source_file>
AV-unprocessed.smi

> <i_m_source_file_index>
227

> <i_lp_mmshare_version>
43012

> <i_f3d_flags>
0

> <s_epik_input>
W0NIMl0xT1tDSDJdW0NIMl1bQ0BIXTFbQ0BIXShbQ0gyXVtPSF0pW0NIMl1uKFtjSF1uMiljKGMyMyluW2NIXW5jM04oW0NASF00NSlbQ0BASF0oW0NIMl1bQ0gyXTQpW0NASF0oW0NIMl01KVtDSDJdW09IXQ==

> <s_epik_cmdline>
J2VwaWtfcHl0aG9uJywgJy1waCcsICc3LjAnLCAnLXRuJywgJzgnLCAnLW1hJywgJzIwMCcsICctbWV0YWxfYmluZGluZycsICctaW1hZScsICc8aW5maWxlLm1hZT4nLCAnLW9tYWUnLCAnPG91dGZpbGUubWFlPic=

> <r_lp_tautomer_probability>
1

> <r_epik_Ionization_Penalty>
0.0055791

> <r_epik_Ionization_Penalty_Charging>
0

> <r_epik_Ionization_Penalty_Neutral>
0.0055791

> <r_epik_State_Penalty>
0.00401299

> <r_epik_Charging_Adjusted_Penalty>
0.00401299

> <i_epik_Tot_Q>
0

> <i_epik_Tot_abs_Q>
0

> <r_epik_Metal_State_Penalty>
-0

> <b_epik_Metal_Only>
0

> <s_lp_Force_Field>
OPLS_2005

> <r_lp_Energy>
89.0098

> <b_lp_Chiralities_Consistent>
1

> <s_lp_Variant>
AV-unprocessed.smi:227-4

> <Gold.Version>
5.8.1

> <Gold.Id.Protein>
6NUR|6NUR_protein|mol2

> <Gold.PLP.Fitness>
43.8107

> <Gold.PLP.PLP>
-42.4970

> <Gold.PLP.part.hbond>
-3.8122

> <Gold.PLP.part.metal>
0.0000

> <Gold.PLP.part.buried>
-5.2761

> <Gold.PLP.part.nonpolar>
-33.0283

> <Gold.PLP.part.repulsive>
0.0000

> <Gold.PLP.ligand.clash>
0.0000

> <Gold.PLP.ligand.torsion>
2.0763

> <Gold.PLP.Chemscore.Hbond>
1.7572

> <Gold.PLP.Chemscore.CHOScore>
0.0000

> <Gold.PLP.Chemscore.Metal>
0.0000

> <Gold.Chemscore.Hbonds>
donor molecule, donor type, donor heavy atom, donor atom, acceptor molecule, acceptor atom, score
      L1  H     1    28       P1  7957  0.74
      P1  H  6896  6907       L1     7  1.00
      P1  H  6934  6947       L1    19  0.02

> <Gold.PLP.Chemscore.Internal.Correction>
0.1946

> <Gold.Rescore>
     Score         DG    S(hbond)    S(metal)    S(lipo)     H(rot)  DE(clash)    DE(int)     intcor
      8.78     -14.39       1.73        0.00     105.85       3.61       0.14       5.47       ----

> <Gold.Chemscore.Fitness>
8.7845

> <Gold.Chemscore.DG>
-14.3932

> <Gold.Chemscore.ZeroCoef>
-5.4800

> <Gold.Chemscore.Hbond>
1.7256

> <Gold.Chemscore.Metal>
0.0000

> <Gold.Chemscore.Lipo>
105.8453

> <Gold.Chemscore.Internal_Hbond>
0.0000

> <Gold.Chemscore.DEClash>
0.1379

> <Gold.Chemscore.DEInternal>
5.4709

> <Gold.Chemscore.Rot>
3.6071

> <Gold.Chemscore.Internal.Correction>
   9.000000E+99

> <Gold.Chemscore.Hbonds>
donor molecule, donor type, donor heavy atom, donor atom, acceptor molecule, acceptor atom, score
      L1  H     1    28       P1  7957  0.70
      P1  H  6896  6907       L1     7  0.84

> <Gold.Chemscore.Hbond.Weighted>
-5.7635

> <Gold.Chemscore.Metal.Weighted>
-0.0000

> <Gold.Chemscore.Lipo.Weighted>
-12.3839

> <Gold.Chemscore.Internal_Hbond.Weighted>
0.0000

> <Gold.Chemscore.DEClash.Weighted>
0.1379

> <Gold.Chemscore.DEInternal.Weighted>
5.4709

> <Gold.Chemscore.Rot.Weighted>
9.2342

> <Gold.Chemscore.Internal.Correction.Weighted>
   9.000000E+99

> <Gold.Protein.RotatedTorsions>
[ 6907 6896 6895 6894 ] final  -53.03 input  -60.11 | X-H torsion
[ 7974 7965 7964 7962 ] final  152.63 input  175.53 | X-H torsion
[ 8008 7997 7996 7995 ] final   19.49 input   59.86 | X-H torsion
[ 10167 10162 10161 10158 ] final   -5.18 input  -65.29 | X-H torsion
[ 10718 10713 10712 10709 ] final  175.40 input   66.30 | X-H torsion
[ 10763 10752 10751 10750 ] final -107.81 input  -60.55 | X-H torsion
[ 11005 11000 10999 10996 ] final  179.35 input  -57.11 | X-H torsion

> <Gold.Protein.ActiveResidues>
 VAL166  LYS551  ARG553  GLY616  TRP617  ASP618  TYR619  PRO620  LYS621  CYS622 
 ASP623  PHE694  ASN695  SER759  ASP760  ASP761  ALA762  ILE779  LEU786  VAL792 
 PHE793  MET794  SER795  GLU796  ALA797  LYS798  CYS799  TRP800  GLU811  SER814 

> <Gold.Protein.RotatedAtoms>
  150.8464  134.7774  159.6973 H   0  0  0  0  0  0  0  0  0  0  0  0  # atno 6907 bound_to 6896
  152.4540  134.5330  159.9826 H   0  0  0  0  0  0  0  0  0  0  0  0  # atno 6908 bound_to 6896
  151.5459  133.3387  159.2980 H   0  0  0  0  0  0  0  0  0  0  0  0  # atno 6909 bound_to 6896
  144.8209  139.6694  143.6101 H   0  0  0  0  0  0  0  0  0  0  0  0  # atno 7974 bound_to 7965
  154.9215  140.3028  155.5214 H   0  0  0  0  0  0  0  0  0  0  0  0  # atno 8008 bound_to 7997
  156.3009  140.2370  156.4201 H   0  0  0  0  0  0  0  0  0  0  0  0  # atno 8009 bound_to 7997
  154.8326  140.0417  157.1476 H   0  0  0  0  0  0  0  0  0  0  0  0  # atno 8010 bound_to 7997
  140.6954  143.6338  150.8499 H   0  0  0  0  0  0  0  0  0  0  0  0  # atno 10167 bound_to 10162
  156.9354  130.9984  151.2979 H   0  0  0  0  0  0  0  0  0  0  0  0  # atno 10718 bound_to 10713
  154.8098  135.4661  154.0486 H   0  0  0  0  0  0  0  0  0  0  0  0  # atno 10763 bound_to 10752
  153.1926  135.6857  153.8340 H   0  0  0  0  0  0  0  0  0  0  0  0  # atno 10764 bound_to 10752
  153.7852  135.3251  155.3348 H   0  0  0  0  0  0  0  0  0  0  0  0  # atno 10765 bound_to 10752
  140.4052  134.6742  157.4584 H   0  0  0  0  0  0  0  0  0  0  0  0  # atno 11005 bound_to 11000
  146.2514  139.6208  142.9424 LP  0  0  0  0  0  0  0  0  0  0  0  0  # atno 17320 bound_to 7965
  145.5107  141.0435  143.2489 LP  0  0  0  0  0  0  0  0  0  0  0  0  # atno 17321 bound_to 7965
  140.0055  143.5698  152.2859 LP  0  0  0  0  0  0  0  0  0  0  0  0  # atno 17342 bound_to 10162
  139.6403  144.7654  151.2352 LP  0  0  0  0  0  0  0  0  0  0  0  0  # atno 17343 bound_to 10162
  157.5819  130.8383  149.8535 LP  0  0  0  0  0  0  0  0  0  0  0  0  # atno 17370 bound_to 10713
  156.0428  130.3735  150.1392 LP  0  0  0  0  0  0  0  0  0  0  0  0  # atno 17371 bound_to 10713
  140.0307  134.6410  155.9110 LP  0  0  0  0  0  0  0  0  0  0  0  0  # atno 17394 bound_to 11000
  141.1842  133.6552  156.5147 LP  0  0  0  0  0  0  0  0  0  0  0  0  # atno 17395 bound_to 11000

$$$$
