AV-unprocessed.smi:229|AV-procd|sdf|1756|dock3
  -GOLD-   2262020283D 1   1.00000     0.00000
 Structure written by MMmdl.
 58 62  0  0  0  0  0  0  0  0  1 V2000
  148.0698  133.1343  153.3431 C   0  0  0  0  0  0  0  0  0  0  0  0
  149.4659  132.6199  153.7156 C   0  0  0  0  0  0  0  0  0  0  0  0
  149.9747  133.1859  155.0497 C   0  0  1  0  0  0  0  0  0  0  0  0
  150.3478  134.6738  154.9357 C   0  0  0  0  0  0  0  0  0  0  0  0
  150.7227  135.1919  156.2466 N   0  0  0  0  0  0  0  0  0  0  0  0
  151.3814  136.3766  156.3103 C   0  0  0  0  0  0  0  0  0  0  0  0
  151.8764  136.9410  155.1758 N   0  0  0  0  0  0  0  0  0  0  0  0
  152.5292  138.1058  155.2290 C   0  0  0  0  0  0  0  0  0  0  0  0
  152.8013  138.8622  156.2940 N   0  0  0  0  0  0  0  0  0  0  0  0
  152.3128  138.2991  157.4354 C   0  0  0  0  0  0  0  0  0  0  0  0
  151.5962  137.0729  157.5335 C   0  0  0  0  0  0  0  0  0  0  0  0
  151.2733  136.8207  158.8625 N   0  0  0  0  0  0  0  0  0  0  0  0
  151.7626  137.8424  159.5105 C   0  0  0  0  0  0  0  0  0  0  0  0
  152.4105  138.7736  158.7307 N   0  0  0  0  0  0  0  0  0  0  0  0
  153.0633  139.9897  159.1832 C   0  0  0  0  0  0  0  0  0  0  0  0
  152.1106  141.2049  159.1730 C   0  0  2  0  0  0  0  0  0  0  0  0
  151.9066  141.5902  157.8269 O   0  0  0  0  0  0  0  0  0  0  0  0
  152.6727  142.4233  159.9321 C   0  0  2  0  0  0  0  0  0  0  0  0
  153.0155  142.1633  161.4013 C   0  0  0  0  0  0  0  0  0  0  0  0
  152.8976  143.5329  162.0517 C   0  0  0  0  0  0  0  0  0  0  0  0
  152.1158  144.3596  161.0288 C   0  0  0  0  0  0  0  0  0  0  0  0
  151.6681  143.4186  160.0640 O   0  0  0  0  0  0  0  0  0  0  0  0
  149.6832  134.9975  157.2503 C   0  0  0  0  0  0  0  0  0  0  0  0
  149.2772  133.5084  157.3348 C   0  0  2  0  0  0  0  0  0  0  0  0
  148.0509  133.3246  158.2231 C   0  0  0  0  0  0  0  0  0  0  0  0
  148.6494  132.9665  159.5749 C   0  0  0  0  0  0  0  0  0  0  0  0
  149.7145  132.1070  159.2160 O   0  0  0  0  0  0  0  0  0  0  0  0
  150.3340  132.6311  158.0470 C   0  0  0  0  0  0  0  0  0  0  0  0
  148.9437  133.0316  156.0275 O   0  0  0  0  0  0  0  0  0  0  0  0
  147.7395  132.7070  152.3963 H   0  0  0  0  0  0  0  0  0  0  0  0
  148.0624  134.2194  153.2382 H   0  0  0  0  0  0  0  0  0  0  0  0
  147.3354  132.8660  154.1029 H   0  0  0  0  0  0  0  0  0  0  0  0
  149.4328  131.5314  153.7743 H   0  0  0  0  0  0  0  0  0  0  0  0
  150.1701  132.8628  152.9189 H   0  0  0  0  0  0  0  0  0  0  0  0
  150.8600  132.6233  155.3476 H   0  0  0  0  0  0  0  0  0  0  0  0
  151.1742  134.7907  154.2331 H   0  0  0  0  0  0  0  0  0  0  0  0
  149.5044  135.2471  154.5478 H   0  0  0  0  0  0  0  0  0  0  0  0
  152.8858  138.4848  154.2827 H   0  0  0  0  0  0  0  0  0  0  0  0
  151.6745  137.9393  160.5829 H   0  0  0  0  0  0  0  0  0  0  0  0
  153.4462  139.8082  160.1876 H   0  0  0  0  0  0  0  0  0  0  0  0
  153.9305  140.1779  158.5486 H   0  0  0  0  0  0  0  0  0  0  0  0
  151.1511  140.9158  159.6043 H   0  0  0  0  0  0  0  0  0  0  0  0
  151.9936  140.8239  157.2806 H   0  0  0  0  0  0  0  0  0  0  0  0
  153.5422  142.8401  159.4188 H   0  0  0  0  0  0  0  0  0  0  0  0
  152.2816  141.4883  161.8442 H   0  0  0  0  0  0  0  0  0  0  0  0
  154.0028  141.7192  161.5320 H   0  0  0  0  0  0  0  0  0  0  0  0
  152.3741  143.4678  163.0062 H   0  0  0  0  0  0  0  0  0  0  0  0
  153.8774  143.9757  162.2340 H   0  0  0  0  0  0  0  0  0  0  0  0
  151.2766  144.8949  161.4738 H   0  0  0  0  0  0  0  0  0  0  0  0
  152.7671  145.0885  160.5443 H   0  0  0  0  0  0  0  0  0  0  0  0
  149.9917  135.3553  158.2318 H   0  0  0  0  0  0  0  0  0  0  0  0
  148.8213  135.6000  156.9599 H   0  0  0  0  0  0  0  0  0  0  0  0
  147.4015  134.1996  158.2632 H   0  0  0  0  0  0  0  0  0  0  0  0
  147.4513  132.4848  157.8680 H   0  0  0  0  0  0  0  0  0  0  0  0
  149.0401  133.8508  160.0811 H   0  0  0  0  0  0  0  0  0  0  0  0
  147.9375  132.4718  160.2358 H   0  0  0  0  0  0  0  0  0  0  0  0
  150.6793  131.7987  157.4343 H   0  0  0  0  0  0  0  0  0  0  0  0
  151.2091  133.2155  158.3347 H   0  0  0  0  0  0  0  0  0  0  0  0
  1  2  1  0  0  0  0
  1 30  1  0  0  0  0
  1 31  1  0  0  0  0
  1 32  1  0  0  0  0
  2  3  1  0  0  0  0
  2 33  1  0  0  0  0
  2 34  1  0  0  0  0
  3 29  1  0  0  0  0
  3  4  1  0  0  0  0
  3 35  1  0  0  0  0
  4  5  1  0  0  0  0
  4 36  1  0  0  0  0
  4 37  1  0  0  0  0
  5  6  1  0  0  0  0
  5 23  1  0  0  0  0
  6 11  1  0  0  0  0
  6  7  2  0  0  0  0
  7  8  1  0  0  0  0
  8  9  2  0  0  0  0
  8 38  1  0  0  0  0
  9 10  1  0  0  0  0
 10 14  1  0  0  0  0
 10 11  2  0  0  0  0
 11 12  1  0  0  0  0
 12 13  2  0  0  0  0
 13 14  1  0  0  0  0
 13 39  1  0  0  0  0
 14 15  1  0  0  0  0
 15 16  1  0  0  0  0
 15 40  1  0  0  0  0
 15 41  1  0  0  0  0
 16 17  1  0  0  0  0
 16 18  1  0  0  0  0
 16 42  1  0  0  0  0
 17 43  1  0  0  0  0
 18 22  1  0  0  0  0
 18 19  1  0  0  0  0
 18 44  1  0  0  0  0
 19 20  1  0  0  0  0
 19 45  1  0  0  0  0
 19 46  1  0  0  0  0
 20 21  1  0  0  0  0
 20 47  1  0  0  0  0
 20 48  1  0  0  0  0
 21 22  1  0  0  0  0
 21 49  1  0  0  0  0
 21 50  1  0  0  0  0
 23 24  1  0  0  0  0
 23 51  1  0  0  0  0
 23 52  1  0  0  0  0
 24 28  1  0  0  0  0
 24 25  1  0  0  0  0
 24 29  1  0  0  0  0
 25 26  1  0  0  0  0
 25 53  1  0  0  0  0
 25 54  1  0  0  0  0
 26 27  1  0  0  0  0
 26 55  1  0  0  0  0
 26 56  1  0  0  0  0
 27 28  1  0  0  0  0
 28 57  1  0  0  0  0
 28 58  1  0  0  0  0
M  END
> <s_m_source_file>
AV-unprocessed.smi

> <i_m_source_file_index>
229

> <i_lp_mmshare_version>
43012

> <i_f3d_flags>
0

> <s_epik_input>
W0NIMl0xT1tDSDJdW0NIMl1bQ0BdMTJbQ0gyXU4oW0NIMl1bQ0BIXShPMilbQ0gyXVtDSDNdKWMobltjSF1uMyljKGMzNCluW2NIXW40W0NIMl1bQ0BIXShbT0hdKVtDQEBIXTVbQ0gyXVtDSDJdW0NIMl1PNQ==

> <s_epik_cmdline>
J2VwaWtfcHl0aG9uJywgJy1waCcsICc3LjAnLCAnLXRuJywgJzgnLCAnLW1hJywgJzIwMCcsICctbWV0YWxfYmluZGluZycsICctaW1hZScsICc8aW5maWxlLm1hZT4nLCAnLW9tYWUnLCAnPG91dGZpbGUubWFlPic=

> <r_lp_tautomer_probability>
1

> <r_epik_Ionization_Penalty>
0.00318402

> <r_epik_Ionization_Penalty_Charging>
0

> <r_epik_Ionization_Penalty_Neutral>
0.00318402

> <r_epik_State_Penalty>
0.00215642

> <r_epik_Charging_Adjusted_Penalty>
0.00215642

> <i_epik_Tot_Q>
0

> <i_epik_Tot_abs_Q>
0

> <r_epik_Metal_State_Penalty>
-0

> <b_epik_Metal_Only>
0

> <s_lp_Force_Field>
OPLS_2005

> <r_lp_Energy>
55.2871

> <b_lp_Chiralities_Consistent>
1

> <s_lp_Variant>
AV-unprocessed.smi:229-10

> <Gold.Version>
5.8.1

> <Gold.Id.Protein>
6NUR|6NUR_protein|mol2

> <Gold.PLP.Fitness>
49.9108

> <Gold.PLP.PLP>
-43.3700

> <Gold.PLP.part.hbond>
-3.7570

> <Gold.PLP.part.metal>
0.0000

> <Gold.PLP.part.buried>
-4.7912

> <Gold.PLP.part.nonpolar>
-34.8876

> <Gold.PLP.part.repulsive>
0.1972

> <Gold.PLP.ligand.clash>
0.0000

> <Gold.PLP.ligand.torsion>
1.0544

> <Gold.PLP.Chemscore.Hbond>
2.7523

> <Gold.PLP.Chemscore.CHOScore>
0.0000

> <Gold.PLP.Chemscore.Metal>
0.0000

> <Gold.Chemscore.Hbonds>
donor molecule, donor type, donor heavy atom, donor atom, acceptor molecule, acceptor atom, score
      P1  H  6896  6909       L1    12  0.81
      P1  H  7997  8010       L1     9  1.00
      P1  H 10752 10763       L1     7  0.82

> <Gold.PLP.Chemscore.Internal.Correction>
0.3927

> <Gold.Rescore>
     Score         DG    S(hbond)    S(metal)    S(lipo)     H(rot)  DE(clash)    DE(int)     intcor
     11.86     -14.05       0.92        0.00     100.75       2.46       0.10       2.10       ----

> <Gold.Chemscore.Fitness>
11.8553

> <Gold.Chemscore.DG>
-14.0539

> <Gold.Chemscore.ZeroCoef>
-5.4800

> <Gold.Chemscore.Hbond>
0.9227

> <Gold.Chemscore.Metal>
0.0000

> <Gold.Chemscore.Lipo>
100.7472

> <Gold.Chemscore.Internal_Hbond>
0.0000

> <Gold.Chemscore.DEClash>
0.1025

> <Gold.Chemscore.DEInternal>
2.0961

> <Gold.Chemscore.Rot>
2.4591

> <Gold.Chemscore.Internal.Correction>
   9.000000E+99

> <Gold.Chemscore.Hbonds>
donor molecule, donor type, donor heavy atom, donor atom, acceptor molecule, acceptor atom, score
      P1  H  6896  6909       L1    12  0.72
      P1  H  7997  8010       L1     9  0.80
      P1  H 10752 10763       L1     7  0.37

> <Gold.Chemscore.Hbond.Weighted>
-3.0818

> <Gold.Chemscore.Metal.Weighted>
-0.0000

> <Gold.Chemscore.Lipo.Weighted>
-11.7874

> <Gold.Chemscore.Internal_Hbond.Weighted>
0.0000

> <Gold.Chemscore.DEClash.Weighted>
0.1025

> <Gold.Chemscore.DEInternal.Weighted>
2.0961

> <Gold.Chemscore.Rot.Weighted>
6.2953

> <Gold.Chemscore.Internal.Correction.Weighted>
   9.000000E+99

> <Gold.Protein.RotatedTorsions>
[ 6907 6896 6895 6894 ] final   85.28 input  -60.11 | X-H torsion
[ 7974 7965 7964 7962 ] final  149.24 input  175.53 | X-H torsion
[ 8008 7997 7996 7995 ] final   60.26 input   59.86 | X-H torsion
[ 10167 10162 10161 10158 ] final  -89.10 input  -65.29 | X-H torsion
[ 10718 10713 10712 10709 ] final  -58.92 input   66.30 | X-H torsion
[ 10763 10752 10751 10750 ] final   40.69 input  -60.55 | X-H torsion
[ 11005 11000 10999 10996 ] final  -17.57 input  -57.11 | X-H torsion

> <Gold.Protein.ActiveResidues>
 VAL166  LYS551  ARG553  GLY616  TRP617  ASP618  TYR619  PRO620  LYS621  CYS622 
 ASP623  PHE694  ASN695  SER759  ASP760  ASP761  ALA762  ILE779  LEU786  VAL792 
 PHE793  MET794  SER795  GLU796  ALA797  LYS798  CYS799  TRP800  GLU811  SER814 

> <Gold.Protein.RotatedAtoms>
  152.5371  134.2610  159.8934 H   0  0  0  0  0  0  0  0  0  0  0  0  # atno 6907 bound_to 6896
  151.2570  133.4315  159.2622 H   0  0  0  0  0  0  0  0  0  0  0  0  # atno 6908 bound_to 6896
  151.0488  134.9672  159.8257 H   0  0  0  0  0  0  0  0  0  0  0  0  # atno 6909 bound_to 6896
  144.8453  139.6255  143.5998 H   0  0  0  0  0  0  0  0  0  0  0  0  # atno 7974 bound_to 7965
  155.5794  140.3491  155.4536 H   0  0  0  0  0  0  0  0  0  0  0  0  # atno 8008 bound_to 7997
  156.0384  140.1290  157.0207 H   0  0  0  0  0  0  0  0  0  0  0  0  # atno 8009 bound_to 7997
  154.4381  140.1029  156.6187 H   0  0  0  0  0  0  0  0  0  0  0  0  # atno 8010 bound_to 7997
  140.3682  143.2807  151.9533 H   0  0  0  0  0  0  0  0  0  0  0  0  # atno 10167 bound_to 10162
  156.1100  130.4176  150.0643 H   0  0  0  0  0  0  0  0  0  0  0  0  # atno 10718 bound_to 10713
  152.9929  135.6184  154.2667 H   0  0  0  0  0  0  0  0  0  0  0  0  # atno 10763 bound_to 10752
  154.2401  135.2789  155.2859 H   0  0  0  0  0  0  0  0  0  0  0  0  # atno 10764 bound_to 10752
  154.5376  135.5770  153.6870 H   0  0  0  0  0  0  0  0  0  0  0  0  # atno 10765 bound_to 10752
  140.8182  133.8089  155.9632 H   0  0  0  0  0  0  0  0  0  0  0  0  # atno 11005 bound_to 11000
  146.2738  139.6703  142.9277 LP  0  0  0  0  0  0  0  0  0  0  0  0  # atno 17320 bound_to 7965
  145.4610  141.0433  143.2751 LP  0  0  0  0  0  0  0  0  0  0  0  0  # atno 17321 bound_to 7965
  139.4806  144.5931  151.7737 LP  0  0  0  0  0  0  0  0  0  0  0  0  # atno 17342 bound_to 10162
  140.5060  144.1098  150.5982 LP  0  0  0  0  0  0  0  0  0  0  0  0  # atno 17343 bound_to 10162
  156.8609  130.9491  151.3618 LP  0  0  0  0  0  0  0  0  0  0  0  0  # atno 17370 bound_to 10713
  157.6280  130.8707  149.9223 LP  0  0  0  0  0  0  0  0  0  0  0  0  # atno 17371 bound_to 10713
  140.9127  134.2240  157.4976 LP  0  0  0  0  0  0  0  0  0  0  0  0  # atno 17394 bound_to 11000
  139.8710  134.9757  156.4894 LP  0  0  0  0  0  0  0  0  0  0  0  0  # atno 17395 bound_to 11000

$$$$
