#       Name:                AV-unprocessed.smi:1296
#       Creating user name   scv26
#       Creation time:       Fri Mar 27 04:57:23 2020


#       File generated by GOLD software.
#

@<TRIPOS>MOLECULE
AV-unprocessed.smi:1296
    41    41     1
SMALL
NO_CHARGES


@<TRIPOS>ATOM
      1 ****        -3.2582   5.2554   0.5232 C.3            1 S1                 0.0000
      2 ****        -2.7307   3.8382   0.4551 C.2            1 S1                 0.0000
      3 ****        -2.1814   3.4266  -0.6236 N.2            1 S1                 0.0000
      4 ****        -1.6954   2.1101  -0.6932 C.2            1 S1                 0.0000
      5 ****        -1.0673   1.7051  -2.0155 C.3            1 S1                 0.0000
      6 ****        -1.7945   1.2631   0.3714 C.2            1 S1                 0.0000
      7 ****        -1.2901  -0.1798   0.3387 C.3            1 S1                 0.0000
      8 ****         0.2187  -0.3606   0.5214 C.2            1 S1                 0.0000
      9 ****         0.8279   0.3130   1.3521 O.2            1 S1                 0.0000
     10 ****         0.8065  -1.2717  -0.2692 N.am           1 S1                 0.0000
     11 ****         2.2287  -1.5992  -0.2768 C.3            1 S1                 0.0000
     12 ****         2.4603  -3.1220  -0.3266 C.3            1 S1                 0.0000
     13 ****         1.8728  -3.8421   0.8998 C.3            1 S1                 0.0000
     14 ****         3.9555  -3.4398  -0.4765 C.3            1 S1                 0.0000
     15 ****        -2.4273   1.7791   1.5988 C.2            1 S1                 0.0000
     16 ****        -2.5307   1.0626   2.5937 O.2            1 S1                 0.0000
     17 ****        -2.8825   3.0646   1.5838 N.pl3          1 S1                -1.0000
     18 ****        -2.9580   5.8291  -0.3548 H              1 S1                 0.0000
     19 ****        -2.8737   5.7623   1.4088 H              1 S1                 0.0000
     20 ****        -4.3473   5.2493   0.5731 H              1 S1                 0.0000
     21 ****        -1.6258   0.8867  -2.4699 H              1 S1                 0.0000
     22 ****        -0.0357   1.3847  -1.8686 H              1 S1                 0.0000
     23 ****        -1.0603   2.5375  -2.7202 H              1 S1                 0.0000
     24 ****        -1.7960  -0.7865   1.0899 H              1 S1                 0.0000
     25 ****        -1.5880  -0.6192  -0.6138 H              1 S1                 0.0000
     26 ****         0.2216  -1.7752  -0.9201 H              1 S1                 0.0000
     27 ****         2.6727  -1.1256  -1.1531 H              1 S1                 0.0000
     28 ****         2.7385  -1.1808   0.5927 H              1 S1                 0.0000
     29 ****         1.9555  -3.5104  -1.2123 H              1 S1                 0.0000
     30 ****         2.3197  -3.4757   1.8246 H              1 S1                 0.0000
     31 ****         2.0520  -4.9163   0.8470 H              1 S1                 0.0000
     32 ****         0.7947  -3.6980   0.9724 H              1 S1                 0.0000
     33 ****         4.5257  -3.0779   0.3798 H              1 S1                 0.0000
     34 ****         4.3688  -2.9744  -1.3719 H              1 S1                 0.0000
     35 ****         4.1239  -4.5139  -0.5585 H              1 S1                 0.0000
     36 ****        -2.0983   4.0368  -1.4115 LP             1 S1                 0.0000
     37 ****         0.3370   0.9816   1.9108 LP             1 S1                 0.0000
     38 ****         1.8137   0.1918   1.4683 LP             1 S1                 0.0000
     39 ****        -2.1845   0.1247   2.5725 LP             1 S1                 0.0000
     40 ****        -2.9609   1.4182   3.4234 LP             1 S1                 0.0000
     41 ****        -3.3274   3.4460   2.3941 LP             1 S1                 0.0000
@<TRIPOS>BOND
    1    1    2 1     
    2    1   18 1     
    3    1   19 1     
    4    1   20 1     
    5    2   17 1     
    6    2    3 2     
    7    3    4 1     
    8    4    5 1     
    9    4    6 2     
   10    5   21 1     
   11    5   22 1     
   12    5   23 1     
   13    6    7 1     
   14    6   15 1     
   15    7    8 1     
   16    7   24 1     
   17    7   25 1     
   18    8    9 2     
   19    8   10 am    
   20   10   11 1     
   21   10   26 1     
   22   11   12 1     
   23   11   27 1     
   24   11   28 1     
   25   12   13 1     
   26   12   14 1     
   27   12   29 1     
   28   13   30 1     
   29   13   31 1     
   30   13   32 1     
   31   14   33 1     
   32   14   34 1     
   33   14   35 1     
   34   15   16 2     
   35   15   17 1     
   36    3   36 1     
   37    9   37 1     
   38    9   38 1     
   39   16   39 1     
   40   16   40 1     
   41   17   41 1     
@<TRIPOS>SUBSTRUCTURE
      1 S1             1
@<TRIPOS>SET
LONE_PAIRS      STATIC     ATOMS    <user>   **** ""
6 36 37 38 39 40 41
DONOR_HYDROGENS      STATIC     ATOMS    <user>   **** ""
1 26
ATOM$BLUE        STATIC     ATOMS    COLORGROUP SYSTEM
6 36 37 38 39 40 41
ATOM$RED        STATIC     ATOMS    COLORGROUP SYSTEM
1 26
