#       Name:                AV-unprocessed.smi:2655
#       Creating user name   scv26
#       Creation time:       Fri Mar 27 14:31:10 2020


#       File generated by GOLD software.
#

@<TRIPOS>MOLECULE
AV-unprocessed.smi:2655
    39    40     1
SMALL
NO_CHARGES


@<TRIPOS>ATOM
      1 ****        -1.8706   3.3990  -1.1004 C.3            1 S1                 0.0000
      2 ****        -2.1476   3.5694   0.3654 C.2            1 S1                 0.0000
      3 ****        -2.6557   4.7182   0.8002 N.2            1 S1                 0.0000
      4 ****        -2.7765   4.5459   2.1302 N.pl3          1 S1                 0.0000
      5 ****        -2.3508   3.3036   2.5235 C.2            1 S1                 0.0000
      6 ****        -2.3836   2.9294   3.8156 O.co2          1 S1                -1.0000
      7 ****        -1.9341   2.6237   1.4160 C.2            1 S1                 0.0000
      8 ****        -1.3793   1.2295   1.3160 C.3            1 S1                 0.0000
      9 ****         0.1464   1.2221   1.4979 C.3            1 S1                 0.0000
     10 ****         0.6846  -0.1318   1.4469 N.am           1 S1                 0.0000
     11 ****         0.9485  -0.8140   0.3235 C.2            1 S1                 0.0000
     12 ****         0.7733  -0.3563  -0.8058 O.2            1 S1                 0.0000
     13 ****         1.4179  -2.0418   0.6023 N.am           1 S1                 0.0000
     14 ****         1.8011  -3.0661  -0.3013 C.2            1 S1                 0.0000
     15 ****         1.7808  -2.9883  -1.7243 C.2            1 S1                 0.0000
     16 ****         2.2382  -4.2183  -2.1047 C.2            1 S1                 0.0000
     17 ****         2.4765  -4.8444  -3.4359 C.3            1 S1                 0.0000
     18 ****         2.5132  -4.9804  -1.0122 O.3            1 S1                 0.0000
     19 ****         2.2313  -4.2345   0.1382 N.2            1 S1                 0.0000
     20 ****        -0.9920   2.7749  -1.2640 H              1 S1                 0.0000
     21 ****        -1.6880   4.3573  -1.5877 H              1 S1                 0.0000
     22 ****        -2.7134   2.9243  -1.6024 H              1 S1                 0.0000
     23 ****        -3.1405   5.2669   2.7364 H              1 S1                 0.0000
     24 ****        -1.6361   0.7867   0.3532 H              1 S1                 0.0000
     25 ****        -1.8353   0.5838   2.0674 H              1 S1                 0.0000
     26 ****         0.6260   1.8476   0.7429 H              1 S1                 0.0000
     27 ****         0.4053   1.6511   2.4664 H              1 S1                 0.0000
     28 ****         0.8571  -0.5835   2.3330 H              1 S1                 0.0000
     29 ****         1.5053  -2.2752   1.5804 H              1 S1                 0.0000
     30 ****         1.4846  -2.1777  -2.3725 H              1 S1                 0.0000
     31 ****         2.4189  -4.1013  -4.2315 H              1 S1                 0.0000
     32 ****         1.7324  -5.6151  -3.6379 H              1 S1                 0.0000
     33 ****         3.4631  -5.3061  -3.4761 H              1 S1                 0.0000
     34 ****        -2.8941   5.5266   0.2620 LP             1 S1                 0.0000
     35 ****         0.4162   0.5709  -0.9197 LP             1 S1                 0.0000
     36 ****         0.9880  -0.9116  -1.6092 LP             1 S1                 0.0000
     37 ****         3.4791  -5.2392  -1.0170 LP             1 S1                 0.0000
     38 ****         1.9471  -5.8046  -1.0258 LP             1 S1                 0.0000
     39 ****         2.3338  -4.5245   1.0897 LP             1 S1                 0.0000
@<TRIPOS>BOND
    1    1   20 1     
    2    1   21 1     
    3    1   22 1     
    4    1    2 1     
    5    2    7 1     
    6    2    3 2     
    7    3    4 1     
    8    4   23 1     
    9    4    5 1     
   10    5    7 2     
   11    5    6 ar    
   12    7    8 1     
   13    8    9 1     
   14    8   24 1     
   15    8   25 1     
   16    9   10 1     
   17    9   26 1     
   18    9   27 1     
   19   10   11 am    
   20   10   28 1     
   21   11   12 2     
   22   11   13 am    
   23   13   14 1     
   24   13   29 1     
   25   14   19 2     
   26   14   15 1     
   27   15   16 2     
   28   15   30 1     
   29   16   17 1     
   30   16   18 1     
   31   17   31 1     
   32   17   32 1     
   33   17   33 1     
   34   18   19 1     
   35    3   34 1     
   36   12   35 1     
   37   12   36 1     
   38   18   37 1     
   39   18   38 1     
   40   19   39 1     
@<TRIPOS>SUBSTRUCTURE
      1 S1             1
@<TRIPOS>SET
LONE_PAIRS      STATIC     ATOMS    <user>   **** ""
7 34 6 35 36 37 38 39
DONOR_HYDROGENS      STATIC     ATOMS    <user>   **** ""
3 23 28 29
ATOM$BLUE        STATIC     ATOMS    COLORGROUP SYSTEM
7 34 6 35 36 37 38 39
ATOM$RED        STATIC     ATOMS    COLORGROUP SYSTEM
3 23 28 29
