AV-unprocessed.smi:2999|AV-procd|sdf|11423|dock2
  -GOLD-   2272016343D 1   1.00000     0.00000
 Structure written by MMmdl.
 36 38  0  0  0  0  0  0  0  0  2 V2000
  150.0331  138.6229  155.9096 O   0  0  0  0  0  0  0  0  0  0  0  0
  150.6839  139.6138  155.5695 C   0  0  0  0  0  0  0  0  0  0  0  0
  151.8315  139.9040  156.1957 N   0  0  0  0  0  0  0  0  0  0  0  0
  152.4172  139.1243  157.2793 C   0  0  0  0  0  0  0  0  0  0  0  0
  152.5900  139.9727  158.5487 C   0  0  2  0  0  0  0  0  0  0  0  0
  152.3858  141.4827  158.2971 C   0  0  0  0  0  0  0  0  0  0  0  0
  152.6372  142.2750  159.4947 N   0  0  0  0  0  0  0  0  0  0  0  0
  152.4580  143.6939  159.2269 C   0  0  0  0  0  0  0  0  0  0  0  0
  151.9246  144.5928  160.3124 C   0  0  0  0  0  0  0  0  0  0  0  0
  151.0632  144.2520  159.1102 C   0  0  0  0  0  0  0  0  0  0  0  0
  153.9869  141.9952  159.9663 C   0  0  0  0  0  0  0  0  0  0  0  0
  154.1944  140.4944  160.2288 C   0  0  0  0  0  0  0  0  0  0  0  0
  153.9121  139.7614  159.0409 O   0  0  0  0  0  0  0  0  0  0  0  0
  150.3614  140.4884  154.5895 N   0  5  0  0  0  0  0  0  0  0  0  0
  149.1003  140.5500  154.1316 C   0  0  0  0  0  0  0  0  0  0  0  0
  148.5138  141.6945  153.7615 N   0  0  0  0  0  0  0  0  0  0  0  0
  147.1989  141.5282  153.3230 C   0  0  0  0  0  0  0  0  0  0  0  0
  146.7717  140.2277  153.3673 C   0  0  0  0  0  0  0  0  0  0  0  0
  148.0142  139.1670  153.9677 S   0  0  0  0  0  0  0  0  0  0  0  0
  152.3362  140.7235  155.8912 H   0  0  0  0  0  0  0  0  0  0  0  0
  151.7715  138.2705  157.4896 H   0  0  0  0  0  0  0  0  0  0  0  0
  153.3826  138.7257  156.9632 H   0  0  0  0  0  0  0  0  0  0  0  0
  151.8790  139.6301  159.3028 H   0  0  0  0  0  0  0  0  0  0  0  0
  153.0476  141.8082  157.4925 H   0  0  0  0  0  0  0  0  0  0  0  0
  151.3673  141.6629  157.9518 H   0  0  0  0  0  0  0  0  0  0  0  0
  153.2253  144.0915  158.5643 H   0  0  0  0  0  0  0  0  0  0  0  0
  151.6592  144.1384  161.2651 H   0  0  0  0  0  0  0  0  0  0  0  0
  152.3286  145.6012  160.3717 H   0  0  0  0  0  0  0  0  0  0  0  0
  150.8961  145.0333  158.3716 H   0  0  0  0  0  0  0  0  0  0  0  0
  150.2277  143.5725  159.2688 H   0  0  0  0  0  0  0  0  0  0  0  0
  154.7165  142.3375  159.2305 H   0  0  0  0  0  0  0  0  0  0  0  0
  154.1815  142.5546  160.8818 H   0  0  0  0  0  0  0  0  0  0  0  0
  155.2233  140.3004  160.5315 H   0  0  0  0  0  0  0  0  0  0  0  0
  153.5499  140.1502  161.0392 H   0  0  0  0  0  0  0  0  0  0  0  0
  146.6397  142.3924  152.9966 H   0  0  0  0  0  0  0  0  0  0  0  0
  145.8080  139.8306  153.0868 H   0  0  0  0  0  0  0  0  0  0  0  0
  1  2  2  0  0  0  0
  2  3  1  0  0  0  0
  2 14  1  0  0  0  0
  3  4  1  0  0  0  0
  3 20  1  0  0  0  0
  4  5  1  0  0  0  0
  4 21  1  0  0  0  0
  4 22  1  0  0  0  0
  5 13  1  0  0  0  0
  5  6  1  0  0  0  0
  5 23  1  0  0  0  0
  6  7  1  0  0  0  0
  6 24  1  0  0  0  0
  6 25  1  0  0  0  0
  7  8  1  0  0  0  0
  7 11  1  0  0  0  0
  8 10  1  0  0  0  0
  8  9  1  0  0  0  0
  8 26  1  0  0  0  0
  9 10  1  0  0  0  0
  9 27  1  0  0  0  0
  9 28  1  0  0  0  0
 10 29  1  0  0  0  0
 10 30  1  0  0  0  0
 11 12  1  0  0  0  0
 11 31  1  0  0  0  0
 11 32  1  0  0  0  0
 12 13  1  0  0  0  0
 12 33  1  0  0  0  0
 12 34  1  0  0  0  0
 14 15  1  0  0  0  0
 15 19  1  0  0  0  0
 15 16  2  0  0  0  0
 16 17  1  0  0  0  0
 17 18  2  0  0  0  0
 17 35  1  0  0  0  0
 18 19  1  0  0  0  0
 18 36  1  0  0  0  0
M  CHG  1  14  -1
M  END
> <s_m_source_file>
AV-unprocessed.smi

> <i_m_source_file_index>
2999

> <i_lp_mmshare_version>
43012

> <i_f3d_flags>
0

> <s_epik_input>
czFbY0hdW2NIXW5jMVtOSF1DKD1PKVtOSF1bQ0gyXVtDQEBIXTJbQ0gyXU4oW0NIMl1bQ0gyXU8yKVtDSF0zW0NIMl1bQ0gyXTM=

> <s_epik_cmdline>
J2VwaWtfcHl0aG9uJywgJy1waCcsICc3LjAnLCAnLXRuJywgJzgnLCAnLW1hJywgJzIwMCcsICctbWV0YWxfYmluZGluZycsICctaW1hZScsICc8aW5maWxlLm1hZT4nLCAnLW9tYWUnLCAnPG91dGZpbGUubWFlPic=

> <r_lp_tautomer_probability>
0.999

> <r_epik_Ionization_Penalty>
6.67591

> <r_epik_Ionization_Penalty_Charging>
5.6519

> <r_epik_Ionization_Penalty_Neutral>
1.024

> <r_epik_State_Penalty>
5.68985

> <r_epik_Charging_Adjusted_Penalty>
11.3418

> <i_epik_Tot_Q>
-1

> <i_epik_Tot_abs_Q>
1

> <r_epik_Metal_State_Penalty>
1.67789

> <b_epik_Metal_Only>
1

> <s_lp_Force_Field>
OPLS_2005

> <r_lp_Energy>
28.4873

> <b_lp_Chiralities_Consistent>
1

> <s_lp_Variant>
AV-unprocessed.smi:2999-7

> <Gold.Version>
5.8.1

> <Gold.Id.Protein>
6NUR|6NUR_protein|mol2

> <Gold.PLP.Fitness>
41.4684

> <Gold.PLP.PLP>
-35.2447

> <Gold.PLP.part.hbond>
-3.0000

> <Gold.PLP.part.metal>
0.0000

> <Gold.PLP.part.buried>
-4.2678

> <Gold.PLP.part.nonpolar>
-27.1642

> <Gold.PLP.part.repulsive>
0.4380

> <Gold.PLP.ligand.clash>
2.2936

> <Gold.PLP.ligand.torsion>
1.5712

> <Gold.PLP.Chemscore.Hbond>
2.4802

> <Gold.PLP.Chemscore.CHOScore>
1.0000

> <Gold.PLP.Chemscore.Metal>
0.0000

> <Gold.Chemscore.Hbonds>
donor molecule, donor type, donor heavy atom, donor atom, acceptor molecule, acceptor atom, score
      P1  H  7989  7998       L1    14  0.98
      P1  H  7997  8008       L1    13  0.88
      P1  H  8011  8017       L1    16  0.58
      L1  C    18    36       P1 10175  1.00

> <Gold.PLP.Chemscore.Internal.Correction>
1.2191

> <Gold.Rescore>
     Score         DG    S(hbond)    S(metal)    S(lipo)     H(rot)  DE(clash)    DE(int)     intcor
     15.61     -19.01       1.93        0.00      93.67       1.52       0.42       2.98       ----

> <Gold.Chemscore.Fitness>
15.6144

> <Gold.Chemscore.DG>
-19.0084

> <Gold.Chemscore.ZeroCoef>
-5.4800

> <Gold.Chemscore.Hbond>
1.9318

> <Gold.Chemscore.Metal>
0.0000

> <Gold.Chemscore.Lipo>
93.6653

> <Gold.Chemscore.Internal_Hbond>
0.0000

> <Gold.Chemscore.DEClash>
0.4158

> <Gold.Chemscore.DEInternal>
2.9782

> <Gold.Chemscore.Rot>
1.5167

> <Gold.Chemscore.Internal.Correction>
   9.000000E+99

> <Gold.Chemscore.Hbonds>
donor molecule, donor type, donor heavy atom, donor atom, acceptor molecule, acceptor atom, score
      P1  H  7989  7998       L1    14  0.82
      P1  H  7997  8008       L1    13  0.28
      P1  H  8011  8017       L1    16  0.19

> <Gold.Chemscore.Hbond.Weighted>
-6.4523

> <Gold.Chemscore.Metal.Weighted>
-0.0000

> <Gold.Chemscore.Lipo.Weighted>
-10.9588

> <Gold.Chemscore.Internal_Hbond.Weighted>
0.0000

> <Gold.Chemscore.DEClash.Weighted>
0.4158

> <Gold.Chemscore.DEInternal.Weighted>
2.9782

> <Gold.Chemscore.Rot.Weighted>
3.8827

> <Gold.Chemscore.Internal.Correction.Weighted>
   9.000000E+99

> <Gold.Protein.RotatedTorsions>
[ 6907 6896 6895 6894 ] final   23.81 input  -60.11 | X-H torsion
[ 7974 7965 7964 7962 ] final  160.44 input  175.53 | X-H torsion
[ 8008 7997 7996 7995 ] final -118.33 input   59.86 | X-H torsion
[ 10167 10162 10161 10158 ] final -105.89 input  -65.29 | X-H torsion
[ 10718 10713 10712 10709 ] final    6.15 input   66.30 | X-H torsion
[ 10763 10752 10751 10750 ] final  -14.51 input  -60.55 | X-H torsion
[ 11005 11000 10999 10996 ] final  149.32 input  -57.11 | X-H torsion

> <Gold.Protein.ActiveResidues>
 VAL166  LYS551  ARG553  GLY616  TRP617  ASP618  TYR619  PRO620  LYS621  CYS622 
 ASP623  PHE694  ASN695  SER759  ASP760  ASP761  ALA762  ILE779  LEU786  VAL792 
 PHE793  MET794  SER795  GLU796  ALA797  LYS798  CYS799  TRP800  GLU811  SER814 

> <Gold.Protein.RotatedAtoms>
  151.9480  135.0182  160.0539 H   0  0  0  0  0  0  0  0  0  0  0  0  # atno 6907 bound_to 6896
  152.1978  133.4814  159.5050 H   0  0  0  0  0  0  0  0  0  0  0  0  # atno 6908 bound_to 6896
  150.6948  134.1547  159.4196 H   0  0  0  0  0  0  0  0  0  0  0  0  # atno 6909 bound_to 6896
  144.7737  139.7758  143.6287 H   0  0  0  0  0  0  0  0  0  0  0  0  # atno 7974 bound_to 7965
  155.0979  140.0395  157.2688 H   0  0  0  0  0  0  0  0  0  0  0  0  # atno 8008 bound_to 7997
  154.6781  140.2627  155.6912 H   0  0  0  0  0  0  0  0  0  0  0  0  # atno 8009 bound_to 7997
  156.2684  140.2784  156.1315 H   0  0  0  0  0  0  0  0  0  0  0  0  # atno 8010 bound_to 7997
  140.1936  143.3872  152.1186 H   0  0  0  0  0  0  0  0  0  0  0  0  # atno 10167 bound_to 10162
  156.9179  130.5780  149.5647 H   0  0  0  0  0  0  0  0  0  0  0  0  # atno 10718 bound_to 10713
  153.5293  135.7015  153.5691 H   0  0  0  0  0  0  0  0  0  0  0  0  # atno 10763 bound_to 10752
  153.3706  135.3946  155.1785 H   0  0  0  0  0  0  0  0  0  0  0  0  # atno 10764 bound_to 10752
  154.8686  135.3811  154.4789 H   0  0  0  0  0  0  0  0  0  0  0  0  # atno 10765 bound_to 10752
  140.1034  134.8969  157.1830 H   0  0  0  0  0  0  0  0  0  0  0  0  # atno 11005 bound_to 11000
  146.1901  139.5137  142.9810 LP  0  0  0  0  0  0  0  0  0  0  0  0  # atno 17320 bound_to 7965
  145.6249  141.0315  143.1894 LP  0  0  0  0  0  0  0  0  0  0  0  0  # atno 17321 bound_to 7965
  139.5245  144.7085  151.5280 LP  0  0  0  0  0  0  0  0  0  0  0  0  # atno 17342 bound_to 10162
  140.6438  143.8835  150.6718 LP  0  0  0  0  0  0  0  0  0  0  0  0  # atno 17343 bound_to 10162
  156.0505  130.5575  150.8978 LP  0  0  0  0  0  0  0  0  0  0  0  0  # atno 17370 bound_to 10713
  157.5926  131.0944  150.9093 LP  0  0  0  0  0  0  0  0  0  0  0  0  # atno 17371 bound_to 10713
  140.3188  134.2940  155.7250 LP  0  0  0  0  0  0  0  0  0  0  0  0  # atno 17394 bound_to 11000
  141.2112  133.7697  156.9881 LP  0  0  0  0  0  0  0  0  0  0  0  0  # atno 17395 bound_to 11000

$$$$
