AV-unprocessed.smi:1019|AV-procd|sdf|4446|dock3
  -GOLD-   22720 2413D 1   1.00000     0.00000
 Structure written by MMmdl.
 44 46  0  0  0  0  0  0  0  0  2 V2000
  148.6249  138.3652  154.8848 C   0  0  0  0  0  0  0  0  0  0  0  0
  149.7900  137.5927  154.3972 N   0  3  2  0  0  0  0  0  0  0  0  0
  150.0804  136.4170  155.2541 C   0  0  0  0  0  0  0  0  0  0  0  0
  149.3434  135.1787  154.7724 C   0  0  0  0  0  0  0  0  0  0  0  0
  147.9444  135.2179  154.5921 C   0  0  0  0  0  0  0  0  0  0  0  0
  147.2578  134.0784  154.1298 C   0  0  0  0  0  0  0  0  0  0  0  0
  147.9664  132.8938  153.8508 C   0  0  0  0  0  0  0  0  0  0  0  0
  149.3616  132.8482  154.0358 C   0  0  0  0  0  0  0  0  0  0  0  0
  150.0491  133.9879  154.4964 C   0  0  0  0  0  0  0  0  0  0  0  0
  150.9751  138.4512  154.1346 C   0  0  0  0  0  0  0  0  0  0  0  0
  151.6062  138.9606  155.4434 C   0  0  1  0  0  0  0  0  0  0  0  0
  152.9416  139.3388  155.1745 O   0  0  0  0  0  0  0  0  0  0  0  0
  150.8399  140.1600  156.0394 C   0  0  0  0  0  0  0  0  0  0  0  0
  151.3619  140.5678  157.3308 N   0  0  0  0  0  0  0  0  0  0  0  0
  151.8484  139.7639  158.2957 C   0  0  0  0  0  0  0  0  0  0  0  0
  152.2792  140.3427  159.4124 N   0  0  0  0  0  0  0  0  0  0  0  0
  152.0444  141.6800  159.1423 C   0  0  0  0  0  0  0  0  0  0  0  0
  152.2822  142.8294  159.9292 C   0  0  0  0  0  0  0  0  0  0  0  0
  151.9563  144.1109  159.4386 C   0  0  0  0  0  0  0  0  0  0  0  0
  151.3890  144.2627  158.1566 C   0  0  0  0  0  0  0  0  0  0  0  0
  151.1429  143.1323  157.3537 C   0  0  0  0  0  0  0  0  0  0  0  0
  151.4692  141.8552  157.8471 C   0  0  0  0  0  0  0  0  0  0  0  0
  148.8155  138.7746  155.8776 H   0  0  0  0  0  0  0  0  0  0  0  0
  147.7394  137.7313  154.9416 H   0  0  0  0  0  0  0  0  0  0  0  0
  148.3938  139.1921  154.2129 H   0  0  0  0  0  0  0  0  0  0  0  0
  151.1563  136.2387  155.2953 H   0  0  0  0  0  0  0  0  0  0  0  0
  149.7568  136.6143  156.2770 H   0  0  0  0  0  0  0  0  0  0  0  0
  147.3941  136.1234  154.8020 H   0  0  0  0  0  0  0  0  0  0  0  0
  146.1872  134.1123  153.9890 H   0  0  0  0  0  0  0  0  0  0  0  0
  147.4399  132.0196  153.4961 H   0  0  0  0  0  0  0  0  0  0  0  0
  149.9043  131.9386  153.8236 H   0  0  0  0  0  0  0  0  0  0  0  0
  151.1199  133.9448  154.6330 H   0  0  0  0  0  0  0  0  0  0  0  0
  151.7036  137.8896  153.5470 H   0  0  0  0  0  0  0  0  0  0  0  0
  150.7081  139.3124  153.5222 H   0  0  0  0  0  0  0  0  0  0  0  0
  151.6442  138.1514  156.1735 H   0  0  0  0  0  0  0  0  0  0  0  0
  153.1714  139.0512  154.3038 H   0  0  0  0  0  0  0  0  0  0  0  0
  150.8727  141.0136  155.3610 H   0  0  0  0  0  0  0  0  0  0  0  0
  149.7860  139.9111  156.1689 H   0  0  0  0  0  0  0  0  0  0  0  0
  151.8905  138.6919  158.1705 H   0  0  0  0  0  0  0  0  0  0  0  0
  152.7165  142.7248  160.9125 H   0  0  0  0  0  0  0  0  0  0  0  0
  152.1429  144.9819  160.0495 H   0  0  0  0  0  0  0  0  0  0  0  0
  151.1431  145.2487  157.7901 H   0  0  0  0  0  0  0  0  0  0  0  0
  150.7096  143.2474  156.3714 H   0  0  0  0  0  0  0  0  0  0  0  0
  149.5185  137.2078  153.5038 H   0  0  0  0  0  0  0  0  0  0  0  0
  1  2  1  0  0  0  0
  1 23  1  0  0  0  0
  1 24  1  0  0  0  0
  1 25  1  0  0  0  0
  2  3  1  0  0  0  0
  2 10  1  0  0  0  0
  2 44  1  0  0  0  0
  3  4  1  0  0  0  0
  3 26  1  0  0  0  0
  3 27  1  0  0  0  0
  4  9  1  0  0  0  0
  4  5  2  0  0  0  0
  5  6  1  0  0  0  0
  5 28  1  0  0  0  0
  6  7  2  0  0  0  0
  6 29  1  0  0  0  0
  7  8  1  0  0  0  0
  7 30  1  0  0  0  0
  8  9  2  0  0  0  0
  8 31  1  0  0  0  0
  9 32  1  0  0  0  0
 10 11  1  0  0  0  0
 10 33  1  0  0  0  0
 10 34  1  0  0  0  0
 11 12  1  0  0  0  0
 11 13  1  0  0  0  0
 11 35  1  0  0  0  0
 12 36  1  0  0  0  0
 13 14  1  0  0  0  0
 13 37  1  0  0  0  0
 13 38  1  0  0  0  0
 14 22  1  0  0  0  0
 14 15  1  0  0  0  0
 15 16  2  0  0  0  0
 15 39  1  0  0  0  0
 16 17  1  0  0  0  0
 17 22  2  0  0  0  0
 17 18  1  0  0  0  0
 18 19  2  0  0  0  0
 18 40  1  0  0  0  0
 19 20  1  0  0  0  0
 19 41  1  0  0  0  0
 20 21  2  0  0  0  0
 20 42  1  0  0  0  0
 21 22  1  0  0  0  0
 21 43  1  0  0  0  0
M  CHG  1   2   1
M  END
> <s_m_source_file>
AV-unprocessed.smi

> <i_m_source_file_index>
1019

> <i_lp_mmshare_version>
43012

> <i_f3d_flags>
0

> <s_epik_input>
W2NIXTFbY0hdW2NIXVtjSF1bY0hdYzFbQ0gyXU4oW0NIM10pW0NIMl1bQ0BIXShbT0hdKVtDSDJdbihbY0hdbjIpYyhjMjMpW2NIXVtjSF1bY0hdW2NIXTM=

> <s_epik_cmdline>
J2VwaWtfcHl0aG9uJywgJy1waCcsICc3LjAnLCAnLXRuJywgJzgnLCAnLW1hJywgJzIwMCcsICctbWV0YWxfYmluZGluZycsICctaW1hZScsICc8aW5maWxlLm1hZT4nLCAnLW9tYWUnLCAnPG91dGZpbGUubWFlPic=

> <r_epik_Ionization_Penalty>
0.0996557

> <r_epik_Ionization_Penalty_Charging>
0.0475377

> <r_epik_Ionization_Penalty_Neutral>
0.0521179

> <r_epik_State_Penalty>
0.0851777

> <r_epik_Charging_Adjusted_Penalty>
0.132715

> <i_epik_Tot_Q>
1

> <i_epik_Tot_abs_Q>
1

> <r_epik_Metal_State_Penalty>
0.0423478

> <b_epik_Metal_Only>
0

> <s_lp_Force_Field>
OPLS_2005

> <r_lp_Energy>
16.6774

> <b_lp_Chiralities_Consistent>
1

> <s_lp_Variant>
AV-unprocessed.smi:1019-4

> <Gold.Version>
5.8.1

> <Gold.Id.Protein>
6NUR|6NUR_protein|mol2

> <Gold.PLP.Fitness>
52.5783

> <Gold.PLP.PLP>
-45.1309

> <Gold.PLP.part.hbond>
-2.0000

> <Gold.PLP.part.metal>
0.0000

> <Gold.PLP.part.buried>
-5.4846

> <Gold.PLP.part.nonpolar>
-37.0236

> <Gold.PLP.part.repulsive>
0.0323

> <Gold.PLP.ligand.clash>
0.0000

> <Gold.PLP.ligand.torsion>
1.0797

> <Gold.PLP.Chemscore.Hbond>
3.0000

> <Gold.PLP.Chemscore.CHOScore>
0.0000

> <Gold.PLP.Chemscore.Metal>
0.0000

> <Gold.Chemscore.Hbonds>
donor molecule, donor type, donor heavy atom, donor atom, acceptor molecule, acceptor atom, score
      L1  H     2    44       P1  7948  2.00
      P1  H  7997  8010       L1    12  1.00

> <Gold.PLP.Chemscore.Internal.Correction>
0.6069

> <Gold.Rescore>
     Score         DG    S(hbond)    S(metal)    S(lipo)     H(rot)  DE(clash)    DE(int)     intcor
     17.68     -20.08       1.88        0.00     122.74       2.36       0.38       2.01       ----

> <Gold.Chemscore.Fitness>
17.6826

> <Gold.Chemscore.DG>
-20.0788

> <Gold.Chemscore.ZeroCoef>
-5.4800

> <Gold.Chemscore.Hbond>
1.8813

> <Gold.Chemscore.Metal>
0.0000

> <Gold.Chemscore.Lipo>
122.7441

> <Gold.Chemscore.Internal_Hbond>
0.0000

> <Gold.Chemscore.DEClash>
0.3818

> <Gold.Chemscore.DEInternal>
2.0144

> <Gold.Chemscore.Rot>
2.3616

> <Gold.Chemscore.Internal.Correction>
   9.000000E+99

> <Gold.Chemscore.Hbonds>
donor molecule, donor type, donor heavy atom, donor atom, acceptor molecule, acceptor atom, score
      L1  H     2    44       P1  7948  0.87
      P1  H  7997  8010       L1    12  0.74

> <Gold.Chemscore.Hbond.Weighted>
-6.2835

> <Gold.Chemscore.Metal.Weighted>
-0.0000

> <Gold.Chemscore.Lipo.Weighted>
-14.3611

> <Gold.Chemscore.Internal_Hbond.Weighted>
0.0000

> <Gold.Chemscore.DEClash.Weighted>
0.3818

> <Gold.Chemscore.DEInternal.Weighted>
2.0144

> <Gold.Chemscore.Rot.Weighted>
6.0457

> <Gold.Chemscore.Internal.Correction.Weighted>
   9.000000E+99

> <Gold.Protein.RotatedTorsions>
[ 6907 6896 6895 6894 ] final  -75.84 input  -60.11 | X-H torsion
[ 7974 7965 7964 7962 ] final  -90.25 input  175.53 | X-H torsion
[ 8008 7997 7996 7995 ] final   97.73 input   59.86 | X-H torsion
[ 10167 10162 10161 10158 ] final -159.66 input  -65.29 | X-H torsion
[ 10718 10713 10712 10709 ] final  162.43 input   66.30 | X-H torsion
[ 10763 10752 10751 10750 ] final -164.81 input  -60.55 | X-H torsion
[ 11005 11000 10999 10996 ] final   -6.08 input  -57.11 | X-H torsion

> <Gold.Protein.ActiveResidues>
 VAL166  LYS551  ARG553  GLY616  TRP617  ASP618  TYR619  PRO620  LYS621  CYS622 
 ASP623  PHE694  ASN695  SER759  ASP760  ASP761  ALA762  ILE779  LEU786  VAL792 
 PHE793  MET794  SER795  GLU796  ALA797  LYS798  CYS799  TRP800  GLU811  SER814 

> <Gold.Protein.RotatedAtoms>
  150.7046  134.4662  159.5403 H   0  0  0  0  0  0  0  0  0  0  0  0  # atno 6907 bound_to 6896
  152.2327  134.8303  160.0480 H   0  0  0  0  0  0  0  0  0  0  0  0  # atno 6908 bound_to 6896
  151.9114  133.3527  159.3901 H   0  0  0  0  0  0  0  0  0  0  0  0  # atno 6909 bound_to 6896
  145.4289  140.9555  143.2139 H   0  0  0  0  0  0  0  0  0  0  0  0  # atno 7974 bound_to 7965
  156.0931  140.3254  155.7842 H   0  0  0  0  0  0  0  0  0  0  0  0  # atno 8008 bound_to 7997
  155.4962  140.0565  157.2963 H   0  0  0  0  0  0  0  0  0  0  0  0  # atno 8009 bound_to 7997
  154.4650  140.1985  156.0158 H   0  0  0  0  0  0  0  0  0  0  0  0  # atno 8010 bound_to 7997
  139.6598  143.9933  152.2218 H   0  0  0  0  0  0  0  0  0  0  0  0  # atno 10167 bound_to 10162
  157.1226  131.0496  151.2408 H   0  0  0  0  0  0  0  0  0  0  0  0  # atno 10718 bound_to 10713
  154.6992  135.2985  154.9366 H   0  0  0  0  0  0  0  0  0  0  0  0  # atno 10763 bound_to 10752
  154.0304  135.6671  153.4784 H   0  0  0  0  0  0  0  0  0  0  0  0  # atno 10764 bound_to 10752
  153.0668  135.5083  154.8127 H   0  0  0  0  0  0  0  0  0  0  0  0  # atno 10765 bound_to 10752
  140.6981  133.9013  155.8664 H   0  0  0  0  0  0  0  0  0  0  0  0  # atno 11005 bound_to 11000
  144.8195  139.5816  143.6993 LP  0  0  0  0  0  0  0  0  0  0  0  0  # atno 17320 bound_to 7965
  146.2617  139.6426  142.9357 LP  0  0  0  0  0  0  0  0  0  0  0  0  # atno 17321 bound_to 7965
  139.9669  144.6520  150.8026 LP  0  0  0  0  0  0  0  0  0  0  0  0  # atno 17342 bound_to 10162
  140.7575  143.3088  151.2897 LP  0  0  0  0  0  0  0  0  0  0  0  0  # atno 17343 bound_to 10162
  157.4463  130.7572  149.7112 LP  0  0  0  0  0  0  0  0  0  0  0  0  # atno 17370 bound_to 10713
  155.9825  130.4009  150.3413 LP  0  0  0  0  0  0  0  0  0  0  0  0  # atno 17371 bound_to 10713
  141.0186  134.0920  157.4145 LP  0  0  0  0  0  0  0  0  0  0  0  0  # atno 17394 bound_to 11000
  139.8904  135.0112  156.6736 LP  0  0  0  0  0  0  0  0  0  0  0  0  # atno 17395 bound_to 11000

$$$$
