AV-unprocessed.smi:240|AV-procd|sdf|1830|dock1
  -GOLD-   2262020433D 1   1.00000     0.00000
 Structure written by MMmdl.
 55 59  0  0  0  0  0  0  0  0  1 V2000
  151.3812  143.7757  156.5882 O   0  0  0  0  0  0  0  0  0  0  0  0
  150.6378  143.3831  157.7277 C   0  0  2  0  0  0  0  0  0  0  0  0
  150.5372  144.5802  158.6787 C   0  0  0  0  0  0  0  0  0  0  0  0
  151.7618  144.4958  159.5971 C   0  0  0  0  0  0  0  0  0  0  0  0
  152.4260  143.1456  159.3016 C   0  0  0  0  0  0  0  0  0  0  0  0
  151.3834  142.3028  158.5428 C   0  0  2  0  0  0  0  0  0  0  0  0
  151.9614  141.0710  157.7657 C   0  0  1  0  0  0  0  0  0  0  0  0
  152.9063  140.2472  158.6811 C   0  0  0  0  0  0  0  0  0  0  0  0
  153.4095  139.0993  158.0093 O   0  0  0  0  0  0  0  0  0  0  0  0
  152.3680  138.2117  157.6351 C   0  0  0  0  0  0  0  0  0  0  0  0
  151.4478  138.9370  156.6489 C   0  0  0  0  0  0  0  0  0  0  0  0
  150.9240  140.1624  157.2460 N   0  0  0  0  0  0  0  0  0  0  0  0
  149.9751  140.6962  156.4473 C   0  0  0  0  0  0  0  0  0  0  0  0
  150.2456  140.7529  155.1202 N   0  0  0  0  0  0  0  0  0  0  0  0
  149.3419  141.2610  154.2770 C   0  0  0  0  0  0  0  0  0  0  0  0
  148.1330  141.7582  154.5481 N   0  0  0  0  0  0  0  0  0  0  0  0
  147.8661  141.7168  155.8853 C   0  0  0  0  0  0  0  0  0  0  0  0
  148.7268  141.2106  156.8990 C   0  0  0  0  0  0  0  0  0  0  0  0
  148.1189  141.3308  158.1426 N   0  0  0  0  0  0  0  0  0  0  0  0
  146.9616  141.8730  157.8782 C   0  0  0  0  0  0  0  0  0  0  0  0
  146.7273  142.1405  156.5479 N   0  0  0  0  0  0  0  0  0  0  0  0
  145.5251  142.7314  155.9800 C   0  0  0  0  0  0  0  0  0  0  0  0
  144.2959  141.7946  156.0247 C   0  0  1  0  0  0  0  0  0  0  0  0
  144.5535  140.6558  155.2208 O   0  0  0  0  0  0  0  0  0  0  0  0
  143.9181  141.3254  157.4267 C   0  0  0  0  0  0  0  0  0  0  0  0
  142.4060  141.1734  157.3383 C   0  0  0  0  0  0  0  0  0  0  0  0
  142.0293  142.2863  156.5461 O   0  0  0  0  0  0  0  0  0  0  0  0
  143.0010  142.4625  155.5200 C   0  0  0  0  0  0  0  0  0  0  0  0
  150.7826  144.1167  155.9407 H   0  0  0  0  0  0  0  0  0  0  0  0
  149.6436  143.0721  157.4124 H   0  0  0  0  0  0  0  0  0  0  0  0
  150.4706  145.5347  158.1544 H   0  0  0  0  0  0  0  0  0  0  0  0
  149.6332  144.4844  159.2816 H   0  0  0  0  0  0  0  0  0  0  0  0
  152.4569  145.3150  159.4100 H   0  0  0  0  0  0  0  0  0  0  0  0
  151.4556  144.5592  160.6419 H   0  0  0  0  0  0  0  0  0  0  0  0
  153.3000  143.3102  158.6698 H   0  0  0  0  0  0  0  0  0  0  0  0
  152.7690  142.6604  160.2161 H   0  0  0  0  0  0  0  0  0  0  0  0
  150.6890  141.9215  159.2939 H   0  0  0  0  0  0  0  0  0  0  0  0
  152.5581  141.4253  156.9249 H   0  0  0  0  0  0  0  0  0  0  0  0
  153.7707  140.8379  158.9826 H   0  0  0  0  0  0  0  0  0  0  0  0
  152.3950  139.9438  159.5965 H   0  0  0  0  0  0  0  0  0  0  0  0
  152.8024  137.3285  157.1669 H   0  0  0  0  0  0  0  0  0  0  0  0
  151.8174  137.8730  158.5143 H   0  0  0  0  0  0  0  0  0  0  0  0
  152.0036  139.1730  155.7407 H   0  0  0  0  0  0  0  0  0  0  0  0
  150.6265  138.2784  156.3620 H   0  0  0  0  0  0  0  0  0  0  0  0
  149.6274  141.2684  153.2354 H   0  0  0  0  0  0  0  0  0  0  0  0
  146.2414  142.0963  158.6521 H   0  0  0  0  0  0  0  0  0  0  0  0
  145.3121  143.6565  156.5174 H   0  0  0  0  0  0  0  0  0  0  0  0
  145.7406  143.0203  154.9503 H   0  0  0  0  0  0  0  0  0  0  0  0
  144.2742  140.8436  154.3375 H   0  0  0  0  0  0  0  0  0  0  0  0
  144.4274  140.4131  157.7406 H   0  0  0  0  0  0  0  0  0  0  0  0
  144.1454  142.1014  158.1583 H   0  0  0  0  0  0  0  0  0  0  0  0
  142.1316  140.2474  156.8307 H   0  0  0  0  0  0  0  0  0  0  0  0
  141.9211  141.1920  158.3146 H   0  0  0  0  0  0  0  0  0  0  0  0
  143.1299  143.5294  155.3345 H   0  0  0  0  0  0  0  0  0  0  0  0
  142.6401  142.0128  154.5935 H   0  0  0  0  0  0  0  0  0  0  0  0
  1  2  1  0  0  0  0
  1 29  1  0  0  0  0
  2  6  1  0  0  0  0
  2  3  1  0  0  0  0
  2 30  1  0  0  0  0
  3  4  1  0  0  0  0
  3 31  1  0  0  0  0
  3 32  1  0  0  0  0
  4  5  1  0  0  0  0
  4 33  1  0  0  0  0
  4 34  1  0  0  0  0
  5  6  1  0  0  0  0
  5 35  1  0  0  0  0
  5 36  1  0  0  0  0
  6  7  1  0  0  0  0
  6 37  1  0  0  0  0
  7 12  1  0  0  0  0
  7  8  1  0  0  0  0
  7 38  1  0  0  0  0
  8  9  1  0  0  0  0
  8 39  1  0  0  0  0
  8 40  1  0  0  0  0
  9 10  1  0  0  0  0
 10 11  1  0  0  0  0
 10 41  1  0  0  0  0
 10 42  1  0  0  0  0
 11 12  1  0  0  0  0
 11 43  1  0  0  0  0
 11 44  1  0  0  0  0
 12 13  1  0  0  0  0
 13 18  1  0  0  0  0
 13 14  2  0  0  0  0
 14 15  1  0  0  0  0
 15 16  2  0  0  0  0
 15 45  1  0  0  0  0
 16 17  1  0  0  0  0
 17 21  1  0  0  0  0
 17 18  2  0  0  0  0
 18 19  1  0  0  0  0
 19 20  2  0  0  0  0
 20 21  1  0  0  0  0
 20 46  1  0  0  0  0
 21 22  1  0  0  0  0
 22 23  1  0  0  0  0
 22 47  1  0  0  0  0
 22 48  1  0  0  0  0
 23 28  1  0  0  0  0
 23 24  1  0  0  0  0
 23 25  1  0  0  0  0
 24 49  1  0  0  0  0
 25 26  1  0  0  0  0
 25 50  1  0  0  0  0
 25 51  1  0  0  0  0
 26 27  1  0  0  0  0
 26 52  1  0  0  0  0
 26 53  1  0  0  0  0
 27 28  1  0  0  0  0
 28 54  1  0  0  0  0
 28 55  1  0  0  0  0
M  END
> <s_m_source_file>
AV-unprocessed.smi

> <i_m_source_file_index>
240

> <i_lp_mmshare_version>
43012

> <i_f3d_flags>
0

> <s_epik_input>
W09IXVtDQEBIXTFbQ0gyXVtDSDJdW0NIMl1bQ0BIXTFbQ0BASF0yW0NIMl1PW0NIMl1bQ0gyXU4yYyhuW2NIXW4zKWMoYzM0KW5bY0hdbjRbQ0gyXVtDQEBdNShbT0hdKVtDSDJdW0NIMl1PW0NIMl01

> <s_epik_cmdline>
J2VwaWtfcHl0aG9uJywgJy1waCcsICc3LjAnLCAnLXRuJywgJzgnLCAnLW1hJywgJzIwMCcsICctbWV0YWxfYmluZGluZycsICctaW1hZScsICc8aW5maWxlLm1hZT4nLCAnLW9tYWUnLCAnPG91dGZpbGUubWFlPic=

> <r_lp_tautomer_probability>
1

> <r_epik_Ionization_Penalty>
0.000130618

> <r_epik_Ionization_Penalty_Charging>
0

> <r_epik_Ionization_Penalty_Neutral>
0.000130618

> <r_epik_State_Penalty>
-0

> <r_epik_Charging_Adjusted_Penalty>
0

> <i_epik_Tot_Q>
0

> <i_epik_Tot_abs_Q>
0

> <r_epik_Metal_State_Penalty>
-0

> <b_epik_Metal_Only>
0

> <s_lp_Force_Field>
OPLS_2005

> <r_lp_Energy>
63.9037

> <b_lp_Chiralities_Consistent>
1

> <s_lp_Variant>
AV-unprocessed.smi:240-7

> <Gold.Version>
5.8.1

> <Gold.Id.Protein>
6NUR|6NUR_protein|mol2

> <Gold.PLP.Fitness>
45.1658

> <Gold.PLP.PLP>
-33.4756

> <Gold.PLP.part.hbond>
-4.8315

> <Gold.PLP.part.metal>
0.0000

> <Gold.PLP.part.buried>
-2.8633

> <Gold.PLP.part.nonpolar>
-25.5199

> <Gold.PLP.part.repulsive>
0.2967

> <Gold.PLP.ligand.clash>
0.0000

> <Gold.PLP.ligand.torsion>
0.7924

> <Gold.PLP.Chemscore.Hbond>
3.2873

> <Gold.PLP.Chemscore.CHOScore>
0.9885

> <Gold.PLP.Chemscore.Metal>
0.0000

> <Gold.Chemscore.Hbonds>
donor molecule, donor type, donor heavy atom, donor atom, acceptor molecule, acceptor atom, score
      L1  H     1    29       P1  8028  0.88
      L1  H    24    49       P1 10175  1.00
      P1  H  7989  7998       L1    14  0.19
      P1  H  7997  8010       L1     9  0.80
      L1  C    15    45       P1  7957  1.00

> <Gold.PLP.Chemscore.Internal.Correction>
0.4476

> <Gold.Rescore>
     Score         DG    S(hbond)    S(metal)    S(lipo)     H(rot)  DE(clash)    DE(int)     intcor
     13.57     -15.04       2.34        0.00      80.73       3.00       0.66       0.80       ----

> <Gold.Chemscore.Fitness>
13.5686

> <Gold.Chemscore.DG>
-15.0358

> <Gold.Chemscore.ZeroCoef>
-5.4800

> <Gold.Chemscore.Hbond>
2.3353

> <Gold.Chemscore.Metal>
0.0000

> <Gold.Chemscore.Lipo>
80.7334

> <Gold.Chemscore.Internal_Hbond>
0.0000

> <Gold.Chemscore.DEClash>
0.6623

> <Gold.Chemscore.DEInternal>
0.8048

> <Gold.Chemscore.Rot>
3.0039

> <Gold.Chemscore.Internal.Correction>
   9.000000E+99

> <Gold.Chemscore.Hbonds>
donor molecule, donor type, donor heavy atom, donor atom, acceptor molecule, acceptor atom, score
      L1  H     1    29       P1  8028  0.84
      L1  H    24    49       P1 10175  0.95
      P1  H  7997  8010       L1     9  0.11

> <Gold.Chemscore.Hbond.Weighted>
-7.7999

> <Gold.Chemscore.Metal.Weighted>
-0.0000

> <Gold.Chemscore.Lipo.Weighted>
-9.4458

> <Gold.Chemscore.Internal_Hbond.Weighted>
0.0000

> <Gold.Chemscore.DEClash.Weighted>
0.6623

> <Gold.Chemscore.DEInternal.Weighted>
0.8048

> <Gold.Chemscore.Rot.Weighted>
7.6899

> <Gold.Chemscore.Internal.Correction.Weighted>
   9.000000E+99

> <Gold.Protein.RotatedTorsions>
[ 6907 6896 6895 6894 ] final -175.68 input  -60.11 | X-H torsion
[ 7974 7965 7964 7962 ] final   10.27 input  175.53 | X-H torsion
[ 8008 7997 7996 7995 ] final   54.89 input   59.86 | X-H torsion
[ 10167 10162 10161 10158 ] final   -5.98 input  -65.29 | X-H torsion
[ 10718 10713 10712 10709 ] final   -7.21 input   66.30 | X-H torsion
[ 10763 10752 10751 10750 ] final  -92.71 input  -60.55 | X-H torsion
[ 11005 11000 10999 10996 ] final  -16.03 input  -57.11 | X-H torsion

> <Gold.Protein.ActiveResidues>
 VAL166  LYS551  ARG553  GLY616  TRP617  ASP618  TYR619  PRO620  LYS621  CYS622 
 ASP623  PHE694  ASN695  SER759  ASP760  ASP761  ALA762  ILE779  LEU786  VAL792 
 PHE793  MET794  SER795  GLU796  ALA797  LYS798  CYS799  TRP800  GLU811  SER814 

> <Gold.Protein.RotatedAtoms>
  151.5925  133.3365  159.3030 H   0  0  0  0  0  0  0  0  0  0  0  0  # atno 6907 bound_to 6896
  150.8252  134.7483  159.6818 H   0  0  0  0  0  0  0  0  0  0  0  0  # atno 6908 bound_to 6896
  152.4342  134.5724  159.9976 H   0  0  0  0  0  0  0  0  0  0  0  0  # atno 6909 bound_to 6896
  146.2391  139.9659  142.8453 H   0  0  0  0  0  0  0  0  0  0  0  0  # atno 7974 bound_to 7965
  155.4922  140.3472  155.4357 H   0  0  0  0  0  0  0  0  0  0  0  0  # atno 8008 bound_to 7997
  156.0969  140.1425  156.9546 H   0  0  0  0  0  0  0  0  0  0  0  0  # atno 8009 bound_to 7997
  154.4669  140.0914  156.7022 H   0  0  0  0  0  0  0  0  0  0  0  0  # atno 8010 bound_to 7997
  140.6981  143.6246  150.8580 H   0  0  0  0  0  0  0  0  0  0  0  0  # atno 10167 bound_to 10162
  156.7206  130.5149  149.5869 H   0  0  0  0  0  0  0  0  0  0  0  0  # atno 10718 bound_to 10713
  154.6888  135.5221  153.8364 H   0  0  0  0  0  0  0  0  0  0  0  0  # atno 10763 bound_to 10752
  153.0617  135.6570  154.0457 H   0  0  0  0  0  0  0  0  0  0  0  0  # atno 10764 bound_to 10752
  154.0334  135.2983  155.3345 H   0  0  0  0  0  0  0  0  0  0  0  0  # atno 10765 bound_to 10752
  140.8026  133.8202  155.9485 H   0  0  0  0  0  0  0  0  0  0  0  0  # atno 11005 bound_to 11000
  145.1727  140.9728  143.4312 LP  0  0  0  0  0  0  0  0  0  0  0  0  # atno 17320 bound_to 7965
  145.0014  139.3595  143.6165 LP  0  0  0  0  0  0  0  0  0  0  0  0  # atno 17321 bound_to 7965
  139.9966  143.5789  152.2891 LP  0  0  0  0  0  0  0  0  0  0  0  0  # atno 17342 bound_to 10162
  139.6463  144.7658  151.2236 LP  0  0  0  0  0  0  0  0  0  0  0  0  # atno 17343 bound_to 10162
  156.1597  130.6366  151.0703 LP  0  0  0  0  0  0  0  0  0  0  0  0  # atno 17370 bound_to 10713
  157.6899  131.0813  150.7136 LP  0  0  0  0  0  0  0  0  0  0  0  0  # atno 17371 bound_to 10713
  140.9279  134.2059  157.4883 LP  0  0  0  0  0  0  0  0  0  0  0  0  # atno 17394 bound_to 11000
  139.8720  134.9820  156.5140 LP  0  0  0  0  0  0  0  0  0  0  0  0  # atno 17395 bound_to 11000

$$$$
