#       Name:                AV-unprocessed.smi:895
#       Creating user name   scv26
#       Creation time:       Fri Mar 27 01:56:06 2020


#       File generated by GOLD software.
#

@<TRIPOS>MOLECULE
AV-unprocessed.smi:895
    49    50     1
SMALL
NO_CHARGES


@<TRIPOS>ATOM
      1 ****        -3.5664   2.6097  -0.1931 C.3            1 S1                 0.0000
      2 ****        -2.6837   3.3851   0.8041 C.3            1 S1                 0.0000
      3 ****        -3.0824   4.8701   0.8311 C.3            1 S1                 0.0000
      4 ****        -2.9339   2.8833   2.1024 O.3            1 S1                 0.0000
      5 ****        -1.1704   3.2460   0.5225 C.3            1 S1                 0.0000
      6 ****        -0.7707   1.8614   0.3013 N.am           1 S1                 0.0000
      7 ****         0.4799   1.4689   0.0317 C.2            1 S1                 0.0000
      8 ****         1.4383   2.2362  -0.0597 O.2            1 S1                 0.0000
      9 ****         0.5578   0.1410  -0.1261 N.am           1 S1                 0.0000
     10 ****         1.7744  -0.6118  -0.4272 C.3            1 S1                 0.0000
     11 ****         2.5368  -0.9621   0.8688 C.3            1 S1                 0.0000
     12 ****         3.8036  -1.7777   0.5680 C.3            1 S1                 0.0000
     13 ****         3.4818  -3.0491  -0.2318 C.3            1 S1                 0.0000
     14 ****         2.7151  -2.7206  -1.5266 C.3            1 S1                 0.0000
     15 ****         1.4532  -1.8550  -1.3008 C.3            1 S1                 0.0000
     16 ****         0.3077  -2.6376  -0.8303 N.pl3          1 S1                 0.0000
     17 ****        -0.8984  -2.8240  -1.4763 C.2            1 S1                 0.0000
     18 ****        -1.6809  -3.6081  -0.6784 C.2            1 S1                 0.0000
     19 ****        -0.8594  -3.8588   0.4542 C.2            1 S1                 0.0000
     20 ****         0.3246  -3.2778   0.3608 N.2            1 S1                 0.0000
     21 ****        -3.3798   2.9354  -1.2168 H              1 S1                 0.0000
     22 ****        -4.6257   2.7664   0.0134 H              1 S1                 0.0000
     23 ****        -3.3875   1.5350  -0.1492 H              1 S1                 0.0000
     24 ****        -2.9282   5.3362  -0.1426 H              1 S1                 0.0000
     25 ****        -2.4929   5.4286   1.5592 H              1 S1                 0.0000
     26 ****        -4.1341   4.9967   1.0916 H              1 S1                 0.0000
     27 ****        -2.3934   3.3563   2.7167 H              1 S1                 0.0000
     28 ****        -0.9159   3.8136  -0.3742 H              1 S1                 0.0000
     29 ****        -0.5856   3.6746   1.3386 H              1 S1                 0.0000
     30 ****        -1.4946   1.1607   0.3635 H              1 S1                 0.0000
     31 ****        -0.2897  -0.3979  -0.0232 H              1 S1                 0.0000
     32 ****         2.4309   0.0244  -1.0244 H              1 S1                 0.0000
     33 ****         2.8163  -0.0474   1.3926 H              1 S1                 0.0000
     34 ****         1.8968  -1.5154   1.5556 H              1 S1                 0.0000
     35 ****         4.5059  -1.1624   0.0044 H              1 S1                 0.0000
     36 ****         4.3043  -2.0420   1.4998 H              1 S1                 0.0000
     37 ****         4.4076  -3.5693  -0.4788 H              1 S1                 0.0000
     38 ****         2.9096  -3.7392   0.3871 H              1 S1                 0.0000
     39 ****         3.3886  -2.1814  -2.1938 H              1 S1                 0.0000
     40 ****         2.4523  -3.6409  -2.0495 H              1 S1                 0.0000
     41 ****         1.1617  -1.4776  -2.2824 H              1 S1                 0.0000
     42 ****        -1.1000  -2.3844  -2.4421 H              1 S1                 0.0000
     43 ****        -2.6864  -3.9494  -0.8739 H              1 S1                 0.0000
     44 ****        -1.0866  -4.4402   1.3356 H              1 S1                 0.0000
     45 ****        -2.7098   1.9093   2.1364 LP             1 S1                 0.0000
     46 ****        -3.8984   3.0117   2.3334 LP             1 S1                 0.0000
     47 ****         1.3062   3.2189   0.0703 LP             1 S1                 0.0000
     48 ****         2.3488   1.8768  -0.2640 LP             1 S1                 0.0000
     49 ****         1.0705  -3.3057   1.0262 LP             1 S1                 0.0000
@<TRIPOS>BOND
    1    1    2 1     
    2    1   21 1     
    3    1   22 1     
    4    1   23 1     
    5    2    3 1     
    6    2    4 1     
    7    2    5 1     
    8    3   24 1     
    9    3   25 1     
   10    3   26 1     
   11    4   27 1     
   12    5    6 1     
   13    5   28 1     
   14    5   29 1     
   15    6    7 am    
   16    6   30 1     
   17    7    8 2     
   18    7    9 am    
   19    9   10 1     
   20    9   31 1     
   21   10   15 1     
   22   10   11 1     
   23   10   32 1     
   24   11   12 1     
   25   11   33 1     
   26   11   34 1     
   27   12   13 1     
   28   12   35 1     
   29   12   36 1     
   30   13   14 1     
   31   13   37 1     
   32   13   38 1     
   33   14   15 1     
   34   14   39 1     
   35   14   40 1     
   36   15   16 1     
   37   15   41 1     
   38   16   20 1     
   39   16   17 1     
   40   17   18 2     
   41   17   42 1     
   42   18   19 1     
   43   18   43 1     
   44   19   20 2     
   45   19   44 1     
   46    4   45 1     
   47    4   46 1     
   48    8   47 1     
   49    8   48 1     
   50   20   49 1     
@<TRIPOS>SUBSTRUCTURE
      1 S1             1
@<TRIPOS>SET
LONE_PAIRS      STATIC     ATOMS    <user>   **** ""
5 45 46 47 48 49
DONOR_HYDROGENS      STATIC     ATOMS    <user>   **** ""
3 27 30 31
ATOM$BLUE        STATIC     ATOMS    COLORGROUP SYSTEM
5 45 46 47 48 49
ATOM$RED        STATIC     ATOMS    COLORGROUP SYSTEM
3 27 30 31
