#       Name:                AV-unprocessed.smi:2031
#       Creating user name   scv26
#       Creation time:       Fri Mar 27 10:50:02 2020


#       File generated by GOLD software.
#

@<TRIPOS>MOLECULE
AV-unprocessed.smi:2031
    47    48     1
SMALL
NO_CHARGES


@<TRIPOS>ATOM
      1 ****        -6.7340   3.6428   0.2700 C.3            1 S1                 0.0000
      2 ****        -5.7066   2.8676   1.0224 C.2            1 S1                 0.0000
      3 ****        -4.8896   1.8298   0.6736 C.2            1 S1                 0.0000
      4 ****        -4.1590   1.5765   1.8665 C.2            1 S1                 0.0000
      5 ****        -3.2282   0.6240   2.0313 N.pl3          1 S1                -1.0000
      6 ****        -1.9367   0.8718   1.7164 C.2            1 S1                 0.0000
      7 ****        -1.4791   1.9298   1.2780 O.2            1 S1                 0.0000
      8 ****        -1.1232  -0.1753   1.9154 N.am           1 S1                 0.0000
      9 ****         0.3108  -0.2017   1.6539 C.3            1 S1                 0.0000
     10 ****         0.6057  -0.3706   0.1502 C.3            1 S1                 0.0000
     11 ****         2.0606  -0.3546  -0.1586 N.4            1 S1                 1.0000
     12 ****         2.3306  -0.0982  -1.6012 C.3            1 S1                 0.0000
     13 ****         2.3097  -1.3561  -2.4906 C.3            1 S1                 0.0000
     14 ****         3.6947  -2.0086  -2.6238 C.3            1 S1                 0.0000
     15 ****         4.1955  -2.6841  -1.3405 C.3            1 S1                 0.0000
     16 ****         4.2036  -1.7672  -0.1055 C.3            1 S1                 0.0000
     17 ****         2.7921  -1.5012   0.4539 C.3            1 S1                 0.0000
     18 ****        -4.5124   2.3793   2.8564 N.2            1 S1                 0.0000
     19 ****        -5.4993   3.2156   2.3209 O.3            1 S1                 0.0000
     20 ****        -7.4985   2.9786  -0.1330 H              1 S1                 0.0000
     21 ****        -6.2785   4.1790  -0.5625 H              1 S1                 0.0000
     22 ****        -7.2265   4.3729   0.9129 H              1 S1                 0.0000
     23 ****        -4.8234   1.3320  -0.2821 H              1 S1                 0.0000
     24 ****        -1.5389  -1.0205   2.2791 H              1 S1                 0.0000
     25 ****         0.7775   0.7061   2.0397 H              1 S1                 0.0000
     26 ****         0.7221  -1.0328   2.2260 H              1 S1                 0.0000
     27 ****         0.1595  -1.2930  -0.2244 H              1 S1                 0.0000
     28 ****         0.1191   0.4450  -0.3857 H              1 S1                 0.0000
     29 ****         1.6067   0.6231  -1.9821 H              1 S1                 0.0000
     30 ****         3.2913   0.4090  -1.6948 H              1 S1                 0.0000
     31 ****         1.5633  -2.0754  -2.1509 H              1 S1                 0.0000
     32 ****         1.9942  -1.0549  -3.4901 H              1 S1                 0.0000
     33 ****         3.6596  -2.7558  -3.4175 H              1 S1                 0.0000
     34 ****         4.4203  -1.2632  -2.9515 H              1 S1                 0.0000
     35 ****         3.5963  -3.5721  -1.1352 H              1 S1                 0.0000
     36 ****         5.2086  -3.0472  -1.5173 H              1 S1                 0.0000
     37 ****         4.7722  -2.2808   0.6706 H              1 S1                 0.0000
     38 ****         4.7451  -0.8398  -0.2953 H              1 S1                 0.0000
     39 ****         2.8869  -1.2907   1.5193 H              1 S1                 0.0000
     40 ****         2.1932  -2.4103   0.3800 H              1 S1                 0.0000
     41 ****         2.4136   0.4705   0.3049 H              1 S1                 0.0000
     42 ****        -3.4906  -0.2724   2.3884 LP             1 S1                 0.0000
     43 ****        -2.0846   2.7105   1.1235 LP             1 S1                 0.0000
     44 ****        -0.5025   2.0070   1.0770 LP             1 S1                 0.0000
     45 ****        -4.1514   2.3873   3.7890 LP             1 S1                 0.0000
     46 ****        -6.3485   3.1083   2.8380 LP             1 S1                 0.0000
     47 ****        -5.1970   4.1676   2.3703 LP             1 S1                 0.0000
@<TRIPOS>BOND
    1    1    2 1     
    2    1   20 1     
    3    1   21 1     
    4    1   22 1     
    5    2   19 1     
    6    2    3 2     
    7    3    4 1     
    8    3   23 1     
    9    4    5 1     
   10    4   18 2     
   11    5    6 1     
   12    6    7 2     
   13    6    8 am    
   14    8    9 1     
   15    8   24 1     
   16    9   10 1     
   17    9   25 1     
   18    9   26 1     
   19   10   11 1     
   20   10   27 1     
   21   10   28 1     
   22   11   17 1     
   23   11   12 1     
   24   11   41 1     
   25   12   13 1     
   26   12   29 1     
   27   12   30 1     
   28   13   14 1     
   29   13   31 1     
   30   13   32 1     
   31   14   15 1     
   32   14   33 1     
   33   14   34 1     
   34   15   16 1     
   35   15   35 1     
   36   15   36 1     
   37   16   17 1     
   38   16   37 1     
   39   16   38 1     
   40   17   39 1     
   41   17   40 1     
   42   18   19 1     
   43    5   42 1     
   44    7   43 1     
   45    7   44 1     
   46   18   45 1     
   47   19   46 1     
   48   19   47 1     
@<TRIPOS>SUBSTRUCTURE
      1 S1             1
@<TRIPOS>SET
LONE_PAIRS      STATIC     ATOMS    <user>   **** ""
6 42 43 44 45 46 47
DONOR_HYDROGENS      STATIC     ATOMS    <user>   **** ""
2 24 41
ATOM$BLUE        STATIC     ATOMS    COLORGROUP SYSTEM
6 42 43 44 45 46 47
ATOM$RED        STATIC     ATOMS    COLORGROUP SYSTEM
2 24 41
