AV-unprocessed.smi:1616|AV-procd|sdf|6482|dock9
  -GOLD-   22720 7143D 1   1.00000     0.00000
 Structure written by MMmdl.
 38 39  0  0  0  0  0  0  0  0  1 V2000
  151.2251  145.0437  160.1871 C   0  0  0  0  0  0  0  0  0  0  0  0
  151.6710  143.7232  159.6195 C   0  0  0  0  0  0  0  0  0  0  0  0
  151.2815  143.4465  158.4187 N   0  0  0  0  0  0  0  0  0  0  0  0
  151.6288  142.2584  157.8053 N   0  0  0  0  0  0  0  0  0  0  0  0
  151.0792  142.1025  156.4504 C   0  0  0  0  0  0  0  0  0  0  0  0
  149.7469  141.3387  156.4105 C   0  0  0  0  0  0  0  0  0  0  0  0
  149.6808  140.1585  156.7584 O   0  0  0  0  0  0  0  0  0  0  0  0
  148.6841  142.0423  155.9905 N   0  0  0  0  0  0  0  0  0  0  0  0
  147.3193  141.5366  155.8812 C   0  0  2  0  0  0  0  0  0  0  0  0
  147.2631  140.4205  154.8262 C   0  0  0  0  0  0  0  0  0  0  0  0
  146.3196  142.6325  155.5636 C   0  0  0  0  0  0  0  0  0  0  0  0
  144.9152  142.3020  155.1184 C   0  0  0  0  0  0  0  0  0  0  0  0
  145.8956  142.9121  154.1416 C   0  0  0  0  0  0  0  0  0  0  0  0
  152.3972  141.2856  158.3754 C   0  0  0  0  0  0  0  0  0  0  0  0
  152.6820  140.2392  157.7908 O   0  0  0  0  0  0  0  0  0  0  0  0
  152.8383  141.6077  159.7345 C   0  0  0  0  0  0  0  0  0  0  0  0
  153.6444  140.6157  160.3696 C   0  0  0  0  0  0  0  0  0  0  0  0
  154.3126  139.8124  160.8684 N   0  0  0  0  0  0  0  0  0  0  0  0
  152.5013  142.7697  160.3482 C   0  0  0  0  0  0  0  0  0  0  0  0
  152.9303  143.1508  161.7587 C   0  0  0  0  0  0  0  0  0  0  0  0
  152.0833  145.6765  160.4148 H   0  0  0  0  0  0  0  0  0  0  0  0
  150.6578  144.8977  161.1066 H   0  0  0  0  0  0  0  0  0  0  0  0
  150.5873  145.5914  159.4913 H   0  0  0  0  0  0  0  0  0  0  0  0
  150.9201  143.0824  155.9963 H   0  0  0  0  0  0  0  0  0  0  0  0
  151.8025  141.5982  155.8067 H   0  0  0  0  0  0  0  0  0  0  0  0
  148.8311  143.0060  155.7275 H   0  0  0  0  0  0  0  0  0  0  0  0
  147.0287  141.1051  156.8410 H   0  0  0  0  0  0  0  0  0  0  0  0
  146.2582  140.0037  154.7502 H   0  0  0  0  0  0  0  0  0  0  0  0
  147.9375  139.6015  155.0783 H   0  0  0  0  0  0  0  0  0  0  0  0
  147.5443  140.7918  153.8401 H   0  0  0  0  0  0  0  0  0  0  0  0
  146.4189  143.5088  156.2019 H   0  0  0  0  0  0  0  0  0  0  0  0
  144.6593  141.2529  154.9836 H   0  0  0  0  0  0  0  0  0  0  0  0
  144.1100  142.9350  155.4851 H   0  0  0  0  0  0  0  0  0  0  0  0
  145.7431  143.9513  153.8583 H   0  0  0  0  0  0  0  0  0  0  0  0
  146.2890  142.2674  153.3581 H   0  0  0  0  0  0  0  0  0  0  0  0
  153.5798  142.4011  162.2095 H   0  0  0  0  0  0  0  0  0  0  0  0
  152.0594  143.2621  162.4053 H   0  0  0  0  0  0  0  0  0  0  0  0
  153.4775  144.0941  161.7527 H   0  0  0  0  0  0  0  0  0  0  0  0
  1  2  1  0  0  0  0
  1 21  1  0  0  0  0
  1 22  1  0  0  0  0
  1 23  1  0  0  0  0
  2 19  1  0  0  0  0
  2  3  2  0  0  0  0
  3  4  1  0  0  0  0
  4  5  1  0  0  0  0
  4 14  1  0  0  0  0
  5  6  1  0  0  0  0
  5 24  1  0  0  0  0
  5 25  1  0  0  0  0
  6  7  2  0  0  0  0
  6  8  1  0  0  0  0
  8  9  1  0  0  0  0
  8 26  1  0  0  0  0
  9 10  1  0  0  0  0
  9 11  1  0  0  0  0
  9 27  1  0  0  0  0
 10 28  1  0  0  0  0
 10 29  1  0  0  0  0
 10 30  1  0  0  0  0
 11 13  1  0  0  0  0
 11 12  1  0  0  0  0
 11 31  1  0  0  0  0
 12 13  1  0  0  0  0
 12 32  1  0  0  0  0
 12 33  1  0  0  0  0
 13 34  1  0  0  0  0
 13 35  1  0  0  0  0
 14 15  2  0  0  0  0
 14 16  1  0  0  0  0
 16 17  1  0  0  0  0
 16 19  2  0  0  0  0
 17 18  3  0  0  0  0
 19 20  1  0  0  0  0
 20 36  1  0  0  0  0
 20 37  1  0  0  0  0
 20 38  1  0  0  0  0
M  END
> <s_m_source_file>
AV-unprocessed.smi

> <i_m_source_file_index>
1616

> <i_lp_mmshare_version>
43012

> <i_f3d_flags>
0

> <s_epik_input>
TiNDYyhjMVtDSDNdKWMoPU8pbihuYzFbQ0gzXSlbQ0gyXUMoPU8pW05IXVtDQEhdKFtDSDNdKVtDSF0yW0NIMl1bQ0gyXTI=

> <s_epik_cmdline>
J2VwaWtfcHl0aG9uJywgJy1waCcsICc3LjAnLCAnLXRuJywgJzgnLCAnLW1hJywgJzIwMCcsICctbWV0YWxfYmluZGluZycsICctaW1hZScsICc8aW5maWxlLm1hZT4nLCAnLW9tYWUnLCAnPG91dGZpbGUubWFlPic=

> <r_lp_tautomer_probability>
1

> <r_epik_Ionization_Penalty>
1.93246e-08

> <r_epik_Ionization_Penalty_Charging>
2.27031e-11

> <r_epik_Ionization_Penalty_Neutral>
1.93019e-08

> <r_epik_State_Penalty>
-0

> <r_epik_Charging_Adjusted_Penalty>
2.27031e-11

> <i_epik_Tot_Q>
0

> <i_epik_Tot_abs_Q>
0

> <r_epik_Metal_State_Penalty>
-0

> <b_epik_Metal_Only>
0

> <s_lp_Force_Field>
OPLS_2005

> <r_lp_Energy>
28.018

> <b_lp_Chiralities_Consistent>
1

> <s_lp_Variant>
AV-unprocessed.smi:1616-1

> <Gold.Version>
5.8.1

> <Gold.Id.Protein>
6NUR|6NUR_protein|mol2

> <Gold.PLP.Fitness>
44.7072

> <Gold.PLP.PLP>
-39.6075

> <Gold.PLP.part.hbond>
-2.0000

> <Gold.PLP.part.metal>
0.0000

> <Gold.PLP.part.buried>
-6.7880

> <Gold.PLP.part.nonpolar>
-30.3661

> <Gold.PLP.part.repulsive>
0.1837

> <Gold.PLP.ligand.clash>
0.0000

> <Gold.PLP.ligand.torsion>
0.9688

> <Gold.PLP.Chemscore.Hbond>
1.9913

> <Gold.PLP.Chemscore.CHOScore>
0.0000

> <Gold.PLP.Chemscore.Metal>
0.0000

> <Gold.Chemscore.Hbonds>
donor molecule, donor type, donor heavy atom, donor atom, acceptor molecule, acceptor atom, score
      L1  H     8    26       P1  8028  1.00
      P1  H  7997  8008       L1    15  0.98

> <Gold.PLP.Chemscore.Internal.Correction>
1.0635

> <Gold.Rescore>
     Score         DG    S(hbond)    S(metal)    S(lipo)     H(rot)  DE(clash)    DE(int)     intcor
     16.36     -17.36       1.89        0.00      84.30       1.68       0.02       0.97       ----

> <Gold.Chemscore.Fitness>
16.3615

> <Gold.Chemscore.DG>
-17.3571

> <Gold.Chemscore.ZeroCoef>
-5.4800

> <Gold.Chemscore.Hbond>
1.8914

> <Gold.Chemscore.Metal>
0.0000

> <Gold.Chemscore.Lipo>
84.2991

> <Gold.Chemscore.Internal_Hbond>
0.0000

> <Gold.Chemscore.DEClash>
0.0249

> <Gold.Chemscore.DEInternal>
0.9707

> <Gold.Chemscore.Rot>
1.6809

> <Gold.Chemscore.Internal.Correction>
   9.000000E+99

> <Gold.Chemscore.Hbonds>
donor molecule, donor type, donor heavy atom, donor atom, acceptor molecule, acceptor atom, score
      L1  H     8    26       P1  8028  1.00
      P1  H  7997  8008       L1    15  0.85

> <Gold.Chemscore.Hbond.Weighted>
-6.3171

> <Gold.Chemscore.Metal.Weighted>
-0.0000

> <Gold.Chemscore.Lipo.Weighted>
-9.8630

> <Gold.Chemscore.Internal_Hbond.Weighted>
0.0000

> <Gold.Chemscore.DEClash.Weighted>
0.0249

> <Gold.Chemscore.DEInternal.Weighted>
0.9707

> <Gold.Chemscore.Rot.Weighted>
4.3030

> <Gold.Chemscore.Internal.Correction.Weighted>
   9.000000E+99

> <Gold.Protein.RotatedTorsions>
[ 6907 6896 6895 6894 ] final  -75.91 input  -60.11 | X-H torsion
[ 7974 7965 7964 7962 ] final -149.20 input  175.53 | X-H torsion
[ 8008 7997 7996 7995 ] final  -73.53 input   59.86 | X-H torsion
[ 10167 10162 10161 10158 ] final  130.63 input  -65.29 | X-H torsion
[ 10718 10713 10712 10709 ] final  -79.70 input   66.30 | X-H torsion
[ 10763 10752 10751 10750 ] final  108.09 input  -60.55 | X-H torsion
[ 11005 11000 10999 10996 ] final -174.08 input  -57.11 | X-H torsion

> <Gold.Protein.ActiveResidues>
 VAL166  LYS551  ARG553  GLY616  TRP617  ASP618  TYR619  PRO620  LYS621  CYS622 
 ASP623  PHE694  ASN695  SER759  ASP760  ASP761  ALA762  ILE779  LEU786  VAL792 
 PHE793  MET794  SER795  GLU796  ALA797  LYS798  CYS799  TRP800  GLU811  SER814 

> <Gold.Protein.RotatedAtoms>
  150.7044  134.4650  159.5398 H   0  0  0  0  0  0  0  0  0  0  0  0  # atno 6907 bound_to 6896
  152.2317  134.8312  160.0482 H   0  0  0  0  0  0  0  0  0  0  0  0  # atno 6908 bound_to 6896
  151.9126  133.3530  159.3905 H   0  0  0  0  0  0  0  0  0  0  0  0  # atno 6909 bound_to 6896
  144.7982  140.5096  143.5725 H   0  0  0  0  0  0  0  0  0  0  0  0  # atno 7974 bound_to 7965
  154.5255  140.0777  156.8251 H   0  0  0  0  0  0  0  0  0  0  0  0  # atno 8008 bound_to 7997
  155.3484  140.3411  155.4221 H   0  0  0  0  0  0  0  0  0  0  0  0  # atno 8009 bound_to 7997
  156.1727  140.1625  156.8405 H   0  0  0  0  0  0  0  0  0  0  0  0  # atno 8010 bound_to 7997
  139.5421  144.6740  151.4592 H   0  0  0  0  0  0  0  0  0  0  0  0  # atno 10167 bound_to 10162
  156.0086  130.4553  150.3688 H   0  0  0  0  0  0  0  0  0  0  0  0  # atno 10718 bound_to 10713
  153.4159  135.3823  155.2080 H   0  0  0  0  0  0  0  0  0  0  0  0  # atno 10763 bound_to 10752
  154.8741  135.3805  154.4444 H   0  0  0  0  0  0  0  0  0  0  0  0  # atno 10764 bound_to 10752
  153.4958  135.7088  153.5921 H   0  0  0  0  0  0  0  0  0  0  0  0  # atno 10765 bound_to 10752
  140.4785  134.6097  157.4910 H   0  0  0  0  0  0  0  0  0  0  0  0  # atno 11005 bound_to 11000
  145.5619  139.1480  143.3336 LP  0  0  0  0  0  0  0  0  0  0  0  0  # atno 17320 bound_to 7965
  146.2256  140.5755  142.8998 LP  0  0  0  0  0  0  0  0  0  0  0  0  # atno 17321 bound_to 7965
  140.6655  143.8408  150.6936 LP  0  0  0  0  0  0  0  0  0  0  0  0  # atno 17342 bound_to 10162
  140.1815  143.4111  152.1929 LP  0  0  0  0  0  0  0  0  0  0  0  0  # atno 17343 bound_to 10162
  157.1773  131.0383  151.2766 LP  0  0  0  0  0  0  0  0  0  0  0  0  # atno 17370 bound_to 10713
  157.4176  130.7420  149.6888 LP  0  0  0  0  0  0  0  0  0  0  0  0  # atno 17371 bound_to 10713
  139.9841  134.7090  155.9806 LP  0  0  0  0  0  0  0  0  0  0  0  0  # atno 17394 bound_to 11000
  141.1542  133.6544  156.4110 LP  0  0  0  0  0  0  0  0  0  0  0  0  # atno 17395 bound_to 11000

$$$$
