AV-unprocessed.smi:2083|AV-procd|sdf|8491|dock4
  -GOLD-   2272011203D 1   1.00000     0.00000
 Structure written by MMmdl.
 45 46  0  0  0  0  0  0  0  0  2 V2000
  150.4759  142.5259  157.5346 C   0  0  0  0  0  0  0  0  0  0  0  0
  150.3010  141.5886  156.3893 C   0  0  0  0  0  0  0  0  0  0  0  0
  149.2605  141.3437  155.5380 C   0  0  0  0  0  0  0  0  0  0  0  0
  149.7755  140.3303  154.6869 C   0  0  0  0  0  0  0  0  0  0  0  0
  148.9858  139.7877  153.6412 N   0  0  0  0  0  0  0  0  0  0  0  0
  147.8912  139.0173  153.7586 C   0  0  0  0  0  0  0  0  0  0  0  0
  147.4008  138.6388  154.8228 O   0  0  0  0  0  0  0  0  0  0  0  0
  147.3888  138.6958  152.5571 N   0  0  0  0  0  0  0  0  0  0  0  0
  146.1897  137.8931  152.3297 C   0  0  0  0  0  0  0  0  0  0  0  0
  146.0543  136.7284  153.3443 C   0  0  1  0  0  0  0  0  0  0  0  0
  144.6332  136.5806  153.9221 C   0  0  0  0  0  0  0  0  0  0  0  0
  146.5320  135.4224  152.8020 N   0  3  1  0  0  0  0  0  0  0  0  0
  146.9763  134.4316  153.8199 C   0  0  0  0  0  0  0  0  0  0  0  0
  147.6765  133.2423  153.1450 C   0  0  0  0  0  0  0  0  0  0  0  0
  146.7553  132.5828  152.1097 C   0  0  0  0  0  0  0  0  0  0  0  0
  146.2647  133.6225  151.0869 C   0  0  1  0  0  0  0  0  0  0  0  0
  145.3138  132.9928  150.0590 C   0  0  0  0  0  0  0  0  0  0  0  0
  145.6052  134.8148  151.8098 C   0  0  0  0  0  0  0  0  0  0  0  0
  151.0175  139.9864  154.9915 N   0  0  0  0  0  0  0  0  0  0  0  0
  151.3605  140.7910  156.0845 O   0  0  0  0  0  0  0  0  0  0  0  0
  149.5953  143.1564  157.6604 H   0  0  0  0  0  0  0  0  0  0  0  0
  151.3366  143.1754  157.3743 H   0  0  0  0  0  0  0  0  0  0  0  0
  150.6337  141.9768  158.4628 H   0  0  0  0  0  0  0  0  0  0  0  0
  148.2895  141.8157  155.5281 H   0  0  0  0  0  0  0  0  0  0  0  0
  149.2836  140.0174  152.7047 H   0  0  0  0  0  0  0  0  0  0  0  0
  147.8601  139.0498  151.7374 H   0  0  0  0  0  0  0  0  0  0  0  0
  145.3067  138.5330  152.3486 H   0  0  0  0  0  0  0  0  0  0  0  0
  146.2574  137.5031  151.3144 H   0  0  0  0  0  0  0  0  0  0  0  0
  146.6920  136.9634  154.1977 H   0  0  0  0  0  0  0  0  0  0  0  0
  144.3540  137.4510  154.5156 H   0  0  0  0  0  0  0  0  0  0  0  0
  144.5640  135.7129  154.5790 H   0  0  0  0  0  0  0  0  0  0  0  0
  143.8835  136.4683  153.1389 H   0  0  0  0  0  0  0  0  0  0  0  0
  147.6623  134.8921  154.5302 H   0  0  0  0  0  0  0  0  0  0  0  0
  146.1203  134.0698  154.3907 H   0  0  0  0  0  0  0  0  0  0  0  0
  148.5930  133.5815  152.6601 H   0  0  0  0  0  0  0  0  0  0  0  0
  147.9759  132.5107  153.8962 H   0  0  0  0  0  0  0  0  0  0  0  0
  147.2843  131.7745  151.6037 H   0  0  0  0  0  0  0  0  0  0  0  0
  145.9031  132.1276  152.6165 H   0  0  0  0  0  0  0  0  0  0  0  0
  147.1337  133.9972  150.5433 H   0  0  0  0  0  0  0  0  0  0  0  0
  144.4178  132.5962  150.5374 H   0  0  0  0  0  0  0  0  0  0  0  0
  145.7975  132.1728  149.5275 H   0  0  0  0  0  0  0  0  0  0  0  0
  144.9975  133.7245  149.3150 H   0  0  0  0  0  0  0  0  0  0  0  0
  144.6904  134.4905  152.3075 H   0  0  0  0  0  0  0  0  0  0  0  0
  145.3160  135.5638  151.0715 H   0  0  0  0  0  0  0  0  0  0  0  0
  147.3606  135.6547  152.2730 H   0  0  0  0  0  0  0  0  0  0  0  0
  1  2  1  0  0  0  0
  1 21  1  0  0  0  0
  1 22  1  0  0  0  0
  1 23  1  0  0  0  0
  2 20  1  0  0  0  0
  2  3  2  0  0  0  0
  3  4  1  0  0  0  0
  3 24  1  0  0  0  0
  4  5  1  0  0  0  0
  4 19  2  0  0  0  0
  5  6  1  0  0  0  0
  5 25  1  0  0  0  0
  6  7  2  0  0  0  0
  6  8  1  0  0  0  0
  8  9  1  0  0  0  0
  8 26  1  0  0  0  0
  9 10  1  0  0  0  0
  9 27  1  0  0  0  0
  9 28  1  0  0  0  0
 10 11  1  0  0  0  0
 10 12  1  0  0  0  0
 10 29  1  0  0  0  0
 11 30  1  0  0  0  0
 11 31  1  0  0  0  0
 11 32  1  0  0  0  0
 12 18  1  0  0  0  0
 12 13  1  0  0  0  0
 12 45  1  0  0  0  0
 13 14  1  0  0  0  0
 13 33  1  0  0  0  0
 13 34  1  0  0  0  0
 14 15  1  0  0  0  0
 14 35  1  0  0  0  0
 14 36  1  0  0  0  0
 15 16  1  0  0  0  0
 15 37  1  0  0  0  0
 15 38  1  0  0  0  0
 16 17  1  0  0  0  0
 16 18  1  0  0  0  0
 16 39  1  0  0  0  0
 17 40  1  0  0  0  0
 17 41  1  0  0  0  0
 17 42  1  0  0  0  0
 18 43  1  0  0  0  0
 18 44  1  0  0  0  0
 19 20  1  0  0  0  0
M  CHG  1  12   1
M  END
> <s_m_source_file>
AV-unprocessed.smi

> <i_m_source_file_index>
2083

> <i_lp_mmshare_version>
43012

> <i_f3d_flags>
0

> <s_epik_input>
W0NIM11jMVtjSF1jKG5vMSlbTkhdQyg9TylbTkhdW0NIMl1bQ0BIXShbQ0gzXSlOMltDSDJdW0NIMl1bQ0gyXVtDQEBIXShbQ0gzXSlbQ0gyXTI=

> <s_epik_cmdline>
J2VwaWtfcHl0aG9uJywgJy1waCcsICc3LjAnLCAnLXRuJywgJzgnLCAnLW1hJywgJzIwMCcsICctbWV0YWxfYmluZGluZycsICctaW1hZScsICc8aW5maWxlLm1hZT4nLCAnLW9tYWUnLCAnPG91dGZpbGUubWFlPic=

> <r_epik_Ionization_Penalty>
0.00216453

> <r_epik_Ionization_Penalty_Charging>
0.00212879

> <r_epik_Ionization_Penalty_Neutral>
3.57418e-05

> <r_epik_State_Penalty>
0.00146033

> <r_epik_Charging_Adjusted_Penalty>
0.00358912

> <i_epik_Tot_Q>
1

> <i_epik_Tot_abs_Q>
1

> <r_epik_Metal_State_Penalty>
0.0215827

> <b_epik_Metal_Only>
0

> <s_lp_Force_Field>
OPLS_2005

> <r_lp_Energy>
17.3533

> <b_lp_Chiralities_Consistent>
1

> <s_lp_Variant>
AV-unprocessed.smi:2083-2

> <Gold.Version>
5.8.1

> <Gold.Id.Protein>
6NUR|6NUR_protein|mol2

> <Gold.PLP.Fitness>
42.5759

> <Gold.PLP.PLP>
-32.6920

> <Gold.PLP.part.hbond>
-5.1433

> <Gold.PLP.part.metal>
0.0000

> <Gold.PLP.part.buried>
-3.0029

> <Gold.PLP.part.nonpolar>
-25.2057

> <Gold.PLP.part.repulsive>
0.3482

> <Gold.PLP.ligand.clash>
0.0000

> <Gold.PLP.ligand.torsion>
1.6577

> <Gold.PLP.Chemscore.Hbond>
4.3525

> <Gold.PLP.Chemscore.CHOScore>
0.0000

> <Gold.PLP.Chemscore.Metal>
0.0000

> <Gold.Chemscore.Hbonds>
donor molecule, donor type, donor heavy atom, donor atom, acceptor molecule, acceptor atom, score
      L1  H     5    25       P1  7957  1.00
      L1  H     8    26       P1  7957  0.81
      L1  H    12    45       P1  7948  2.00
      P1  H  7989  7998       L1    19  0.50

> <Gold.PLP.Chemscore.Internal.Correction>
0.1419

> <Gold.Rescore>
     Score         DG    S(hbond)    S(metal)    S(lipo)     H(rot)  DE(clash)    DE(int)     intcor
     15.68     -18.94       2.91        0.00      65.84       1.55       0.06       3.21       ----

> <Gold.Chemscore.Fitness>
15.6777

> <Gold.Chemscore.DG>
-18.9399

> <Gold.Chemscore.ZeroCoef>
-5.4800

> <Gold.Chemscore.Hbond>
2.9095

> <Gold.Chemscore.Metal>
0.0000

> <Gold.Chemscore.Lipo>
65.8402

> <Gold.Chemscore.Internal_Hbond>
0.0000

> <Gold.Chemscore.DEClash>
0.0565

> <Gold.Chemscore.DEInternal>
3.2058

> <Gold.Chemscore.Rot>
1.5474

> <Gold.Chemscore.Internal.Correction>
   9.000000E+99

> <Gold.Chemscore.Hbonds>
donor molecule, donor type, donor heavy atom, donor atom, acceptor molecule, acceptor atom, score
      L1  H     5    25       P1  7957  0.97
      L1  H     8    26       P1  7957  0.73
      L1  H    12    45       P1  7948  1.00
      P1  H  7989  7998       L1    19  0.01

> <Gold.Chemscore.Hbond.Weighted>
-9.7178

> <Gold.Chemscore.Metal.Weighted>
-0.0000

> <Gold.Chemscore.Lipo.Weighted>
-7.7033

> <Gold.Chemscore.Internal_Hbond.Weighted>
0.0000

> <Gold.Chemscore.DEClash.Weighted>
0.0565

> <Gold.Chemscore.DEInternal.Weighted>
3.2058

> <Gold.Chemscore.Rot.Weighted>
3.9612

> <Gold.Chemscore.Internal.Correction.Weighted>
   9.000000E+99

> <Gold.Protein.RotatedTorsions>
[ 6907 6896 6895 6894 ] final  -37.26 input  -60.11 | X-H torsion
[ 7974 7965 7964 7962 ] final -168.66 input  175.53 | X-H torsion
[ 8008 7997 7996 7995 ] final  -99.79 input   59.86 | X-H torsion
[ 10167 10162 10161 10158 ] final  -70.72 input  -65.29 | X-H torsion
[ 10718 10713 10712 10709 ] final  101.32 input   66.30 | X-H torsion
[ 10763 10752 10751 10750 ] final   46.72 input  -60.55 | X-H torsion
[ 11005 11000 10999 10996 ] final  133.11 input  -57.11 | X-H torsion

> <Gold.Protein.ActiveResidues>
 VAL166  LYS551  ARG553  GLY616  TRP617  ASP618  TYR619  PRO620  LYS621  CYS622 
 ASP623  PHE694  ASN695  SER759  ASP760  ASP761  ALA762  ILE779  LEU786  VAL792 
 PHE793  MET794  SER795  GLU796  ALA797  LYS798  CYS799  TRP800  GLU811  SER814 

> <Gold.Protein.RotatedAtoms>
  151.0170  134.9440  159.8038 H   0  0  0  0  0  0  0  0  0  0  0  0  # atno 6907 bound_to 6896
  152.5316  134.2954  159.9068 H   0  0  0  0  0  0  0  0  0  0  0  0  # atno 6908 bound_to 6896
  151.2961  133.4101  159.2670 H   0  0  0  0  0  0  0  0  0  0  0  0  # atno 6909 bound_to 6896
  144.7199  140.2337  143.6301 H   0  0  0  0  0  0  0  0  0  0  0  0  # atno 7974 bound_to 7965
  154.8197  140.0445  157.1402 H   0  0  0  0  0  0  0  0  0  0  0  0  # atno 8008 bound_to 7997
  154.9274  140.3035  155.5165 H   0  0  0  0  0  0  0  0  0  0  0  0  # atno 8009 bound_to 7997
  156.2979  140.2329  156.4330 H   0  0  0  0  0  0  0  0  0  0  0  0  # atno 8010 bound_to 7997
  140.5330  143.2320  151.7227 H   0  0  0  0  0  0  0  0  0  0  0  0  # atno 10167 bound_to 10162
  157.6832  131.0723  150.5235 H   0  0  0  0  0  0  0  0  0  0  0  0  # atno 10718 bound_to 10713
  152.9807  135.5999  154.3645 H   0  0  0  0  0  0  0  0  0  0  0  0  # atno 10763 bound_to 10752
  154.3324  135.2768  155.2467 H   0  0  0  0  0  0  0  0  0  0  0  0  # atno 10764 bound_to 10752
  154.4585  135.5972  153.6295 H   0  0  0  0  0  0  0  0  0  0  0  0  # atno 10765 bound_to 10752
  139.9831  134.9541  156.9678 H   0  0  0  0  0  0  0  0  0  0  0  0  # atno 11005 bound_to 11000
  145.8386  139.2119  143.1840 LP  0  0  0  0  0  0  0  0  0  0  0  0  # atno 17320 bound_to 7965
  146.0366  140.8206  142.9849 LP  0  0  0  0  0  0  0  0  0  0  0  0  # atno 17321 bound_to 7965
  139.4961  144.4085  152.0106 LP  0  0  0  0  0  0  0  0  0  0  0  0  # atno 17342 bound_to 10162
  140.3188  144.3452  150.6014 LP  0  0  0  0  0  0  0  0  0  0  0  0  # atno 17343 bound_to 10162
  156.5547  130.4240  149.6091 LP  0  0  0  0  0  0  0  0  0  0  0  0  # atno 17370 bound_to 10713
  156.2872  130.7104  151.1944 LP  0  0  0  0  0  0  0  0  0  0  0  0  # atno 17371 bound_to 10713
  140.5056  134.1054  155.7259 LP  0  0  0  0  0  0  0  0  0  0  0  0  # atno 17394 bound_to 11000
  141.1500  133.8985  157.2120 LP  0  0  0  0  0  0  0  0  0  0  0  0  # atno 17395 bound_to 11000

$$$$
