AV-unprocessed.smi:1895|AV-procd|sdf|7681|dock1
  -GOLD-   22720 9423D 1   1.00000     0.00000
 Structure written by MMmdl.
 36 37  0  0  0  0  0  0  0  0  1 V2000
  153.9472  141.4618  161.0392 C   0  0  0  0  0  0  0  0  0  0  0  0
  153.0259  142.4479  160.3840 C   0  0  0  0  0  0  0  0  0  0  0  0
  152.3967  143.5853  160.9632 C   0  0  0  0  0  0  0  0  0  0  0  0
  151.6715  144.1272  159.9397 C   0  0  0  0  0  0  0  0  0  0  0  0
  150.7909  145.3331  159.9151 C   0  0  0  0  0  0  0  0  0  0  0  0
  151.8849  143.3288  158.8296 N   0  0  0  0  0  0  0  0  0  0  0  0
  151.3485  143.4650  157.4820 C   0  0  0  0  0  0  0  0  0  0  0  0
  150.7159  142.1716  156.9520 C   0  0  0  0  0  0  0  0  0  0  0  0
  150.6839  141.1475  157.6362 O   0  0  0  0  0  0  0  0  0  0  0  0
  150.2041  142.2416  155.7139 N   0  0  0  0  0  0  0  0  0  0  0  0
  149.5599  141.1418  155.0054 C   0  0  0  0  0  0  0  0  0  0  0  0
  150.2838  139.8078  155.2503 C   0  0  1  0  0  0  0  0  0  0  0  0
  149.8865  138.7049  154.2738 C   0  0  0  0  0  0  0  0  0  0  0  0
  151.0621  137.7608  154.3912 C   0  0  0  0  0  0  0  0  0  0  0  0
  152.2387  138.7169  154.5887 C   0  0  0  0  0  0  0  0  0  0  0  0
  151.6856  139.9488  155.0477 O   0  0  0  0  0  0  0  0  0  0  0  0
  152.7165  142.3006  159.1063 N   0  0  0  0  0  0  0  0  0  0  0  0
  154.1016  141.7053  162.0904 H   0  0  0  0  0  0  0  0  0  0  0  0
  154.9234  141.4535  160.5540 H   0  0  0  0  0  0  0  0  0  0  0  0
  153.5400  140.4516  160.9894 H   0  0  0  0  0  0  0  0  0  0  0  0
  152.4664  143.9472  161.9781 H   0  0  0  0  0  0  0  0  0  0  0  0
  150.7421  145.7993  160.8992 H   0  0  0  0  0  0  0  0  0  0  0  0
  149.7757  145.0672  159.6202 H   0  0  0  0  0  0  0  0  0  0  0  0
  151.1667  146.0754  159.2109 H   0  0  0  0  0  0  0  0  0  0  0  0
  150.6019  144.2596  157.4782 H   0  0  0  0  0  0  0  0  0  0  0  0
  152.1496  143.7803  156.8113 H   0  0  0  0  0  0  0  0  0  0  0  0
  150.2761  143.1191  155.2197 H   0  0  0  0  0  0  0  0  0  0  0  0
  148.5146  141.0666  155.3100 H   0  0  0  0  0  0  0  0  0  0  0  0
  149.5549  141.3752  153.9403 H   0  0  0  0  0  0  0  0  0  0  0  0
  150.1163  139.4587  156.2709 H   0  0  0  0  0  0  0  0  0  0  0  0
  148.9344  138.2363  154.5244 H   0  0  0  0  0  0  0  0  0  0  0  0
  149.8208  139.0954  153.2572 H   0  0  0  0  0  0  0  0  0  0  0  0
  150.9429  137.1296  155.2729 H   0  0  0  0  0  0  0  0  0  0  0  0
  151.1803  137.1127  153.5223 H   0  0  0  0  0  0  0  0  0  0  0  0
  152.9626  138.3228  155.3027 H   0  0  0  0  0  0  0  0  0  0  0  0
  152.7572  138.8979  153.6465 H   0  0  0  0  0  0  0  0  0  0  0  0
  1  2  1  0  0  0  0
  1 18  1  0  0  0  0
  1 19  1  0  0  0  0
  1 20  1  0  0  0  0
  2 17  2  0  0  0  0
  2  3  1  0  0  0  0
  3  4  2  0  0  0  0
  3 21  1  0  0  0  0
  4  5  1  0  0  0  0
  4  6  1  0  0  0  0
  5 22  1  0  0  0  0
  5 23  1  0  0  0  0
  5 24  1  0  0  0  0
  6  7  1  0  0  0  0
  6 17  1  0  0  0  0
  7  8  1  0  0  0  0
  7 25  1  0  0  0  0
  7 26  1  0  0  0  0
  8  9  2  0  0  0  0
  8 10  1  0  0  0  0
 10 11  1  0  0  0  0
 10 27  1  0  0  0  0
 11 12  1  0  0  0  0
 11 28  1  0  0  0  0
 11 29  1  0  0  0  0
 12 16  1  0  0  0  0
 12 13  1  0  0  0  0
 12 30  1  0  0  0  0
 13 14  1  0  0  0  0
 13 31  1  0  0  0  0
 13 32  1  0  0  0  0
 14 15  1  0  0  0  0
 14 33  1  0  0  0  0
 14 34  1  0  0  0  0
 15 16  1  0  0  0  0
 15 35  1  0  0  0  0
 15 36  1  0  0  0  0
M  END
> <s_m_source_file>
AV-unprocessed.smi

> <i_m_source_file_index>
1895

> <i_lp_mmshare_version>
43012

> <i_f3d_flags>
0

> <s_epik_input>
W0NIM11jMVtjSF1jKFtDSDNdKW4objEpW0NIMl1DKD1PKVtOSF1bQ0gyXVtDQEBIXTJbQ0gyXVtDSDJdW0NIMl1PMg==

> <s_epik_cmdline>
J2VwaWtfcHl0aG9uJywgJy1waCcsICc3LjAnLCAnLXRuJywgJzgnLCAnLW1hJywgJzIwMCcsICctbWV0YWxfYmluZGluZycsICctaW1hZScsICc8aW5maWxlLm1hZT4nLCAnLW9tYWUnLCAnPG91dGZpbGUubWFlPic=

> <r_lp_tautomer_probability>
1

> <r_epik_Ionization_Penalty>
0.000408438

> <r_epik_Ionization_Penalty_Charging>
0

> <r_epik_Ionization_Penalty_Neutral>
0.000408438

> <r_epik_State_Penalty>
-0

> <r_epik_Charging_Adjusted_Penalty>
0

> <i_epik_Tot_Q>
0

> <i_epik_Tot_abs_Q>
0

> <r_epik_Metal_State_Penalty>
-0

> <b_epik_Metal_Only>
0

> <s_lp_Force_Field>
OPLS_2005

> <r_lp_Energy>
16.1731

> <b_lp_Chiralities_Consistent>
1

> <s_lp_Variant>
AV-unprocessed.smi:1895-2

> <Gold.Version>
5.8.1

> <Gold.Id.Protein>
6NUR|6NUR_protein|mol2

> <Gold.PLP.Fitness>
47.8523

> <Gold.PLP.PLP>
-44.4779

> <Gold.PLP.part.hbond>
-2.0000

> <Gold.PLP.part.metal>
0.0000

> <Gold.PLP.part.buried>
-6.6724

> <Gold.PLP.part.nonpolar>
-37.6882

> <Gold.PLP.part.repulsive>
0.2187

> <Gold.PLP.ligand.clash>
0.0000

> <Gold.PLP.ligand.torsion>
0.3096

> <Gold.PLP.Chemscore.Hbond>
1.3242

> <Gold.PLP.Chemscore.CHOScore>
0.0000

> <Gold.PLP.Chemscore.Metal>
0.0000

> <Gold.Chemscore.Hbonds>
donor molecule, donor type, donor heavy atom, donor atom, acceptor molecule, acceptor atom, score
      L1  H    10    27       P1  8028  0.28
      P1  H  7989  7998       L1    16  0.95

> <Gold.PLP.Chemscore.Internal.Correction>
0.0209

> <Gold.Rescore>
     Score         DG    S(hbond)    S(metal)    S(lipo)     H(rot)  DE(clash)    DE(int)     intcor
     14.53     -17.68       1.37        0.00      98.92       1.54       0.11       3.03       ----

> <Gold.Chemscore.Fitness>
14.5350

> <Gold.Chemscore.DG>
-17.6786

> <Gold.Chemscore.ZeroCoef>
-5.4800

> <Gold.Chemscore.Hbond>
1.3666

> <Gold.Chemscore.Metal>
0.0000

> <Gold.Chemscore.Lipo>
98.9187

> <Gold.Chemscore.Internal_Hbond>
0.0000

> <Gold.Chemscore.DEClash>
0.1088

> <Gold.Chemscore.DEInternal>
3.0348

> <Gold.Chemscore.Rot>
1.5387

> <Gold.Chemscore.Internal.Correction>
   9.000000E+99

> <Gold.Chemscore.Hbonds>
donor molecule, donor type, donor heavy atom, donor atom, acceptor molecule, acceptor atom, score
      L1  H    10    27       P1  8028  0.29
      P1  H  7989  7998       L1    16  0.05

> <Gold.Chemscore.Hbond.Weighted>
-4.5643

> <Gold.Chemscore.Metal.Weighted>
-0.0000

> <Gold.Chemscore.Lipo.Weighted>
-11.5735

> <Gold.Chemscore.Internal_Hbond.Weighted>
0.0000

> <Gold.Chemscore.DEClash.Weighted>
0.1088

> <Gold.Chemscore.DEInternal.Weighted>
3.0348

> <Gold.Chemscore.Rot.Weighted>
3.9392

> <Gold.Chemscore.Internal.Correction.Weighted>
   9.000000E+99

> <Gold.Protein.RotatedTorsions>
[ 6907 6896 6895 6894 ] final   53.88 input  -60.11 | X-H torsion
[ 7974 7965 7964 7962 ] final   29.19 input  175.53 | X-H torsion
[ 8008 7997 7996 7995 ] final -157.98 input   59.86 | X-H torsion
[ 10167 10162 10161 10158 ] final   64.17 input  -65.29 | X-H torsion
[ 10718 10713 10712 10709 ] final  -18.97 input   66.30 | X-H torsion
[ 10763 10752 10751 10750 ] final  -70.99 input  -60.55 | X-H torsion
[ 11005 11000 10999 10996 ] final  -28.09 input  -57.11 | X-H torsion

> <Gold.Protein.ActiveResidues>
 VAL166  LYS551  ARG553  GLY616  TRP617  ASP618  TYR619  PRO620  LYS621  CYS622 
 ASP623  PHE694  ASN695  SER759  ASP760  ASP761  ALA762  ILE779  LEU786  VAL792 
 PHE793  MET794  SER795  GLU796  ALA797  LYS798  CYS799  TRP800  GLU811  SER814 

> <Gold.Protein.RotatedAtoms>
  152.3382  134.7169  160.0270 H   0  0  0  0  0  0  0  0  0  0  0  0  # atno 6907 bound_to 6896
  151.7563  133.3325  159.3413 H   0  0  0  0  0  0  0  0  0  0  0  0  # atno 6908 bound_to 6896
  150.7463  134.6078  159.6115 H   0  0  0  0  0  0  0  0  0  0  0  0  # atno 6909 bound_to 6896
  146.1685  139.6954  142.8984 H   0  0  0  0  0  0  0  0  0  0  0  0  # atno 7974 bound_to 7965
  155.7407  140.0814  157.2247 H   0  0  0  0  0  0  0  0  0  0  0  0  # atno 8008 bound_to 7997
  154.4022  140.1578  156.2668 H   0  0  0  0  0  0  0  0  0  0  0  0  # atno 8009 bound_to 7997
  155.9023  140.3409  155.6038 H   0  0  0  0  0  0  0  0  0  0  0  0  # atno 8010 bound_to 7997
  140.1250  144.4696  150.6898 H   0  0  0  0  0  0  0  0  0  0  0  0  # atno 10167 bound_to 10162
  156.5521  130.4704  149.6447 H   0  0  0  0  0  0  0  0  0  0  0  0  # atno 10718 bound_to 10713
  154.4254  135.5976  153.6035 H   0  0  0  0  0  0  0  0  0  0  0  0  # atno 10763 bound_to 10752
  152.9796  135.5962  154.3904 H   0  0  0  0  0  0  0  0  0  0  0  0  # atno 10764 bound_to 10752
  154.3735  135.2841  155.2231 H   0  0  0  0  0  0  0  0  0  0  0  0  # atno 10765 bound_to 10752
  140.9178  133.7419  156.0759 H   0  0  0  0  0  0  0  0  0  0  0  0  # atno 11005 bound_to 11000
  145.4402  141.0422  143.2861 LP  0  0  0  0  0  0  0  0  0  0  0  0  # atno 17320 bound_to 7965
  144.8128  139.5930  143.7022 LP  0  0  0  0  0  0  0  0  0  0  0  0  # atno 17321 bound_to 7965
  140.6850  143.2345  151.5285 LP  0  0  0  0  0  0  0  0  0  0  0  0  # atno 17342 bound_to 10162
  139.5549  144.2302  152.1594 LP  0  0  0  0  0  0  0  0  0  0  0  0  # atno 17343 bound_to 10162
  156.2875  130.7105  151.1946 LP  0  0  0  0  0  0  0  0  0  0  0  0  # atno 17370 bound_to 10713
  157.7385  131.0540  150.5289 LP  0  0  0  0  0  0  0  0  0  0  0  0  # atno 17371 bound_to 10713
  140.8027  134.3490  157.5435 LP  0  0  0  0  0  0  0  0  0  0  0  0  # atno 17394 bound_to 11000
  139.8769  134.9207  156.3258 LP  0  0  0  0  0  0  0  0  0  0  0  0  # atno 17395 bound_to 11000

$$$$
