AV-unprocessed.smi:1224|AV-procd|sdf|5130|dock1
  -GOLD-   22720 4183D 1   1.00000     0.00000
 Structure written by MMmdl.
 45 47  0  0  0  0  0  0  0  0  3 V2000
  152.2469  142.8045  159.5927 C   0  0  0  0  0  0  0  0  0  0  0  0
  151.7390  141.9881  158.4163 C   0  0  0  0  0  0  0  0  0  0  0  0
  150.9518  142.6352  157.4370 C   0  0  0  0  0  0  0  0  0  0  0  0
  150.5015  141.8625  156.3732 C   0  0  0  0  0  0  0  0  0  0  0  0
  149.7174  142.1963  155.2669 N   0  3  0  0  0  0  0  0  0  0  0  0
  149.5352  141.0933  154.4892 C   0  0  0  0  0  0  0  0  0  0  0  0
  150.1973  140.0612  155.0804 N   0  0  0  0  0  0  0  0  0  0  0  0
  150.3229  138.6581  154.6627 C   0  0  0  0  0  0  0  0  0  0  0  0
  149.0544  137.8266  154.9416 C   0  0  2  0  0  0  0  0  0  0  0  0
  149.2297  136.5210  154.4255 O   0  0  0  0  0  0  0  0  0  0  0  0
  147.8102  138.4505  154.2886 C   0  0  0  0  0  0  0  0  0  0  0  0
  147.8822  138.3799  152.8131 N   0  3  0  0  0  0  0  0  0  0  0  0
  146.6332  138.7383  152.1097 C   0  0  0  0  0  0  0  0  0  0  0  0
  145.7770  137.5473  151.8235 C   0  0  0  0  0  0  0  0  0  0  0  0
  146.0390  136.5105  150.9634 C   0  0  0  0  0  0  0  0  0  0  0  0
  145.0082  135.5257  150.9419 C   0  0  0  0  0  0  0  0  0  0  0  0
  143.9718  135.8240  151.7858 C   0  0  0  0  0  0  0  0  0  0  0  0
  144.2424  137.3259  152.6263 S   0  0  0  0  0  0  0  0  0  0  0  0
  150.8099  140.4929  156.2616 C   0  0  0  0  0  0  0  0  0  0  0  0
  151.5829  139.8390  157.2177 C   0  0  0  0  0  0  0  0  0  0  0  0
  152.0492  140.6074  158.3086 C   0  0  0  0  0  0  0  0  0  0  0  0
  152.8930  139.9219  159.3700 C   0  0  0  0  0  0  0  0  0  0  0  0
  151.9544  143.8515  159.5076 H   0  0  0  0  0  0  0  0  0  0  0  0
  153.3351  142.7672  159.6449 H   0  0  0  0  0  0  0  0  0  0  0  0
  151.8412  142.4198  160.5285 H   0  0  0  0  0  0  0  0  0  0  0  0
  150.7097  143.6854  157.5136 H   0  0  0  0  0  0  0  0  0  0  0  0
  148.9698  141.0469  153.5694 H   0  0  0  0  0  0  0  0  0  0  0  0
  150.5818  138.6348  153.6033 H   0  0  0  0  0  0  0  0  0  0  0  0
  151.1754  138.2370  155.1980 H   0  0  0  0  0  0  0  0  0  0  0  0
  148.9026  137.7502  156.0190 H   0  0  0  0  0  0  0  0  0  0  0  0
  149.1252  136.5525  153.4864 H   0  0  0  0  0  0  0  0  0  0  0  0
  146.9158  137.9180  154.6149 H   0  0  0  0  0  0  0  0  0  0  0  0
  147.7001  139.4861  154.6131 H   0  0  0  0  0  0  0  0  0  0  0  0
  148.6151  139.0007  152.4993 H   0  0  0  0  0  0  0  0  0  0  0  0
  146.0805  139.4399  152.7350 H   0  0  0  0  0  0  0  0  0  0  0  0
  146.8723  139.2684  151.1870 H   0  0  0  0  0  0  0  0  0  0  0  0
  146.9280  136.4231  150.3562 H   0  0  0  0  0  0  0  0  0  0  0  0
  145.0622  134.6459  150.3175 H   0  0  0  0  0  0  0  0  0  0  0  0
  143.0702  135.2562  151.9637 H   0  0  0  0  0  0  0  0  0  0  0  0
  151.8179  138.7881  157.1364 H   0  0  0  0  0  0  0  0  0  0  0  0
  153.0189  138.8601  159.1562 H   0  0  0  0  0  0  0  0  0  0  0  0
  152.4227  140.0103  160.3495 H   0  0  0  0  0  0  0  0  0  0  0  0
  153.8850  140.3716  159.4196 H   0  0  0  0  0  0  0  0  0  0  0  0
  148.1300  137.4355  152.5554 H   0  0  0  0  0  0  0  0  0  0  0  0
  149.3306  143.1081  155.0574 H   0  0  0  0  0  0  0  0  0  0  0  0
  1  2  1  0  0  0  0
  1 23  1  0  0  0  0
  1 24  1  0  0  0  0
  1 25  1  0  0  0  0
  2 21  1  0  0  0  0
  2  3  2  0  0  0  0
  3  4  1  0  0  0  0
  3 26  1  0  0  0  0
  4 19  2  0  0  0  0
  4  5  1  0  0  0  0
  5  6  2  0  0  0  0
  5 45  1  0  0  0  0
  6  7  1  0  0  0  0
  6 27  1  0  0  0  0
  7  8  1  0  0  0  0
  7 19  1  0  0  0  0
  8  9  1  0  0  0  0
  8 28  1  0  0  0  0
  8 29  1  0  0  0  0
  9 10  1  0  0  0  0
  9 11  1  0  0  0  0
  9 30  1  0  0  0  0
 10 31  1  0  0  0  0
 11 12  1  0  0  0  0
 11 32  1  0  0  0  0
 11 33  1  0  0  0  0
 12 13  1  0  0  0  0
 12 34  1  0  0  0  0
 12 44  1  0  0  0  0
 13 14  1  0  0  0  0
 13 35  1  0  0  0  0
 13 36  1  0  0  0  0
 14 18  1  0  0  0  0
 14 15  2  0  0  0  0
 15 16  1  0  0  0  0
 15 37  1  0  0  0  0
 16 17  2  0  0  0  0
 16 38  1  0  0  0  0
 17 18  1  0  0  0  0
 17 39  1  0  0  0  0
 19 20  1  0  0  0  0
 20 21  2  0  0  0  0
 20 40  1  0  0  0  0
 21 22  1  0  0  0  0
 22 41  1  0  0  0  0
 22 42  1  0  0  0  0
 22 43  1  0  0  0  0
M  CHG  1   5   1
M  CHG  1  12   1
M  END
> <s_m_source_file>
AV-unprocessed.smi

> <i_m_source_file_index>
1224

> <i_lp_mmshare_version>
43012

> <i_f3d_flags>
0

> <s_epik_input>
W0NIM11jKFtjSF0xKWMoW0NIM10pW2NIXWMoYzEyKW4oW2NIXW4yKVtDSDJdW0NASF0oW09IXSlbQ0gyXVtOSF1bQ0gyXWMzW2NIXVtjSF1bY0hdczM=

> <s_epik_cmdline>
J2VwaWtfcHl0aG9uJywgJy1waCcsICc3LjAnLCAnLXRuJywgJzgnLCAnLW1hJywgJzIwMCcsICctbWV0YWxfYmluZGluZycsICctaW1hZScsICc8aW5maWxlLm1hZT4nLCAnLW9tYWUnLCAnPG91dGZpbGUubWFlPic=

> <r_epik_Ionization_Penalty>
1.2222

> <r_epik_Ionization_Penalty_Charging>
1.2222

> <r_epik_Ionization_Penalty_Neutral>
3.40394e-06

> <r_epik_State_Penalty>
1.23781

> <r_epik_Charging_Adjusted_Penalty>
2.46001

> <i_epik_Tot_Q>
2

> <i_epik_Tot_abs_Q>
2

> <r_epik_Metal_State_Penalty>
5.24642

> <b_epik_Metal_Only>
0

> <s_lp_Force_Field>
OPLS_2005

> <r_lp_Energy>
16.8702

> <b_lp_Chiralities_Consistent>
1

> <s_lp_Variant>
AV-unprocessed.smi:1224-3

> <Gold.Version>
5.8.1

> <Gold.Id.Protein>
6NUR|6NUR_protein|mol2

> <Gold.PLP.Fitness>
63.8970

> <Gold.PLP.PLP>
-45.2120

> <Gold.PLP.part.hbond>
-4.0000

> <Gold.PLP.part.metal>
0.0000

> <Gold.PLP.part.buried>
0.1572

> <Gold.PLP.part.nonpolar>
-42.4821

> <Gold.PLP.part.repulsive>
0.2695

> <Gold.PLP.ligand.clash>
0.0000

> <Gold.PLP.ligand.torsion>
0.5571

> <Gold.PLP.Chemscore.Hbond>
5.9840

> <Gold.PLP.Chemscore.CHOScore>
0.5704

> <Gold.PLP.Chemscore.Metal>
0.0000

> <Gold.Chemscore.Hbonds>
donor molecule, donor type, donor heavy atom, donor atom, acceptor molecule, acceptor atom, score
      L1  H     5    45       P1  8028  1.95
      L1  H    10    31       P1  7948  1.00
      L1  H    12    34       P1  7957  1.00
      L1  H    12    44       P1  7948  2.00
      L1  C     6    27       P1  7957  0.62

> <Gold.PLP.Chemscore.Internal.Correction>
0.1359

> <Gold.Rescore>
     Score         DG    S(hbond)    S(metal)    S(lipo)     H(rot)  DE(clash)    DE(int)     intcor
     24.59     -25.20       3.87        0.00     112.93       2.50       0.16       0.44       ----

> <Gold.Chemscore.Fitness>
24.5945

> <Gold.Chemscore.DG>
-25.1981

> <Gold.Chemscore.ZeroCoef>
-5.4800

> <Gold.Chemscore.Hbond>
3.8672

> <Gold.Chemscore.Metal>
0.0000

> <Gold.Chemscore.Lipo>
112.9257

> <Gold.Chemscore.Internal_Hbond>
0.0000

> <Gold.Chemscore.DEClash>
0.1592

> <Gold.Chemscore.DEInternal>
0.4444

> <Gold.Chemscore.Rot>
2.5042

> <Gold.Chemscore.Internal.Correction>
   9.000000E+99

> <Gold.Chemscore.Hbonds>
donor molecule, donor type, donor heavy atom, donor atom, acceptor molecule, acceptor atom, score
      L1  H     5    45       P1  8028  0.93
      L1  H    10    31       P1  7948  0.98
      L1  H    12    34       P1  7957  0.96
      L1  H    12    44       P1  7948  0.98

> <Gold.Chemscore.Hbond.Weighted>
-12.9166

> <Gold.Chemscore.Metal.Weighted>
-0.0000

> <Gold.Chemscore.Lipo.Weighted>
-13.2123

> <Gold.Chemscore.Internal_Hbond.Weighted>
0.0000

> <Gold.Chemscore.DEClash.Weighted>
0.1592

> <Gold.Chemscore.DEInternal.Weighted>
0.4444

> <Gold.Chemscore.Rot.Weighted>
6.4108

> <Gold.Chemscore.Internal.Correction.Weighted>
   9.000000E+99

> <Gold.Protein.RotatedTorsions>
[ 6907 6896 6895 6894 ] final   52.56 input  -60.11 | X-H torsion
[ 7974 7965 7964 7962 ] final  -30.64 input  175.53 | X-H torsion
[ 8008 7997 7996 7995 ] final  -72.71 input   59.86 | X-H torsion
[ 10167 10162 10161 10158 ] final   84.30 input  -65.29 | X-H torsion
[ 10718 10713 10712 10709 ] final  -78.72 input   66.30 | X-H torsion
[ 10763 10752 10751 10750 ] final -148.31 input  -60.55 | X-H torsion
[ 11005 11000 10999 10996 ] final   76.50 input  -57.11 | X-H torsion

> <Gold.Protein.ActiveResidues>
 VAL166  LYS551  ARG553  GLY616  TRP617  ASP618  TYR619  PRO620  LYS621  CYS622 
 ASP623  PHE694  ASN695  SER759  ASP760  ASP761  ALA762  ILE779  LEU786  VAL792 
 PHE793  MET794  SER795  GLU796  ALA797  LYS798  CYS799  TRP800  GLU811  SER814 

> <Gold.Protein.RotatedAtoms>
  152.3246  134.7338  160.0304 H   0  0  0  0  0  0  0  0  0  0  0  0  # atno 6907 bound_to 6896
  151.7775  133.3341  159.3470 H   0  0  0  0  0  0  0  0  0  0  0  0  # atno 6908 bound_to 6896
  150.7388  134.5893  159.6024 H   0  0  0  0  0  0  0  0  0  0  0  0  # atno 6909 bound_to 6896
  146.1127  140.5566  142.8770 H   0  0  0  0  0  0  0  0  0  0  0  0  # atno 7974 bound_to 7965
  154.5188  140.0792  156.8133 H   0  0  0  0  0  0  0  0  0  0  0  0  # atno 8008 bound_to 7997
  155.3621  140.3418  155.4223 H   0  0  0  0  0  0  0  0  0  0  0  0  # atno 8009 bound_to 7997
  156.1658  140.1603  156.8521 H   0  0  0  0  0  0  0  0  0  0  0  0  # atno 8010 bound_to 7997
  139.9095  144.6281  150.8552 H   0  0  0  0  0  0  0  0  0  0  0  0  # atno 10167 bound_to 10162
  156.0110  130.4526  150.3539 H   0  0  0  0  0  0  0  0  0  0  0  0  # atno 10718 bound_to 10713
  154.8239  135.3337  154.6954 H   0  0  0  0  0  0  0  0  0  0  0  0  # atno 10763 bound_to 10752
  153.7583  135.6934  153.4935 H   0  0  0  0  0  0  0  0  0  0  0  0  # atno 10764 bound_to 10752
  153.2128  135.4476  155.0349 H   0  0  0  0  0  0  0  0  0  0  0  0  # atno 10765 bound_to 10752
  139.9296  134.7605  156.1403 H   0  0  0  0  0  0  0  0  0  0  0  0  # atno 11005 bound_to 11000
  144.7526  140.5228  143.6791 LP  0  0  0  0  0  0  0  0  0  0  0  0  # atno 17320 bound_to 7965
  145.5630  139.1480  143.3331 LP  0  0  0  0  0  0  0  0  0  0  0  0  # atno 17321 bound_to 7965
  140.7689  143.3376  151.2275 LP  0  0  0  0  0  0  0  0  0  0  0  0  # atno 17342 bound_to 10162
  139.6955  143.9620  152.2880 LP  0  0  0  0  0  0  0  0  0  0  0  0  # atno 17343 bound_to 10162
  157.1630  131.0350  151.2832 LP  0  0  0  0  0  0  0  0  0  0  0  0  # atno 17370 bound_to 10713
  157.4295  130.7482  149.6978 LP  0  0  0  0  0  0  0  0  0  0  0  0  # atno 17371 bound_to 10713
  141.0876  133.6728  156.2469 LP  0  0  0  0  0  0  0  0  0  0  0  0  # atno 17394 bound_to 11000
  140.6240  134.5332  157.5551 LP  0  0  0  0  0  0  0  0  0  0  0  0  # atno 17395 bound_to 11000

$$$$
