AV-unprocessed.smi:2693|AV-procd|sdf|10398|dock6
  -GOLD-   2272014433D 1   1.00000     0.00000
 Structure written by MMmdl.
 45 47  0  0  0  0  0  0  0  0  1 V2000
  144.3307  131.7365  150.5321 C   0  0  0  0  0  0  0  0  0  0  0  0
  145.1251  132.9427  150.7454 N   0  0  0  0  0  0  0  0  0  0  0  0
  146.5445  132.8860  150.4084 C   0  0  0  0  0  0  0  0  0  0  0  0
  144.5478  134.1097  151.2545 C   0  0  0  0  0  0  0  0  0  0  0  0
  145.2399  135.2493  151.1237 N   0  0  0  0  0  0  0  0  0  0  0  0
  144.6831  136.3786  151.6099 C   0  0  0  0  0  0  0  0  0  0  0  0
  143.4239  136.3782  152.2427 C   0  0  0  0  0  0  0  0  0  0  0  0
  142.8843  137.6066  152.7098 N   0  0  0  0  0  0  0  0  0  0  0  0
  141.7123  137.8164  153.3323 C   0  0  0  0  0  0  0  0  0  0  0  0
  140.9347  136.9363  153.7000 O   0  0  0  0  0  0  0  0  0  0  0  0
  141.4906  139.1231  153.5241 N   0  0  0  0  0  0  0  0  0  0  0  0
  140.2893  139.6695  154.1443 C   0  0  1  0  0  0  0  0  0  0  0  0
  139.8244  140.9657  153.4802 C   0  0  2  0  0  0  0  0  0  0  0  0
  139.7298  142.3858  153.9111 C   0  0  0  0  0  0  0  0  0  0  0  0
  138.2932  142.6691  153.3958 C   0  0  0  0  0  0  0  0  0  0  0  0
  137.7397  141.3806  153.0320 O   0  0  0  0  0  0  0  0  0  0  0  0
  138.4406  140.4708  153.8545 C   0  0  1  0  0  0  0  0  0  0  0  0
  138.9530  139.0403  153.5947 C   0  0  0  0  0  0  0  0  0  0  0  0
  138.8956  138.5090  152.1479 C   0  0  0  0  0  0  0  0  0  0  0  0
  138.3300  137.9556  154.4741 C   0  0  0  0  0  0  0  0  0  0  0  0
  142.7758  135.1224  152.3212 C   0  0  0  0  0  0  0  0  0  0  0  0
  143.3425  134.0006  151.8287 N   0  0  0  0  0  0  0  0  0  0  0  0
  143.9397  131.3676  151.4808 H   0  0  0  0  0  0  0  0  0  0  0  0
  144.9170  130.9372  150.0789 H   0  0  0  0  0  0  0  0  0  0  0  0
  143.4895  131.9462  149.8705 H   0  0  0  0  0  0  0  0  0  0  0  0
  147.1535  133.1563  151.2719 H   0  0  0  0  0  0  0  0  0  0  0  0
  146.7698  133.5799  149.5980 H   0  0  0  0  0  0  0  0  0  0  0  0
  146.8485  131.8890  150.0897 H   0  0  0  0  0  0  0  0  0  0  0  0
  145.2504  137.2901  151.4913 H   0  0  0  0  0  0  0  0  0  0  0  0
  143.4612  138.4207  152.5560 H   0  0  0  0  0  0  0  0  0  0  0  0
  142.1828  139.7830  153.2014 H   0  0  0  0  0  0  0  0  0  0  0  0
  140.3396  139.7399  155.2348 H   0  0  0  0  0  0  0  0  0  0  0  0
  140.0154  140.9309  152.4051 H   0  0  0  0  0  0  0  0  0  0  0  0
  139.8034  142.4894  154.9946 H   0  0  0  0  0  0  0  0  0  0  0  0
  140.4774  143.0239  153.4394 H   0  0  0  0  0  0  0  0  0  0  0  0
  137.6880  143.1390  154.1719 H   0  0  0  0  0  0  0  0  0  0  0  0
  138.2944  143.3240  152.5241 H   0  0  0  0  0  0  0  0  0  0  0  0
  138.1845  140.6275  154.9087 H   0  0  0  0  0  0  0  0  0  0  0  0
  137.8649  138.3432  151.8329 H   0  0  0  0  0  0  0  0  0  0  0  0
  139.4179  137.5562  152.0550 H   0  0  0  0  0  0  0  0  0  0  0  0
  139.3402  139.1796  151.4150 H   0  0  0  0  0  0  0  0  0  0  0  0
  137.2883  137.7745  154.2082 H   0  0  0  0  0  0  0  0  0  0  0  0
  138.3505  138.2332  155.5283 H   0  0  0  0  0  0  0  0  0  0  0  0
  138.8635  137.0091  154.3826 H   0  0  0  0  0  0  0  0  0  0  0  0
  141.7951  134.9953  152.7520 H   0  0  0  0  0  0  0  0  0  0  0  0
  1  2  1  0  0  0  0
  1 23  1  0  0  0  0
  1 24  1  0  0  0  0
  1 25  1  0  0  0  0
  2  3  1  0  0  0  0
  2  4  1  0  0  0  0
  3 26  1  0  0  0  0
  3 27  1  0  0  0  0
  3 28  1  0  0  0  0
  4 22  1  0  0  0  0
  4  5  2  0  0  0  0
  5  6  1  0  0  0  0
  6  7  2  0  0  0  0
  6 29  1  0  0  0  0
  7  8  1  0  0  0  0
  7 21  1  0  0  0  0
  8  9  1  0  0  0  0
  8 30  1  0  0  0  0
  9 10  2  0  0  0  0
  9 11  1  0  0  0  0
 11 12  1  0  0  0  0
 11 31  1  0  0  0  0
 12 18  1  0  0  0  0
 12 13  1  0  0  0  0
 12 32  1  0  0  0  0
 13 17  1  0  0  0  0
 13 14  1  0  0  0  0
 13 33  1  0  0  0  0
 14 15  1  0  0  0  0
 14 34  1  0  0  0  0
 14 35  1  0  0  0  0
 15 16  1  0  0  0  0
 15 36  1  0  0  0  0
 15 37  1  0  0  0  0
 16 17  1  0  0  0  0
 17 18  1  0  0  0  0
 17 38  1  0  0  0  0
 18 19  1  0  0  0  0
 18 20  1  0  0  0  0
 19 39  1  0  0  0  0
 19 40  1  0  0  0  0
 19 41  1  0  0  0  0
 20 42  1  0  0  0  0
 20 43  1  0  0  0  0
 20 44  1  0  0  0  0
 21 22  2  0  0  0  0
 21 45  1  0  0  0  0
M  END
> <s_m_source_file>
AV-unprocessed.smi

> <i_m_source_file_index>
2693

> <i_lp_mmshare_version>
43012

> <i_f3d_flags>
0

> <s_epik_input>
W0NIM11OKFtDSDNdKWMxbltjSF1jKFtjSF1uMSlbTkhdQyg9TylbTkhdW0NASF0yQyhbQ0gzXSkoW0NIM10pW0NAQEhdKFtDQEhdMjMpT1tDSDJdW0NIMl0z

> <s_epik_cmdline>
J2VwaWtfcHl0aG9uJywgJy1waCcsICc3LjAnLCAnLXRuJywgJzgnLCAnLW1hJywgJzIwMCcsICctbWV0YWxfYmluZGluZycsICctaW1hZScsICc8aW5maWxlLm1hZT4nLCAnLW9tYWUnLCAnPG91dGZpbGUubWFlPic=

> <r_lp_tautomer_probability>
1

> <r_epik_Ionization_Penalty>
0.00031779

> <r_epik_Ionization_Penalty_Charging>
0

> <r_epik_Ionization_Penalty_Neutral>
0.00031779

> <r_epik_State_Penalty>
-0

> <r_epik_Charging_Adjusted_Penalty>
0

> <i_epik_Tot_Q>
0

> <i_epik_Tot_abs_Q>
0

> <r_epik_Metal_State_Penalty>
-0

> <b_epik_Metal_Only>
0

> <s_lp_Force_Field>
OPLS_2005

> <r_lp_Energy>
52.7678

> <b_lp_Chiralities_Consistent>
1

> <s_lp_Variant>
AV-unprocessed.smi:2693-2

> <Gold.Version>
5.8.1

> <Gold.Id.Protein>
6NUR|6NUR_protein|mol2

> <Gold.PLP.Fitness>
39.5314

> <Gold.PLP.PLP>
-32.2903

> <Gold.PLP.part.hbond>
-2.0000

> <Gold.PLP.part.metal>
0.0000

> <Gold.PLP.part.buried>
-4.4791

> <Gold.PLP.part.nonpolar>
-25.8799

> <Gold.PLP.part.repulsive>
0.5202

> <Gold.PLP.ligand.clash>
0.0000

> <Gold.PLP.ligand.torsion>
0.3454

> <Gold.PLP.Chemscore.Hbond>
1.9920

> <Gold.PLP.Chemscore.CHOScore>
0.5628

> <Gold.PLP.Chemscore.Metal>
0.0000

> <Gold.Chemscore.Hbonds>
donor molecule, donor type, donor heavy atom, donor atom, acceptor molecule, acceptor atom, score
      L1  H     8    30       P1 10175  0.98
      L1  H    11    31       P1 10175  1.00
      L1  C     6    29       P1 10171  0.45

> <Gold.PLP.Chemscore.Internal.Correction>
0.2675

> <Gold.Rescore>
     Score         DG    S(hbond)    S(metal)    S(lipo)     H(rot)  DE(clash)    DE(int)     intcor
     13.51     -17.31       1.79        0.00      71.78       1.00       0.04       3.76       ----

> <Gold.Chemscore.Fitness>
13.5102

> <Gold.Chemscore.DG>
-17.3119

> <Gold.Chemscore.ZeroCoef>
-5.4800

> <Gold.Chemscore.Hbond>
1.7946

> <Gold.Chemscore.Metal>
0.0000

> <Gold.Chemscore.Lipo>
71.7762

> <Gold.Chemscore.Internal_Hbond>
0.0000

> <Gold.Chemscore.DEClash>
0.0382

> <Gold.Chemscore.DEInternal>
3.7634

> <Gold.Chemscore.Rot>
1.0000

> <Gold.Chemscore.Internal.Correction>
   9.000000E+99

> <Gold.Chemscore.Hbonds>
donor molecule, donor type, donor heavy atom, donor atom, acceptor molecule, acceptor atom, score
      L1  H     8    30       P1 10175  0.88
      L1  H    11    31       P1 10175  0.82

> <Gold.Chemscore.Hbond.Weighted>
-5.9940

> <Gold.Chemscore.Metal.Weighted>
-0.0000

> <Gold.Chemscore.Lipo.Weighted>
-8.3978

> <Gold.Chemscore.Internal_Hbond.Weighted>
0.0000

> <Gold.Chemscore.DEClash.Weighted>
0.0382

> <Gold.Chemscore.DEInternal.Weighted>
3.7634

> <Gold.Chemscore.Rot.Weighted>
2.5600

> <Gold.Chemscore.Internal.Correction.Weighted>
   9.000000E+99

> <Gold.Protein.RotatedTorsions>
[ 6907 6896 6895 6894 ] final  -82.82 input  -60.11 | X-H torsion
[ 7974 7965 7964 7962 ] final   46.08 input  175.53 | X-H torsion
[ 8008 7997 7996 7995 ] final   -5.10 input   59.86 | X-H torsion
[ 10167 10162 10161 10158 ] final  -10.93 input  -65.29 | X-H torsion
[ 10718 10713 10712 10709 ] final  -38.62 input   66.30 | X-H torsion
[ 10763 10752 10751 10750 ] final   53.28 input  -60.55 | X-H torsion
[ 11005 11000 10999 10996 ] final -123.94 input  -57.11 | X-H torsion

> <Gold.Protein.ActiveResidues>
 VAL166  LYS551  ARG553  GLY616  TRP617  ASP618  TYR619  PRO620  LYS621  CYS622 
 ASP623  PHE694  ASN695  SER759  ASP760  ASP761  ALA762  ILE779  LEU786  VAL792 
 PHE793  MET794  SER795  GLU796  ALA797  LYS798  CYS799  TRP800  GLU811  SER814 

> <Gold.Protein.RotatedAtoms>
  150.6892  134.3607  159.4948 H   0  0  0  0  0  0  0  0  0  0  0  0  # atno 6907 bound_to 6896
  152.1436  134.9041  160.0561 H   0  0  0  0  0  0  0  0  0  0  0  0  # atno 6908 bound_to 6896
  152.0165  133.3847  159.4278 H   0  0  0  0  0  0  0  0  0  0  0  0  # atno 6909 bound_to 6896
  146.0422  139.4894  142.9771 H   0  0  0  0  0  0  0  0  0  0  0  0  # atno 7974 bound_to 7965
  154.6074  140.2467  155.7713 H   0  0  0  0  0  0  0  0  0  0  0  0  # atno 8008 bound_to 7997
  156.2349  140.2953  156.0238 H   0  0  0  0  0  0  0  0  0  0  0  0  # atno 8009 bound_to 7997
  155.2109  140.0397  157.2923 H   0  0  0  0  0  0  0  0  0  0  0  0  # atno 8010 bound_to 7997
  140.7126  143.5694  150.9108 H   0  0  0  0  0  0  0  0  0  0  0  0  # atno 10167 bound_to 10162
  156.3017  130.4241  149.8137 H   0  0  0  0  0  0  0  0  0  0  0  0  # atno 10718 bound_to 10713
  152.9794  135.5784  154.4716 H   0  0  0  0  0  0  0  0  0  0  0  0  # atno 10763 bound_to 10752
  154.4278  135.2773  155.1935 H   0  0  0  0  0  0  0  0  0  0  0  0  # atno 10764 bound_to 10752
  154.3656  135.6179  153.5767 H   0  0  0  0  0  0  0  0  0  0  0  0  # atno 10765 bound_to 10752
  140.9880  134.0580  157.3688 H   0  0  0  0  0  0  0  0  0  0  0  0  # atno 11005 bound_to 11000
  145.6866  141.0176  143.1578 LP  0  0  0  0  0  0  0  0  0  0  0  0  # atno 17320 bound_to 7965
  144.7080  139.8483  143.7424 LP  0  0  0  0  0  0  0  0  0  0  0  0  # atno 17321 bound_to 7965
  139.9420  143.6371  152.3051 LP  0  0  0  0  0  0  0  0  0  0  0  0  # atno 17342 bound_to 10162
  139.6859  144.7651  151.1525 LP  0  0  0  0  0  0  0  0  0  0  0  0  # atno 17343 bound_to 10162
  156.5513  130.8343  151.3300 LP  0  0  0  0  0  0  0  0  0  0  0  0  # atno 17370 bound_to 10713
  157.7369  130.9787  150.2165 LP  0  0  0  0  0  0  0  0  0  0  0  0  # atno 17371 bound_to 10713
  139.8979  135.0152  156.7123 LP  0  0  0  0  0  0  0  0  0  0  0  0  # atno 17394 bound_to 11000
  140.7085  133.9244  155.8069 LP  0  0  0  0  0  0  0  0  0  0  0  0  # atno 17395 bound_to 11000

$$$$
