AV-unprocessed.smi:949|AV-procd|sdf|4243|dock3
  -GOLD-   22720 2153D 1   1.00000     0.00000
 Structure written by MMmdl.
 33 34  0  0  0  0  0  0  0  0  2 V2000
  150.6412  141.1451  158.2808 C   0  0  0  0  0  0  0  0  0  0  0  0
  151.1876  142.0339  157.1490 C   0  0  1  0  0  0  0  0  0  0  0  0
  150.2490  142.0742  156.0325 N   0  0  0  0  0  0  0  0  0  0  0  0
  149.9300  140.9481  155.2525 C   0  0  0  0  0  0  0  0  0  0  0  0
  150.6865  139.7494  155.2977 C   0  0  0  0  0  0  0  0  0  0  0  0
  150.3141  138.6578  154.4883 C   0  0  0  0  0  0  0  0  0  0  0  0
  149.2425  138.7574  153.6750 N   0  3  0  0  0  0  0  0  0  0  0  0
  148.4906  139.8748  153.5944 C   0  0  0  0  0  0  0  0  0  0  0  0
  148.8117  141.0025  154.3792 C   0  0  0  0  0  0  0  0  0  0  0  0
  148.0178  142.1475  154.2757 N   0  0  0  0  0  0  0  0  0  0  0  0
  151.4731  143.4614  157.6554 C   0  0  2  0  0  0  0  0  0  0  0  0
  152.5875  143.5514  158.7014 C   0  0  0  0  0  0  0  0  0  0  0  0
  152.2204  144.8194  159.4362 C   0  0  0  0  0  0  0  0  0  0  0  0
  150.7006  144.7137  159.4835 C   0  0  0  0  0  0  0  0  0  0  0  0
  150.3238  143.9955  158.3115 O   0  0  0  0  0  0  0  0  0  0  0  0
  151.3484  141.0804  159.1080 H   0  0  0  0  0  0  0  0  0  0  0  0
  150.4494  140.1275  157.9413 H   0  0  0  0  0  0  0  0  0  0  0  0
  149.7058  141.5417  158.6772 H   0  0  0  0  0  0  0  0  0  0  0  0
  152.1342  141.6217  156.7997 H   0  0  0  0  0  0  0  0  0  0  0  0
  149.8201  142.9604  155.8081 H   0  0  0  0  0  0  0  0  0  0  0  0
  151.5465  139.6434  155.9409 H   0  0  0  0  0  0  0  0  0  0  0  0
  150.8385  137.7135  154.4689 H   0  0  0  0  0  0  0  0  0  0  0  0
  147.6585  139.8314  152.9067 H   0  0  0  0  0  0  0  0  0  0  0  0
  148.2113  142.9772  154.8184 H   0  0  0  0  0  0  0  0  0  0  0  0
  147.2601  142.2060  153.6106 H   0  0  0  0  0  0  0  0  0  0  0  0
  151.7135  144.1214  156.8199 H   0  0  0  0  0  0  0  0  0  0  0  0
  152.5468  142.7011  159.3840 H   0  0  0  0  0  0  0  0  0  0  0  0
  153.5839  143.5884  158.2600 H   0  0  0  0  0  0  0  0  0  0  0  0
  152.6751  144.8931  160.4243 H   0  0  0  0  0  0  0  0  0  0  0  0
  152.5206  145.6911  158.8528 H   0  0  0  0  0  0  0  0  0  0  0  0
  150.3863  144.1394  160.3559 H   0  0  0  0  0  0  0  0  0  0  0  0
  150.2161  145.6894  159.5275 H   0  0  0  0  0  0  0  0  0  0  0  0
  148.9901  137.9554  153.0971 H   0  0  0  0  0  0  0  0  0  0  0  0
  1  2  1  0  0  0  0
  1 16  1  0  0  0  0
  1 17  1  0  0  0  0
  1 18  1  0  0  0  0
  2  3  1  0  0  0  0
  2 11  1  0  0  0  0
  2 19  1  0  0  0  0
  3  4  1  0  0  0  0
  3 20  1  0  0  0  0
  4  9  1  0  0  0  0
  4  5  2  0  0  0  0
  5  6  1  0  0  0  0
  5 21  1  0  0  0  0
  6  7  2  0  0  0  0
  6 22  1  0  0  0  0
  7  8  1  0  0  0  0
  7 33  1  0  0  0  0
  8  9  2  0  0  0  0
  8 23  1  0  0  0  0
  9 10  1  0  0  0  0
 10 24  1  0  0  0  0
 10 25  1  0  0  0  0
 11 15  1  0  0  0  0
 11 12  1  0  0  0  0
 11 26  1  0  0  0  0
 12 13  1  0  0  0  0
 12 27  1  0  0  0  0
 12 28  1  0  0  0  0
 13 14  1  0  0  0  0
 13 29  1  0  0  0  0
 13 30  1  0  0  0  0
 14 15  1  0  0  0  0
 14 31  1  0  0  0  0
 14 32  1  0  0  0  0
M  CHG  1   7   1
M  END
> <s_m_source_file>
AV-unprocessed.smi

> <i_m_source_file_index>
949

> <i_lp_mmshare_version>
43012

> <i_f3d_flags>
0

> <s_epik_input>
TzFbQ0gyXVtDSDJdW0NIMl1bQ0BIXTFbQ0BIXShbQ0gzXSlbTkhdYzJbY0hdW2NIXW5bY0hdYzJbTkgyXQ==

> <s_epik_cmdline>
J2VwaWtfcHl0aG9uJywgJy1waCcsICc3LjAnLCAnLXRuJywgJzgnLCAnLW1hJywgJzIwMCcsICctbWV0YWxfYmluZGluZycsICctaW1hZScsICc8aW5maWxlLm1hZT4nLCAnLW9tYWUnLCAnPG91dGZpbGUubWFlPic=

> <r_epik_Ionization_Penalty>
0.000849261

> <r_epik_Ionization_Penalty_Charging>
0.000847912

> <r_epik_Ionization_Penalty_Neutral>
1.34939e-06

> <r_epik_State_Penalty>
0.000546618

> <r_epik_Charging_Adjusted_Penalty>
0.00139453

> <i_epik_Tot_Q>
1

> <i_epik_Tot_abs_Q>
1

> <r_epik_Metal_State_Penalty>
0.526583

> <b_epik_Metal_Only>
0

> <s_lp_Force_Field>
OPLS_2005

> <r_lp_Energy>
29.423

> <b_lp_Chiralities_Consistent>
1

> <s_lp_Variant>
AV-unprocessed.smi:949-2

> <Gold.Version>
5.8.1

> <Gold.Id.Protein>
6NUR|6NUR_protein|mol2

> <Gold.PLP.Fitness>
45.5871

> <Gold.PLP.PLP>
-34.5121

> <Gold.PLP.part.hbond>
-3.8215

> <Gold.PLP.part.metal>
0.0000

> <Gold.PLP.part.buried>
-1.1172

> <Gold.PLP.part.nonpolar>
-31.0049

> <Gold.PLP.part.repulsive>
0.8617

> <Gold.PLP.ligand.clash>
0.0000

> <Gold.PLP.ligand.torsion>
0.1504

> <Gold.PLP.Chemscore.Hbond>
3.7875

> <Gold.PLP.Chemscore.CHOScore>
0.0000

> <Gold.PLP.Chemscore.Metal>
0.0000

> <Gold.Chemscore.Hbonds>
donor molecule, donor type, donor heavy atom, donor atom, acceptor molecule, acceptor atom, score
      L1  H     3    20       P1  8028  1.00
      L1  H     7    33       P1  7948  1.69
      L1  H    10    24       P1  8028  1.00

> <Gold.PLP.Chemscore.Internal.Correction>
0.0133

> <Gold.Rescore>
     Score         DG    S(hbond)    S(metal)    S(lipo)     H(rot)  DE(clash)    DE(int)     intcor
     21.35     -23.15       2.71        0.00     100.79       1.23       1.59       0.21       ----

> <Gold.Chemscore.Fitness>
21.3475

> <Gold.Chemscore.DG>
-23.1478

> <Gold.Chemscore.ZeroCoef>
-5.4800

> <Gold.Chemscore.Hbond>
2.7056

> <Gold.Chemscore.Metal>
0.0000

> <Gold.Chemscore.Lipo>
100.7852

> <Gold.Chemscore.Internal_Hbond>
0.0000

> <Gold.Chemscore.DEClash>
1.5920

> <Gold.Chemscore.DEInternal>
0.2083

> <Gold.Chemscore.Rot>
1.2347

> <Gold.Chemscore.Internal.Correction>
   9.000000E+99

> <Gold.Chemscore.Hbonds>
donor molecule, donor type, donor heavy atom, donor atom, acceptor molecule, acceptor atom, score
      L1  H     3    20       P1  8028  0.97
      L1  H     7    33       P1  7948  0.82
      L1  H    10    24       P1  8028  0.93

> <Gold.Chemscore.Hbond.Weighted>
-9.0368

> <Gold.Chemscore.Metal.Weighted>
-0.0000

> <Gold.Chemscore.Lipo.Weighted>
-11.7919

> <Gold.Chemscore.Internal_Hbond.Weighted>
0.0000

> <Gold.Chemscore.DEClash.Weighted>
1.5920

> <Gold.Chemscore.DEInternal.Weighted>
0.2083

> <Gold.Chemscore.Rot.Weighted>
3.1609

> <Gold.Chemscore.Internal.Correction.Weighted>
   9.000000E+99

> <Gold.Protein.RotatedTorsions>
[ 6907 6896 6895 6894 ] final   86.66 input  -60.11 | X-H torsion
[ 7974 7965 7964 7962 ] final  159.29 input  175.53 | X-H torsion
[ 8008 7997 7996 7995 ] final  -52.42 input   59.86 | X-H torsion
[ 10167 10162 10161 10158 ] final  174.30 input  -65.29 | X-H torsion
[ 10718 10713 10712 10709 ] final   88.15 input   66.30 | X-H torsion
[ 10763 10752 10751 10750 ] final   75.62 input  -60.55 | X-H torsion
[ 11005 11000 10999 10996 ] final  117.27 input  -57.11 | X-H torsion

> <Gold.Protein.ActiveResidues>
 VAL166  LYS551  ARG553  GLY616  TRP617  ASP618  TYR619  PRO620  LYS621  CYS622 
 ASP623  PHE694  ASN695  SER759  ASP760  ASP761  ALA762  ILE779  LEU786  VAL792 
 PHE793  MET794  SER795  GLU796  ALA797  LYS798  CYS799  TRP800  GLU811  SER814 

> <Gold.Protein.RotatedAtoms>
  152.5398  134.2396  159.8856 H   0  0  0  0  0  0  0  0  0  0  0  0  # atno 6907 bound_to 6896
  151.2364  133.4416  159.2613 H   0  0  0  0  0  0  0  0  0  0  0  0  # atno 6908 bound_to 6896
  151.0667  134.9786  159.8344 H   0  0  0  0  0  0  0  0  0  0  0  0  # atno 6909 bound_to 6896
  144.7798  139.7597  143.6264 H   0  0  0  0  0  0  0  0  0  0  0  0  # atno 7974 bound_to 7965
  154.4106  140.1224  156.4989 H   0  0  0  0  0  0  0  0  0  0  0  0  # atno 8008 bound_to 7997
  155.6915  140.3495  155.4876 H   0  0  0  0  0  0  0  0  0  0  0  0  # atno 8009 bound_to 7997
  155.9464  140.1096  157.1003 H   0  0  0  0  0  0  0  0  0  0  0  0  # atno 8010 bound_to 7997
  139.5137  144.3162  152.0245 H   0  0  0  0  0  0  0  0  0  0  0  0  # atno 10167 bound_to 10162
  157.6946  131.0283  150.3231 H   0  0  0  0  0  0  0  0  0  0  0  0  # atno 10718 bound_to 10713
  153.0667  135.4982  154.8216 H   0  0  0  0  0  0  0  0  0  0  0  0  # atno 10763 bound_to 10752
  154.6964  135.2993  154.9407 H   0  0  0  0  0  0  0  0  0  0  0  0  # atno 10764 bound_to 10752
  154.0145  135.6750  153.4820 H   0  0  0  0  0  0  0  0  0  0  0  0  # atno 10765 bound_to 10752
  139.9069  134.9608  156.7326 H   0  0  0  0  0  0  0  0  0  0  0  0  # atno 11005 bound_to 11000
  146.2000  139.5288  142.9750 LP  0  0  0  0  0  0  0  0  0  0  0  0  # atno 17320 bound_to 7965
  145.6082  141.0344  143.1981 LP  0  0  0  0  0  0  0  0  0  0  0  0  # atno 17321 bound_to 7965
  140.2605  144.4072  150.6187 LP  0  0  0  0  0  0  0  0  0  0  0  0  # atno 17342 bound_to 10162
  140.6160  143.2172  151.6790 LP  0  0  0  0  0  0  0  0  0  0  0  0  # atno 17343 bound_to 10162
  156.3715  130.3864  149.7171 LP  0  0  0  0  0  0  0  0  0  0  0  0  # atno 17370 bound_to 10713
  156.4584  130.7940  151.2961 LP  0  0  0  0  0  0  0  0  0  0  0  0  # atno 17371 bound_to 10713
  140.6913  133.9387  155.7968 LP  0  0  0  0  0  0  0  0  0  0  0  0  # atno 17394 bound_to 11000
  141.0439  134.0581  157.3868 LP  0  0  0  0  0  0  0  0  0  0  0  0  # atno 17395 bound_to 11000

$$$$
