AV-unprocessed.smi:414|AV-procd|sdf|2517|dock8
  -GOLD-   2262022463D 1   1.00000     0.00000
 Structure written by MMmdl.
 37 38  0  0  0  0  0  0  0  0  2 V2000
  150.6698  141.9412  157.5378 C   0  0  0  0  0  0  0  0  0  0  0  0
  150.8104  141.2583  156.1700 C   0  0  2  0  0  0  0  0  0  0  0  0
  149.4345  140.9150  155.5677 C   0  0  0  0  0  0  0  0  0  0  0  0
  149.5695  140.2262  154.1980 C   0  0  0  0  0  0  0  0  0  0  0  0
  150.4641  138.9705  154.2614 C   0  0  2  0  0  0  0  0  0  0  0  0
  149.8132  137.8909  155.0010 N   0  0  0  0  0  0  0  0  0  0  0  0
  150.2949  136.6481  155.1537 C   0  0  0  0  0  0  0  0  0  0  0  0
  151.3560  136.2678  154.6571 O   0  0  0  0  0  0  0  0  0  0  0  0
  149.4232  135.6807  155.9648 C   0  0  0  0  0  0  0  0  0  0  0  0
  149.4409  134.3132  155.4216 N   0  0  0  0  0  0  0  0  0  0  0  0
  149.2028  134.1504  154.0454 C   0  0  0  0  0  0  0  0  0  0  0  0
  149.2054  132.9363  153.4629 C   0  0  0  0  0  0  0  0  0  0  0  0
  149.4624  131.7700  154.2990 C   0  0  0  0  0  0  0  0  0  0  0  0
  149.4618  130.6528  153.7857 O   0  0  0  0  0  0  0  0  0  0  0  0
  149.6933  131.9803  155.6281 N   0  5  0  0  0  0  0  0  0  0  0  0
  149.6914  133.2216  156.2060 C   0  0  0  0  0  0  0  0  0  0  0  0
  149.9059  133.3894  157.4071 O   0  0  0  0  0  0  0  0  0  0  0  0
  151.8298  139.3016  154.8932 C   0  0  0  0  0  0  0  0  0  0  0  0
  151.6884  139.9956  156.2597 C   0  0  0  0  0  0  0  0  0  0  0  0
  150.1719  141.2898  158.2569 H   0  0  0  0  0  0  0  0  0  0  0  0
  150.0865  142.8591  157.4607 H   0  0  0  0  0  0  0  0  0  0  0  0
  151.6456  142.2045  157.9474 H   0  0  0  0  0  0  0  0  0  0  0  0
  151.3042  141.9637  155.5001 H   0  0  0  0  0  0  0  0  0  0  0  0
  148.8835  140.2664  156.2501 H   0  0  0  0  0  0  0  0  0  0  0  0
  148.8385  141.8220  155.4602 H   0  0  0  0  0  0  0  0  0  0  0  0
  148.5828  139.9727  153.8088 H   0  0  0  0  0  0  0  0  0  0  0  0
  150.0000  140.9330  153.4875 H   0  0  0  0  0  0  0  0  0  0  0  0
  150.6471  138.6226  153.2430 H   0  0  0  0  0  0  0  0  0  0  0  0
  148.9318  138.1104  155.4422 H   0  0  0  0  0  0  0  0  0  0  0  0
  149.7397  135.6746  157.0099 H   0  0  0  0  0  0  0  0  0  0  0  0
  148.4054  136.0724  155.9775 H   0  0  0  0  0  0  0  0  0  0  0  0
  149.0274  135.0644  153.4972 H   0  0  0  0  0  0  0  0  0  0  0  0
  149.0254  132.8288  152.4033 H   0  0  0  0  0  0  0  0  0  0  0  0
  152.4280  138.3951  154.9945 H   0  0  0  0  0  0  0  0  0  0  0  0
  152.3845  139.9558  154.2193 H   0  0  0  0  0  0  0  0  0  0  0  0
  152.6775  140.2563  156.6375 H   0  0  0  0  0  0  0  0  0  0  0  0
  151.2602  139.2990  156.9816 H   0  0  0  0  0  0  0  0  0  0  0  0
  1  2  1  0  0  0  0
  1 20  1  0  0  0  0
  1 21  1  0  0  0  0
  1 22  1  0  0  0  0
  2 19  1  0  0  0  0
  2  3  1  0  0  0  0
  2 23  1  0  0  0  0
  3  4  1  0  0  0  0
  3 24  1  0  0  0  0
  3 25  1  0  0  0  0
  4  5  1  0  0  0  0
  4 26  1  0  0  0  0
  4 27  1  0  0  0  0
  5  6  1  0  0  0  0
  5 18  1  0  0  0  0
  5 28  1  0  0  0  0
  6  7  1  0  0  0  0
  6 29  1  0  0  0  0
  7  8  2  0  0  0  0
  7  9  1  0  0  0  0
  9 10  1  0  0  0  0
  9 30  1  0  0  0  0
  9 31  1  0  0  0  0
 10 16  1  0  0  0  0
 10 11  1  0  0  0  0
 11 12  2  0  0  0  0
 11 32  1  0  0  0  0
 12 13  1  0  0  0  0
 12 33  1  0  0  0  0
 13 14  2  0  0  0  0
 13 15  1  0  0  0  0
 15 16  1  0  0  0  0
 16 17  2  0  0  0  0
 18 19  1  0  0  0  0
 18 34  1  0  0  0  0
 18 35  1  0  0  0  0
 19 36  1  0  0  0  0
 19 37  1  0  0  0  0
M  CHG  1  15  -1
M  END
> <s_m_source_file>
AV-unprocessed.smi

> <i_m_source_file_index>
414

> <i_lp_mmshare_version>
43012

> <i_f3d_flags>
0

> <s_epik_input>
W0NIM11bQ0BASF0xW0NIMl1bQ0gyXVtDQEhdKFtDSDJdW0NIMl0xKVtOSF1DKD1PKVtDSDJdbjJbY0hdW2NIXWMoPU8pW25IXWMyPU8=

> <s_epik_cmdline>
J2VwaWtfcHl0aG9uJywgJy1waCcsICc3LjAnLCAnLXRuJywgJzgnLCAnLW1hJywgJzIwMCcsICctbWV0YWxfYmluZGluZycsICctaW1hZScsICc8aW5maWxlLm1hZT4nLCAnLW9tYWUnLCAnPG91dGZpbGUubWFlPic=

> <r_lp_tautomer_probability>
0.999537

> <r_epik_Ionization_Penalty>
3.11551

> <r_epik_Ionization_Penalty_Charging>
2.90498e-08

> <r_epik_Ionization_Penalty_Neutral>
3.11551

> <r_epik_State_Penalty>
3.11459

> <r_epik_Charging_Adjusted_Penalty>
3.11459

> <i_epik_Tot_Q>
-1

> <i_epik_Tot_abs_Q>
1

> <r_epik_Metal_State_Penalty>
0.463083

> <b_epik_Metal_Only>
1

> <s_lp_Force_Field>
OPLS_2005

> <r_lp_Energy>
16.6581

> <b_lp_Chiralities_Consistent>
1

> <s_lp_Variant>
AV-unprocessed.smi:414-4

> <Gold.Version>
5.8.1

> <Gold.Id.Protein>
6NUR|6NUR_protein|mol2

> <Gold.PLP.Fitness>
42.0310

> <Gold.PLP.PLP>
-33.8785

> <Gold.PLP.part.hbond>
-2.0000

> <Gold.PLP.part.metal>
0.0000

> <Gold.PLP.part.buried>
-2.5045

> <Gold.PLP.part.nonpolar>
-29.6193

> <Gold.PLP.part.repulsive>
0.2555

> <Gold.PLP.ligand.clash>
0.0000

> <Gold.PLP.ligand.torsion>
0.4277

> <Gold.PLP.Chemscore.Hbond>
2.0000

> <Gold.PLP.Chemscore.CHOScore>
1.0000

> <Gold.PLP.Chemscore.Metal>
0.0000

> <Gold.Chemscore.Hbonds>
donor molecule, donor type, donor heavy atom, donor atom, acceptor molecule, acceptor atom, score
      P1  H  6896  6909       L1    17  0.84
      P1  H 10752 10765       L1     8  1.00
      L1  C    11    32       P1  7948  0.86

> <Gold.PLP.Chemscore.Internal.Correction>
0.0080

> <Gold.Rescore>
     Score         DG    S(hbond)    S(metal)    S(lipo)     H(rot)  DE(clash)    DE(int)     intcor
     14.41     -15.22       1.99        0.00      62.70       1.65       0.38       0.43       ----

> <Gold.Chemscore.Fitness>
14.4080

> <Gold.Chemscore.DG>
-15.2221

> <Gold.Chemscore.ZeroCoef>
-5.4800

> <Gold.Chemscore.Hbond>
1.9889

> <Gold.Chemscore.Metal>
0.0000

> <Gold.Chemscore.Lipo>
62.6991

> <Gold.Chemscore.Internal_Hbond>
0.0000

> <Gold.Chemscore.DEClash>
0.3794

> <Gold.Chemscore.DEInternal>
0.4347

> <Gold.Chemscore.Rot>
1.6549

> <Gold.Chemscore.Internal.Correction>
   9.000000E+99

> <Gold.Chemscore.Hbonds>
donor molecule, donor type, donor heavy atom, donor atom, acceptor molecule, acceptor atom, score
      P1  H  6896  6909       L1    17  0.81
      P1  H 10752 10765       L1     8  0.96

> <Gold.Chemscore.Hbond.Weighted>
-6.6428

> <Gold.Chemscore.Metal.Weighted>
-0.0000

> <Gold.Chemscore.Lipo.Weighted>
-7.3358

> <Gold.Chemscore.Internal_Hbond.Weighted>
0.0000

> <Gold.Chemscore.DEClash.Weighted>
0.3794

> <Gold.Chemscore.DEInternal.Weighted>
0.4347

> <Gold.Chemscore.Rot.Weighted>
4.2364

> <Gold.Chemscore.Internal.Correction.Weighted>
   9.000000E+99

> <Gold.Protein.RotatedTorsions>
[ 6907 6896 6895 6894 ] final  -12.56 input  -60.11 | X-H torsion
[ 7974 7965 7964 7962 ] final   64.04 input  175.53 | X-H torsion
[ 8008 7997 7996 7995 ] final  -51.13 input   59.86 | X-H torsion
[ 10167 10162 10161 10158 ] final   70.43 input  -65.29 | X-H torsion
[ 10718 10713 10712 10709 ] final   94.58 input   66.30 | X-H torsion
[ 10763 10752 10751 10750 ] final  153.87 input  -60.55 | X-H torsion
[ 11005 11000 10999 10996 ] final  -73.13 input  -57.11 | X-H torsion

> <Gold.Protein.ActiveResidues>
 VAL166  LYS551  ARG553  GLY616  TRP617  ASP618  TYR619  PRO620  LYS621  CYS622 
 ASP623  PHE694  ASN695  SER759  ASP760  ASP761  ALA762  ILE779  LEU786  VAL792 
 PHE793  MET794  SER795  GLU796  ALA797  LYS798  CYS799  TRP800  GLU811  SER814 

> <Gold.Protein.RotatedAtoms>
  151.3686  135.0918  159.9457 H   0  0  0  0  0  0  0  0  0  0  0  0  # atno 6907 bound_to 6896
  152.5142  133.9187  159.7534 H   0  0  0  0  0  0  0  0  0  0  0  0  # atno 6908 bound_to 6896
  150.9596  133.6405  159.2786 H   0  0  0  0  0  0  0  0  0  0  0  0  # atno 6909 bound_to 6896
  145.8548  139.3277  143.0854 H   0  0  0  0  0  0  0  0  0  0  0  0  # atno 7974 bound_to 7965
  154.4076  140.1255  156.4779 H   0  0  0  0  0  0  0  0  0  0  0  0  # atno 8008 bound_to 7997
  155.7115  140.3494  155.4956 H   0  0  0  0  0  0  0  0  0  0  0  0  # atno 8009 bound_to 7997
  155.9296  140.1067  157.1132 H   0  0  0  0  0  0  0  0  0  0  0  0  # atno 8010 bound_to 7997
  140.0570  144.5264  150.7321 H   0  0  0  0  0  0  0  0  0  0  0  0  # atno 10167 bound_to 10162
  157.6946  131.0517  150.4208 H   0  0  0  0  0  0  0  0  0  0  0  0  # atno 10718 bound_to 10713
  154.1432  135.2819  155.3155 H   0  0  0  0  0  0  0  0  0  0  0  0  # atno 10763 bound_to 10752
  154.6272  135.5447  153.7643 H   0  0  0  0  0  0  0  0  0  0  0  0  # atno 10764 bound_to 10752
  153.0244  135.6453  154.1578 H   0  0  0  0  0  0  0  0  0  0  0  0  # atno 10765 bound_to 10752
  141.1618  133.6868  156.7165 H   0  0  0  0  0  0  0  0  0  0  0  0  # atno 11005 bound_to 11000
  145.9316  140.9044  143.0353 LP  0  0  0  0  0  0  0  0  0  0  0  0  # atno 17320 bound_to 7965
  144.6728  140.1426  143.7436 LP  0  0  0  0  0  0  0  0  0  0  0  0  # atno 17321 bound_to 7965
  140.7190  143.2570  151.4342 LP  0  0  0  0  0  0  0  0  0  0  0  0  # atno 17342 bound_to 10162
  139.5917  144.1484  152.2096 LP  0  0  0  0  0  0  0  0  0  0  0  0  # atno 17343 bound_to 10162
  156.4584  130.4026  149.6592 LP  0  0  0  0  0  0  0  0  0  0  0  0  # atno 17370 bound_to 10713
  156.3716  130.7533  151.2517 LP  0  0  0  0  0  0  0  0  0  0  0  0  # atno 17371 bound_to 10713
  140.2848  134.8288  157.3965 LP  0  0  0  0  0  0  0  0  0  0  0  0  # atno 17394 bound_to 11000
  140.1400  134.4984  155.8039 LP  0  0  0  0  0  0  0  0  0  0  0  0  # atno 17395 bound_to 11000

$$$$
