AV-unprocessed.smi:578|AV-procd|sdf|2982|dock3
  -GOLD-   2262023493D 1   1.00000     0.00000
 Structure written by MMmdl.
 33 34  0  0  0  0  0  0  0  0  3 V2000
  150.6921  145.2994  159.4477 C   0  0  0  0  0  0  0  0  0  0  0  0
  151.7394  144.1841  159.3640 C   0  0  2  0  0  0  0  0  0  0  0  0
  151.2465  142.9882  158.5268 C   0  0  0  0  0  0  0  0  0  0  0  0
  152.2336  141.9170  158.5557 N   0  0  0  0  0  0  0  0  0  0  0  0
  151.9078  140.8394  157.7208 C   0  0  0  0  0  0  0  0  0  0  0  0
  151.3238  141.0956  156.4619 C   0  0  0  0  0  0  0  0  0  0  0  0
  150.9945  140.0137  155.6217 C   0  0  0  0  0  0  0  0  0  0  0  0
  151.2399  138.7501  156.0282 N   0  3  0  0  0  0  0  0  0  0  0  0
  151.7967  138.4477  157.2233 C   0  0  0  0  0  0  0  0  0  0  0  0
  152.0240  137.0065  157.5722 C   0  0  0  0  0  0  0  0  0  0  0  0
  152.0931  136.6833  158.7784 O   0  0  0  0  0  0  0  0  0  0  0  0
  152.1364  136.1784  156.6408 O   0  5  0  0  0  0  0  0  0  0  0  0
  152.1458  139.4981  158.1033 C   0  0  0  0  0  0  0  0  0  0  0  0
  152.5795  141.5161  159.9133 C   0  0  0  0  0  0  0  0  0  0  0  0
  153.0472  142.7406  160.7227 C   0  0  2  0  0  0  0  0  0  0  0  0
  153.3295  142.3896  162.1873 C   0  0  0  0  0  0  0  0  0  0  0  0
  152.0281  143.7379  160.6875 O   0  0  0  0  0  0  0  0  0  0  0  0
  150.4456  145.6816  158.4567 H   0  0  0  0  0  0  0  0  0  0  0  0
  151.0600  146.1349  160.0437 H   0  0  0  0  0  0  0  0  0  0  0  0
  149.7702  144.9424  159.9079 H   0  0  0  0  0  0  0  0  0  0  0  0
  152.6481  144.5942  158.9197 H   0  0  0  0  0  0  0  0  0  0  0  0
  150.2959  142.6256  158.9208 H   0  0  0  0  0  0  0  0  0  0  0  0
  151.0717  143.2989  157.4957 H   0  0  0  0  0  0  0  0  0  0  0  0
  151.1295  142.1093  156.1425 H   0  0  0  0  0  0  0  0  0  0  0  0
  150.5459  140.1187  154.6450 H   0  0  0  0  0  0  0  0  0  0  0  0
  152.5910  139.2778  159.0630 H   0  0  0  0  0  0  0  0  0  0  0  0
  151.7140  141.0604  160.3967 H   0  0  0  0  0  0  0  0  0  0  0  0
  153.3675  140.7623  159.8839 H   0  0  0  0  0  0  0  0  0  0  0  0
  153.9592  143.1467  160.2815 H   0  0  0  0  0  0  0  0  0  0  0  0
  154.1130  141.6353  162.2660 H   0  0  0  0  0  0  0  0  0  0  0  0
  152.4381  141.9991  162.6794 H   0  0  0  0  0  0  0  0  0  0  0  0
  153.6580  143.2687  162.7421 H   0  0  0  0  0  0  0  0  0  0  0  0
  150.9959  137.9763  155.4090 H   0  0  0  0  0  0  0  0  0  0  0  0
  1  2  1  0  0  0  0
  1 18  1  0  0  0  0
  1 19  1  0  0  0  0
  1 20  1  0  0  0  0
  2 17  1  0  0  0  0
  2  3  1  0  0  0  0
  2 21  1  0  0  0  0
  3  4  1  0  0  0  0
  3 22  1  0  0  0  0
  3 23  1  0  0  0  0
  4  5  1  0  0  0  0
  4 14  1  0  0  0  0
  5 13  1  0  0  0  0
  5  6  2  0  0  0  0
  6  7  1  0  0  0  0
  6 24  1  0  0  0  0
  7  8  2  0  0  0  0
  7 25  1  0  0  0  0
  8  9  1  0  0  0  0
  8 33  1  0  0  0  0
  9 10  1  0  0  0  0
  9 13  2  0  0  0  0
 10 11  2  0  0  0  0
 10 12  1  0  0  0  0
 13 26  1  0  0  0  0
 14 15  1  0  0  0  0
 14 27  1  0  0  0  0
 14 28  1  0  0  0  0
 15 16  1  0  0  0  0
 15 17  1  0  0  0  0
 15 29  1  0  0  0  0
 16 30  1  0  0  0  0
 16 31  1  0  0  0  0
 16 32  1  0  0  0  0
M  CHG  1   8   1
M  CHG  1  12  -1
M  END
> <s_m_source_file>
AV-unprocessed.smi

> <i_m_source_file_index>
578

> <i_lp_mmshare_version>
43012

> <i_f3d_flags>
0

> <s_epik_input>
W0NIM11bQ0BASF0xW0NIMl1OKFtDSDJdW0NASF0oTzEpW0NIM10pYzJbY0hdW2NIXW5jKFtjSF0yKUMoPU8pW09IXQ==

> <s_epik_cmdline>
J2VwaWtfcHl0aG9uJywgJy1waCcsICc3LjAnLCAnLXRuJywgJzgnLCAnLW1hJywgJzIwMCcsICctbWV0YWxfYmluZGluZycsICctaW1hZScsICc8aW5maWxlLm1hZT4nLCAnLW9tYWUnLCAnPG91dGZpbGUubWFlPic=

> <r_epik_Ionization_Penalty>
0.0203651

> <r_epik_Ionization_Penalty_Charging>
0.0203651

> <r_epik_Ionization_Penalty_Neutral>
3.18831e-12

> <r_epik_State_Penalty>
0.0163096

> <r_epik_Charging_Adjusted_Penalty>
0.0366747

> <i_epik_Tot_Q>
0

> <i_epik_Tot_abs_Q>
2

> <r_epik_Metal_State_Penalty>
1.99323

> <b_epik_Metal_Only>
0

> <s_lp_Force_Field>
OPLS_2005

> <r_lp_Energy>
16.452

> <b_lp_Chiralities_Consistent>
1

> <s_lp_Variant>
AV-unprocessed.smi:578-2

> <Gold.Version>
5.8.1

> <Gold.Id.Protein>
6NUR|6NUR_protein|mol2

> <Gold.PLP.Fitness>
42.9822

> <Gold.PLP.PLP>
-33.6874

> <Gold.PLP.part.hbond>
-2.0000

> <Gold.PLP.part.metal>
0.0000

> <Gold.PLP.part.buried>
-5.9415

> <Gold.PLP.part.nonpolar>
-26.3187

> <Gold.PLP.part.repulsive>
0.1678

> <Gold.PLP.ligand.clash>
0.1715

> <Gold.PLP.ligand.torsion>
0.6681

> <Gold.PLP.Chemscore.Hbond>
3.5680

> <Gold.PLP.Chemscore.CHOScore>
0.0000

> <Gold.PLP.Chemscore.Metal>
0.0000

> <Gold.Chemscore.Hbonds>
donor molecule, donor type, donor heavy atom, donor atom, acceptor molecule, acceptor atom, score
      P1  H  6896  6909       L1    11  1.57
      P1  H 10752 10764       L1    12  2.00

> <Gold.PLP.Chemscore.Internal.Correction>
0.0986

> <Gold.Rescore>
     Score         DG    S(hbond)    S(metal)    S(lipo)     H(rot)  DE(clash)    DE(int)     intcor
     19.21     -19.88       1.82        0.00      93.08       1.00       0.00       0.67       ----

> <Gold.Chemscore.Fitness>
19.2082

> <Gold.Chemscore.DG>
-19.8821

> <Gold.Chemscore.ZeroCoef>
-5.4800

> <Gold.Chemscore.Hbond>
1.8180

> <Gold.Chemscore.Metal>
0.0000

> <Gold.Chemscore.Lipo>
93.0781

> <Gold.Chemscore.Internal_Hbond>
0.0000

> <Gold.Chemscore.DEClash>
0.0000

> <Gold.Chemscore.DEInternal>
0.6739

> <Gold.Chemscore.Rot>
1.0000

> <Gold.Chemscore.Internal.Correction>
   9.000000E+99

> <Gold.Chemscore.Hbonds>
donor molecule, donor type, donor heavy atom, donor atom, acceptor molecule, acceptor atom, score
      P1  H  6896  6909       L1    11  0.75
      P1  H 10752 10764       L1    12  0.97

> <Gold.Chemscore.Hbond.Weighted>
-6.0720

> <Gold.Chemscore.Metal.Weighted>
-0.0000

> <Gold.Chemscore.Lipo.Weighted>
-10.8901

> <Gold.Chemscore.Internal_Hbond.Weighted>
0.0000

> <Gold.Chemscore.DEClash.Weighted>
0.0000

> <Gold.Chemscore.DEInternal.Weighted>
0.6739

> <Gold.Chemscore.Rot.Weighted>
2.5600

> <Gold.Chemscore.Internal.Correction.Weighted>
   9.000000E+99

> <Gold.Protein.RotatedTorsions>
[ 6907 6896 6895 6894 ] final  124.66 input  -60.11 | X-H torsion
[ 7974 7965 7964 7962 ] final  -61.58 input  175.53 | X-H torsion
[ 8008 7997 7996 7995 ] final   28.10 input   59.86 | X-H torsion
[ 10167 10162 10161 10158 ] final -145.88 input  -65.29 | X-H torsion
[ 10718 10713 10712 10709 ] final   54.67 input   66.30 | X-H torsion
[ 10763 10752 10751 10750 ] final  -21.59 input  -60.55 | X-H torsion
[ 11005 11000 10999 10996 ] final -149.75 input  -57.11 | X-H torsion

> <Gold.Protein.ActiveResidues>
 VAL166  LYS551  ARG553  GLY616  TRP617  ASP618  TYR619  PRO620  LYS621  CYS622 
 ASP623  PHE694  ASN695  SER759  ASP760  ASP761  ALA762  ILE779  LEU786  VAL792 
 PHE793  MET794  SER795  GLU796  ALA797  LYS798  CYS799  TRP800  GLU811  SER814 

> <Gold.Protein.RotatedAtoms>
  152.4059  133.6888  159.6355 H   0  0  0  0  0  0  0  0  0  0  0  0  # atno 6907 bound_to 6896
  150.7944  133.8709  159.3267 H   0  0  0  0  0  0  0  0  0  0  0  0  # atno 6908 bound_to 6896
  151.6464  135.1008  160.0203 H   0  0  0  0  0  0  0  0  0  0  0  0  # atno 6909 bound_to 6896
  145.8017  140.8651  143.0227 H   0  0  0  0  0  0  0  0  0  0  0  0  # atno 7974 bound_to 7965
  155.0534  140.3182  155.4684 H   0  0  0  0  0  0  0  0  0  0  0  0  # atno 8008 bound_to 7997
  156.2829  140.2142  156.5604 H   0  0  0  0  0  0  0  0  0  0  0  0  # atno 8009 bound_to 7997
  154.7192  140.0491  157.0611 H   0  0  0  0  0  0  0  0  0  0  0  0  # atno 8010 bound_to 7997
  139.7765  143.8163  152.2632 H   0  0  0  0  0  0  0  0  0  0  0  0  # atno 10167 bound_to 10162
  157.5277  130.8609  149.8645 H   0  0  0  0  0  0  0  0  0  0  0  0  # atno 10718 bound_to 10713
  153.6385  135.6986  153.5250 H   0  0  0  0  0  0  0  0  0  0  0  0  # atno 10763 bound_to 10752
  153.2802  135.4188  155.1070 H   0  0  0  0  0  0  0  0  0  0  0  0  # atno 10764 bound_to 10752
  154.8505  135.3600  154.5929 H   0  0  0  0  0  0  0  0  0  0  0  0  # atno 10765 bound_to 10752
  140.7475  134.3445  157.5133 H   0  0  0  0  0  0  0  0  0  0  0  0  # atno 11005 bound_to 11000
  144.6768  140.0269  143.7483 LP  0  0  0  0  0  0  0  0  0  0  0  0  # atno 17320 bound_to 7965
  145.9870  139.2985  143.1007 LP  0  0  0  0  0  0  0  0  0  0  0  0  # atno 17321 bound_to 7965
  139.8213  144.7294  150.9569 LP  0  0  0  0  0  0  0  0  0  0  0  0  # atno 17342 bound_to 10162
  140.7816  143.4157  151.0922 LP  0  0  0  0  0  0  0  0  0  0  0  0  # atno 17343 bound_to 10162
  156.0399  130.3741  150.1462 LP  0  0  0  0  0  0  0  0  0  0  0  0  # atno 17370 bound_to 10713
  156.9647  130.9816  151.3471 LP  0  0  0  0  0  0  0  0  0  0  0  0  # atno 17371 bound_to 10713
  139.8794  134.9120  156.3051 LP  0  0  0  0  0  0  0  0  0  0  0  0  # atno 17394 bound_to 11000
  140.9781  133.7284  156.0632 LP  0  0  0  0  0  0  0  0  0  0  0  0  # atno 17395 bound_to 11000

$$$$
