AV-unprocessed.smi:1247|AV-procd|sdf|5246|dock9
  -GOLD-   22720 4353D 1   1.00000     0.00000
 Structure written by MMmdl.
 47 48  0  0  0  0  0  0  0  0  2 V2000
  151.5836  142.1589  157.7037 C   0  0  0  0  0  0  0  0  0  0  0  0
  151.3138  141.0854  156.6910 C   0  0  0  0  0  0  0  0  0  0  0  0
  150.1409  140.8945  155.9044 C   0  0  0  0  0  0  0  0  0  0  0  0
  150.4476  139.7810  155.1708 C   0  0  0  0  0  0  0  0  0  0  0  0
  149.6941  139.1457  154.2342 N   0  0  0  0  0  0  0  0  0  0  0  0
  148.4003  139.3396  153.9242 C   0  0  0  0  0  0  0  0  0  0  0  0
  147.6424  140.1351  154.4798 O   0  0  0  0  0  0  0  0  0  0  0  0
  148.0159  138.5367  152.9214 N   0  0  0  0  0  0  0  0  0  0  0  0
  146.6731  138.4968  152.3542 C   0  0  0  0  0  0  0  0  0  0  0  0
  146.5633  137.4343  151.2443 C   0  0  0  0  0  0  0  0  0  0  0  0
  145.3028  136.6562  151.3313 N   0  3  1  0  0  0  0  0  0  0  0  0
  145.4322  135.3010  150.7454 C   0  0  0  0  0  0  0  0  0  0  0  0
  144.0837  134.5582  150.7986 C   0  0  1  0  0  0  0  0  0  0  0  0
  144.1915  133.1238  150.2699 C   0  0  0  0  0  0  0  0  0  0  0  0
  143.6386  134.5020  152.1492 O   0  0  0  0  0  0  0  0  0  0  0  0
  143.4235  135.7928  152.7092 C   0  0  1  0  0  0  0  0  0  0  0  0
  142.8618  135.6120  154.1235 C   0  0  0  0  0  0  0  0  0  0  0  0
  144.7532  136.5711  152.7067 C   0  0  0  0  0  0  0  0  0  0  0  0
  151.7171  139.3620  155.5077 N   0  0  0  0  0  0  0  0  0  0  0  0
  152.4957  138.2414  155.0163 C   0  0  0  0  0  0  0  0  0  0  0  0
  152.2455  140.1697  156.4516 N   0  0  0  0  0  0  0  0  0  0  0  0
  150.7860  142.9020  157.7129 H   0  0  0  0  0  0  0  0  0  0  0  0
  152.5176  142.6782  157.4873 H   0  0  0  0  0  0  0  0  0  0  0  0
  151.6591  141.7399  158.7074 H   0  0  0  0  0  0  0  0  0  0  0  0
  149.2399  141.4889  155.8933 H   0  0  0  0  0  0  0  0  0  0  0  0
  150.1751  138.4284  153.7118 H   0  0  0  0  0  0  0  0  0  0  0  0
  148.7008  137.9126  152.5199 H   0  0  0  0  0  0  0  0  0  0  0  0
  145.9514  138.3188  153.1521 H   0  0  0  0  0  0  0  0  0  0  0  0
  146.4477  139.4830  151.9476 H   0  0  0  0  0  0  0  0  0  0  0  0
  146.6021  137.9473  150.2820 H   0  0  0  0  0  0  0  0  0  0  0  0
  147.4160  136.7536  151.2639 H   0  0  0  0  0  0  0  0  0  0  0  0
  145.7675  135.3781  149.7102 H   0  0  0  0  0  0  0  0  0  0  0  0
  146.1950  134.7409  151.2892 H   0  0  0  0  0  0  0  0  0  0  0  0
  143.3446  135.0929  150.1989 H   0  0  0  0  0  0  0  0  0  0  0  0
  144.5116  133.1121  149.2278 H   0  0  0  0  0  0  0  0  0  0  0  0
  143.2290  132.6145  150.3267 H   0  0  0  0  0  0  0  0  0  0  0  0
  144.9100  132.5419  150.8479 H   0  0  0  0  0  0  0  0  0  0  0  0
  142.6843  136.3262  152.1085 H   0  0  0  0  0  0  0  0  0  0  0  0
  142.6699  136.5758  154.5957 H   0  0  0  0  0  0  0  0  0  0  0  0
  143.5569  135.0605  154.7574 H   0  0  0  0  0  0  0  0  0  0  0  0
  141.9217  135.0600  154.1014 H   0  0  0  0  0  0  0  0  0  0  0  0
  145.4776  136.0791  153.3583 H   0  0  0  0  0  0  0  0  0  0  0  0
  144.5878  137.5689  153.1116 H   0  0  0  0  0  0  0  0  0  0  0  0
  151.9941  137.7612  154.1763 H   0  0  0  0  0  0  0  0  0  0  0  0
  152.6278  137.5097  155.8139 H   0  0  0  0  0  0  0  0  0  0  0  0
  153.4752  138.5893  154.6864 H   0  0  0  0  0  0  0  0  0  0  0  0
  144.6210  137.1438  150.7678 H   0  0  0  0  0  0  0  0  0  0  0  0
  1  2  1  0  0  0  0
  1 22  1  0  0  0  0
  1 23  1  0  0  0  0
  1 24  1  0  0  0  0
  2 21  2  0  0  0  0
  2  3  1  0  0  0  0
  3  4  2  0  0  0  0
  3 25  1  0  0  0  0
  4  5  1  0  0  0  0
  4 19  1  0  0  0  0
  5  6  1  0  0  0  0
  5 26  1  0  0  0  0
  6  7  2  0  0  0  0
  6  8  1  0  0  0  0
  8  9  1  0  0  0  0
  8 27  1  0  0  0  0
  9 10  1  0  0  0  0
  9 28  1  0  0  0  0
  9 29  1  0  0  0  0
 10 11  1  0  0  0  0
 10 30  1  0  0  0  0
 10 31  1  0  0  0  0
 11 18  1  0  0  0  0
 11 12  1  0  0  0  0
 11 47  1  0  0  0  0
 12 13  1  0  0  0  0
 12 32  1  0  0  0  0
 12 33  1  0  0  0  0
 13 14  1  0  0  0  0
 13 15  1  0  0  0  0
 13 34  1  0  0  0  0
 14 35  1  0  0  0  0
 14 36  1  0  0  0  0
 14 37  1  0  0  0  0
 15 16  1  0  0  0  0
 16 17  1  0  0  0  0
 16 18  1  0  0  0  0
 16 38  1  0  0  0  0
 17 39  1  0  0  0  0
 17 40  1  0  0  0  0
 17 41  1  0  0  0  0
 18 42  1  0  0  0  0
 18 43  1  0  0  0  0
 19 20  1  0  0  0  0
 19 21  1  0  0  0  0
 20 44  1  0  0  0  0
 20 45  1  0  0  0  0
 20 46  1  0  0  0  0
M  CHG  1  11   1
M  END
> <s_m_source_file>
AV-unprocessed.smi

> <i_m_source_file_index>
1247

> <i_lp_mmshare_version>
43012

> <i_f3d_flags>
0

> <s_epik_input>
W0NIM11jMVtjSF1jKG4objEpW0NIM10pW05IXUMoPU8pW05IXVtDSDJdW0NIMl1OMltDSDJdW0NAQEhdKFtDSDNdKU9bQ0BASF0oW0NIM10pW0NIMl0y

> <s_epik_cmdline>
J2VwaWtfcHl0aG9uJywgJy1waCcsICc3LjAnLCAnLXRuJywgJzgnLCAnLW1hJywgJzIwMCcsICctbWV0YWxfYmluZGluZycsICctaW1hZScsICc8aW5maWxlLm1hZT4nLCAnLW9tYWUnLCAnPG91dGZpbGUubWFlPic=

> <r_lp_tautomer_probability>
1

> <r_epik_Ionization_Penalty>
0.663902

> <r_epik_Ionization_Penalty_Charging>
0.663826

> <r_epik_Ionization_Penalty_Neutral>
7.65444e-05

> <r_epik_State_Penalty>
0.683414

> <r_epik_Charging_Adjusted_Penalty>
1.34724

> <i_epik_Tot_Q>
1

> <i_epik_Tot_abs_Q>
1

> <r_epik_Metal_State_Penalty>
0.683419

> <b_epik_Metal_Only>
0

> <s_lp_Force_Field>
OPLS_2005

> <r_lp_Energy>
16.001

> <b_lp_Chiralities_Consistent>
1

> <s_lp_Variant>
AV-unprocessed.smi:1247-4

> <Gold.Version>
5.8.1

> <Gold.Id.Protein>
6NUR|6NUR_protein|mol2

> <Gold.PLP.Fitness>
44.6792

> <Gold.PLP.PLP>
-38.0530

> <Gold.PLP.part.hbond>
-4.9409

> <Gold.PLP.part.metal>
0.0000

> <Gold.PLP.part.buried>
1.7349

> <Gold.PLP.part.nonpolar>
-34.3364

> <Gold.PLP.part.repulsive>
0.4483

> <Gold.PLP.ligand.clash>
0.2921

> <Gold.PLP.ligand.torsion>
0.6895

> <Gold.PLP.Chemscore.Hbond>
2.7573

> <Gold.PLP.Chemscore.CHOScore>
0.0000

> <Gold.PLP.Chemscore.Metal>
0.0000

> <Gold.Chemscore.Hbonds>
donor molecule, donor type, donor heavy atom, donor atom, acceptor molecule, acceptor atom, score
      L1  H     8    27       P1  7948  0.91
      L1  H    11    47       P1 10171  1.00
      P1  H  7997  8008       L1    21  0.83

> <Gold.PLP.Chemscore.Internal.Correction>
0.0257

> <Gold.Rescore>
     Score         DG    S(hbond)    S(metal)    S(lipo)     H(rot)  DE(clash)    DE(int)     intcor
     16.28     -19.69       2.60        0.00      80.48       1.52       1.56       1.85       ----

> <Gold.Chemscore.Fitness>
16.2790

> <Gold.Chemscore.DG>
-19.6852

> <Gold.Chemscore.ZeroCoef>
-5.4800

> <Gold.Chemscore.Hbond>
2.6005

> <Gold.Chemscore.Metal>
0.0000

> <Gold.Chemscore.Lipo>
80.4816

> <Gold.Chemscore.Internal_Hbond>
0.0000

> <Gold.Chemscore.DEClash>
1.5597

> <Gold.Chemscore.DEInternal>
1.8465

> <Gold.Chemscore.Rot>
1.5221

> <Gold.Chemscore.Internal.Correction>
   9.000000E+99

> <Gold.Chemscore.Hbonds>
donor molecule, donor type, donor heavy atom, donor atom, acceptor molecule, acceptor atom, score
      L1  H     8    27       P1  7948  0.88
      L1  H    11    47       P1 10171  0.99
      P1  H  7997  8008       L1    21  0.56

> <Gold.Chemscore.Hbond.Weighted>
-8.6855

> <Gold.Chemscore.Metal.Weighted>
-0.0000

> <Gold.Chemscore.Lipo.Weighted>
-9.4163

> <Gold.Chemscore.Internal_Hbond.Weighted>
0.0000

> <Gold.Chemscore.DEClash.Weighted>
1.5597

> <Gold.Chemscore.DEInternal.Weighted>
1.8465

> <Gold.Chemscore.Rot.Weighted>
3.8967

> <Gold.Chemscore.Internal.Correction.Weighted>
   9.000000E+99

> <Gold.Protein.RotatedTorsions>
[ 6907 6896 6895 6894 ] final   19.11 input  -60.11 | X-H torsion
[ 7974 7965 7964 7962 ] final -149.67 input  175.53 | X-H torsion
[ 8008 7997 7996 7995 ] final  -37.50 input   59.86 | X-H torsion
[ 10167 10162 10161 10158 ] final  179.97 input  -65.29 | X-H torsion
[ 10718 10713 10712 10709 ] final -154.63 input   66.30 | X-H torsion
[ 10763 10752 10751 10750 ] final   23.09 input  -60.55 | X-H torsion
[ 11005 11000 10999 10996 ] final  139.53 input  -57.11 | X-H torsion

> <Gold.Protein.ActiveResidues>
 VAL166  LYS551  ARG553  GLY616  TRP617  ASP618  TYR619  PRO620  LYS621  CYS622 
 ASP623  PHE694  ASN695  SER759  ASP760  ASP761  ALA762  ILE779  LEU786  VAL792 
 PHE793  MET794  SER795  GLU796  ALA797  LYS798  CYS799  TRP800  GLU811  SER814 

> <Gold.Protein.RotatedAtoms>
  151.8757  135.0472  160.0483 H   0  0  0  0  0  0  0  0  0  0  0  0  # atno 6907 bound_to 6896
  152.2553  133.5245  159.5357 H   0  0  0  0  0  0  0  0  0  0  0  0  # atno 6908 bound_to 6896
  150.7097  134.0821  159.3944 H   0  0  0  0  0  0  0  0  0  0  0  0  # atno 6909 bound_to 6896
  144.7953  140.5034  143.5744 H   0  0  0  0  0  0  0  0  0  0  0  0  # atno 7974 bound_to 7965
  154.4052  140.1602  156.2547 H   0  0  0  0  0  0  0  0  0  0  0  0  # atno 8008 bound_to 7997
  155.9089  140.3428  155.6060 H   0  0  0  0  0  0  0  0  0  0  0  0  # atno 8009 bound_to 7997
  155.7360  140.0786  157.2258 H   0  0  0  0  0  0  0  0  0  0  0  0  # atno 8010 bound_to 7997
  139.5360  144.2497  152.0794 H   0  0  0  0  0  0  0  0  0  0  0  0  # atno 10167 bound_to 10162
  156.5019  130.8395  151.2612 H   0  0  0  0  0  0  0  0  0  0  0  0  # atno 10718 bound_to 10713
  153.0865  135.6634  153.9939 H   0  0  0  0  0  0  0  0  0  0  0  0  # atno 10763 bound_to 10752
  153.9547  135.2980  155.3438 H   0  0  0  0  0  0  0  0  0  0  0  0  # atno 10764 bound_to 10752
  154.7274  135.5138  153.8981 H   0  0  0  0  0  0  0  0  0  0  0  0  # atno 10765 bound_to 10752
  140.0262  134.9374  157.0572 H   0  0  0  0  0  0  0  0  0  0  0  0  # atno 11005 bound_to 11000
  145.5689  139.1482  143.3299 LP  0  0  0  0  0  0  0  0  0  0  0  0  # atno 17320 bound_to 7965
  146.2219  140.5823  142.9013 LP  0  0  0  0  0  0  0  0  0  0  0  0  # atno 17321 bound_to 7965
  140.1968  144.4697  150.6451 LP  0  0  0  0  0  0  0  0  0  0  0  0  # atno 17342 bound_to 10162
  140.6566  143.2239  151.5954 LP  0  0  0  0  0  0  0  0  0  0  0  0  # atno 17343 bound_to 10162
  157.7462  130.9979  150.2831 LP  0  0  0  0  0  0  0  0  0  0  0  0  # atno 17370 bound_to 10713
  156.3324  130.3802  149.7479 LP  0  0  0  0  0  0  0  0  0  0  0  0  # atno 17371 bound_to 10713
  140.4303  134.1787  155.7168 LP  0  0  0  0  0  0  0  0  0  0  0  0  # atno 17394 bound_to 11000
  141.1804  133.8426  157.1278 LP  0  0  0  0  0  0  0  0  0  0  0  0  # atno 17395 bound_to 11000

$$$$
