AV-unprocessed.smi:2368|AV-procd|sdf|9427|dock4
  -GOLD-   2272013 63D 1   1.00000     0.00000
 Structure written by MMmdl.
 35 36  0  0  0  0  0  0  0  0  1 V2000
  151.6533  139.7624  156.3135 C   0  0  0  0  0  0  0  0  0  0  0  0
  150.2835  139.9341  155.6836 C   0  0  0  0  0  0  0  0  0  0  0  0
  149.6536  141.0957  155.9639 N   0  0  0  0  0  0  0  0  0  0  0  0
  148.4359  141.3029  155.4231 C   0  0  0  0  0  0  0  0  0  0  0  0
  147.7897  140.3714  154.5883 C   0  0  0  0  0  0  0  0  0  0  0  0
  148.4400  139.1462  154.3029 C   0  0  0  0  0  0  0  0  0  0  0  0
  147.8928  138.1394  153.4574 N   0  0  0  0  0  0  0  0  0  0  0  0
  146.6121  137.7610  153.3030 C   0  0  0  0  0  0  0  0  0  0  0  0
  145.6502  138.2182  153.9199 O   0  0  0  0  0  0  0  0  0  0  0  0
  146.5028  136.7917  152.3832 N   0  0  0  0  0  0  0  0  0  0  0  0
  145.2481  136.1757  151.9655 C   0  0  2  0  0  0  0  0  0  0  0  0
  144.8737  135.0560  152.8974 C   0  0  0  0  0  0  0  0  0  0  0  0
  144.7957  133.8784  152.2816 C   0  0  0  0  0  0  0  0  0  0  0  0
  145.1297  133.9606  150.8153 C   0  0  1  0  0  0  0  0  0  0  0  0
  144.0295  133.3490  149.9323 C   0  0  0  0  0  0  0  0  0  0  0  0
  144.4046  133.4142  148.5727 O   0  0  0  0  0  0  0  0  0  0  0  0
  145.3540  135.4781  150.5838 C   0  0  0  0  0  0  0  0  0  0  0  0
  149.7236  138.9304  154.8584 C   0  0  0  0  0  0  0  0  0  0  0  0
  150.5924  137.4659  154.5391 Cl  0  0  0  0  0  0  0  0  0  0  0  0
  144.4453  136.9150  151.9681 H   0  0  0  0  0  0  0  0  0  0  0  0
  146.0649  133.4193  150.6655 H   0  0  0  0  0  0  0  0  0  0  0  0
  152.4105  139.6183  155.5425 H   0  0  0  0  0  0  0  0  0  0  0  0
  151.6613  138.8938  156.9723 H   0  0  0  0  0  0  0  0  0  0  0  0
  151.9358  140.6353  156.9037 H   0  0  0  0  0  0  0  0  0  0  0  0
  147.9629  142.2449  155.6573 H   0  0  0  0  0  0  0  0  0  0  0  0
  146.8238  140.6235  154.1798 H   0  0  0  0  0  0  0  0  0  0  0  0
  148.5732  137.6115  152.9304 H   0  0  0  0  0  0  0  0  0  0  0  0
  147.3434  136.4667  151.9283 H   0  0  0  0  0  0  0  0  0  0  0  0
  144.6824  135.2216  153.9477 H   0  0  0  0  0  0  0  0  0  0  0  0
  144.5424  132.9443  152.7610 H   0  0  0  0  0  0  0  0  0  0  0  0
  143.8677  132.3031  150.1949 H   0  0  0  0  0  0  0  0  0  0  0  0
  143.0807  133.8684  150.0721 H   0  0  0  0  0  0  0  0  0  0  0  0
  145.0553  134.0924  148.4720 H   0  0  0  0  0  0  0  0  0  0  0  0
  144.5947  135.8859  149.9152 H   0  0  0  0  0  0  0  0  0  0  0  0
  146.3165  135.6547  150.1016 H   0  0  0  0  0  0  0  0  0  0  0  0
  1  2  1  0  0  0  0
  1 22  1  0  0  0  0
  1 23  1  0  0  0  0
  1 24  1  0  0  0  0
  2 18  1  0  0  0  0
  2  3  2  0  0  0  0
  3  4  1  0  0  0  0
  4  5  2  0  0  0  0
  4 25  1  0  0  0  0
  5  6  1  0  0  0  0
  5 26  1  0  0  0  0
  6  7  1  0  0  0  0
  6 18  2  0  0  0  0
  7  8  1  0  0  0  0
  7 27  1  0  0  0  0
  8  9  2  0  0  0  0
  8 10  1  0  0  0  0
 10 11  1  0  0  0  0
 10 28  1  0  0  0  0
 11 20  1  0  0  0  0
 11 17  1  0  0  0  0
 11 12  1  0  0  0  0
 12 13  2  0  0  0  0
 12 29  1  0  0  0  0
 13 14  1  0  0  0  0
 13 30  1  0  0  0  0
 14 21  1  0  0  0  0
 14 15  1  0  0  0  0
 14 17  1  0  0  0  0
 15 16  1  0  0  0  0
 15 31  1  0  0  0  0
 15 32  1  0  0  0  0
 16 33  1  0  0  0  0
 17 34  1  0  0  0  0
 17 35  1  0  0  0  0
 18 19  1  0  0  0  0
M  END
> <s_m_source_file>
AV-unprocessed.smi

> <i_m_source_file_index>
2368

> <i_lp_mmshare_version>
43012

> <i_f3d_flags>
0

> <s_epik_input>
W0NIM11jMW5bY0hdW2NIXWMoYzFDbClbTkhdQyg9TylbTkhdW0NAQEhdMltDSF09W0NIXVtDQEBIXShbQ0gyXTIpW0NIMl1bT0hd

> <s_epik_cmdline>
J2VwaWtfcHl0aG9uJywgJy1waCcsICc3LjAnLCAnLXRuJywgJzgnLCAnLW1hJywgJzIwMCcsICctbWV0YWxfYmluZGluZycsICctaW1hZScsICc8aW5maWxlLm1hZT4nLCAnLW9tYWUnLCAnPG91dGZpbGUubWFlPic=

> <r_epik_Ionization_Penalty>
0.00964582

> <r_epik_Ionization_Penalty_Charging>
0

> <r_epik_Ionization_Penalty_Neutral>
0.00964582

> <r_epik_State_Penalty>
0.00730775

> <r_epik_Charging_Adjusted_Penalty>
0.00730775

> <i_epik_Tot_Q>
0

> <i_epik_Tot_abs_Q>
0

> <r_epik_Metal_State_Penalty>
0.00719079

> <b_epik_Metal_Only>
0

> <s_lp_Force_Field>
OPLS_2005

> <r_lp_Energy>
22.0768

> <b_lp_Chiralities_Consistent>
1

> <s_lp_Variant>
AV-unprocessed.smi:2368-3

> <Gold.Version>
5.8.1

> <Gold.Id.Protein>
6NUR|6NUR_protein|mol2

> <Gold.PLP.Fitness>
43.2660

> <Gold.PLP.PLP>
-32.4007

> <Gold.PLP.part.hbond>
-3.5120

> <Gold.PLP.part.metal>
0.0000

> <Gold.PLP.part.buried>
-2.8765

> <Gold.PLP.part.nonpolar>
-27.5410

> <Gold.PLP.part.repulsive>
1.0009

> <Gold.PLP.ligand.clash>
0.0000

> <Gold.PLP.ligand.torsion>
0.5679

> <Gold.PLP.Chemscore.Hbond>
3.0000

> <Gold.PLP.Chemscore.CHOScore>
0.9953

> <Gold.PLP.Chemscore.Metal>
0.0000

> <Gold.Chemscore.Hbonds>
donor molecule, donor type, donor heavy atom, donor atom, acceptor molecule, acceptor atom, score
      L1  H     7    27       P1  7948  1.00
      L1  H    10    28       P1  7948  1.00
      L1  H    16    33       P1  7921  0.99
      L1  C     4    25       P1  8028  0.77

> <Gold.PLP.Chemscore.Internal.Correction>
0.0152

> <Gold.Rescore>
     Score         DG    S(hbond)    S(metal)    S(lipo)     H(rot)  DE(clash)    DE(int)     intcor
     17.44     -20.04       2.91        0.00      80.22       1.78       1.21       1.38       ----

> <Gold.Chemscore.Fitness>
17.4436

> <Gold.Chemscore.DG>
-20.0368

> <Gold.Chemscore.ZeroCoef>
-5.4800

> <Gold.Chemscore.Hbond>
2.9122

> <Gold.Chemscore.Metal>
0.0000

> <Gold.Chemscore.Lipo>
80.2209

> <Gold.Chemscore.Internal_Hbond>
0.0000

> <Gold.Chemscore.DEClash>
1.2136

> <Gold.Chemscore.DEInternal>
1.3796

> <Gold.Chemscore.Rot>
1.7796

> <Gold.Chemscore.Internal.Correction>
   9.000000E+99

> <Gold.Chemscore.Hbonds>
donor molecule, donor type, donor heavy atom, donor atom, acceptor molecule, acceptor atom, score
      L1  H     7    27       P1  7948  0.94
      L1  H    10    28       P1  7948  0.96
      L1  H    16    33       P1  7921  0.88

> <Gold.Chemscore.Hbond.Weighted>
-9.7268

> <Gold.Chemscore.Metal.Weighted>
-0.0000

> <Gold.Chemscore.Lipo.Weighted>
-9.3858

> <Gold.Chemscore.Internal_Hbond.Weighted>
0.0000

> <Gold.Chemscore.DEClash.Weighted>
1.2136

> <Gold.Chemscore.DEInternal.Weighted>
1.3796

> <Gold.Chemscore.Rot.Weighted>
4.5558

> <Gold.Chemscore.Internal.Correction.Weighted>
   9.000000E+99

> <Gold.Protein.RotatedTorsions>
[ 6907 6896 6895 6894 ] final -155.34 input  -60.11 | X-H torsion
[ 7974 7965 7964 7962 ] final   28.23 input  175.53 | X-H torsion
[ 8008 7997 7996 7995 ] final   -0.97 input   59.86 | X-H torsion
[ 10167 10162 10161 10158 ] final  121.47 input  -65.29 | X-H torsion
[ 10718 10713 10712 10709 ] final -101.83 input   66.30 | X-H torsion
[ 10763 10752 10751 10750 ] final  114.81 input  -60.55 | X-H torsion
[ 11005 11000 10999 10996 ] final  156.32 input  -57.11 | X-H torsion

> <Gold.Protein.ActiveResidues>
 VAL166  LYS551  ARG553  GLY616  TRP617  ASP618  TYR619  PRO620  LYS621  CYS622 
 ASP623  PHE694  ASN695  SER759  ASP760  ASP761  ALA762  ILE779  LEU786  VAL792 
 PHE793  MET794  SER795  GLU796  ALA797  LYS798  CYS799  TRP800  GLU811  SER814 

> <Gold.Protein.RotatedAtoms>
  151.2711  133.4255  159.2621 H   0  0  0  0  0  0  0  0  0  0  0  0  # atno 6907 bound_to 6896
  151.0444  134.9630  159.8189 H   0  0  0  0  0  0  0  0  0  0  0  0  # atno 6908 bound_to 6896
  152.5371  134.2668  159.9009 H   0  0  0  0  0  0  0  0  0  0  0  0  # atno 6909 bound_to 6896
  146.1740  139.7084  142.8947 H   0  0  0  0  0  0  0  0  0  0  0  0  # atno 7974 bound_to 7965
  154.6521  140.2571  155.7202 H   0  0  0  0  0  0  0  0  0  0  0  0  # atno 8008 bound_to 7997
  156.2580  140.2866  156.0880 H   0  0  0  0  0  0  0  0  0  0  0  0  # atno 8009 bound_to 7997
  155.1435  140.0381  157.2794 H   0  0  0  0  0  0  0  0  0  0  0  0  # atno 8010 bound_to 7997
  139.5918  144.7027  151.3273 H   0  0  0  0  0  0  0  0  0  0  0  0  # atno 10167 bound_to 10162
  156.0208  130.5392  150.7020 H   0  0  0  0  0  0  0  0  0  0  0  0  # atno 10718 bound_to 10713
  153.5129  135.3614  155.2595 H   0  0  0  0  0  0  0  0  0  0  0  0  # atno 10763 bound_to 10752
  154.8741  135.4027  154.3348 H   0  0  0  0  0  0  0  0  0  0  0  0  # atno 10764 bound_to 10752
  153.4005  135.7075  153.6496 H   0  0  0  0  0  0  0  0  0  0  0  0  # atno 10765 bound_to 10752
  140.1664  134.8574  157.2637 H   0  0  0  0  0  0  0  0  0  0  0  0  # atno 11005 bound_to 11000
  145.4261  141.0411  143.2936 LP  0  0  0  0  0  0  0  0  0  0  0  0  # atno 17320 bound_to 7965
  144.8208  139.5796  143.6988 LP  0  0  0  0  0  0  0  0  0  0  0  0  # atno 17321 bound_to 7965
  140.7179  143.7216  150.7691 LP  0  0  0  0  0  0  0  0  0  0  0  0  # atno 17342 bound_to 10162
  140.0774  143.5002  152.2548 LP  0  0  0  0  0  0  0  0  0  0  0  0  # atno 17343 bound_to 10162
  157.4678  131.0890  151.0675 LP  0  0  0  0  0  0  0  0  0  0  0  0  # atno 17370 bound_to 10713
  157.1144  130.6035  149.5490 LP  0  0  0  0  0  0  0  0  0  0  0  0  # atno 17371 bound_to 10713
  140.2429  134.3774  155.7473 LP  0  0  0  0  0  0  0  0  0  0  0  0  # atno 17394 bound_to 11000
  141.2214  133.7275  156.8817 LP  0  0  0  0  0  0  0  0  0  0  0  0  # atno 17395 bound_to 11000

$$$$
