AV-unprocessed.smi:2126|AV-procd|sdf|8676|dock8
  -GOLD-   2272011433D 1   1.00000     0.00000
 Structure written by MMmdl.
 40 42  0  0  0  0  0  0  0  0  1 V2000
  142.8146  145.7169  155.0592 C   0  0  0  0  0  0  0  0  0  0  0  0
  143.6607  145.2401  154.0231 O   0  0  0  0  0  0  0  0  0  0  0  0
  144.5026  144.1862  154.3071 C   0  0  0  0  0  0  0  0  0  0  0  0
  144.4886  143.4595  155.5229 C   0  0  0  0  0  0  0  0  0  0  0  0
  145.3879  142.3952  155.7271 C   0  0  0  0  0  0  0  0  0  0  0  0
  146.3163  142.0293  154.7328 C   0  0  0  0  0  0  0  0  0  0  0  0
  147.1584  140.9761  155.0180 O   0  0  0  0  0  0  0  0  0  0  0  0
  148.2539  140.7342  154.1447 C   0  0  0  0  0  0  0  0  0  0  0  0
  149.5172  140.5004  154.9856 C   0  0  1  0  0  0  0  0  0  0  0  0
  150.5259  139.9716  154.1474 O   0  0  0  0  0  0  0  0  0  0  0  0
  150.0223  141.7914  155.6591 C   0  0  0  0  0  0  0  0  0  0  0  0
  150.7847  141.5259  156.8655 N   0  0  0  0  0  0  0  0  0  0  0  0
  151.1486  140.3234  157.3515 C   0  0  0  0  0  0  0  0  0  0  0  0
  151.8484  140.3102  158.4826 N   0  0  0  0  0  0  0  0  0  0  0  0
  151.9572  141.6621  158.7598 C   0  0  0  0  0  0  0  0  0  0  0  0
  152.5904  142.3316  159.8315 C   0  0  0  0  0  0  0  0  0  0  0  0
  152.5719  143.7401  159.9047 C   0  0  0  0  0  0  0  0  0  0  0  0
  151.9211  144.4997  158.9107 C   0  0  0  0  0  0  0  0  0  0  0  0
  151.2822  143.8553  157.8340 C   0  0  0  0  0  0  0  0  0  0  0  0
  151.3034  142.4501  157.7650 C   0  0  0  0  0  0  0  0  0  0  0  0
  146.3294  142.7550  153.5165 C   0  0  0  0  0  0  0  0  0  0  0  0
  145.4312  143.8201  153.3129 C   0  0  0  0  0  0  0  0  0  0  0  0
  142.2115  146.5415  154.6797 H   0  0  0  0  0  0  0  0  0  0  0  0
  143.3927  146.0927  155.9046 H   0  0  0  0  0  0  0  0  0  0  0  0
  142.1309  144.9405  155.4058 H   0  0  0  0  0  0  0  0  0  0  0  0
  143.7969  143.6984  156.3161 H   0  0  0  0  0  0  0  0  0  0  0  0
  145.3636  141.8519  156.6605 H   0  0  0  0  0  0  0  0  0  0  0  0
  148.0447  139.8485  153.5421 H   0  0  0  0  0  0  0  0  0  0  0  0
  148.4062  141.5763  153.4674 H   0  0  0  0  0  0  0  0  0  0  0  0
  149.3004  139.7498  155.7467 H   0  0  0  0  0  0  0  0  0  0  0  0
  150.2335  139.1348  153.8193 H   0  0  0  0  0  0  0  0  0  0  0  0
  150.6453  142.3632  154.9695 H   0  0  0  0  0  0  0  0  0  0  0  0
  149.1824  142.4340  155.9255 H   0  0  0  0  0  0  0  0  0  0  0  0
  150.8805  139.4056  156.8484 H   0  0  0  0  0  0  0  0  0  0  0  0
  153.0918  141.7601  160.5985 H   0  0  0  0  0  0  0  0  0  0  0  0
  153.0601  144.2405  160.7281 H   0  0  0  0  0  0  0  0  0  0  0  0
  151.9124  145.5779  158.9754 H   0  0  0  0  0  0  0  0  0  0  0  0
  150.7820  144.4332  157.0709 H   0  0  0  0  0  0  0  0  0  0  0  0
  147.0191  142.5153  152.7218 H   0  0  0  0  0  0  0  0  0  0  0  0
  145.4560  144.3630  152.3794 H   0  0  0  0  0  0  0  0  0  0  0  0
  1  2  1  0  0  0  0
  1 23  1  0  0  0  0
  1 24  1  0  0  0  0
  1 25  1  0  0  0  0
  2  3  1  0  0  0  0
  3 22  1  0  0  0  0
  3  4  2  0  0  0  0
  4  5  1  0  0  0  0
  4 26  1  0  0  0  0
  5  6  2  0  0  0  0
  5 27  1  0  0  0  0
  6  7  1  0  0  0  0
  6 21  1  0  0  0  0
  7  8  1  0  0  0  0
  8  9  1  0  0  0  0
  8 28  1  0  0  0  0
  8 29  1  0  0  0  0
  9 10  1  0  0  0  0
  9 11  1  0  0  0  0
  9 30  1  0  0  0  0
 10 31  1  0  0  0  0
 11 12  1  0  0  0  0
 11 32  1  0  0  0  0
 11 33  1  0  0  0  0
 12 20  1  0  0  0  0
 12 13  1  0  0  0  0
 13 14  2  0  0  0  0
 13 34  1  0  0  0  0
 14 15  1  0  0  0  0
 15 20  2  0  0  0  0
 15 16  1  0  0  0  0
 16 17  2  0  0  0  0
 16 35  1  0  0  0  0
 17 18  1  0  0  0  0
 17 36  1  0  0  0  0
 18 19  2  0  0  0  0
 18 37  1  0  0  0  0
 19 20  1  0  0  0  0
 19 38  1  0  0  0  0
 21 22  2  0  0  0  0
 21 39  1  0  0  0  0
 22 40  1  0  0  0  0
M  END
> <s_m_source_file>
AV-unprocessed.smi

> <i_m_source_file_index>
2126

> <i_lp_mmshare_version>
43012

> <i_f3d_flags>
0

> <s_epik_input>
W0NIM11PYzFbY0hdW2NIXWMoW2NIXVtjSF0xKU9bQ0gyXVtDQEhdKFtPSF0pW0NIMl1uKFtjSF1uMiljKGMyMylbY0hdW2NIXVtjSF1bY0hdMw==

> <s_epik_cmdline>
J2VwaWtfcHl0aG9uJywgJy1waCcsICc3LjAnLCAnLXRuJywgJzgnLCAnLW1hJywgJzIwMCcsICctbWV0YWxfYmluZGluZycsICctaW1hZScsICc8aW5maWxlLm1hZT4nLCAnLW9tYWUnLCAnPG91dGZpbGUubWFlPic=

> <r_lp_tautomer_probability>
1

> <r_epik_Ionization_Penalty>
0.0608933

> <r_epik_Ionization_Penalty_Charging>
0

> <r_epik_Ionization_Penalty_Neutral>
0.0608933

> <r_epik_State_Penalty>
0.0528196

> <r_epik_Charging_Adjusted_Penalty>
0.0528196

> <i_epik_Tot_Q>
0

> <i_epik_Tot_abs_Q>
0

> <r_epik_Metal_State_Penalty>
5.52429e-05

> <b_epik_Metal_Only>
0

> <s_lp_Force_Field>
OPLS_2005

> <r_lp_Energy>
17.4847

> <b_lp_Chiralities_Consistent>
1

> <s_lp_Variant>
AV-unprocessed.smi:2126-2

> <Gold.Version>
5.8.1

> <Gold.Id.Protein>
6NUR|6NUR_protein|mol2

> <Gold.PLP.Fitness>
51.9522

> <Gold.PLP.PLP>
-50.5387

> <Gold.PLP.part.hbond>
-1.7654

> <Gold.PLP.part.metal>
0.0000

> <Gold.PLP.part.buried>
-7.3153

> <Gold.PLP.part.nonpolar>
-41.2182

> <Gold.PLP.part.repulsive>
0.1605

> <Gold.PLP.ligand.clash>
0.0000

> <Gold.PLP.ligand.torsion>
0.8593

> <Gold.PLP.Chemscore.Hbond>
1.0000

> <Gold.PLP.Chemscore.CHOScore>
0.0000

> <Gold.PLP.Chemscore.Metal>
0.0000

> <Gold.Chemscore.Hbonds>
donor molecule, donor type, donor heavy atom, donor atom, acceptor molecule, acceptor atom, score
      P1  H  7989  7998       L1    10  1.00

> <Gold.PLP.Chemscore.Internal.Correction>
0.1320

> <Gold.Rescore>
     Score         DG    S(hbond)    S(metal)    S(lipo)     H(rot)  DE(clash)    DE(int)     intcor
     16.52     -17.63       0.96        0.00     131.30       2.51       0.22       0.89       ----

> <Gold.Chemscore.Fitness>
16.5178

> <Gold.Chemscore.DG>
-17.6309

> <Gold.Chemscore.ZeroCoef>
-5.4800

> <Gold.Chemscore.Hbond>
0.9610

> <Gold.Chemscore.Metal>
0.0000

> <Gold.Chemscore.Lipo>
131.3022

> <Gold.Chemscore.Internal_Hbond>
0.0000

> <Gold.Chemscore.DEClash>
0.2222

> <Gold.Chemscore.DEInternal>
0.8910

> <Gold.Chemscore.Rot>
2.5083

> <Gold.Chemscore.Internal.Correction>
   9.000000E+99

> <Gold.Chemscore.Hbonds>
donor molecule, donor type, donor heavy atom, donor atom, acceptor molecule, acceptor atom, score
      P1  H  7989  7998       L1    10  0.95

> <Gold.Chemscore.Hbond.Weighted>
-3.2097

> <Gold.Chemscore.Metal.Weighted>
-0.0000

> <Gold.Chemscore.Lipo.Weighted>
-15.3624

> <Gold.Chemscore.Internal_Hbond.Weighted>
0.0000

> <Gold.Chemscore.DEClash.Weighted>
0.2222

> <Gold.Chemscore.DEInternal.Weighted>
0.8910

> <Gold.Chemscore.Rot.Weighted>
6.4212

> <Gold.Chemscore.Internal.Correction.Weighted>
   9.000000E+99

> <Gold.Protein.RotatedTorsions>
[ 6907 6896 6895 6894 ] final  -56.73 input  -60.11 | X-H torsion
[ 7974 7965 7964 7962 ] final  156.55 input  175.53 | X-H torsion
[ 8008 7997 7996 7995 ] final   30.84 input   59.86 | X-H torsion
[ 10167 10162 10161 10158 ] final  -86.48 input  -65.29 | X-H torsion
[ 10718 10713 10712 10709 ] final -116.56 input   66.30 | X-H torsion
[ 10763 10752 10751 10750 ] final -131.61 input  -60.55 | X-H torsion
[ 11005 11000 10999 10996 ] final  -82.17 input  -57.11 | X-H torsion

> <Gold.Protein.ActiveResidues>
 VAL166  LYS551  ARG553  GLY616  TRP617  ASP618  TYR619  PRO620  LYS621  CYS622 
 ASP623  PHE694  ASN695  SER759  ASP760  ASP761  ALA762  ILE779  LEU786  VAL792 
 PHE793  MET794  SER795  GLU796  ALA797  LYS798  CYS799  TRP800  GLU811  SER814 

> <Gold.Protein.RotatedAtoms>
  150.8144  134.7317  159.6716 H   0  0  0  0  0  0  0  0  0  0  0  0  # atno 6907 bound_to 6896
  152.4263  134.5859  159.9970 H   0  0  0  0  0  0  0  0  0  0  0  0  # atno 6908 bound_to 6896
  151.6060  133.3314  159.3093 H   0  0  0  0  0  0  0  0  0  0  0  0  # atno 6909 bound_to 6896
  144.7956  139.7219  143.6203 H   0  0  0  0  0  0  0  0  0  0  0  0  # atno 7974 bound_to 7965
  155.0968  140.3225  155.4558 H   0  0  0  0  0  0  0  0  0  0  0  0  # atno 8008 bound_to 7997
  156.2728  140.2068  156.6041 H   0  0  0  0  0  0  0  0  0  0  0  0  # atno 8009 bound_to 7997
  154.6860  140.0521  157.0302 H   0  0  0  0  0  0  0  0  0  0  0  0  # atno 8010 bound_to 7997
  140.3937  143.2693  151.9232 H   0  0  0  0  0  0  0  0  0  0  0  0  # atno 10167 bound_to 10162
  156.0972  130.6142  150.9051 H   0  0  0  0  0  0  0  0  0  0  0  0  # atno 10718 bound_to 10713
  154.8749  135.3824  154.4275 H   0  0  0  0  0  0  0  0  0  0  0  0  # atno 10763 bound_to 10752
  153.4973  135.7030  153.5856 H   0  0  0  0  0  0  0  0  0  0  0  0  # atno 10764 bound_to 10752
  153.4204  135.3903  155.2074 H   0  0  0  0  0  0  0  0  0  0  0  0  # atno 10765 bound_to 10752
  141.1664  133.7232  156.8532 H   0  0  0  0  0  0  0  0  0  0  0  0  # atno 11005 bound_to 11000
  146.2223  139.5659  142.9610 LP  0  0  0  0  0  0  0  0  0  0  0  0  # atno 17320 bound_to 7965
  145.5681  141.0397  143.2189 LP  0  0  0  0  0  0  0  0  0  0  0  0  # atno 17321 bound_to 7965
  139.4788  144.5702  151.8100 LP  0  0  0  0  0  0  0  0  0  0  0  0  # atno 17342 bound_to 10162
  140.4813  144.1445  150.5933 LP  0  0  0  0  0  0  0  0  0  0  0  0  # atno 17343 bound_to 10162
  157.6135  131.0935  150.8752 LP  0  0  0  0  0  0  0  0  0  0  0  0  # atno 17370 bound_to 10713
  156.8888  130.5205  149.5287 LP  0  0  0  0  0  0  0  0  0  0  0  0  # atno 17371 bound_to 10713
  140.1901  134.8972  157.3050 LP  0  0  0  0  0  0  0  0  0  0  0  0  # atno 17394 bound_to 11000
  140.2300  134.3921  155.7526 LP  0  0  0  0  0  0  0  0  0  0  0  0  # atno 17395 bound_to 11000

$$$$
