AV-unprocessed.smi:988|AV-procd|sdf|4324|dock9
  -GOLD-   22720 2233D 1   1.00000     0.00000
 Structure written by MMmdl.
 28 28  0  0  0  0  0  0  0  0  1 V2000
  152.8913  142.6168  160.8410 C   0  0  0  0  0  0  0  0  0  0  0  0
  151.6185  142.6690  160.2220 O   0  0  0  0  0  0  0  0  0  0  0  0
  151.5154  143.7179  159.2727 C   0  0  0  0  0  0  0  0  0  0  0  0
  150.1112  143.7158  158.6508 C   0  0  0  0  0  0  0  0  0  0  0  0
  150.0804  142.9106  157.4357 N   0  0  0  0  0  0  0  0  0  0  0  0
  150.6091  141.6840  157.3060 C   0  0  0  0  0  0  0  0  0  0  0  0
  151.1149  141.0570  158.2365 O   0  0  0  0  0  0  0  0  0  0  0  0
  150.5835  141.0793  155.9025 C   0  0  0  0  0  0  0  0  0  0  0  0
  149.2326  141.0765  155.3688 N   0  0  0  0  0  0  0  0  0  0  0  0
  148.7988  140.6236  154.1396 C   0  0  0  0  0  0  0  0  0  0  0  0
  147.4523  140.8413  154.0795 C   0  0  0  0  0  0  0  0  0  0  0  0
  146.5978  140.5346  153.0038 N   0  0  0  0  0  0  0  0  0  0  0  0
  147.1482  141.4367  155.3361 C   0  0  0  0  0  0  0  0  0  0  0  0
  148.2157  141.5764  156.1058 N   0  0  0  0  0  0  0  0  0  0  0  0
  152.9127  141.8025  161.5651 H   0  0  0  0  0  0  0  0  0  0  0  0
  153.1122  143.5449  161.3697 H   0  0  0  0  0  0  0  0  0  0  0  0
  153.6777  142.4346  160.1075 H   0  0  0  0  0  0  0  0  0  0  0  0
  151.6979  144.6733  159.7667 H   0  0  0  0  0  0  0  0  0  0  0  0
  152.2713  143.6050  158.4933 H   0  0  0  0  0  0  0  0  0  0  0  0
  149.3681  143.3768  159.3746 H   0  0  0  0  0  0  0  0  0  0  0  0
  149.8339  144.7345  158.3786 H   0  0  0  0  0  0  0  0  0  0  0  0
  149.6866  143.3434  156.6127 H   0  0  0  0  0  0  0  0  0  0  0  0
  151.2223  141.6575  155.2336 H   0  0  0  0  0  0  0  0  0  0  0  0
  150.9753  140.0610  155.9241 H   0  0  0  0  0  0  0  0  0  0  0  0
  149.4799  140.1945  153.4190 H   0  0  0  0  0  0  0  0  0  0  0  0
  146.9409  140.1086  152.1545 H   0  0  0  0  0  0  0  0  0  0  0  0
  145.6071  140.7285  153.0361 H   0  0  0  0  0  0  0  0  0  0  0  0
  146.1910  141.7698  155.7094 H   0  0  0  0  0  0  0  0  0  0  0  0
  1  2  1  0  0  0  0
  1 15  1  0  0  0  0
  1 16  1  0  0  0  0
  1 17  1  0  0  0  0
  2  3  1  0  0  0  0
  3  4  1  0  0  0  0
  3 18  1  0  0  0  0
  3 19  1  0  0  0  0
  4  5  1  0  0  0  0
  4 20  1  0  0  0  0
  4 21  1  0  0  0  0
  5  6  1  0  0  0  0
  5 22  1  0  0  0  0
  6  7  2  0  0  0  0
  6  8  1  0  0  0  0
  8  9  1  0  0  0  0
  8 23  1  0  0  0  0
  8 24  1  0  0  0  0
  9 14  1  0  0  0  0
  9 10  1  0  0  0  0
 10 11  2  0  0  0  0
 10 25  1  0  0  0  0
 11 12  1  0  0  0  0
 11 13  1  0  0  0  0
 12 26  1  0  0  0  0
 12 27  1  0  0  0  0
 13 14  2  0  0  0  0
 13 28  1  0  0  0  0
M  END
> <s_m_source_file>
AV-unprocessed.smi

> <i_m_source_file_index>
988

> <i_lp_mmshare_version>
43012

> <i_f3d_flags>
0

> <s_epik_input>
W0NIM11PW0NIMl1bQ0gyXVtOSF1DKD1PKVtDSDJdbjFbY0hdYyhbTkgyXSlbY0hdbjE=

> <s_epik_cmdline>
J2VwaWtfcHl0aG9uJywgJy1waCcsICc3LjAnLCAnLXRuJywgJzgnLCAnLW1hJywgJzIwMCcsICctbWV0YWxfYmluZGluZycsICctaW1hZScsICc8aW5maWxlLm1hZT4nLCAnLW9tYWUnLCAnPG91dGZpbGUubWFlPic=

> <r_lp_tautomer_probability>
1

> <r_epik_Ionization_Penalty>
0.00010261

> <r_epik_Ionization_Penalty_Charging>
0

> <r_epik_Ionization_Penalty_Neutral>
0.00010261

> <r_epik_State_Penalty>
-0

> <r_epik_Charging_Adjusted_Penalty>
0

> <i_epik_Tot_Q>
0

> <i_epik_Tot_abs_Q>
0

> <r_epik_Metal_State_Penalty>
-0

> <b_epik_Metal_Only>
0

> <s_lp_Force_Field>
OPLS_2005

> <r_lp_Energy>
5.59493

> <b_lp_Chiralities_Consistent>
1

> <s_lp_Variant>
AV-unprocessed.smi:988-1

> <Gold.Version>
5.8.1

> <Gold.Id.Protein>
6NUR|6NUR_protein|mol2

> <Gold.PLP.Fitness>
35.4739

> <Gold.PLP.PLP>
-27.1296

> <Gold.PLP.part.hbond>
-2.3894

> <Gold.PLP.part.metal>
0.0000

> <Gold.PLP.part.buried>
-3.7867

> <Gold.PLP.part.nonpolar>
-22.0782

> <Gold.PLP.part.repulsive>
0.4369

> <Gold.PLP.ligand.clash>
0.0000

> <Gold.PLP.ligand.torsion>
0.3220

> <Gold.PLP.Chemscore.Hbond>
1.9920

> <Gold.PLP.Chemscore.CHOScore>
1.0000

> <Gold.PLP.Chemscore.Metal>
0.0000

> <Gold.Chemscore.Hbonds>
donor molecule, donor type, donor heavy atom, donor atom, acceptor molecule, acceptor atom, score
      L1  H     5    22       P1  8028  1.00
      L1  H    12    27       P1 10175  1.00
      L1  C    10    25       P1  7957  1.00

> <Gold.PLP.Chemscore.Internal.Correction>
0.0122

> <Gold.Rescore>
     Score         DG    S(hbond)    S(metal)    S(lipo)     H(rot)  DE(clash)    DE(int)     intcor
      8.52     -12.34       1.91        0.00      54.83       2.31       0.01       3.81       ----

> <Gold.Chemscore.Fitness>
8.5243

> <Gold.Chemscore.DG>
-12.3423

> <Gold.Chemscore.ZeroCoef>
-5.4800

> <Gold.Chemscore.Hbond>
1.9066

> <Gold.Chemscore.Metal>
0.0000

> <Gold.Chemscore.Lipo>
54.8313

> <Gold.Chemscore.Internal_Hbond>
0.0000

> <Gold.Chemscore.DEClash>
0.0082

> <Gold.Chemscore.DEInternal>
3.8098

> <Gold.Chemscore.Rot>
2.3129

> <Gold.Chemscore.Internal.Correction>
   9.000000E+99

> <Gold.Chemscore.Hbonds>
donor molecule, donor type, donor heavy atom, donor atom, acceptor molecule, acceptor atom, score
      L1  H     5    22       P1  8028  0.98
      L1  H    12    27       P1 10175  0.61

> <Gold.Chemscore.Hbond.Weighted>
-6.3682

> <Gold.Chemscore.Metal.Weighted>
-0.0000

> <Gold.Chemscore.Lipo.Weighted>
-6.4153

> <Gold.Chemscore.Internal_Hbond.Weighted>
0.0000

> <Gold.Chemscore.DEClash.Weighted>
0.0082

> <Gold.Chemscore.DEInternal.Weighted>
3.8098

> <Gold.Chemscore.Rot.Weighted>
5.9211

> <Gold.Chemscore.Internal.Correction.Weighted>
   9.000000E+99

> <Gold.Protein.RotatedTorsions>
[ 6907 6896 6895 6894 ] final  -82.44 input  -60.11 | X-H torsion
[ 7974 7965 7964 7962 ] final  -33.48 input  175.53 | X-H torsion
[ 8008 7997 7996 7995 ] final  131.95 input   59.86 | X-H torsion
[ 10167 10162 10161 10158 ] final -172.88 input  -65.29 | X-H torsion
[ 10718 10713 10712 10709 ] final -104.94 input   66.30 | X-H torsion
[ 10763 10752 10751 10750 ] final   61.84 input  -60.55 | X-H torsion
[ 11005 11000 10999 10996 ] final -155.34 input  -57.11 | X-H torsion

> <Gold.Protein.ActiveResidues>
 VAL166  LYS551  ARG553  GLY616  TRP617  ASP618  TYR619  PRO620  LYS621  CYS622 
 ASP623  PHE694  ASN695  SER759  ASP760  ASP761  ALA762  ILE779  LEU786  VAL792 
 PHE793  MET794  SER795  GLU796  ALA797  LYS798  CYS799  TRP800  GLU811  SER814 

> <Gold.Protein.RotatedAtoms>
  150.6897  134.3665  159.4972 H   0  0  0  0  0  0  0  0  0  0  0  0  # atno 6907 bound_to 6896
  152.1486  134.9003  160.0558 H   0  0  0  0  0  0  0  0  0  0  0  0  # atno 6908 bound_to 6896
  152.0109  133.3826  159.4256 H   0  0  0  0  0  0  0  0  0  0  0  0  # atno 6909 bound_to 6896
  146.0907  140.5921  142.8866 H   0  0  0  0  0  0  0  0  0  0  0  0  # atno 7974 bound_to 7965
  156.2976  140.2558  156.3009 H   0  0  0  0  0  0  0  0  0  0  0  0  # atno 8008 bound_to 7997
  154.9418  140.0396  157.2119 H   0  0  0  0  0  0  0  0  0  0  0  0  # atno 8009 bound_to 7997
  154.8119  140.2846  155.5851 H   0  0  0  0  0  0  0  0  0  0  0  0  # atno 8010 bound_to 7997
  139.5720  144.1621  152.1397 H   0  0  0  0  0  0  0  0  0  0  0  0  # atno 10167 bound_to 10162
  156.0325  130.5540  150.7469 H   0  0  0  0  0  0  0  0  0  0  0  0  # atno 10718 bound_to 10713
  152.9963  135.5486  154.6098 H   0  0  0  0  0  0  0  0  0  0  0  0  # atno 10763 bound_to 10752
  154.5421  135.2820  155.1088 H   0  0  0  0  0  0  0  0  0  0  0  0  # atno 10764 bound_to 10752
  154.2361  135.6425  153.5244 H   0  0  0  0  0  0  0  0  0  0  0  0  # atno 10765 bound_to 10752
  140.6875  134.4077  157.5222 H   0  0  0  0  0  0  0  0  0  0  0  0  # atno 11005 bound_to 11000
  144.7358  140.4804  143.6905 LP  0  0  0  0  0  0  0  0  0  0  0  0  # atno 17320 bound_to 7965
  145.6044  139.1507  143.3111 LP  0  0  0  0  0  0  0  0  0  0  0  0  # atno 17321 bound_to 7965
  140.1155  144.5419  150.6896 LP  0  0  0  0  0  0  0  0  0  0  0  0  # atno 17342 bound_to 10162
  140.7004  143.2431  151.4882 LP  0  0  0  0  0  0  0  0  0  0  0  0  # atno 17343 bound_to 10162
  157.5023  131.0919  151.0299 LP  0  0  0  0  0  0  0  0  0  0  0  0  # atno 17370 bound_to 10713
  157.0677  130.5851  149.5397 LP  0  0  0  0  0  0  0  0  0  0  0  0  # atno 17371 bound_to 10713
  139.8933  134.8733  156.2229 LP  0  0  0  0  0  0  0  0  0  0  0  0  # atno 17394 bound_to 11000
  141.0268  133.7010  156.1361 LP  0  0  0  0  0  0  0  0  0  0  0  0  # atno 17395 bound_to 11000

$$$$
