AV-unprocessed.smi:1225|AV-procd|sdf|5140|dock1
  -GOLD-   22720 4203D 1   1.00000     0.00000
 Structure written by MMmdl.
 49 51  0  0  0  0  0  0  0  0  2 V2000
  146.1578  129.9353  151.9107 C   0  0  0  0  0  0  0  0  0  0  0  0
  146.9637  131.0560  152.4721 C   0  0  0  0  0  0  0  0  0  0  0  0
  146.7710  132.3362  152.1472 N   0  0  0  0  0  0  0  0  0  0  0  0
  147.6502  133.1939  152.8111 C   0  0  0  0  0  0  0  0  0  0  0  0
  148.5294  132.5498  153.6466 C   0  0  0  0  0  0  0  0  0  0  0  0
  149.5927  133.1646  154.4996 C   0  0  0  0  0  0  0  0  0  0  0  0
  149.3960  134.6222  154.7020 N   0  3  1  0  0  0  0  0  0  0  0  0
  148.0462  134.9176  155.2380 C   0  0  0  0  0  0  0  0  0  0  0  0
  150.4864  135.2575  155.4912 C   0  0  0  0  0  0  0  0  0  0  0  0
  150.7875  136.7001  155.0405 C   0  0  2  0  0  0  0  0  0  0  0  0
  151.7985  136.6683  154.0511 O   0  0  0  0  0  0  0  0  0  0  0  0
  151.2604  137.5753  156.2165 C   0  0  0  0  0  0  0  0  0  0  0  0
  150.8395  138.9575  156.0794 N   0  0  0  0  0  0  0  0  0  0  0  0
  150.1225  139.4988  155.0754 C   0  0  0  0  0  0  0  0  0  0  0  0
  149.8475  140.7975  155.1565 N   0  0  0  0  0  0  0  0  0  0  0  0
  150.4640  141.1405  156.3478 C   0  0  0  0  0  0  0  0  0  0  0  0
  150.5511  142.3834  157.0122 C   0  0  0  0  0  0  0  0  0  0  0  0
  151.2446  142.5028  158.2378 C   0  0  0  0  0  0  0  0  0  0  0  0
  151.3169  143.8592  158.9166 C   0  0  0  0  0  0  0  0  0  0  0  0
  151.8625  141.3662  158.8189 C   0  0  0  0  0  0  0  0  0  0  0  0
  152.6139  141.4709  160.1342 C   0  0  0  0  0  0  0  0  0  0  0  0
  151.7836  140.1167  158.1692 C   0  0  0  0  0  0  0  0  0  0  0  0
  151.0932  140.0117  156.9492 C   0  0  0  0  0  0  0  0  0  0  0  0
  148.2618  130.8248  153.6365 S   0  0  0  0  0  0  0  0  0  0  0  0
  145.9288  130.1215  150.8611 H   0  0  0  0  0  0  0  0  0  0  0  0
  145.2227  129.8356  152.4622 H   0  0  0  0  0  0  0  0  0  0  0  0
  146.7104  128.9985  151.9853 H   0  0  0  0  0  0  0  0  0  0  0  0
  147.5834  134.2559  152.6253 H   0  0  0  0  0  0  0  0  0  0  0  0
  149.5849  132.6599  155.4667 H   0  0  0  0  0  0  0  0  0  0  0  0
  150.5798  132.9866  154.0702 H   0  0  0  0  0  0  0  0  0  0  0  0
  147.9273  134.5102  156.2428 H   0  0  0  0  0  0  0  0  0  0  0  0
  147.2752  134.4808  154.6024 H   0  0  0  0  0  0  0  0  0  0  0  0
  147.8532  135.9888  155.2784 H   0  0  0  0  0  0  0  0  0  0  0  0
  150.2219  135.2355  156.5495 H   0  0  0  0  0  0  0  0  0  0  0  0
  151.4067  134.6803  155.4020 H   0  0  0  0  0  0  0  0  0  0  0  0
  149.8984  137.1556  154.6057 H   0  0  0  0  0  0  0  0  0  0  0  0
  151.3909  136.5279  153.2095 H   0  0  0  0  0  0  0  0  0  0  0  0
  150.8588  137.1930  157.1558 H   0  0  0  0  0  0  0  0  0  0  0  0
  152.3475  137.5448  156.3075 H   0  0  0  0  0  0  0  0  0  0  0  0
  149.7796  138.9057  154.2401 H   0  0  0  0  0  0  0  0  0  0  0  0
  150.0802  143.2489  156.5698 H   0  0  0  0  0  0  0  0  0  0  0  0
  150.8357  143.8224  159.8942 H   0  0  0  0  0  0  0  0  0  0  0  0
  150.8179  144.6281  158.3260 H   0  0  0  0  0  0  0  0  0  0  0  0
  152.3547  144.1639  159.0524 H   0  0  0  0  0  0  0  0  0  0  0  0
  153.0104  140.5037  160.4444 H   0  0  0  0  0  0  0  0  0  0  0  0
  151.9542  141.8308  160.9240 H   0  0  0  0  0  0  0  0  0  0  0  0
  153.4521  142.1617  160.0408 H   0  0  0  0  0  0  0  0  0  0  0  0
  152.2502  139.2433  158.5999 H   0  0  0  0  0  0  0  0  0  0  0  0
  149.4368  135.0363  153.7812 H   0  0  0  0  0  0  0  0  0  0  0  0
  1  2  1  0  0  0  0
  1 25  1  0  0  0  0
  1 26  1  0  0  0  0
  1 27  1  0  0  0  0
  2 24  1  0  0  0  0
  2  3  2  0  0  0  0
  3  4  1  0  0  0  0
  4  5  2  0  0  0  0
  4 28  1  0  0  0  0
  5  6  1  0  0  0  0
  5 24  1  0  0  0  0
  6  7  1  0  0  0  0
  6 29  1  0  0  0  0
  6 30  1  0  0  0  0
  7  8  1  0  0  0  0
  7  9  1  0  0  0  0
  7 49  1  0  0  0  0
  8 31  1  0  0  0  0
  8 32  1  0  0  0  0
  8 33  1  0  0  0  0
  9 10  1  0  0  0  0
  9 34  1  0  0  0  0
  9 35  1  0  0  0  0
 10 11  1  0  0  0  0
 10 12  1  0  0  0  0
 10 36  1  0  0  0  0
 11 37  1  0  0  0  0
 12 13  1  0  0  0  0
 12 38  1  0  0  0  0
 12 39  1  0  0  0  0
 13 23  1  0  0  0  0
 13 14  1  0  0  0  0
 14 15  2  0  0  0  0
 14 40  1  0  0  0  0
 15 16  1  0  0  0  0
 16 23  2  0  0  0  0
 16 17  1  0  0  0  0
 17 18  2  0  0  0  0
 17 41  1  0  0  0  0
 18 19  1  0  0  0  0
 18 20  1  0  0  0  0
 19 42  1  0  0  0  0
 19 43  1  0  0  0  0
 19 44  1  0  0  0  0
 20 21  1  0  0  0  0
 20 22  2  0  0  0  0
 21 45  1  0  0  0  0
 21 46  1  0  0  0  0
 21 47  1  0  0  0  0
 22 23  1  0  0  0  0
 22 48  1  0  0  0  0
M  CHG  1   7   1
M  END
> <s_m_source_file>
AV-unprocessed.smi

> <i_m_source_file_index>
1225

> <i_lp_mmshare_version>
43012

> <i_f3d_flags>
0

> <s_epik_input>
W0NIM11jMW5bY0hdYyhzMSlbQ0gyXU4oW0NIM10pW0NIMl1bQ0BIXShbT0hdKVtDSDJdbihbY0hdbjIpYyhjMjMpW2NIXWMoW0NIM10pYyhbY0hdMylbQ0gzXQ==

> <s_epik_cmdline>
J2VwaWtfcHl0aG9uJywgJy1waCcsICc3LjAnLCAnLXRuJywgJzgnLCAnLW1hJywgJzIwMCcsICctbWV0YWxfYmluZGluZycsICctaW1hZScsICc8aW5maWxlLm1hZT4nLCAnLW9tYWUnLCAnPG91dGZpbGUubWFlPic=

> <r_epik_Ionization_Penalty>
1.62543

> <r_epik_Ionization_Penalty_Charging>
1.53932

> <r_epik_Ionization_Penalty_Neutral>
0.0861152

> <r_epik_State_Penalty>
1.73127

> <r_epik_Charging_Adjusted_Penalty>
3.27059

> <i_epik_Tot_Q>
1

> <i_epik_Tot_abs_Q>
1

> <r_epik_Metal_State_Penalty>
1.71387

> <b_epik_Metal_Only>
0

> <s_lp_Force_Field>
OPLS_2005

> <r_lp_Energy>
11.3728

> <b_lp_Chiralities_Consistent>
1

> <s_lp_Variant>
AV-unprocessed.smi:1225-5

> <Gold.Version>
5.8.1

> <Gold.Id.Protein>
6NUR|6NUR_protein|mol2

> <Gold.PLP.Fitness>
60.0946

> <Gold.PLP.PLP>
-47.4601

> <Gold.PLP.part.hbond>
-4.0000

> <Gold.PLP.part.metal>
0.0000

> <Gold.PLP.part.buried>
-3.5037

> <Gold.PLP.part.nonpolar>
-39.9286

> <Gold.PLP.part.repulsive>
0.2593

> <Gold.PLP.ligand.clash>
0.0000

> <Gold.PLP.ligand.torsion>
1.4551

> <Gold.PLP.Chemscore.Hbond>
4.0000

> <Gold.PLP.Chemscore.CHOScore>
1.0000

> <Gold.PLP.Chemscore.Metal>
0.0000

> <Gold.Chemscore.Hbonds>
donor molecule, donor type, donor heavy atom, donor atom, acceptor molecule, acceptor atom, score
      L1  H     7    49       P1  7948  0.65
      L1  H    11    37       P1  7949  1.00
      P1  H 10752 10765       L1    11  1.00
      L1  C     4    28       P1  7948  1.00

> <Gold.PLP.Chemscore.Internal.Correction>
0.5448

> <Gold.Rescore>
     Score         DG    S(hbond)    S(metal)    S(lipo)     H(rot)  DE(clash)    DE(int)     intcor
     19.53     -21.26       2.33        0.00     120.23       2.37       0.06       1.68       ----

> <Gold.Chemscore.Fitness>
19.5277

> <Gold.Chemscore.DG>
-21.2643

> <Gold.Chemscore.ZeroCoef>
-5.4800

> <Gold.Chemscore.Hbond>
2.3346

> <Gold.Chemscore.Metal>
0.0000

> <Gold.Chemscore.Lipo>
120.2272

> <Gold.Chemscore.Internal_Hbond>
0.0000

> <Gold.Chemscore.DEClash>
0.0553

> <Gold.Chemscore.DEInternal>
1.6813

> <Gold.Chemscore.Rot>
2.3750

> <Gold.Chemscore.Internal.Correction>
   9.000000E+99

> <Gold.Chemscore.Hbonds>
donor molecule, donor type, donor heavy atom, donor atom, acceptor molecule, acceptor atom, score
      L1  H     7    49       P1  7948  0.05
      L1  H    11    37       P1  7949  0.78
      P1  H 10752 10765       L1    11  0.46

> <Gold.Chemscore.Hbond.Weighted>
-7.7977

> <Gold.Chemscore.Metal.Weighted>
-0.0000

> <Gold.Chemscore.Lipo.Weighted>
-14.0666

> <Gold.Chemscore.Internal_Hbond.Weighted>
0.0000

> <Gold.Chemscore.DEClash.Weighted>
0.0553

> <Gold.Chemscore.DEInternal.Weighted>
1.6813

> <Gold.Chemscore.Rot.Weighted>
6.0800

> <Gold.Chemscore.Internal.Correction.Weighted>
   9.000000E+99

> <Gold.Protein.RotatedTorsions>
[ 6907 6896 6895 6894 ] final -113.88 input  -60.11 | X-H torsion
[ 7974 7965 7964 7962 ] final  173.66 input  175.53 | X-H torsion
[ 8008 7997 7996 7995 ] final -117.74 input   59.86 | X-H torsion
[ 10167 10162 10161 10158 ] final  112.78 input  -65.29 | X-H torsion
[ 10718 10713 10712 10709 ] final   63.96 input   66.30 | X-H torsion
[ 10763 10752 10751 10750 ] final  149.76 input  -60.55 | X-H torsion
[ 11005 11000 10999 10996 ] final  -28.67 input  -57.11 | X-H torsion

> <Gold.Protein.ActiveResidues>
 VAL166  LYS551  ARG553  GLY616  TRP617  ASP618  TYR619  PRO620  LYS621  CYS622 
 ASP623  PHE694  ASN695  SER759  ASP760  ASP761  ALA762  ILE779  LEU786  VAL792 
 PHE793  MET794  SER795  GLU796  ALA797  LYS798  CYS799  TRP800  GLU811  SER814 

> <Gold.Protein.RotatedAtoms>
  150.7861  133.8882  159.3305 H   0  0  0  0  0  0  0  0  0  0  0  0  # atno 6907 bound_to 6896
  151.6732  135.0971  160.0211 H   0  0  0  0  0  0  0  0  0  0  0  0  # atno 6908 bound_to 6896
  152.3925  133.6660  159.6284 H   0  0  0  0  0  0  0  0  0  0  0  0  # atno 6909 bound_to 6896
  144.7238  139.9681  143.6436 H   0  0  0  0  0  0  0  0  0  0  0  0  # atno 7974 bound_to 7965
  155.0885  140.0395  157.2661 H   0  0  0  0  0  0  0  0  0  0  0  0  # atno 8008 bound_to 7997
  154.6851  140.2641  155.6844 H   0  0  0  0  0  0  0  0  0  0  0  0  # atno 8009 bound_to 7997
  156.2709  140.2771  156.1409 H   0  0  0  0  0  0  0  0  0  0  0  0  # atno 8010 bound_to 7997
  139.6510  144.7128  151.2049 H   0  0  0  0  0  0  0  0  0  0  0  0  # atno 10167 bound_to 10162
  157.6007  130.9134  149.9784 H   0  0  0  0  0  0  0  0  0  0  0  0  # atno 10718 bound_to 10713
  154.0764  135.2863  155.3298 H   0  0  0  0  0  0  0  0  0  0  0  0  # atno 10763 bound_to 10752
  154.6713  135.5298  153.8145 H   0  0  0  0  0  0  0  0  0  0  0  0  # atno 10764 bound_to 10752
  153.0465  135.6558  154.0942 H   0  0  0  0  0  0  0  0  0  0  0  0  # atno 10765 bound_to 10752
  140.9229  133.7387  156.0826 H   0  0  0  0  0  0  0  0  0  0  0  0  # atno 11005 bound_to 11000
  146.0584  139.3579  143.0596 LP  0  0  0  0  0  0  0  0  0  0  0  0  # atno 17320 bound_to 7965
  145.8124  140.9719  143.0942 LP  0  0  0  0  0  0  0  0  0  0  0  0  # atno 17321 bound_to 7965
  140.7537  143.6151  150.8568 LP  0  0  0  0  0  0  0  0  0  0  0  0  # atno 17342 bound_to 10162
  139.9799  143.5963  152.2946 LP  0  0  0  0  0  0  0  0  0  0  0  0  # atno 17343 bound_to 10162
  156.1080  130.3651  150.0099 LP  0  0  0  0  0  0  0  0  0  0  0  0  # atno 17370 bound_to 10713
  156.8203  130.9356  151.3641 LP  0  0  0  0  0  0  0  0  0  0  0  0  # atno 17371 bound_to 10713
  140.7965  134.3558  157.5451 LP  0  0  0  0  0  0  0  0  0  0  0  0  # atno 17394 bound_to 11000
  139.8779  134.9172  156.3172 LP  0  0  0  0  0  0  0  0  0  0  0  0  # atno 17395 bound_to 11000

$$$$
