AV-unprocessed.smi:1307|AV-procd|sdf|5436|dock1
  -GOLD-   22720 5 03D 1   1.00000     0.00000
 Structure written by MMmdl.
 41 41  0  0  0  0  0  0  0  0  1 V2000
  148.4623  138.9804  153.9593 C   0  0  0  0  0  0  0  0  0  0  0  0
  149.7455  139.5834  154.5595 C   0  0  0  0  0  0  0  0  0  0  0  0
  150.7734  138.4605  154.8027 C   0  0  0  0  0  0  0  0  0  0  0  0
  149.4599  140.4172  155.8385 C   0  0  2  0  0  0  0  0  0  0  0  0
  148.4486  141.5540  155.6120 C   0  0  0  0  0  0  0  0  0  0  0  0
  150.6935  141.0104  156.3557 N   0  0  0  0  0  0  0  0  0  0  0  0
  151.1277  140.9530  157.6243 C   0  0  0  0  0  0  0  0  0  0  0  0
  150.5195  140.3722  158.5245 O   0  0  0  0  0  0  0  0  0  0  0  0
  152.4727  141.6461  157.8983 C   0  0  0  0  0  0  0  0  0  0  0  0
  152.7308  141.9096  159.3366 N   0  0  0  0  0  0  0  0  0  0  0  0
  152.3292  143.1528  159.9189 C   0  0  0  0  0  0  0  0  0  0  0  0
  151.6791  144.2269  159.0342 C   0  0  0  0  0  0  0  0  0  0  0  0
  151.4451  145.3434  159.7255 F   0  0  0  0  0  0  0  0  0  0  0  0
  152.4588  144.5727  158.0100 F   0  0  0  0  0  0  0  0  0  0  0  0
  150.5025  143.8075  158.5678 F   0  0  0  0  0  0  0  0  0  0  0  0
  152.5559  143.3834  161.2252 C   0  0  0  0  0  0  0  0  0  0  0  0
  153.1910  142.3825  162.0371 C   0  0  0  0  0  0  0  0  0  0  0  0
  153.5823  141.2044  161.5007 C   0  0  0  0  0  0  0  0  0  0  0  0
  154.2401  140.1430  162.2964 C   0  0  0  0  0  0  0  0  0  0  0  0
  154.6444  140.5370  163.5107 N   0  0  0  0  0  0  0  0  0  0  0  0
  154.4435  138.9782  161.9538 O   0  0  0  0  0  0  0  0  0  0  0  0
  153.3570  140.9187  160.0603 C   0  0  0  0  0  0  0  0  0  0  0  0
  153.6990  139.8698  159.5054 O   0  0  0  0  0  0  0  0  0  0  0  0
  147.9463  138.3478  154.6823 H   0  0  0  0  0  0  0  0  0  0  0  0
  148.6876  138.3677  153.0859 H   0  0  0  0  0  0  0  0  0  0  0  0
  147.7660  139.7509  153.6305 H   0  0  0  0  0  0  0  0  0  0  0  0
  150.1724  140.2504  153.8092 H   0  0  0  0  0  0  0  0  0  0  0  0
  150.4421  137.7855  155.5924 H   0  0  0  0  0  0  0  0  0  0  0  0
  151.7479  138.8558  155.0897 H   0  0  0  0  0  0  0  0  0  0  0  0
  150.9278  137.8662  153.9017 H   0  0  0  0  0  0  0  0  0  0  0  0
  149.0323  139.7483  156.5873 H   0  0  0  0  0  0  0  0  0  0  0  0
  147.4632  141.1732  155.3459 H   0  0  0  0  0  0  0  0  0  0  0  0
  148.7756  142.2254  154.8174 H   0  0  0  0  0  0  0  0  0  0  0  0
  148.3222  142.1492  156.5173 H   0  0  0  0  0  0  0  0  0  0  0  0
  151.2672  141.5057  155.6888 H   0  0  0  0  0  0  0  0  0  0  0  0
  153.2597  141.0640  157.4283 H   0  0  0  0  0  0  0  0  0  0  0  0
  152.4972  142.5785  157.3309 H   0  0  0  0  0  0  0  0  0  0  0  0
  152.2713  144.3190  161.6830 H   0  0  0  0  0  0  0  0  0  0  0  0
  153.3367  142.6154  163.0814 H   0  0  0  0  0  0  0  0  0  0  0  0
  155.0990  139.8822  164.1302 H   0  0  0  0  0  0  0  0  0  0  0  0
  154.4866  141.4903  163.8038 H   0  0  0  0  0  0  0  0  0  0  0  0
  1  2  1  0  0  0  0
  1 24  1  0  0  0  0
  1 25  1  0  0  0  0
  1 26  1  0  0  0  0
  2  3  1  0  0  0  0
  2  4  1  0  0  0  0
  2 27  1  0  0  0  0
  3 28  1  0  0  0  0
  3 29  1  0  0  0  0
  3 30  1  0  0  0  0
  4  5  1  0  0  0  0
  4  6  1  0  0  0  0
  4 31  1  0  0  0  0
  5 32  1  0  0  0  0
  5 33  1  0  0  0  0
  5 34  1  0  0  0  0
  6  7  1  0  0  0  0
  6 35  1  0  0  0  0
  7  8  2  0  0  0  0
  7  9  1  0  0  0  0
  9 10  1  0  0  0  0
  9 36  1  0  0  0  0
  9 37  1  0  0  0  0
 10 22  1  0  0  0  0
 10 11  1  0  0  0  0
 11 12  1  0  0  0  0
 11 16  2  0  0  0  0
 12 13  1  0  0  0  0
 12 14  1  0  0  0  0
 12 15  1  0  0  0  0
 16 17  1  0  0  0  0
 16 38  1  0  0  0  0
 17 18  2  0  0  0  0
 17 39  1  0  0  0  0
 18 19  1  0  0  0  0
 18 22  1  0  0  0  0
 19 20  1  0  0  0  0
 19 21  2  0  0  0  0
 20 40  1  0  0  0  0
 20 41  1  0  0  0  0
 22 23  2  0  0  0  0
M  END
> <s_m_source_file>
AV-unprocessed.smi

> <i_m_source_file_index>
1307

> <i_lp_mmshare_version>
43012

> <i_f3d_flags>
0

> <s_epik_input>
W0NIM11bQ0hdKFtDSDNdKVtDQEhdKFtDSDNdKVtOSF1DKD1PKVtDSDJdbjFjKEMoRikoRilGKVtjSF1bY0hdYyhjMT1PKUMoPU8pW05IMl0=

> <s_epik_cmdline>
J2VwaWtfcHl0aG9uJywgJy1waCcsICc3LjAnLCAnLXRuJywgJzgnLCAnLW1hJywgJzIwMCcsICctbWV0YWxfYmluZGluZycsICctaW1hZScsICc8aW5maWxlLm1hZT4nLCAnLW9tYWUnLCAnPG91dGZpbGUubWFlPic=

> <r_lp_tautomer_probability>
1

> <r_epik_Ionization_Penalty>
2.05992e-06

> <r_epik_Ionization_Penalty_Charging>
8.21357e-10

> <r_epik_Ionization_Penalty_Neutral>
2.0591e-06

> <r_epik_State_Penalty>
-0

> <r_epik_Charging_Adjusted_Penalty>
8.21357e-10

> <i_epik_Tot_Q>
0

> <i_epik_Tot_abs_Q>
0

> <r_epik_Metal_State_Penalty>
-0

> <b_epik_Metal_Only>
0

> <s_lp_Force_Field>
OPLS_2005

> <r_lp_Energy>
26.4012

> <b_lp_Chiralities_Consistent>
1

> <s_lp_Variant>
AV-unprocessed.smi:1307-1

> <Gold.Version>
5.8.1

> <Gold.Id.Protein>
6NUR|6NUR_protein|mol2

> <Gold.PLP.Fitness>
49.9082

> <Gold.PLP.PLP>
-48.9624

> <Gold.PLP.part.hbond>
-2.0000

> <Gold.PLP.part.metal>
0.0000

> <Gold.PLP.part.buried>
-6.8704

> <Gold.PLP.part.nonpolar>
-39.2665

> <Gold.PLP.part.repulsive>
0.0870

> <Gold.PLP.ligand.clash>
3.9195

> <Gold.PLP.ligand.torsion>
0.8436

> <Gold.PLP.Chemscore.Hbond>
0.8151

> <Gold.PLP.Chemscore.CHOScore>
0.0000

> <Gold.PLP.Chemscore.Metal>
0.0000

> <Gold.PLP.Chemscore.Internal.Correction>
4.1073

> <Gold.Rescore>
     Score         DG    S(hbond)    S(metal)    S(lipo)     H(rot)  DE(clash)    DE(int)     intcor
      6.47     -11.02       0.00        0.00      90.50       1.97       0.07       4.47       ----

> <Gold.Chemscore.Fitness>
6.4742

> <Gold.Chemscore.DG>
-11.0195

> <Gold.Chemscore.ZeroCoef>
-5.4800

> <Gold.Chemscore.Hbond>
0.0000

> <Gold.Chemscore.Metal>
0.0000

> <Gold.Chemscore.Lipo>
90.5001

> <Gold.Chemscore.Internal_Hbond>
0.0000

> <Gold.Chemscore.DEClash>
0.0745

> <Gold.Chemscore.DEInternal>
4.4708

> <Gold.Chemscore.Rot>
1.9723

> <Gold.Chemscore.Internal.Correction>
   9.000000E+99

> <Gold.Chemscore.Hbond.Weighted>
-0.0000

> <Gold.Chemscore.Metal.Weighted>
-0.0000

> <Gold.Chemscore.Lipo.Weighted>
-10.5885

> <Gold.Chemscore.Internal_Hbond.Weighted>
0.0000

> <Gold.Chemscore.DEClash.Weighted>
0.0745

> <Gold.Chemscore.DEInternal.Weighted>
4.4708

> <Gold.Chemscore.Rot.Weighted>
5.0490

> <Gold.Chemscore.Internal.Correction.Weighted>
   9.000000E+99

> <Gold.Protein.RotatedTorsions>
[ 6907 6896 6895 6894 ] final   64.66 input  -60.11 | X-H torsion
[ 7974 7965 7964 7962 ] final -139.02 input  175.53 | X-H torsion
[ 8008 7997 7996 7995 ] final -104.42 input   59.86 | X-H torsion
[ 10167 10162 10161 10158 ] final   46.77 input  -65.29 | X-H torsion
[ 10718 10713 10712 10709 ] final   54.36 input   66.30 | X-H torsion
[ 10763 10752 10751 10750 ] final   34.72 input  -60.55 | X-H torsion
[ 11005 11000 10999 10996 ] final  -35.90 input  -57.11 | X-H torsion

> <Gold.Protein.ActiveResidues>
 VAL166  LYS551  ARG553  GLY616  TRP617  ASP618  TYR619  PRO620  LYS621  CYS622 
 ASP623  PHE694  ASN695  SER759  ASP760  ASP761  ALA762  ILE779  LEU786  VAL792 
 PHE793  MET794  SER795  GLU796  ALA797  LYS798  CYS799  TRP800  GLU811  SER814 

> <Gold.Protein.RotatedAtoms>
  152.4348  134.5707  159.9920 H   0  0  0  0  0  0  0  0  0  0  0  0  # atno 6907 bound_to 6896
  151.5820  133.3371  159.3018 H   0  0  0  0  0  0  0  0  0  0  0  0  # atno 6908 bound_to 6896
  150.8245  134.7505  159.6866 H   0  0  0  0  0  0  0  0  0  0  0  0  # atno 6909 bound_to 6896
  144.8710  140.6367  143.5267 H   0  0  0  0  0  0  0  0  0  0  0  0  # atno 7974 bound_to 7965
  154.8851  140.0418  157.1805 H   0  0  0  0  0  0  0  0  0  0  0  0  # atno 8008 bound_to 7997
  154.8599  140.2942  155.5524 H   0  0  0  0  0  0  0  0  0  0  0  0  # atno 8009 bound_to 7997
  156.2998  140.2449  156.3572 H   0  0  0  0  0  0  0  0  0  0  0  0  # atno 8010 bound_to 7997
  140.3105  144.2826  150.6201 H   0  0  0  0  0  0  0  0  0  0  0  0  # atno 10167 bound_to 10162
  157.5250  130.8591  149.8609 H   0  0  0  0  0  0  0  0  0  0  0  0  # atno 10718 bound_to 10713
  153.0151  135.6353  154.1713 H   0  0  0  0  0  0  0  0  0  0  0  0  # atno 10763 bound_to 10752
  154.1452  135.2832  155.3152 H   0  0  0  0  0  0  0  0  0  0  0  0  # atno 10764 bound_to 10752
  154.6095  135.5561  153.7519 H   0  0  0  0  0  0  0  0  0  0  0  0  # atno 10765 bound_to 10752
  140.9833  133.7044  156.1721 H   0  0  0  0  0  0  0  0  0  0  0  0  # atno 11005 bound_to 11000
  145.4130  139.1577  143.4115 LP  0  0  0  0  0  0  0  0  0  0  0  0  # atno 17320 bound_to 7965
  146.2930  140.4235  142.8732 LP  0  0  0  0  0  0  0  0  0  0  0  0  # atno 17321 bound_to 7965
  140.5572  143.2197  151.7827 LP  0  0  0  0  0  0  0  0  0  0  0  0  # atno 17342 bound_to 10162
  139.4895  144.4397  151.9778 LP  0  0  0  0  0  0  0  0  0  0  0  0  # atno 17343 bound_to 10162
  156.0380  130.3746  150.1509 LP  0  0  0  0  0  0  0  0  0  0  0  0  # atno 17370 bound_to 10713
  156.9696  130.9830  151.3462 LP  0  0  0  0  0  0  0  0  0  0  0  0  # atno 17371 bound_to 10713
  140.7153  134.4417  157.5579 LP  0  0  0  0  0  0  0  0  0  0  0  0  # atno 17394 bound_to 11000
  139.8959  134.8671  156.2109 LP  0  0  0  0  0  0  0  0  0  0  0  0  # atno 17395 bound_to 11000

$$$$
