AV-unprocessed.smi:2875|AV-procd|sdf|11040|dock4
  -GOLD-   2272015503D 1   1.00000     0.00000
 Structure written by MMmdl.
 40 40  0  0  0  0  0  0  0  0  1 V2000
  153.3583  142.6314  161.3422 C   0  0  0  0  0  0  0  0  0  0  0  0
  153.0231  142.2390  159.8999 C   0  0  0  0  0  0  0  0  0  0  0  0
  151.5428  141.8598  159.7277 C   0  0  0  0  0  0  0  0  0  0  0  0
  151.1859  141.6163  158.3438 N   0  0  0  0  0  0  0  0  0  0  0  0
  151.4738  140.4268  157.6681 C   0  0  0  0  0  0  0  0  0  0  0  0
  152.1281  139.4236  158.3683 N   0  0  0  0  0  0  0  0  0  0  0  0
  151.1322  140.2442  156.3570 C   0  0  0  0  0  0  0  0  0  0  0  0
  151.3880  139.0305  155.6897 N   0  0  0  0  0  0  0  0  0  0  0  0
  150.4292  137.9331  155.8995 C   0  0  0  0  0  0  0  0  0  0  0  0
  151.0738  136.7241  156.5968 C   0  0  0  0  0  0  0  0  0  0  0  0
  151.2637  135.6838  155.6528 O   0  0  0  0  0  0  0  0  0  0  0  0
  150.0479  135.0621  155.2773 C   0  0  0  0  0  0  0  0  0  0  0  0
  152.5025  138.8442  154.9349 C   0  0  0  0  0  0  0  0  0  0  0  0
  152.6935  137.5208  154.1842 C   0  0  0  0  0  0  0  0  0  0  0  0
  153.3663  139.7119  154.8041 O   0  0  0  0  0  0  0  0  0  0  0  0
  150.4093  141.2922  155.6217 C   0  0  0  0  0  0  0  0  0  0  0  0
  150.0441  141.2265  154.4485 O   0  0  0  0  0  0  0  0  0  0  0  0
  150.1276  142.4386  156.3603 N   0  0  0  0  0  0  0  0  0  0  0  0
  150.4732  142.6500  157.6900 C   0  0  0  0  0  0  0  0  0  0  0  0
  150.1494  143.7048  158.2369 O   0  0  0  0  0  0  0  0  0  0  0  0
  149.6225  143.1765  155.8918 H   0  0  0  0  0  0  0  0  0  0  0  0
  154.4130  142.8892  161.4398 H   0  0  0  0  0  0  0  0  0  0  0  0
  153.1504  141.8121  162.0308 H   0  0  0  0  0  0  0  0  0  0  0  0
  152.7734  143.4947  161.6606 H   0  0  0  0  0  0  0  0  0  0  0  0
  153.2711  143.0680  159.2359 H   0  0  0  0  0  0  0  0  0  0  0  0
  153.6570  141.4040  159.6001 H   0  0  0  0  0  0  0  0  0  0  0  0
  151.2751  140.9765  160.3102 H   0  0  0  0  0  0  0  0  0  0  0  0
  150.8823  142.6457  160.0930 H   0  0  0  0  0  0  0  0  0  0  0  0
  152.3934  139.5370  159.3364 H   0  0  0  0  0  0  0  0  0  0  0  0
  152.4292  138.5707  157.9189 H   0  0  0  0  0  0  0  0  0  0  0  0
  149.5830  138.2898  156.4892 H   0  0  0  0  0  0  0  0  0  0  0  0
  150.0029  137.6072  154.9498 H   0  0  0  0  0  0  0  0  0  0  0  0
  152.0214  137.0016  157.0604 H   0  0  0  0  0  0  0  0  0  0  0  0
  150.4169  136.3702  157.3924 H   0  0  0  0  0  0  0  0  0  0  0  0
  150.2490  134.2716  154.5545 H   0  0  0  0  0  0  0  0  0  0  0  0
  149.3660  135.7771  154.8154 H   0  0  0  0  0  0  0  0  0  0  0  0
  149.5539  134.6113  156.1391 H   0  0  0  0  0  0  0  0  0  0  0  0
  152.9330  136.7145  154.8771 H   0  0  0  0  0  0  0  0  0  0  0  0
  153.5158  137.6008  153.4724 H   0  0  0  0  0  0  0  0  0  0  0  0
  151.7979  137.2501  153.6240 H   0  0  0  0  0  0  0  0  0  0  0  0
  1  2  1  0  0  0  0
  1 22  1  0  0  0  0
  1 23  1  0  0  0  0
  1 24  1  0  0  0  0
  2  3  1  0  0  0  0
  2 25  1  0  0  0  0
  2 26  1  0  0  0  0
  3  4  1  0  0  0  0
  3 27  1  0  0  0  0
  3 28  1  0  0  0  0
  4 19  1  0  0  0  0
  4  5  1  0  0  0  0
  5  6  1  0  0  0  0
  5  7  2  0  0  0  0
  6 29  1  0  0  0  0
  6 30  1  0  0  0  0
  7  8  1  0  0  0  0
  7 16  1  0  0  0  0
  8  9  1  0  0  0  0
  8 13  1  0  0  0  0
  9 10  1  0  0  0  0
  9 31  1  0  0  0  0
  9 32  1  0  0  0  0
 10 11  1  0  0  0  0
 10 33  1  0  0  0  0
 10 34  1  0  0  0  0
 11 12  1  0  0  0  0
 12 35  1  0  0  0  0
 12 36  1  0  0  0  0
 12 37  1  0  0  0  0
 13 14  1  0  0  0  0
 13 15  2  0  0  0  0
 14 38  1  0  0  0  0
 14 39  1  0  0  0  0
 14 40  1  0  0  0  0
 16 17  2  0  0  0  0
 16 18  1  0  0  0  0
 18 21  1  0  0  0  0
 18 19  1  0  0  0  0
 19 20  2  0  0  0  0
M  END
> <s_m_source_file>
AV-unprocessed.smi

> <i_m_source_file_index>
2875

> <i_lp_mmshare_version>
43012

> <i_f3d_flags>
0

> <s_epik_input>
W0NIM11bQ0gyXVtDSDJdbjFjKFtOSDJdKWMoYyg9TylbbkhdYzE9TylOKEMoPU8pW0NIM10pW0NIMl1bQ0gyXU9bQ0gzXQ==

> <s_epik_cmdline>
J2VwaWtfcHl0aG9uJywgJy1waCcsICc3LjAnLCAnLXRuJywgJzgnLCAnLW1hJywgJzIwMCcsICctbWV0YWxfYmluZGluZycsICctaW1hZScsICc8aW5maWxlLm1hZT4nLCAnLW9tYWUnLCAnPG91dGZpbGUubWFlPic=

> <r_lp_tautomer_probability>
1

> <r_epik_Ionization_Penalty>
1.36284e-05

> <r_epik_Ionization_Penalty_Charging>
6.32507e-06

> <r_epik_Ionization_Penalty_Neutral>
7.30329e-06

> <r_epik_State_Penalty>
-0

> <r_epik_Charging_Adjusted_Penalty>
6.32507e-06

> <i_epik_Tot_Q>
0

> <i_epik_Tot_abs_Q>
0

> <r_epik_Metal_State_Penalty>
0.00594323

> <b_epik_Metal_Only>
0

> <s_epik_Chemistry_Notes>
This compound has an imine and may undergo hydrolysis.

> <s_lp_Force_Field>
OPLS_2005

> <r_lp_Energy>
24.7155

> <b_lp_Chiralities_Consistent>
1

> <s_lp_Variant>
AV-unprocessed.smi:2875-1

> <Gold.Version>
5.8.1

> <Gold.Id.Protein>
6NUR|6NUR_protein|mol2

> <Gold.PLP.Fitness>
39.6261

> <Gold.PLP.PLP>
-31.0332

> <Gold.PLP.part.hbond>
-5.4998

> <Gold.PLP.part.metal>
0.0000

> <Gold.PLP.part.buried>
2.3272

> <Gold.PLP.part.nonpolar>
-28.2263

> <Gold.PLP.part.repulsive>
0.6287

> <Gold.PLP.ligand.clash>
0.0000

> <Gold.PLP.ligand.torsion>
2.1192

> <Gold.PLP.Chemscore.Hbond>
3.5061

> <Gold.PLP.Chemscore.CHOScore>
0.0000

> <Gold.PLP.Chemscore.Metal>
0.0000

> <Gold.Chemscore.Hbonds>
donor molecule, donor type, donor heavy atom, donor atom, acceptor molecule, acceptor atom, score
      L1  H    18    21       P1  8028  1.00
      P1  H  7989  7998       L1    17  0.48
      P1  H  7997  8009       L1    15  1.00
      P1  H 10752 10764       L1    11  1.00

> <Gold.PLP.Chemscore.Internal.Correction>
2.3129

> <Gold.Rescore>
     Score         DG    S(hbond)    S(metal)    S(lipo)     H(rot)  DE(clash)    DE(int)     intcor
     11.89     -17.59       3.19        0.00      57.86       2.08       1.95       3.74       ----

> <Gold.Chemscore.Fitness>
11.8941

> <Gold.Chemscore.DG>
-17.5885

> <Gold.Chemscore.ZeroCoef>
-5.4800

> <Gold.Chemscore.Hbond>
3.1898

> <Gold.Chemscore.Metal>
0.0000

> <Gold.Chemscore.Lipo>
57.8619

> <Gold.Chemscore.Internal_Hbond>
0.0000

> <Gold.Chemscore.DEClash>
1.9546

> <Gold.Chemscore.DEInternal>
3.7398

> <Gold.Chemscore.Rot>
2.0763

> <Gold.Chemscore.Internal.Correction>
   9.000000E+99

> <Gold.Chemscore.Hbonds>
donor molecule, donor type, donor heavy atom, donor atom, acceptor molecule, acceptor atom, score
      L1  H    18    21       P1  8028  0.99
      P1  H  7989  7998       L1    17  0.24
      P1  H  7997  8009       L1    15  0.98
      P1  H  8011  8017       L1    17  0.04
      P1  H 10752 10764       L1    11  0.95

> <Gold.Chemscore.Hbond.Weighted>
-10.6539

> <Gold.Chemscore.Metal.Weighted>
-0.0000

> <Gold.Chemscore.Lipo.Weighted>
-6.7698

> <Gold.Chemscore.Internal_Hbond.Weighted>
0.0000

> <Gold.Chemscore.DEClash.Weighted>
1.9546

> <Gold.Chemscore.DEInternal.Weighted>
3.7398

> <Gold.Chemscore.Rot.Weighted>
5.3153

> <Gold.Chemscore.Internal.Correction.Weighted>
   9.000000E+99

> <Gold.Protein.RotatedTorsions>
[ 6907 6896 6895 6894 ] final  161.75 input  -60.11 | X-H torsion
[ 7974 7965 7964 7962 ] final -161.54 input  175.53 | X-H torsion
[ 8008 7997 7996 7995 ] final -126.16 input   59.86 | X-H torsion
[ 10167 10162 10161 10158 ] final  -79.20 input  -65.29 | X-H torsion
[ 10718 10713 10712 10709 ] final -178.14 input   66.30 | X-H torsion
[ 10763 10752 10751 10750 ] final  -58.24 input  -60.55 | X-H torsion
[ 11005 11000 10999 10996 ] final  -10.92 input  -57.11 | X-H torsion

> <Gold.Protein.ActiveResidues>
 VAL166  LYS551  ARG553  GLY616  TRP617  ASP618  TYR619  PRO620  LYS621  CYS622 
 ASP623  PHE694  ASN695  SER759  ASP760  ASP761  ALA762  ILE779  LEU786  VAL792 
 PHE793  MET794  SER795  GLU796  ALA797  LYS798  CYS799  TRP800  GLU811  SER814 

> <Gold.Protein.RotatedAtoms>
  151.9508  133.3665  159.3999 H   0  0  0  0  0  0  0  0  0  0  0  0  # atno 6907 bound_to 6896
  150.6981  134.4342  159.5271 H   0  0  0  0  0  0  0  0  0  0  0  0  # atno 6908 bound_to 6896
  152.2015  134.8584  160.0558 H   0  0  0  0  0  0  0  0  0  0  0  0  # atno 6909 bound_to 6896
  144.7388  140.3383  143.6140 H   0  0  0  0  0  0  0  0  0  0  0  0  # atno 7974 bound_to 7965
  155.2252  140.0423  157.2954 H   0  0  0  0  0  0  0  0  0  0  0  0  # atno 8008 bound_to 7997
  154.5924  140.2430  155.7873 H   0  0  0  0  0  0  0  0  0  0  0  0  # atno 8009 bound_to 7997
  156.2268  140.2952  156.0095 H   0  0  0  0  0  0  0  0  0  0  0  0  # atno 8010 bound_to 7997
  140.4614  143.2452  151.8342 H   0  0  0  0  0  0  0  0  0  0  0  0  # atno 10167 bound_to 10162
  156.8398  130.9682  151.3101 H   0  0  0  0  0  0  0  0  0  0  0  0  # atno 10718 bound_to 10713
  154.2350  135.6354  153.5188 H   0  0  0  0  0  0  0  0  0  0  0  0  # atno 10763 bound_to 10752
  152.9941  135.5528  154.5971 H   0  0  0  0  0  0  0  0  0  0  0  0  # atno 10764 bound_to 10752
  154.5463  135.2898  155.1024 H   0  0  0  0  0  0  0  0  0  0  0  0  # atno 10765 bound_to 10752
  140.7498  133.8601  155.9036 H   0  0  0  0  0  0  0  0  0  0  0  0  # atno 11005 bound_to 11000
  145.7401  139.1761  143.2381 LP  0  0  0  0  0  0  0  0  0  0  0  0  # atno 17320 bound_to 7965
  146.1141  140.7392  142.9489 LP  0  0  0  0  0  0  0  0  0  0  0  0  # atno 17321 bound_to 7965
  139.4807  144.5002  151.9070 LP  0  0  0  0  0  0  0  0  0  0  0  0  # atno 17342 bound_to 10162
  140.4088  144.2396  150.5889 LP  0  0  0  0  0  0  0  0  0  0  0  0  # atno 17343 bound_to 10162
  157.6361  130.8768  149.9362 LP  0  0  0  0  0  0  0  0  0  0  0  0  # atno 17370 bound_to 10713
  156.0887  130.3665  150.0438 LP  0  0  0  0  0  0  0  0  0  0  0  0  # atno 17371 bound_to 10713
  140.9761  134.1467  157.4535 LP  0  0  0  0  0  0  0  0  0  0  0  0  # atno 17394 bound_to 11000
  139.8790  134.9995  156.5957 LP  0  0  0  0  0  0  0  0  0  0  0  0  # atno 17395 bound_to 11000

$$$$
