AV-unprocessed.smi:3347|AV-procd|sdf|12911|dock6
  -GOLD-   2272019323D 1   1.00000     0.00000
 Structure written by MMmdl.
 40 42  0  0  0  0  0  0  0  0  2 V2000
  150.0270  135.0768  156.0304 O   0  0  0  0  0  0  0  0  0  0  0  0
  149.6478  135.4788  154.9311 C   0  0  0  0  0  0  0  0  0  0  0  0
  148.8715  134.7555  154.1114 N   0  0  0  0  0  0  0  0  0  0  0  0
  148.3353  133.4294  154.4032 C   0  0  0  0  0  0  0  0  0  0  0  0
  147.9926  132.6445  153.1225 C   0  0  2  0  0  0  0  0  0  0  0  0
  146.7243  133.1333  152.4255 C   0  0  0  0  0  0  0  0  0  0  0  0
  146.2835  131.9451  151.5622 C   0  0  0  0  0  0  0  0  0  0  0  0
  146.9428  130.7423  152.1221 N   0  3  2  0  0  0  0  0  0  0  0  0
  146.0321  129.5992  152.3440 C   0  0  0  0  0  0  0  0  0  0  0  0
  146.5884  128.5584  153.2859 C   0  0  0  0  0  0  0  0  0  0  0  0
  146.5566  128.2938  151.7958 C   0  0  0  0  0  0  0  0  0  0  0  0
  147.6845  131.1597  153.3296 C   0  0  0  0  0  0  0  0  0  0  0  0
  149.9398  136.6734  154.3883 N   0  0  0  0  0  0  0  0  0  0  0  0
  150.6937  137.7527  154.9275 C   0  0  0  0  0  0  0  0  0  0  0  0
  151.5983  137.6503  156.0132 C   0  0  0  0  0  0  0  0  0  0  0  0
  152.2819  138.8053  156.4401 C   0  0  0  0  0  0  0  0  0  0  0  0
  152.0417  140.0184  155.7670 C   0  0  0  0  0  0  0  0  0  0  0  0
  151.1889  140.1302  154.7274 N   0  0  0  0  0  0  0  0  0  0  0  0
  150.5371  139.0192  154.3240 C   0  0  0  0  0  0  0  0  0  0  0  0
  148.6074  135.1661  153.2275 H   0  0  0  0  0  0  0  0  0  0  0  0
  149.0261  132.8625  155.0300 H   0  0  0  0  0  0  0  0  0  0  0  0
  147.4307  133.5655  154.9966 H   0  0  0  0  0  0  0  0  0  0  0  0
  148.8219  132.7308  152.4180 H   0  0  0  0  0  0  0  0  0  0  0  0
  145.9521  133.3495  153.1657 H   0  0  0  0  0  0  0  0  0  0  0  0
  146.8864  134.0398  151.8413 H   0  0  0  0  0  0  0  0  0  0  0  0
  145.1961  131.8549  151.5472 H   0  0  0  0  0  0  0  0  0  0  0  0
  146.6173  132.0707  150.5318 H   0  0  0  0  0  0  0  0  0  0  0  0
  144.9655  129.8169  152.3277 H   0  0  0  0  0  0  0  0  0  0  0  0
  147.5588  128.7432  153.7431 H   0  0  0  0  0  0  0  0  0  0  0  0
  145.8793  128.0122  153.9046 H   0  0  0  0  0  0  0  0  0  0  0  0
  145.8268  127.5724  151.4335 H   0  0  0  0  0  0  0  0  0  0  0  0
  147.5057  128.3025  151.2627 H   0  0  0  0  0  0  0  0  0  0  0  0
  148.5830  130.5582  153.4702 H   0  0  0  0  0  0  0  0  0  0  0  0
  147.0526  131.0309  154.2102 H   0  0  0  0  0  0  0  0  0  0  0  0
  149.5288  136.8544  153.4842 H   0  0  0  0  0  0  0  0  0  0  0  0
  151.7916  136.7215  156.5249 H   0  0  0  0  0  0  0  0  0  0  0  0
  152.9771  138.7615  157.2655 H   0  0  0  0  0  0  0  0  0  0  0  0
  152.5495  140.9222  156.0698 H   0  0  0  0  0  0  0  0  0  0  0  0
  149.8639  139.1473  153.4888 H   0  0  0  0  0  0  0  0  0  0  0  0
  147.6328  130.4548  151.4431 H   0  0  0  0  0  0  0  0  0  0  0  0
  1  2  2  0  0  0  0
  2  3  1  0  0  0  0
  2 13  1  0  0  0  0
  3  4  1  0  0  0  0
  3 20  1  0  0  0  0
  4  5  1  0  0  0  0
  4 21  1  0  0  0  0
  4 22  1  0  0  0  0
  5 12  1  0  0  0  0
  5  6  1  0  0  0  0
  5 23  1  0  0  0  0
  6  7  1  0  0  0  0
  6 24  1  0  0  0  0
  6 25  1  0  0  0  0
  7  8  1  0  0  0  0
  7 26  1  0  0  0  0
  7 27  1  0  0  0  0
  8  9  1  0  0  0  0
  8 12  1  0  0  0  0
  8 40  1  0  0  0  0
  9 11  1  0  0  0  0
  9 10  1  0  0  0  0
  9 28  1  0  0  0  0
 10 11  1  0  0  0  0
 10 29  1  0  0  0  0
 10 30  1  0  0  0  0
 11 31  1  0  0  0  0
 11 32  1  0  0  0  0
 12 33  1  0  0  0  0
 12 34  1  0  0  0  0
 13 14  1  0  0  0  0
 13 35  1  0  0  0  0
 14 19  1  0  0  0  0
 14 15  2  0  0  0  0
 15 16  1  0  0  0  0
 15 36  1  0  0  0  0
 16 17  2  0  0  0  0
 16 37  1  0  0  0  0
 17 18  1  0  0  0  0
 17 38  1  0  0  0  0
 18 19  2  0  0  0  0
 19 39  1  0  0  0  0
M  CHG  1   8   1
M  END
> <s_m_source_file>
AV-unprocessed.smi

> <i_m_source_file_index>
3347

> <i_lp_mmshare_version>
43012

> <i_f3d_flags>
0

> <s_epik_input>
W2NIXTFuW2NIXVtjSF1bY0hdYzFbTkhdQyg9TylbTkhdW0NIMl1bQ0BASF0yW0NIMl1bQ0gyXU4oW0NIMl0yKVtDSF0zW0NIMl1bQ0gyXTM=

> <s_epik_cmdline>
J2VwaWtfcHl0aG9uJywgJy1waCcsICc3LjAnLCAnLXRuJywgJzgnLCAnLW1hJywgJzIwMCcsICctbWV0YWxfYmluZGluZycsICctaW1hZScsICc8aW5maWxlLm1hZT4nLCAnLW9tYWUnLCAnPG91dGZpbGUubWFlPic=

> <r_epik_Ionization_Penalty>
0.00442629

> <r_epik_Ionization_Penalty_Charging>
0.000203384

> <r_epik_Ionization_Penalty_Neutral>
0.00422291

> <r_epik_State_Penalty>
0.00301008

> <r_epik_Charging_Adjusted_Penalty>
0.00321347

> <i_epik_Tot_Q>
1

> <i_epik_Tot_abs_Q>
1

> <r_epik_Metal_State_Penalty>
-0

> <b_epik_Metal_Only>
0

> <s_lp_Force_Field>
OPLS_2005

> <r_lp_Energy>
39.8414

> <b_lp_Chiralities_Consistent>
1

> <s_lp_Variant>
AV-unprocessed.smi:3347-1

> <Gold.Version>
5.8.1

> <Gold.Id.Protein>
6NUR|6NUR_protein|mol2

> <Gold.PLP.Fitness>
48.3844

> <Gold.PLP.PLP>
-34.4932

> <Gold.PLP.part.hbond>
-4.3323

> <Gold.PLP.part.metal>
0.0000

> <Gold.PLP.part.buried>
-4.0253

> <Gold.PLP.part.nonpolar>
-27.3116

> <Gold.PLP.part.repulsive>
0.1505

> <Gold.PLP.ligand.clash>
0.0000

> <Gold.PLP.ligand.torsion>
1.1636

> <Gold.PLP.Chemscore.Hbond>
3.9920

> <Gold.PLP.Chemscore.CHOScore>
0.9945

> <Gold.PLP.Chemscore.Metal>
0.0000

> <Gold.Chemscore.Hbonds>
donor molecule, donor type, donor heavy atom, donor atom, acceptor molecule, acceptor atom, score
      L1  H     3    20       P1  7948  1.00
      L1  H     8    40       P1 10747  1.00
      L1  H    13    35       P1  7948  0.98
      P1  H  7989  7998       L1    18  0.93
      L1  C    19    39       P1  7957  1.00

> <Gold.PLP.Chemscore.Internal.Correction>
1.2589

> <Gold.Rescore>
     Score         DG    S(hbond)    S(metal)    S(lipo)     H(rot)  DE(clash)    DE(int)     intcor
     20.81     -23.11       3.29        0.00      87.85       1.42       0.11       2.19       ----

> <Gold.Chemscore.Fitness>
20.8065

> <Gold.Chemscore.DG>
-23.1089

> <Gold.Chemscore.ZeroCoef>
-5.4800

> <Gold.Chemscore.Hbond>
3.2906

> <Gold.Chemscore.Metal>
0.0000

> <Gold.Chemscore.Lipo>
87.8488

> <Gold.Chemscore.Internal_Hbond>
0.0000

> <Gold.Chemscore.DEClash>
0.1103

> <Gold.Chemscore.DEInternal>
2.1921

> <Gold.Chemscore.Rot>
1.4219

> <Gold.Chemscore.Internal.Correction>
   9.000000E+99

> <Gold.Chemscore.Hbonds>
donor molecule, donor type, donor heavy atom, donor atom, acceptor molecule, acceptor atom, score
      L1  H     3    20       P1  7948  0.74
      L1  H     8    40       P1 10747  0.96
      L1  H    13    35       P1  7948  0.77
      P1  H  7989  7998       L1    18  0.56

> <Gold.Chemscore.Hbond.Weighted>
-10.9907

> <Gold.Chemscore.Metal.Weighted>
-0.0000

> <Gold.Chemscore.Lipo.Weighted>
-10.2783

> <Gold.Chemscore.Internal_Hbond.Weighted>
0.0000

> <Gold.Chemscore.DEClash.Weighted>
0.1103

> <Gold.Chemscore.DEInternal.Weighted>
2.1921

> <Gold.Chemscore.Rot.Weighted>
3.6401

> <Gold.Chemscore.Internal.Correction.Weighted>
   9.000000E+99

> <Gold.Protein.RotatedTorsions>
[ 6907 6896 6895 6894 ] final  -20.52 input  -60.11 | X-H torsion
[ 7974 7965 7964 7962 ] final  -63.51 input  175.53 | X-H torsion
[ 8008 7997 7996 7995 ] final  -57.93 input   59.86 | X-H torsion
[ 10167 10162 10161 10158 ] final -129.23 input  -65.29 | X-H torsion
[ 10718 10713 10712 10709 ] final   19.35 input   66.30 | X-H torsion
[ 10763 10752 10751 10750 ] final   58.34 input  -60.55 | X-H torsion
[ 11005 11000 10999 10996 ] final  -77.02 input  -57.11 | X-H torsion

> <Gold.Protein.ActiveResidues>
 VAL166  LYS551  ARG553  GLY616  TRP617  ASP618  TYR619  PRO620  LYS621  CYS622 
 ASP623  PHE694  ASN695  SER759  ASP760  ASP761  ALA762  ILE779  LEU786  VAL792 
 PHE793  MET794  SER795  GLU796  ALA797  LYS798  CYS799  TRP800  GLU811  SER814 

> <Gold.Protein.RotatedAtoms>
  151.2469  135.0608  159.9046 H   0  0  0  0  0  0  0  0  0  0  0  0  # atno 6907 bound_to 6896
  152.5385  134.0374  159.8062 H   0  0  0  0  0  0  0  0  0  0  0  0  # atno 6908 bound_to 6896
  151.0576  133.5522  159.2668 H   0  0  0  0  0  0  0  0  0  0  0  0  # atno 6909 bound_to 6896
  145.7782  140.8776  143.0344 H   0  0  0  0  0  0  0  0  0  0  0  0  # atno 7974 bound_to 7965
  154.4288  140.1095  156.5876 H   0  0  0  0  0  0  0  0  0  0  0  0  # atno 8008 bound_to 7997
  155.6046  140.3493  155.4585 H   0  0  0  0  0  0  0  0  0  0  0  0  # atno 8009 bound_to 7997
  156.0147  140.1226  157.0408 H   0  0  0  0  0  0  0  0  0  0  0  0  # atno 8010 bound_to 7997
  139.9420  143.6152  152.2501 H   0  0  0  0  0  0  0  0  0  0  0  0  # atno 10167 bound_to 10162
  157.1092  130.6501  149.5893 H   0  0  0  0  0  0  0  0  0  0  0  0  # atno 10718 bound_to 10713
  152.9869  135.5610  154.5536 H   0  0  0  0  0  0  0  0  0  0  0  0  # atno 10763 bound_to 10752
  154.4969  135.2795  155.1454 H   0  0  0  0  0  0  0  0  0  0  0  0  # atno 10764 bound_to 10752
  154.2901  135.6328  153.5434 H   0  0  0  0  0  0  0  0  0  0  0  0  # atno 10765 bound_to 10752
  141.1658  133.7006  156.7758 H   0  0  0  0  0  0  0  0  0  0  0  0  # atno 11005 bound_to 11000
  144.6801  139.9951  143.7484 LP  0  0  0  0  0  0  0  0  0  0  0  0  # atno 17320 bound_to 7965
  146.0101  139.3163  143.0875 LP  0  0  0  0  0  0  0  0  0  0  0  0  # atno 17321 bound_to 7965
  139.6697  144.7661  151.1807 LP  0  0  0  0  0  0  0  0  0  0  0  0  # atno 17342 bound_to 10162
  140.7608  143.5884  150.8822 LP  0  0  0  0  0  0  0  0  0  0  0  0  # atno 17343 bound_to 10162
  155.9854  130.4884  150.7032 LP  0  0  0  0  0  0  0  0  0  0  0  0  # atno 17370 bound_to 10713
  157.4574  131.0879  151.0782 LP  0  0  0  0  0  0  0  0  0  0  0  0  # atno 17371 bound_to 10713
  140.2431  134.8598  157.3593 LP  0  0  0  0  0  0  0  0  0  0  0  0  # atno 17394 bound_to 11000
  140.1776  134.4529  155.7792 LP  0  0  0  0  0  0  0  0  0  0  0  0  # atno 17395 bound_to 11000

$$$$
