#       Name:                AV-unprocessed.smi:3011
#       Creating user name   scv26
#       Creation time:       Fri Mar 27 16:39:21 2020


#       File generated by GOLD software.
#

@<TRIPOS>MOLECULE
AV-unprocessed.smi:3011
    53    55     1
SMALL
NO_CHARGES


@<TRIPOS>ATOM
      1 ****         4.8569  -0.9496   5.1445 C.3            1 S1                 0.0000
      2 ****         5.3154   0.2976   4.6439 O.3            1 S1                 0.0000
      3 ****         6.0607   1.1051   5.4779 C.ar           1 S1                 0.0000
      4 ****         6.4177   0.7461   6.8025 C.ar           1 S1                 0.0000
      5 ****         7.1909   1.6139   7.5945 C.ar           1 S1                 0.0000
      6 ****         7.6172   2.8470   7.0735 C.ar           1 S1                 0.0000
      7 ****         7.2691   3.2135   5.7610 C.ar           1 S1                 0.0000
      8 ****         6.4874   2.3479   4.9543 C.ar           1 S1                 0.0000
      9 ****         6.1034   2.6487   3.6639 O.3            1 S1                 0.0000
     10 ****         6.6856   3.7802   3.0319 C.3            1 S1                 0.0000
     11 ****         6.1933   3.8754   1.5811 C.3            1 S1                 0.0000
     12 ****         4.7814   4.2251   1.4942 N.pl3          1 S1                 0.0000
     13 ****         3.6905   3.4130   1.4629 C.2            1 S1                 0.0000
     14 ****         3.7774   1.9091   1.5308 C.3            1 S1                 0.0000
     15 ****         2.9616   1.3348   2.6981 C.3            1 S1                 0.0000
     16 ****         3.3008   1.3635   0.2647 N.am           1 S1                 0.0000
     17 ****         4.0616   1.2217  -0.8274 C.2            1 S1                 0.0000
     18 ****         5.2469   1.5411  -0.8672 O.2            1 S1                 0.0000
     19 ****         2.5159   4.0359   1.3330 N.2            1 S1                 0.0000
     20 ****         2.8714   5.3683   1.3140 C.ar           1 S1                 0.0000
     21 ****         2.0734   6.5300   1.2099 C.ar           1 S1                 0.0000
     22 ****         2.6696   7.8081   1.2140 C.ar           1 S1                 0.0000
     23 ****         4.0688   7.9416   1.3210 C.ar           1 S1                 0.0000
     24 ****         4.8818   6.7962   1.4230 C.ar           1 S1                 0.0000
     25 ****         4.2816   5.5223   1.4182 C.ar           1 S1                 0.0000
     26 ****         4.2763  -1.4540   4.3724 H              1 S1                 0.0000
     27 ****         4.2071  -0.8172   6.0106 H              1 S1                 0.0000
     28 ****         5.6887  -1.6028   5.4107 H              1 S1                 0.0000
     29 ****         6.1124  -0.1940   7.2360 H              1 S1                 0.0000
     30 ****         7.4585   1.3315   8.6020 H              1 S1                 0.0000
     31 ****         8.2114   3.5138   7.6809 H              1 S1                 0.0000
     32 ****         7.6125   4.1698   5.3978 H              1 S1                 0.0000
     33 ****         6.4262   4.6959   3.5650 H              1 S1                 0.0000
     34 ****         7.7724   3.6842   3.0367 H              1 S1                 0.0000
     35 ****         6.7631   4.6448   1.0596 H              1 S1                 0.0000
     36 ****         6.3855   2.9523   1.0357 H              1 S1                 0.0000
     37 ****         4.8086   1.5929   1.6794 H              1 S1                 0.0000
     38 ****         3.2963   1.7506   3.6487 H              1 S1                 0.0000
     39 ****         3.0657   0.2510   2.7538 H              1 S1                 0.0000
     40 ****         1.8997   1.5607   2.5958 H              1 S1                 0.0000
     41 ****         2.3303   1.0903   0.2142 H              1 S1                 0.0000
     42 ****         3.4972   0.7898  -1.6684 H              1 S1                 0.0000
     43 ****         1.0006   6.4370   1.1274 H              1 S1                 0.0000
     44 ****         2.0506   8.6896   1.1345 H              1 S1                 0.0000
     45 ****         4.5180   8.9239   1.3240 H              1 S1                 0.0000
     46 ****         5.9536   6.8970   1.5050 H              1 S1                 0.0000
     47 ****         4.5086   0.8207   4.3694 LP             1 S1                 0.0000
     48 ****         5.8772   0.1047   3.8395 LP             1 S1                 0.0000
     49 ****         5.1140   2.7935   3.6761 LP             1 S1                 0.0000
     50 ****         6.3168   1.8519   3.0986 LP             1 S1                 0.0000
     51 ****         5.6879   1.9281  -0.0574 LP             1 S1                 0.0000
     52 ****         5.7709   1.4142  -1.7094 LP             1 S1                 0.0000
     53 ****         1.6025   3.6343   1.2660 LP             1 S1                 0.0000
@<TRIPOS>BOND
    1    1    2 1     
    2    1   26 1     
    3    1   27 1     
    4    1   28 1     
    5    2    3 1     
    6    3    8 ar    
    7    3    4 ar    
    8    4    5 ar    
    9    4   29 1     
   10    5    6 ar    
   11    5   30 1     
   12    6    7 ar    
   13    6   31 1     
   14    7    8 ar    
   15    7   32 1     
   16    8    9 1     
   17    9   10 1     
   18   10   11 1     
   19   10   33 1     
   20   10   34 1     
   21   11   12 1     
   22   11   35 1     
   23   11   36 1     
   24   12   25 1     
   25   12   13 1     
   26   13   14 1     
   27   13   19 2     
   28   14   15 1     
   29   14   16 1     
   30   14   37 1     
   31   15   38 1     
   32   15   39 1     
   33   15   40 1     
   34   16   17 am    
   35   16   41 1     
   36   17   18 2     
   37   17   42 1     
   38   19   20 1     
   39   20   25 ar    
   40   20   21 ar    
   41   21   22 ar    
   42   21   43 1     
   43   22   23 ar    
   44   22   44 1     
   45   23   24 ar    
   46   23   45 1     
   47   24   25 ar    
   48   24   46 1     
   49    2   47 1     
   50    2   48 1     
   51    9   49 1     
   52    9   50 1     
   53   18   51 1     
   54   18   52 1     
   55   19   53 1     
@<TRIPOS>SUBSTRUCTURE
      1 S1             1
@<TRIPOS>SET
LONE_PAIRS      STATIC     ATOMS    <user>   **** ""
7 47 48 49 50 51 52 53
DONOR_HYDROGENS      STATIC     ATOMS    <user>   **** ""
1 41
ATOM$BLUE        STATIC     ATOMS    COLORGROUP SYSTEM
7 47 48 49 50 51 52 53
ATOM$RED        STATIC     ATOMS    COLORGROUP SYSTEM
1 41
