AV-unprocessed.smi:240|AV-procd|sdf|1829|dock7
  -GOLD-   2262020433D 1   1.00000     0.00000
 Structure written by MMmdl.
 55 59  0  0  0  0  0  0  0  0  1 V2000
  150.2088  139.5398  153.8844 O   0  0  0  0  0  0  0  0  0  0  0  0
  149.1654  139.7564  154.8181 C   0  0  1  0  0  0  0  0  0  0  0  0
  147.8310  139.4445  154.1387 C   0  0  0  0  0  0  0  0  0  0  0  0
  147.6434  137.9315  154.2852 C   0  0  0  0  0  0  0  0  0  0  0  0
  148.6436  137.4759  155.3575 C   0  0  0  0  0  0  0  0  0  0  0  0
  149.2375  138.7529  155.9884 C   0  0  1  0  0  0  0  0  0  0  0  0
  150.6338  138.6232  156.6856 C   0  0  1  0  0  0  0  0  0  0  0  0
  151.2586  140.0286  156.8982 C   0  0  0  0  0  0  0  0  0  0  0  0
  152.5092  139.9461  157.5693 O   0  0  0  0  0  0  0  0  0  0  0  0
  152.3708  139.3897  158.8666 C   0  0  0  0  0  0  0  0  0  0  0  0
  151.8477  137.9581  158.7224 C   0  0  0  0  0  0  0  0  0  0  0  0
  150.5823  137.9453  157.9938 N   0  0  0  0  0  0  0  0  0  0  0  0
  150.0574  136.7015  158.0368 C   0  0  0  0  0  0  0  0  0  0  0  0
  150.3147  135.8886  156.9828 N   0  0  0  0  0  0  0  0  0  0  0  0
  149.8179  134.6481  156.9608 C   0  0  0  0  0  0  0  0  0  0  0  0
  149.0495  134.0397  157.8670 N   0  0  0  0  0  0  0  0  0  0  0  0
  148.7772  134.8619  158.9209 C   0  0  0  0  0  0  0  0  0  0  0  0
  149.2356  136.1988  159.0855 C   0  0  0  0  0  0  0  0  0  0  0  0
  148.7568  136.7212  160.2807 N   0  0  0  0  0  0  0  0  0  0  0  0
  148.0573  135.7467  160.7950 C   0  0  0  0  0  0  0  0  0  0  0  0
  148.0085  134.5960  160.0405 N   0  0  0  0  0  0  0  0  0  0  0  0
  147.2995  133.3683  160.3680 C   0  0  0  0  0  0  0  0  0  0  0  0
  145.7805  133.5741  160.5718 C   0  0  1  0  0  0  0  0  0  0  0  0
  145.2228  134.0872  159.3739 O   0  0  0  0  0  0  0  0  0  0  0  0
  145.0222  132.3064  160.9547 C   0  0  0  0  0  0  0  0  0  0  0  0
  143.8918  132.8375  161.8246 C   0  0  0  0  0  0  0  0  0  0  0  0
  144.5316  133.8561  162.5741 O   0  0  0  0  0  0  0  0  0  0  0  0
  145.4409  134.5445  161.7209 C   0  0  0  0  0  0  0  0  0  0  0  0
  149.8340  139.4955  153.0180 H   0  0  0  0  0  0  0  0  0  0  0  0
  149.1990  140.7926  155.1562 H   0  0  0  0  0  0  0  0  0  0  0  0
  147.0296  139.9556  154.6736 H   0  0  0  0  0  0  0  0  0  0  0  0
  147.7890  139.7775  153.1008 H   0  0  0  0  0  0  0  0  0  0  0  0
  146.6174  137.6961  154.5698 H   0  0  0  0  0  0  0  0  0  0  0  0
  147.8461  137.4222  153.3425 H   0  0  0  0  0  0  0  0  0  0  0  0
  148.1527  136.8368  156.0903 H   0  0  0  0  0  0  0  0  0  0  0  0
  149.4324  136.8903  154.8841 H   0  0  0  0  0  0  0  0  0  0  0  0
  148.5276  139.1023  156.7402 H   0  0  0  0  0  0  0  0  0  0  0  0
  151.3022  138.0592  156.0345 H   0  0  0  0  0  0  0  0  0  0  0  0
  151.4471  140.5229  155.9462 H   0  0  0  0  0  0  0  0  0  0  0  0
  150.5812  140.6745  157.4594 H   0  0  0  0  0  0  0  0  0  0  0  0
  153.3420  139.3889  159.3613 H   0  0  0  0  0  0  0  0  0  0  0  0
  151.6988  139.9969  159.4753 H   0  0  0  0  0  0  0  0  0  0  0  0
  152.5856  137.3515  158.1953 H   0  0  0  0  0  0  0  0  0  0  0  0
  151.7160  137.5163  159.7116 H   0  0  0  0  0  0  0  0  0  0  0  0
  150.0718  134.0589  156.0919 H   0  0  0  0  0  0  0  0  0  0  0  0
  147.5471  135.8434  161.7425 H   0  0  0  0  0  0  0  0  0  0  0  0
  147.4748  132.6502  159.5659 H   0  0  0  0  0  0  0  0  0  0  0  0
  147.7490  132.9394  161.2645 H   0  0  0  0  0  0  0  0  0  0  0  0
  145.1449  133.3787  158.7533 H   0  0  0  0  0  0  0  0  0  0  0  0
  144.6742  131.7238  160.1004 H   0  0  0  0  0  0  0  0  0  0  0  0
  145.6539  131.6589  161.5636 H   0  0  0  0  0  0  0  0  0  0  0  0
  143.0961  133.2699  161.2161 H   0  0  0  0  0  0  0  0  0  0  0  0
  143.4596  132.0727  162.4701 H   0  0  0  0  0  0  0  0  0  0  0  0
  146.3212  134.8282  162.2983 H   0  0  0  0  0  0  0  0  0  0  0  0
  144.9787  135.4648  161.3600 H   0  0  0  0  0  0  0  0  0  0  0  0
  1  2  1  0  0  0  0
  1 29  1  0  0  0  0
  2  6  1  0  0  0  0
  2  3  1  0  0  0  0
  2 30  1  0  0  0  0
  3  4  1  0  0  0  0
  3 31  1  0  0  0  0
  3 32  1  0  0  0  0
  4  5  1  0  0  0  0
  4 33  1  0  0  0  0
  4 34  1  0  0  0  0
  5  6  1  0  0  0  0
  5 35  1  0  0  0  0
  5 36  1  0  0  0  0
  6  7  1  0  0  0  0
  6 37  1  0  0  0  0
  7 12  1  0  0  0  0
  7  8  1  0  0  0  0
  7 38  1  0  0  0  0
  8  9  1  0  0  0  0
  8 39  1  0  0  0  0
  8 40  1  0  0  0  0
  9 10  1  0  0  0  0
 10 11  1  0  0  0  0
 10 41  1  0  0  0  0
 10 42  1  0  0  0  0
 11 12  1  0  0  0  0
 11 43  1  0  0  0  0
 11 44  1  0  0  0  0
 12 13  1  0  0  0  0
 13 18  1  0  0  0  0
 13 14  2  0  0  0  0
 14 15  1  0  0  0  0
 15 16  2  0  0  0  0
 15 45  1  0  0  0  0
 16 17  1  0  0  0  0
 17 21  1  0  0  0  0
 17 18  2  0  0  0  0
 18 19  1  0  0  0  0
 19 20  2  0  0  0  0
 20 21  1  0  0  0  0
 20 46  1  0  0  0  0
 21 22  1  0  0  0  0
 22 23  1  0  0  0  0
 22 47  1  0  0  0  0
 22 48  1  0  0  0  0
 23 28  1  0  0  0  0
 23 24  1  0  0  0  0
 23 25  1  0  0  0  0
 24 49  1  0  0  0  0
 25 26  1  0  0  0  0
 25 50  1  0  0  0  0
 25 51  1  0  0  0  0
 26 27  1  0  0  0  0
 26 52  1  0  0  0  0
 26 53  1  0  0  0  0
 27 28  1  0  0  0  0
 28 54  1  0  0  0  0
 28 55  1  0  0  0  0
M  END
> <s_m_source_file>
AV-unprocessed.smi

> <i_m_source_file_index>
240

> <i_lp_mmshare_version>
43012

> <i_f3d_flags>
0

> <s_epik_input>
W09IXVtDQEBIXTFbQ0gyXVtDSDJdW0NIMl1bQ0BIXTFbQ0BASF0yW0NIMl1PW0NIMl1bQ0gyXU4yYyhuW2NIXW4zKWMoYzM0KW5bY0hdbjRbQ0gyXVtDQEBdNShbT0hdKVtDSDJdW0NIMl1PW0NIMl01

> <s_epik_cmdline>
J2VwaWtfcHl0aG9uJywgJy1waCcsICc3LjAnLCAnLXRuJywgJzgnLCAnLW1hJywgJzIwMCcsICctbWV0YWxfYmluZGluZycsICctaW1hZScsICc8aW5maWxlLm1hZT4nLCAnLW9tYWUnLCAnPG91dGZpbGUubWFlPic=

> <r_lp_tautomer_probability>
1

> <r_epik_Ionization_Penalty>
0.000130618

> <r_epik_Ionization_Penalty_Charging>
0

> <r_epik_Ionization_Penalty_Neutral>
0.000130618

> <r_epik_State_Penalty>
-0

> <r_epik_Charging_Adjusted_Penalty>
0

> <i_epik_Tot_Q>
0

> <i_epik_Tot_abs_Q>
0

> <r_epik_Metal_State_Penalty>
-0

> <b_epik_Metal_Only>
0

> <s_lp_Force_Field>
OPLS_2005

> <r_lp_Energy>
62.2831

> <b_lp_Chiralities_Consistent>
1

> <s_lp_Variant>
AV-unprocessed.smi:240-6

> <Gold.Version>
5.8.1

> <Gold.Id.Protein>
6NUR|6NUR_protein|mol2

> <Gold.PLP.Fitness>
39.1873

> <Gold.PLP.PLP>
-29.4439

> <Gold.PLP.part.hbond>
-5.4237

> <Gold.PLP.part.metal>
0.0000

> <Gold.PLP.part.buried>
-4.4373

> <Gold.PLP.part.nonpolar>
-20.7092

> <Gold.PLP.part.repulsive>
0.0759

> <Gold.PLP.ligand.clash>
0.0000

> <Gold.PLP.ligand.torsion>
0.9129

> <Gold.PLP.Chemscore.Hbond>
3.7695

> <Gold.PLP.Chemscore.CHOScore>
0.0000

> <Gold.PLP.Chemscore.Metal>
0.0000

> <Gold.Chemscore.Hbonds>
donor molecule, donor type, donor heavy atom, donor atom, acceptor molecule, acceptor atom, score
      L1  H     1    29       P1  7957  1.00
      P1  H  6931  6943       L1    19  0.37
      P1  H  7989  7998       L1     1  0.84
      P1  H  7997  8009       L1     9  0.88

> <Gold.PLP.Chemscore.Internal.Correction>
0.2606

> <Gold.Rescore>
     Score         DG    S(hbond)    S(metal)    S(lipo)     H(rot)  DE(clash)    DE(int)     intcor
     11.54     -13.92       2.50        0.00      66.46       3.00       0.04       2.35       ----

> <Gold.Chemscore.Fitness>
11.5357

> <Gold.Chemscore.DG>
-13.9243

> <Gold.Chemscore.ZeroCoef>
-5.4800

> <Gold.Chemscore.Hbond>
2.5026

> <Gold.Chemscore.Metal>
0.0000

> <Gold.Chemscore.Lipo>
66.4573

> <Gold.Chemscore.Internal_Hbond>
0.0000

> <Gold.Chemscore.DEClash>
0.0417

> <Gold.Chemscore.DEInternal>
2.3469

> <Gold.Chemscore.Rot>
3.0039

> <Gold.Chemscore.Internal.Correction>
   9.000000E+99

> <Gold.Chemscore.Hbonds>
donor molecule, donor type, donor heavy atom, donor atom, acceptor molecule, acceptor atom, score
      L1  H     1    29       P1  7957  0.97
      P1  H  6931  6943       L1    19  0.25
      P1  H  7989  7998       L1     1  0.13
      P1  H  7997  8009       L1     9  0.83

> <Gold.Chemscore.Hbond.Weighted>
-8.3587

> <Gold.Chemscore.Metal.Weighted>
-0.0000

> <Gold.Chemscore.Lipo.Weighted>
-7.7755

> <Gold.Chemscore.Internal_Hbond.Weighted>
0.0000

> <Gold.Chemscore.DEClash.Weighted>
0.0417

> <Gold.Chemscore.DEInternal.Weighted>
2.3469

> <Gold.Chemscore.Rot.Weighted>
7.6899

> <Gold.Chemscore.Internal.Correction.Weighted>
   9.000000E+99

> <Gold.Protein.RotatedTorsions>
[ 6907 6896 6895 6894 ] final  130.61 input  -60.11 | X-H torsion
[ 7974 7965 7964 7962 ] final  -31.25 input  175.53 | X-H torsion
[ 8008 7997 7996 7995 ] final  177.37 input   59.86 | X-H torsion
[ 10167 10162 10161 10158 ] final  -95.35 input  -65.29 | X-H torsion
[ 10718 10713 10712 10709 ] final    5.48 input   66.30 | X-H torsion
[ 10763 10752 10751 10750 ] final -169.16 input  -60.55 | X-H torsion
[ 11005 11000 10999 10996 ] final   37.87 input  -57.11 | X-H torsion

> <Gold.Protein.ActiveResidues>
 VAL166  LYS551  ARG553  GLY616  TRP617  ASP618  TYR619  PRO620  LYS621  CYS622 
 ASP623  PHE694  ASN695  SER759  ASP760  ASP761  ALA762  ILE779  LEU786  VAL792 
 PHE793  MET794  SER795  GLU796  ALA797  LYS798  CYS799  TRP800  GLU811  SER814 

> <Gold.Protein.RotatedAtoms>
  152.3509  133.6178  159.5943 H   0  0  0  0  0  0  0  0  0  0  0  0  # atno 6907 bound_to 6896
  150.7537  133.9576  159.3514 H   0  0  0  0  0  0  0  0  0  0  0  0  # atno 6908 bound_to 6896
  151.7427  135.0851  160.0369 H   0  0  0  0  0  0  0  0  0  0  0  0  # atno 6909 bound_to 6896
  146.1082  140.5643  142.8790 H   0  0  0  0  0  0  0  0  0  0  0  0  # atno 7974 bound_to 7965
  156.0664  140.1360  156.9881 H   0  0  0  0  0  0  0  0  0  0  0  0  # atno 8008 bound_to 7997
  154.4508  140.0981  156.6664 H   0  0  0  0  0  0  0  0  0  0  0  0  # atno 8009 bound_to 7997
  155.5298  140.3458  155.4426 H   0  0  0  0  0  0  0  0  0  0  0  0  # atno 8010 bound_to 7997
  140.3050  143.3139  152.0208 H   0  0  0  0  0  0  0  0  0  0  0  0  # atno 10167 bound_to 10162
  156.9080  130.5745  149.5647 H   0  0  0  0  0  0  0  0  0  0  0  0  # atno 10718 bound_to 10713
  154.6553  135.2917  154.9936 H   0  0  0  0  0  0  0  0  0  0  0  0  # atno 10763 bound_to 10752
  154.1015  135.6576  153.4873 H   0  0  0  0  0  0  0  0  0  0  0  0  # atno 10764 bound_to 10752
  153.0399  135.5243  154.7479 H   0  0  0  0  0  0  0  0  0  0  0  0  # atno 10765 bound_to 10752
  140.2182  134.3672  155.8017 H   0  0  0  0  0  0  0  0  0  0  0  0  # atno 11005 bound_to 11000
  144.7488  140.5138  143.6816 LP  0  0  0  0  0  0  0  0  0  0  0  0  # atno 17320 bound_to 7965
  145.5718  139.1484  143.3284 LP  0  0  0  0  0  0  0  0  0  0  0  0  # atno 17321 bound_to 7965
  139.4906  144.6427  151.6842 LP  0  0  0  0  0  0  0  0  0  0  0  0  # atno 17342 bound_to 10162
  140.5618  144.0256  150.6173 LP  0  0  0  0  0  0  0  0  0  0  0  0  # atno 17343 bound_to 10162
  156.0550  130.5613  150.9071 LP  0  0  0  0  0  0  0  0  0  0  0  0  # atno 17370 bound_to 10713
  157.5985  131.0942  150.9000 LP  0  0  0  0  0  0  0  0  0  0  0  0  # atno 17371 bound_to 10713
  141.2224  133.7179  156.8532 LP  0  0  0  0  0  0  0  0  0  0  0  0  # atno 17394 bound_to 11000
  140.1877  134.8988  157.3024 LP  0  0  0  0  0  0  0  0  0  0  0  0  # atno 17395 bound_to 11000

$$$$
