AV-unprocessed.smi:1527|AV-procd|sdf|6150|dock1
  -GOLD-   22720 6293D 1   1.00000     0.00000
 Structure written by MMmdl.
 31 31  0  0  0  0  0  0  0  0  1 V2000
  151.7354  145.0699  160.6012 C   0  0  0  0  0  0  0  0  0  0  0  0
  152.0652  143.6013  160.9065 C   0  0  0  0  0  0  0  0  0  0  0  0
  152.9873  142.9431  159.8634 C   0  0  1  0  0  0  0  0  0  0  0  0
  153.3475  141.5015  160.2554 C   0  0  0  0  0  0  0  0  0  0  0  0
  152.3468  142.9620  158.5519 N   0  0  0  0  0  0  0  0  0  0  0  0
  151.3016  142.2075  158.1716 C   0  0  0  0  0  0  0  0  0  0  0  0
  150.7369  141.4189  158.9290 O   0  0  0  0  0  0  0  0  0  0  0  0
  150.8031  142.3406  156.7217 C   0  0  0  0  0  0  0  0  0  0  0  0
  150.6673  141.0678  155.9936 N   0  0  0  0  0  0  0  0  0  0  0  0
  149.5420  140.9948  155.1865 N   0  0  0  0  0  0  0  0  0  0  0  0
  149.3187  139.9352  154.4852 C   0  0  0  0  0  0  0  0  0  0  0  0
  148.1942  139.9059  153.6974 O   0  0  0  0  0  0  0  0  0  0  0  0
  150.2243  138.8077  154.5238 C   0  0  0  0  0  0  0  0  0  0  0  0
  151.3169  138.8870  155.3145 C   0  0  0  0  0  0  0  0  0  0  0  0
  151.6018  140.0755  156.1204 C   0  0  0  0  0  0  0  0  0  0  0  0
  152.5959  140.1802  156.8381 O   0  0  0  0  0  0  0  0  0  0  0  0
  148.5059  139.9893  152.8095 H   0  0  0  0  0  0  0  0  0  0  0  0
  151.1236  145.5009  161.3940 H   0  0  0  0  0  0  0  0  0  0  0  0
  151.1820  145.1729  159.6674 H   0  0  0  0  0  0  0  0  0  0  0  0
  152.6432  145.6681  160.5204 H   0  0  0  0  0  0  0  0  0  0  0  0
  152.5393  143.5480  161.8871 H   0  0  0  0  0  0  0  0  0  0  0  0
  151.1365  143.0349  160.9881 H   0  0  0  0  0  0  0  0  0  0  0  0
  153.9090  143.5264  159.8172 H   0  0  0  0  0  0  0  0  0  0  0  0
  153.8334  141.4707  161.2308 H   0  0  0  0  0  0  0  0  0  0  0  0
  154.0333  141.0551  159.5345 H   0  0  0  0  0  0  0  0  0  0  0  0
  152.4599  140.8697  160.3059 H   0  0  0  0  0  0  0  0  0  0  0  0
  152.7457  143.5851  157.8649 H   0  0  0  0  0  0  0  0  0  0  0  0
  149.8505  142.8730  156.7280 H   0  0  0  0  0  0  0  0  0  0  0  0
  151.4947  142.9975  156.1912 H   0  0  0  0  0  0  0  0  0  0  0  0
  150.0238  137.9268  153.9318 H   0  0  0  0  0  0  0  0  0  0  0  0
  152.0015  138.0524  155.3534 H   0  0  0  0  0  0  0  0  0  0  0  0
  1  2  1  0  0  0  0
  1 18  1  0  0  0  0
  1 19  1  0  0  0  0
  1 20  1  0  0  0  0
  2  3  1  0  0  0  0
  2 21  1  0  0  0  0
  2 22  1  0  0  0  0
  3  4  1  0  0  0  0
  3  5  1  0  0  0  0
  3 23  1  0  0  0  0
  4 24  1  0  0  0  0
  4 25  1  0  0  0  0
  4 26  1  0  0  0  0
  5  6  1  0  0  0  0
  5 27  1  0  0  0  0
  6  7  2  0  0  0  0
  6  8  1  0  0  0  0
  8 28  1  0  0  0  0
  8 29  1  0  0  0  0
  8  9  1  0  0  0  0
  9 10  1  0  0  0  0
  9 15  1  0  0  0  0
 10 11  2  0  0  0  0
 11 12  1  0  0  0  0
 11 13  1  0  0  0  0
 12 17  1  0  0  0  0
 13 30  1  0  0  0  0
 13 14  2  0  0  0  0
 14 31  1  0  0  0  0
 14 15  1  0  0  0  0
 15 16  2  0  0  0  0
M  END
> <s_m_source_file>
AV-unprocessed.smi

> <i_m_source_file_index>
1527

> <i_lp_mmshare_version>
43012

> <i_f3d_flags>
0

> <s_epik_input>
W0NIM11bQ0gyXVtDQEhdKFtDSDNdKVtOSF1DKD1PKVtDSDJdbjFbbkhdYyg9TylbY0hdW2NIXWMxPU8=

> <s_epik_cmdline>
J2VwaWtfcHl0aG9uJywgJy1waCcsICc3LjAnLCAnLXRuJywgJzgnLCAnLW1hJywgJzIwMCcsICctbWV0YWxfYmluZGluZycsICctaW1hZScsICc8aW5maWxlLm1hZT4nLCAnLW9tYWUnLCAnPG91dGZpbGUubWFlPic=

> <r_lp_tautomer_probability>
0.9996

> <r_epik_Ionization_Penalty>
2.12171

> <r_epik_Ionization_Penalty_Charging>
3.79077e-08

> <r_epik_Ionization_Penalty_Neutral>
2.12171

> <r_epik_State_Penalty>
1.69857

> <r_epik_Charging_Adjusted_Penalty>
1.69857

> <i_epik_Tot_Q>
0

> <i_epik_Tot_abs_Q>
0

> <r_epik_Metal_State_Penalty>
1.69857

> <b_epik_Metal_Only>
0

> <s_lp_Force_Field>
OPLS_2005

> <r_lp_Energy>
12.9148

> <b_lp_Chiralities_Consistent>
1

> <s_lp_Variant>
AV-unprocessed.smi:1527-4

> <Gold.Version>
5.8.1

> <Gold.Id.Protein>
6NUR|6NUR_protein|mol2

> <Gold.PLP.Fitness>
42.7776

> <Gold.PLP.PLP>
-37.6605

> <Gold.PLP.part.hbond>
-2.6092

> <Gold.PLP.part.metal>
0.0000

> <Gold.PLP.part.buried>
-4.1983

> <Gold.PLP.part.nonpolar>
-30.2290

> <Gold.PLP.part.repulsive>
0.1628

> <Gold.PLP.ligand.clash>
0.0000

> <Gold.PLP.ligand.torsion>
0.4504

> <Gold.PLP.Chemscore.Hbond>
2.0000

> <Gold.PLP.Chemscore.CHOScore>
0.0000

> <Gold.PLP.Chemscore.Metal>
0.0000

> <Gold.Chemscore.Hbonds>
donor molecule, donor type, donor heavy atom, donor atom, acceptor molecule, acceptor atom, score
      L1  H    12    17       P1  7957  1.00
      P1  H  7997  8010       L1    16  0.93

> <Gold.PLP.Chemscore.Internal.Correction>
0.0178

> <Gold.Rescore>
     Score         DG    S(hbond)    S(metal)    S(lipo)     H(rot)  DE(clash)    DE(int)     intcor
     11.01     -13.33       1.98        0.00      67.04       2.58       0.02       2.30       ----

> <Gold.Chemscore.Fitness>
11.0129

> <Gold.Chemscore.DG>
-13.3255

> <Gold.Chemscore.ZeroCoef>
-5.4800

> <Gold.Chemscore.Hbond>
1.9787

> <Gold.Chemscore.Metal>
0.0000

> <Gold.Chemscore.Lipo>
67.0353

> <Gold.Chemscore.Internal_Hbond>
0.0000

> <Gold.Chemscore.DEClash>
0.0163

> <Gold.Chemscore.DEInternal>
2.2964

> <Gold.Chemscore.Rot>
2.5806

> <Gold.Chemscore.Internal.Correction>
   9.000000E+99

> <Gold.Chemscore.Hbonds>
donor molecule, donor type, donor heavy atom, donor atom, acceptor molecule, acceptor atom, score
      L1  H    12    17       P1  7957  0.98
      P1  H  7997  8010       L1    16  0.90

> <Gold.Chemscore.Hbond.Weighted>
-6.6087

> <Gold.Chemscore.Metal.Weighted>
-0.0000

> <Gold.Chemscore.Lipo.Weighted>
-7.8431

> <Gold.Chemscore.Internal_Hbond.Weighted>
0.0000

> <Gold.Chemscore.DEClash.Weighted>
0.0163

> <Gold.Chemscore.DEInternal.Weighted>
2.2964

> <Gold.Chemscore.Rot.Weighted>
6.6063

> <Gold.Chemscore.Internal.Correction.Weighted>
   9.000000E+99

> <Gold.Protein.RotatedTorsions>
[ 6907 6896 6895 6894 ] final  126.62 input  -60.11 | X-H torsion
[ 7974 7965 7964 7962 ] final  155.71 input  175.53 | X-H torsion
[ 8008 7997 7996 7995 ] final   52.22 input   59.86 | X-H torsion
[ 10167 10162 10161 10158 ] final -125.33 input  -65.29 | X-H torsion
[ 10718 10713 10712 10709 ] final  -21.84 input   66.30 | X-H torsion
[ 10763 10752 10751 10750 ] final  -36.23 input  -60.55 | X-H torsion
[ 11005 11000 10999 10996 ] final  178.96 input  -57.11 | X-H torsion

> <Gold.Protein.ActiveResidues>
 VAL166  LYS551  ARG553  GLY616  TRP617  ASP618  TYR619  PRO620  LYS621  CYS622 
 ASP623  PHE694  ASN695  SER759  ASP760  ASP761  ALA762  ILE779  LEU786  VAL792 
 PHE793  MET794  SER795  GLU796  ALA797  LYS798  CYS799  TRP800  GLU811  SER814 

> <Gold.Protein.RotatedAtoms>
  152.3887  133.6647  159.6219 H   0  0  0  0  0  0  0  0  0  0  0  0  # atno 6907 bound_to 6896
  150.7800  133.8992  159.3345 H   0  0  0  0  0  0  0  0  0  0  0  0  # atno 6908 bound_to 6896
  151.6783  135.0967  160.0262 H   0  0  0  0  0  0  0  0  0  0  0  0  # atno 6909 bound_to 6896
  144.8008  139.7105  143.6183 H   0  0  0  0  0  0  0  0  0  0  0  0  # atno 7974 bound_to 7965
  155.4482  140.3457  155.4297 H   0  0  0  0  0  0  0  0  0  0  0  0  # atno 8008 bound_to 7997
  156.1236  140.1494  156.9198 H   0  0  0  0  0  0  0  0  0  0  0  0  # atno 8009 bound_to 7997
  154.4842  140.0860  156.7427 H   0  0  0  0  0  0  0  0  0  0  0  0  # atno 8010 bound_to 7997
  139.9833  143.5719  152.2370 H   0  0  0  0  0  0  0  0  0  0  0  0  # atno 10167 bound_to 10162
  156.5127  130.4614  149.6639 H   0  0  0  0  0  0  0  0  0  0  0  0  # atno 10718 bound_to 10713
  153.8763  135.6826  153.4770 H   0  0  0  0  0  0  0  0  0  0  0  0  # atno 10763 bound_to 10752
  153.1259  135.4719  154.9268 H   0  0  0  0  0  0  0  0  0  0  0  0  # atno 10764 bound_to 10752
  154.7690  135.3233  154.8179 H   0  0  0  0  0  0  0  0  0  0  0  0  # atno 10765 bound_to 10752
  140.4008  134.6779  157.4561 H   0  0  0  0  0  0  0  0  0  0  0  0  # atno 11005 bound_to 11000
  146.2288  139.5774  142.9569 LP  0  0  0  0  0  0  0  0  0  0  0  0  # atno 17320 bound_to 7965
  145.5559  141.0409  143.2253 LP  0  0  0  0  0  0  0  0  0  0  0  0  # atno 17321 bound_to 7965
  139.6394  144.7653  151.2370 LP  0  0  0  0  0  0  0  0  0  0  0  0  # atno 17342 bound_to 10162
  140.7481  143.6343  150.8394 LP  0  0  0  0  0  0  0  0  0  0  0  0  # atno 17343 bound_to 10162
  156.3225  130.7288  151.2203 LP  0  0  0  0  0  0  0  0  0  0  0  0  # atno 17370 bound_to 10713
  157.7448  131.0452  150.4830 LP  0  0  0  0  0  0  0  0  0  0  0  0  # atno 17371 bound_to 10713
  140.0337  134.6368  155.9071 LP  0  0  0  0  0  0  0  0  0  0  0  0  # atno 17394 bound_to 11000
  141.1857  133.6555  156.5209 LP  0  0  0  0  0  0  0  0  0  0  0  0  # atno 17395 bound_to 11000

$$$$
