AV-unprocessed.smi:1673|AV-procd|sdf|6710|dock7
  -GOLD-   22720 7453D 1   1.00000     0.00000
 Structure written by MMmdl.
 39 40  0  0  0  0  0  0  0  0  1 V2000
  147.2778  141.3887  154.0617 C   0  0  0  0  0  0  0  0  0  0  0  0
  148.5977  140.6920  154.2441 C   0  0  0  0  0  0  0  0  0  0  0  0
  149.6279  141.3798  154.7148 N   0  0  0  0  0  0  0  0  0  0  0  0
  150.6925  140.4746  154.8447 O   0  0  0  0  0  0  0  0  0  0  0  0
  150.2755  139.2453  154.4433 C   0  0  0  0  0  0  0  0  0  0  0  0
  151.2658  138.1333  154.5233 C   0  0  0  0  0  0  0  0  0  0  0  0
  148.9789  139.3344  154.0313 C   0  0  0  0  0  0  0  0  0  0  0  0
  148.2033  138.2408  153.5723 N   0  0  0  0  0  0  0  0  0  0  0  0
  146.9028  138.0177  153.8137 C   0  0  0  0  0  0  0  0  0  0  0  0
  146.1616  138.7812  154.4318 O   0  0  0  0  0  0  0  0  0  0  0  0
  146.5025  136.8554  153.2791 N   0  0  0  0  0  0  0  0  0  0  0  0
  145.1533  136.2908  153.3532 C   0  0  1  0  0  0  0  0  0  0  0  0
  144.4459  136.4519  151.9925 C   0  0  0  0  0  0  0  0  0  0  0  0
  145.0533  135.5435  150.9092 C   0  0  0  0  0  0  0  0  0  0  0  0
  145.0646  134.0744  151.3571 C   0  0  0  0  0  0  0  0  0  0  0  0
  145.7866  133.9036  152.7034 C   0  0  0  0  0  0  0  0  0  0  0  0
  145.1721  134.8043  153.7949 C   0  0  1  0  0  0  0  0  0  0  0  0
  145.8508  134.5838  155.1580 C   0  0  0  0  0  0  0  0  0  0  0  0
  146.4437  140.7114  154.2452 H   0  0  0  0  0  0  0  0  0  0  0  0
  147.1786  141.7791  153.0490 H   0  0  0  0  0  0  0  0  0  0  0  0
  147.1707  142.2270  154.7505 H   0  0  0  0  0  0  0  0  0  0  0  0
  150.7985  137.1742  154.2998 H   0  0  0  0  0  0  0  0  0  0  0  0
  151.6993  138.0731  155.5216 H   0  0  0  0  0  0  0  0  0  0  0  0
  152.0758  138.2881  153.8108 H   0  0  0  0  0  0  0  0  0  0  0  0
  148.6661  137.6028  152.9414 H   0  0  0  0  0  0  0  0  0  0  0  0
  147.1899  136.3042  152.7865 H   0  0  0  0  0  0  0  0  0  0  0  0
  144.5708  136.8538  154.0848 H   0  0  0  0  0  0  0  0  0  0  0  0
  143.3892  136.2072  152.1086 H   0  0  0  0  0  0  0  0  0  0  0  0
  144.4805  137.4932  151.6699 H   0  0  0  0  0  0  0  0  0  0  0  0
  144.4879  135.6438  149.9824 H   0  0  0  0  0  0  0  0  0  0  0  0
  146.0707  135.8653  150.6834 H   0  0  0  0  0  0  0  0  0  0  0  0
  144.0397  133.7121  151.4451 H   0  0  0  0  0  0  0  0  0  0  0  0
  145.5450  133.4583  150.5967 H   0  0  0  0  0  0  0  0  0  0  0  0
  145.7354  132.8587  153.0112 H   0  0  0  0  0  0  0  0  0  0  0  0
  146.8456  134.1344  152.5821 H   0  0  0  0  0  0  0  0  0  0  0  0
  144.1321  134.4972  153.9152 H   0  0  0  0  0  0  0  0  0  0  0  0
  146.9194  134.7957  155.1174 H   0  0  0  0  0  0  0  0  0  0  0  0
  145.7346  133.5516  155.4892 H   0  0  0  0  0  0  0  0  0  0  0  0
  145.4122  135.2254  155.9227 H   0  0  0  0  0  0  0  0  0  0  0  0
  1  2  1  0  0  0  0
  1 19  1  0  0  0  0
  1 20  1  0  0  0  0
  1 21  1  0  0  0  0
  2  7  1  0  0  0  0
  2  3  2  0  0  0  0
  3  4  1  0  0  0  0
  4  5  1  0  0  0  0
  5  6  1  0  0  0  0
  5  7  2  0  0  0  0
  6 22  1  0  0  0  0
  6 23  1  0  0  0  0
  6 24  1  0  0  0  0
  7  8  1  0  0  0  0
  8  9  1  0  0  0  0
  8 25  1  0  0  0  0
  9 10  2  0  0  0  0
  9 11  1  0  0  0  0
 11 12  1  0  0  0  0
 11 26  1  0  0  0  0
 12 17  1  0  0  0  0
 12 13  1  0  0  0  0
 12 27  1  0  0  0  0
 13 14  1  0  0  0  0
 13 28  1  0  0  0  0
 13 29  1  0  0  0  0
 14 15  1  0  0  0  0
 14 30  1  0  0  0  0
 14 31  1  0  0  0  0
 15 16  1  0  0  0  0
 15 32  1  0  0  0  0
 15 33  1  0  0  0  0
 16 17  1  0  0  0  0
 16 34  1  0  0  0  0
 16 35  1  0  0  0  0
 17 18  1  0  0  0  0
 17 36  1  0  0  0  0
 18 37  1  0  0  0  0
 18 38  1  0  0  0  0
 18 39  1  0  0  0  0
M  END
> <s_m_source_file>
AV-unprocessed.smi

> <i_m_source_file_index>
1673

> <i_lp_mmshare_version>
43012

> <i_f3d_flags>
0

> <s_epik_input>
W0NIM11jMW5vYyhbQ0gzXSljMVtOSF1DKD1PKVtOSF1bQ0BASF0yW0NIMl1bQ0gyXVtDSDJdW0NIMl1bQ0BIXTJbQ0gzXQ==

> <s_epik_cmdline>
J2VwaWtfcHl0aG9uJywgJy1waCcsICc3LjAnLCAnLXRuJywgJzgnLCAnLW1hJywgJzIwMCcsICctbWV0YWxfYmluZGluZycsICctaW1hZScsICc8aW5maWxlLm1hZT4nLCAnLW9tYWUnLCAnPG91dGZpbGUubWFlPic=

> <r_lp_tautomer_probability>
1

> <r_epik_Ionization_Penalty>
4.01865e-05

> <r_epik_Ionization_Penalty_Charging>
0

> <r_epik_Ionization_Penalty_Neutral>
4.01865e-05

> <r_epik_State_Penalty>
-0

> <r_epik_Charging_Adjusted_Penalty>
0

> <i_epik_Tot_Q>
0

> <i_epik_Tot_abs_Q>
0

> <r_epik_Metal_State_Penalty>
-0

> <b_epik_Metal_Only>
0

> <s_lp_Force_Field>
OPLS_2005

> <r_lp_Energy>
11.4639

> <b_lp_Chiralities_Consistent>
1

> <s_lp_Variant>
AV-unprocessed.smi:1673-2

> <Gold.Version>
5.8.1

> <Gold.Id.Protein>
6NUR|6NUR_protein|mol2

> <Gold.PLP.Fitness>
36.1306

> <Gold.PLP.PLP>
-27.7822

> <Gold.PLP.part.hbond>
-4.5071

> <Gold.PLP.part.metal>
0.0000

> <Gold.PLP.part.buried>
-1.0475

> <Gold.PLP.part.nonpolar>
-22.0249

> <Gold.PLP.part.repulsive>
0.3723

> <Gold.PLP.ligand.clash>
0.0000

> <Gold.PLP.ligand.torsion>
0.4121

> <Gold.PLP.Chemscore.Hbond>
2.9760

> <Gold.PLP.Chemscore.CHOScore>
0.0000

> <Gold.PLP.Chemscore.Metal>
0.0000

> <Gold.Chemscore.Hbonds>
donor molecule, donor type, donor heavy atom, donor atom, acceptor molecule, acceptor atom, score
      L1  H     8    25       P1  7948  1.00
      L1  H    11    26       P1  7948  0.98
      P1  H  7989  7998       L1     4  0.95

> <Gold.PLP.Chemscore.Internal.Correction>
0.2447

> <Gold.Rescore>
     Score         DG    S(hbond)    S(metal)    S(lipo)     H(rot)  DE(clash)    DE(int)     intcor
     16.04     -16.56       1.98        0.00      60.17       1.00       0.04       0.48       ----

> <Gold.Chemscore.Fitness>
16.0388

> <Gold.Chemscore.DG>
-16.5595

> <Gold.Chemscore.ZeroCoef>
-5.4800

> <Gold.Chemscore.Hbond>
1.9758

> <Gold.Chemscore.Metal>
0.0000

> <Gold.Chemscore.Lipo>
60.1732

> <Gold.Chemscore.Internal_Hbond>
0.0000

> <Gold.Chemscore.DEClash>
0.0445

> <Gold.Chemscore.DEInternal>
0.4762

> <Gold.Chemscore.Rot>
1.0000

> <Gold.Chemscore.Internal.Correction>
   9.000000E+99

> <Gold.Chemscore.Hbonds>
donor molecule, donor type, donor heavy atom, donor atom, acceptor molecule, acceptor atom, score
      L1  H     8    25       P1  7948  1.00
      L1  H    11    26       P1  7948  0.91
      P1  H  7989  7998       L1     4  0.06

> <Gold.Chemscore.Hbond.Weighted>
-6.5993

> <Gold.Chemscore.Metal.Weighted>
-0.0000

> <Gold.Chemscore.Lipo.Weighted>
-7.0403

> <Gold.Chemscore.Internal_Hbond.Weighted>
0.0000

> <Gold.Chemscore.DEClash.Weighted>
0.0445

> <Gold.Chemscore.DEInternal.Weighted>
0.4762

> <Gold.Chemscore.Rot.Weighted>
2.5600

> <Gold.Chemscore.Internal.Correction.Weighted>
   9.000000E+99

> <Gold.Protein.RotatedTorsions>
[ 6907 6896 6895 6894 ] final    0.60 input  -60.11 | X-H torsion
[ 7974 7965 7964 7962 ] final   77.33 input  175.53 | X-H torsion
[ 8008 7997 7996 7995 ] final -132.82 input   59.86 | X-H torsion
[ 10167 10162 10161 10158 ] final   56.14 input  -65.29 | X-H torsion
[ 10718 10713 10712 10709 ] final   48.24 input   66.30 | X-H torsion
[ 10763 10752 10751 10750 ] final   55.70 input  -60.55 | X-H torsion
[ 11005 11000 10999 10996 ] final  -54.27 input  -57.11 | X-H torsion

> <Gold.Protein.ActiveResidues>
 VAL166  LYS551  ARG553  GLY616  TRP617  ASP618  TYR619  PRO620  LYS621  CYS622 
 ASP623  PHE694  ASN695  SER759  ASP760  ASP761  ALA762  ILE779  LEU786  VAL792 
 PHE793  MET794  SER795  GLU796  ALA797  LYS798  CYS799  TRP800  GLU811  SER814 

> <Gold.Protein.RotatedAtoms>
  151.5790  135.1059  160.0012 H   0  0  0  0  0  0  0  0  0  0  0  0  # atno 6907 bound_to 6896
  152.4363  133.7363  159.6626 H   0  0  0  0  0  0  0  0  0  0  0  0  # atno 6908 bound_to 6896
  150.8262  133.8099  159.3141 H   0  0  0  0  0  0  0  0  0  0  0  0  # atno 6909 bound_to 6896
  145.6914  139.2553  143.1757 H   0  0  0  0  0  0  0  0  0  0  0  0  # atno 7974 bound_to 7965
  155.3353  140.0469  157.3043 H   0  0  0  0  0  0  0  0  0  0  0  0  # atno 8008 bound_to 7997
  154.5306  140.2256  155.8776 H   0  0  0  0  0  0  0  0  0  0  0  0  # atno 8009 bound_to 7997
  156.1785  140.3079  155.9110 H   0  0  0  0  0  0  0  0  0  0  0  0  # atno 8010 bound_to 7997
  140.2119  144.3880  150.6485 H   0  0  0  0  0  0  0  0  0  0  0  0  # atno 10167 bound_to 10162
  157.4666  130.8229  149.7943 H   0  0  0  0  0  0  0  0  0  0  0  0  # atno 10718 bound_to 10713
  152.9820  135.5702  154.5108 H   0  0  0  0  0  0  0  0  0  0  0  0  # atno 10763 bound_to 10752
  154.4613  135.2781  155.1713 H   0  0  0  0  0  0  0  0  0  0  0  0  # atno 10764 bound_to 10752
  154.3300  135.6251  153.5600 H   0  0  0  0  0  0  0  0  0  0  0  0  # atno 10765 bound_to 10752
  141.1017  133.6617  156.4295 H   0  0  0  0  0  0  0  0  0  0  0  0  # atno 11005 bound_to 11000
  146.0878  140.7690  142.9610 LP  0  0  0  0  0  0  0  0  0  0  0  0  # atno 17320 bound_to 7965
  144.6995  140.3590  143.7167 LP  0  0  0  0  0  0  0  0  0  0  0  0  # atno 17321 bound_to 7965
  140.6317  143.2188  151.6480 LP  0  0  0  0  0  0  0  0  0  0  0  0  # atno 17342 bound_to 10162
  139.5177  144.3308  152.0828 LP  0  0  0  0  0  0  0  0  0  0  0  0  # atno 17343 bound_to 10162
  156.0053  130.3858  150.2453 LP  0  0  0  0  0  0  0  0  0  0  0  0  # atno 17370 bound_to 10713
  157.0633  131.0096  151.3215 LP  0  0  0  0  0  0  0  0  0  0  0  0  # atno 17371 bound_to 10713
  140.5004  134.6490  157.5246 LP  0  0  0  0  0  0  0  0  0  0  0  0  # atno 17394 bound_to 11000
  139.9871  134.7044  155.9754 LP  0  0  0  0  0  0  0  0  0  0  0  0  # atno 17395 bound_to 11000

$$$$
