AV-unprocessed.smi:2799|AV-procd|sdf|10790|dock6
  -GOLD-   2272015223D 1   1.00000     0.00000
 Structure written by MMmdl.
 52 53  0  0  0  0  0  0  0  0  2 V2000
  144.6864  135.3288  150.4847 C   0  0  0  0  0  0  0  0  0  0  0  0
  145.8647  134.6714  151.2230 C   0  0  0  0  0  0  0  0  0  0  0  0
  145.8252  133.1468  151.0431 C   0  0  0  0  0  0  0  0  0  0  0  0
  145.8875  135.0364  152.7250 C   0  0  0  0  0  0  0  0  0  0  0  0
  146.5369  136.3411  153.0365 N   0  3  1  0  0  0  0  0  0  0  0  0
  145.9085  137.4665  152.2931 C   0  0  0  0  0  0  0  0  0  0  0  0
  146.7345  138.7559  152.4252 C   0  0  0  0  0  0  0  0  0  0  0  0
  146.9556  139.1229  153.8966 C   0  0  0  0  0  0  0  0  0  0  0  0
  147.5832  137.9354  154.6389 C   0  0  0  0  0  0  0  0  0  0  0  0
  146.7446  136.6439  154.4880 C   0  0  1  0  0  0  0  0  0  0  0  0
  145.4248  136.6641  155.3076 C   0  0  0  0  0  0  0  0  0  0  0  0
  145.6627  136.7814  156.7425 N   0  0  0  0  0  0  0  0  0  0  0  0
  145.9089  135.7488  157.5612 C   0  0  0  0  0  0  0  0  0  0  0  0
  145.9444  134.5805  157.1749 O   0  0  0  0  0  0  0  0  0  0  0  0
  146.1321  136.1727  158.8186 N   0  0  0  0  0  0  0  0  0  0  0  0
  146.4255  135.4228  159.9710 C   0  0  0  0  0  0  0  0  0  0  0  0
  146.1749  134.0968  160.1119 C   0  0  0  0  0  0  0  0  0  0  0  0
  146.5033  133.4055  161.3355 C   0  0  0  0  0  0  0  0  0  0  0  0
  147.0530  134.1074  162.3363 C   0  0  0  0  0  0  0  0  0  0  0  0
  147.3107  135.4836  162.2169 N   0  0  0  0  0  0  0  0  0  0  0  0
  147.9115  136.1631  163.3675 C   0  0  0  0  0  0  0  0  0  0  0  0
  147.0233  136.1888  161.0823 C   0  0  0  0  0  0  0  0  0  0  0  0
  147.2573  137.3976  161.0054 O   0  0  0  0  0  0  0  0  0  0  0  0
  143.7305  135.0262  150.9133 H   0  0  0  0  0  0  0  0  0  0  0  0
  144.6802  135.0486  149.4310 H   0  0  0  0  0  0  0  0  0  0  0  0
  144.7419  136.4167  150.5282 H   0  0  0  0  0  0  0  0  0  0  0  0
  146.7906  135.0058  150.7560 H   0  0  0  0  0  0  0  0  0  0  0  0
  144.9222  132.7173  151.4782 H   0  0  0  0  0  0  0  0  0  0  0  0
  146.6831  132.6721  151.5204 H   0  0  0  0  0  0  0  0  0  0  0  0
  145.8474  132.8749  149.9872 H   0  0  0  0  0  0  0  0  0  0  0  0
  144.8557  135.0770  153.0773 H   0  0  0  0  0  0  0  0  0  0  0  0
  146.3605  134.2415  153.3019 H   0  0  0  0  0  0  0  0  0  0  0  0
  145.8298  137.2084  151.2363 H   0  0  0  0  0  0  0  0  0  0  0  0
  144.8900  137.6282  152.6476 H   0  0  0  0  0  0  0  0  0  0  0  0
  147.6990  138.6230  151.9333 H   0  0  0  0  0  0  0  0  0  0  0  0
  146.2341  139.5749  151.9076 H   0  0  0  0  0  0  0  0  0  0  0  0
  147.6040  139.9964  153.9708 H   0  0  0  0  0  0  0  0  0  0  0  0
  146.0084  139.4002  154.3600 H   0  0  0  0  0  0  0  0  0  0  0  0
  148.5812  137.7573  154.2357 H   0  0  0  0  0  0  0  0  0  0  0  0
  147.7329  138.1876  155.6889 H   0  0  0  0  0  0  0  0  0  0  0  0
  147.3709  135.8515  154.8949 H   0  0  0  0  0  0  0  0  0  0  0  0
  144.7922  137.4995  155.0098 H   0  0  0  0  0  0  0  0  0  0  0  0
  144.8382  135.7619  155.1338 H   0  0  0  0  0  0  0  0  0  0  0  0
  145.6517  137.7116  157.1355 H   0  0  0  0  0  0  0  0  0  0  0  0
  146.1349  137.1725  158.9610 H   0  0  0  0  0  0  0  0  0  0  0  0
  145.7113  133.5177  159.3299 H   0  0  0  0  0  0  0  0  0  0  0  0
  146.3119  132.3478  161.4408 H   0  0  0  0  0  0  0  0  0  0  0  0
  147.3283  133.6627  163.2815 H   0  0  0  0  0  0  0  0  0  0  0  0
  148.8722  136.6020  163.0942 H   0  0  0  0  0  0  0  0  0  0  0  0
  148.0895  135.4912  164.2079 H   0  0  0  0  0  0  0  0  0  0  0  0
  147.2603  136.9625  163.7239 H   0  0  0  0  0  0  0  0  0  0  0  0
  147.4676  136.2637  152.6521 H   0  0  0  0  0  0  0  0  0  0  0  0
  1  2  1  0  0  0  0
  1 24  1  0  0  0  0
  1 25  1  0  0  0  0
  1 26  1  0  0  0  0
  2  3  1  0  0  0  0
  2  4  1  0  0  0  0
  2 27  1  0  0  0  0
  3 28  1  0  0  0  0
  3 29  1  0  0  0  0
  3 30  1  0  0  0  0
  4  5  1  0  0  0  0
  4 31  1  0  0  0  0
  4 32  1  0  0  0  0
  5 10  1  0  0  0  0
  5  6  1  0  0  0  0
  5 52  1  0  0  0  0
  6  7  1  0  0  0  0
  6 33  1  0  0  0  0
  6 34  1  0  0  0  0
  7  8  1  0  0  0  0
  7 35  1  0  0  0  0
  7 36  1  0  0  0  0
  8  9  1  0  0  0  0
  8 37  1  0  0  0  0
  8 38  1  0  0  0  0
  9 10  1  0  0  0  0
  9 39  1  0  0  0  0
  9 40  1  0  0  0  0
 10 11  1  0  0  0  0
 10 41  1  0  0  0  0
 11 12  1  0  0  0  0
 11 42  1  0  0  0  0
 11 43  1  0  0  0  0
 12 13  1  0  0  0  0
 12 44  1  0  0  0  0
 13 14  2  0  0  0  0
 13 15  1  0  0  0  0
 15 16  1  0  0  0  0
 15 45  1  0  0  0  0
 16 22  1  0  0  0  0
 16 17  2  0  0  0  0
 17 18  1  0  0  0  0
 17 46  1  0  0  0  0
 18 19  2  0  0  0  0
 18 47  1  0  0  0  0
 19 20  1  0  0  0  0
 19 48  1  0  0  0  0
 20 21  1  0  0  0  0
 20 22  1  0  0  0  0
 21 49  1  0  0  0  0
 21 50  1  0  0  0  0
 21 51  1  0  0  0  0
 22 23  2  0  0  0  0
M  CHG  1   5   1
M  END
> <s_m_source_file>
AV-unprocessed.smi

> <i_m_source_file_index>
2799

> <i_lp_mmshare_version>
43012

> <i_f3d_flags>
0

> <s_epik_input>
W0NIM11bQ0hdKFtDSDNdKVtDSDJdTjFbQ0gyXVtDSDJdW0NIMl1bQ0gyXVtDQEhdMVtDSDJdW05IXUMoPU8pW05IXWMyW2NIXVtjSF1bY0hdbihbQ0gzXSljMj1P

> <s_epik_cmdline>
J2VwaWtfcHl0aG9uJywgJy1waCcsICc3LjAnLCAnLXRuJywgJzgnLCAnLW1hJywgJzIwMCcsICctbWV0YWxfYmluZGluZycsICctaW1hZScsICc8aW5maWxlLm1hZT4nLCAnLW9tYWUnLCAnPG91dGZpbGUubWFlPic=

> <r_lp_tautomer_probability>
1

> <r_epik_Ionization_Penalty>
0.0010885

> <r_epik_Ionization_Penalty_Charging>
0.00106921

> <r_epik_Ionization_Penalty_Neutral>
1.92865e-05

> <r_epik_State_Penalty>
0.000697184

> <r_epik_Charging_Adjusted_Penalty>
0.0017664

> <i_epik_Tot_Q>
1

> <i_epik_Tot_abs_Q>
1

> <r_epik_Metal_State_Penalty>
-0

> <b_epik_Metal_Only>
0

> <s_lp_Force_Field>
OPLS_2005

> <r_lp_Energy>
35.5071

> <b_lp_Chiralities_Consistent>
1

> <s_lp_Variant>
AV-unprocessed.smi:2799-2

> <Gold.Version>
5.8.1

> <Gold.Id.Protein>
6NUR|6NUR_protein|mol2

> <Gold.PLP.Fitness>
43.7411

> <Gold.PLP.PLP>
-33.9255

> <Gold.PLP.part.hbond>
-2.8373

> <Gold.PLP.part.metal>
0.0000

> <Gold.PLP.part.buried>
-3.5322

> <Gold.PLP.part.nonpolar>
-27.9708

> <Gold.PLP.part.repulsive>
0.0288

> <Gold.PLP.ligand.clash>
0.0000

> <Gold.PLP.ligand.torsion>
0.5730

> <Gold.PLP.Chemscore.Hbond>
3.6261

> <Gold.PLP.Chemscore.CHOScore>
0.0000

> <Gold.PLP.Chemscore.Metal>
0.0000

> <Gold.Chemscore.Hbonds>
donor molecule, donor type, donor heavy atom, donor atom, acceptor molecule, acceptor atom, score
      L1  H     5    52       P1  7948  2.00
      P1  H  6931  6943       L1    23  0.49
      P1  H  6934  6947       L1    23  1.00

> <Gold.PLP.Chemscore.Internal.Correction>
0.0835

> <Gold.Rescore>
     Score         DG    S(hbond)    S(metal)    S(lipo)     H(rot)  DE(clash)    DE(int)     intcor
     16.92     -18.97       2.53        0.00      77.47       1.57       0.31       1.74       ----

> <Gold.Chemscore.Fitness>
16.9222

> <Gold.Chemscore.DG>
-18.9656

> <Gold.Chemscore.ZeroCoef>
-5.4800

> <Gold.Chemscore.Hbond>
2.5262

> <Gold.Chemscore.Metal>
0.0000

> <Gold.Chemscore.Lipo>
77.4717

> <Gold.Chemscore.Internal_Hbond>
0.0000

> <Gold.Chemscore.DEClash>
0.3076

> <Gold.Chemscore.DEInternal>
1.7358

> <Gold.Chemscore.Rot>
1.5688

> <Gold.Chemscore.Internal.Correction>
   9.000000E+99

> <Gold.Chemscore.Hbonds>
donor molecule, donor type, donor heavy atom, donor atom, acceptor molecule, acceptor atom, score
      L1  H     5    52       P1  7948  1.00
      P1  H  6931  6943       L1    23  0.47
      P1  H  6934  6947       L1    23  0.98

> <Gold.Chemscore.Hbond.Weighted>
-8.4375

> <Gold.Chemscore.Metal.Weighted>
-0.0000

> <Gold.Chemscore.Lipo.Weighted>
-9.0642

> <Gold.Chemscore.Internal_Hbond.Weighted>
0.0000

> <Gold.Chemscore.DEClash.Weighted>
0.3076

> <Gold.Chemscore.DEInternal.Weighted>
1.7358

> <Gold.Chemscore.Rot.Weighted>
4.0161

> <Gold.Chemscore.Internal.Correction.Weighted>
   9.000000E+99

> <Gold.Protein.RotatedTorsions>
[ 6907 6896 6895 6894 ] final -164.22 input  -60.11 | X-H torsion
[ 7974 7965 7964 7962 ] final   11.52 input  175.53 | X-H torsion
[ 8008 7997 7996 7995 ] final  -94.82 input   59.86 | X-H torsion
[ 10167 10162 10161 10158 ] final   15.88 input  -65.29 | X-H torsion
[ 10718 10713 10712 10709 ] final   22.92 input   66.30 | X-H torsion
[ 10763 10752 10751 10750 ] final -179.35 input  -60.55 | X-H torsion
[ 11005 11000 10999 10996 ] final  -49.09 input  -57.11 | X-H torsion

> <Gold.Protein.ActiveResidues>
 VAL166  LYS551  ARG553  GLY616  TRP617  ASP618  TYR619  PRO620  LYS621  CYS622 
 ASP623  PHE694  ASN695  SER759  ASP760  ASP761  ALA762  ILE779  LEU786  VAL792 
 PHE793  MET794  SER795  GLU796  ALA797  LYS798  CYS799  TRP800  GLU811  SER814 

> <Gold.Protein.RotatedAtoms>
  151.4084  133.3735  159.2740 H   0  0  0  0  0  0  0  0  0  0  0  0  # atno 6907 bound_to 6896
  150.9381  134.8794  159.7605 H   0  0  0  0  0  0  0  0  0  0  0  0  # atno 6908 bound_to 6896
  152.5059  134.4033  159.9476 H   0  0  0  0  0  0  0  0  0  0  0  0  # atno 6909 bound_to 6896
  146.2369  139.9473  142.8475 H   0  0  0  0  0  0  0  0  0  0  0  0  # atno 7974 bound_to 7965
  154.7533  140.0486  157.0912 H   0  0  0  0  0  0  0  0  0  0  0  0  # atno 8008 bound_to 7997
  155.0029  140.3127  155.4841 H   0  0  0  0  0  0  0  0  0  0  0  0  # atno 8009 bound_to 7997
  156.2890  140.2198  156.5140 H   0  0  0  0  0  0  0  0  0  0  0  0  # atno 8010 bound_to 7997
  140.5836  143.8933  150.6811 H   0  0  0  0  0  0  0  0  0  0  0  0  # atno 10167 bound_to 10162
  157.1590  130.6708  149.6037 H   0  0  0  0  0  0  0  0  0  0  0  0  # atno 10718 bound_to 10713
  154.5362  135.2803  155.1136 H   0  0  0  0  0  0  0  0  0  0  0  0  # atno 10763 bound_to 10752
  154.2637  135.6317  153.5288 H   0  0  0  0  0  0  0  0  0  0  0  0  # atno 10764 bound_to 10752
  152.9968  135.5611  154.5889 H   0  0  0  0  0  0  0  0  0  0  0  0  # atno 10765 bound_to 10752
  141.0739  133.6671  156.3535 H   0  0  0  0  0  0  0  0  0  0  0  0  # atno 11005 bound_to 11000
  145.1895  140.9805  143.4219 LP  0  0  0  0  0  0  0  0  0  0  0  0  # atno 17320 bound_to 7965
  144.9870  139.3727  143.6234 LP  0  0  0  0  0  0  0  0  0  0  0  0  # atno 17321 bound_to 7965
  140.2438  143.3644  152.1464 LP  0  0  0  0  0  0  0  0  0  0  0  0  # atno 17342 bound_to 10162
  139.5184  144.7005  151.5506 LP  0  0  0  0  0  0  0  0  0  0  0  0  # atno 17343 bound_to 10162
  155.9757  130.4718  150.6478 LP  0  0  0  0  0  0  0  0  0  0  0  0  # atno 17370 bound_to 10713
  157.4150  131.0829  151.1185 LP  0  0  0  0  0  0  0  0  0  0  0  0  # atno 17371 bound_to 10713
  140.5615  134.5929  157.5435 LP  0  0  0  0  0  0  0  0  0  0  0  0  # atno 17394 bound_to 11000
  139.9551  134.7548  156.0359 LP  0  0  0  0  0  0  0  0  0  0  0  0  # atno 17395 bound_to 11000

$$$$
