AV-unprocessed.smi:781|AV-procd|sdf|3708|dock10
  -GOLD-   22720 1133D 1   1.00000     0.00000
 Structure written by MMmdl.
 38 40  0  0  0  0  0  0  0  0  1 V2000
  146.7242  133.7216  162.1950 C   0  0  0  0  0  0  0  0  0  0  0  0
  147.2110  134.9672  161.5372 C   0  0  0  0  0  0  0  0  0  0  0  0
  147.8360  135.2058  160.3456 C   0  0  0  0  0  0  0  0  0  0  0  0
  148.0106  136.6152  160.3524 C   0  0  0  0  0  0  0  0  0  0  0  0
  148.6350  137.2763  159.2642 N   0  0  0  0  0  0  0  0  0  0  0  0
  149.5617  136.7804  158.4269 C   0  0  0  0  0  0  0  0  0  0  0  0
  150.0184  135.6378  158.4686 O   0  0  0  0  0  0  0  0  0  0  0  0
  149.9331  137.6927  157.5181 N   0  0  0  0  0  0  0  0  0  0  0  0
  150.9113  137.4647  156.4540 C   0  0  1  0  0  0  0  0  0  0  0  0
  150.4315  137.9532  155.0621 C   0  0  1  0  0  0  0  0  0  0  0  0
  149.8988  139.4003  155.1288 C   0  0  0  0  0  0  0  0  0  0  0  0
  151.1803  140.2179  155.3696 C   0  0  0  0  0  0  0  0  0  0  0  0
  152.2840  139.1392  155.3733 C   0  0  2  0  0  0  0  0  0  0  0  0
  151.7508  138.1671  154.3272 C   0  0  0  0  0  0  0  0  0  0  0  0
  152.2355  138.2569  156.6448 C   0  0  1  0  0  0  0  0  0  0  0  0
  152.4324  138.9914  157.9904 C   0  0  0  0  0  0  0  0  0  0  0  0
  153.8019  139.2554  158.2088 O   0  0  0  0  0  0  0  0  0  0  0  0
  147.5348  137.1858  161.4486 N   0  0  0  0  0  0  0  0  0  0  0  0
  147.0187  136.1326  162.2130 O   0  0  0  0  0  0  0  0  0  0  0  0
  147.2506  132.8478  161.8109 H   0  0  0  0  0  0  0  0  0  0  0  0
  145.6585  133.5815  162.0146 H   0  0  0  0  0  0  0  0  0  0  0  0
  146.8826  133.7632  163.2728 H   0  0  0  0  0  0  0  0  0  0  0  0
  148.1212  134.4858  159.5931 H   0  0  0  0  0  0  0  0  0  0  0  0
  148.3442  138.2295  159.1065 H   0  0  0  0  0  0  0  0  0  0  0  0
  149.5062  138.6062  157.5556 H   0  0  0  0  0  0  0  0  0  0  0  0
  151.1447  136.3990  156.4103 H   0  0  0  0  0  0  0  0  0  0  0  0
  149.7445  137.2621  154.5725 H   0  0  0  0  0  0  0  0  0  0  0  0
  149.4449  139.6820  154.1777 H   0  0  0  0  0  0  0  0  0  0  0  0
  149.1468  139.5576  155.9018 H   0  0  0  0  0  0  0  0  0  0  0  0
  151.3367  140.9201  154.5498 H   0  0  0  0  0  0  0  0  0  0  0  0
  151.1419  140.8004  156.2886 H   0  0  0  0  0  0  0  0  0  0  0  0
  153.2774  139.5335  155.1568 H   0  0  0  0  0  0  0  0  0  0  0  0
  152.3465  137.2573  154.2333 H   0  0  0  0  0  0  0  0  0  0  0  0
  151.6303  138.6154  153.3392 H   0  0  0  0  0  0  0  0  0  0  0  0
  153.0511  137.5353  156.5661 H   0  0  0  0  0  0  0  0  0  0  0  0
  151.8751  139.9263  158.0372 H   0  0  0  0  0  0  0  0  0  0  0  0
  152.0735  138.3692  158.8108 H   0  0  0  0  0  0  0  0  0  0  0  0
  154.1246  138.6525  158.8610 H   0  0  0  0  0  0  0  0  0  0  0  0
  1  2  1  0  0  0  0
  1 20  1  0  0  0  0
  1 21  1  0  0  0  0
  1 22  1  0  0  0  0
  2 19  1  0  0  0  0
  2  3  2  0  0  0  0
  3  4  1  0  0  0  0
  3 23  1  0  0  0  0
  4  5  1  0  0  0  0
  4 18  2  0  0  0  0
  5  6  1  0  0  0  0
  5 24  1  0  0  0  0
  6  7  2  0  0  0  0
  6  8  1  0  0  0  0
  8  9  1  0  0  0  0
  8 25  1  0  0  0  0
  9 15  1  0  0  0  0
  9 10  1  0  0  0  0
  9 26  1  0  0  0  0
 10 14  1  0  0  0  0
 10 11  1  0  0  0  0
 10 27  1  0  0  0  0
 11 12  1  0  0  0  0
 11 28  1  0  0  0  0
 11 29  1  0  0  0  0
 12 13  1  0  0  0  0
 12 30  1  0  0  0  0
 12 31  1  0  0  0  0
 13 14  1  0  0  0  0
 13 15  1  0  0  0  0
 13 32  1  0  0  0  0
 14 33  1  0  0  0  0
 14 34  1  0  0  0  0
 15 16  1  0  0  0  0
 15 35  1  0  0  0  0
 16 17  1  0  0  0  0
 16 36  1  0  0  0  0
 16 37  1  0  0  0  0
 17 38  1  0  0  0  0
 18 19  1  0  0  0  0
M  END
> <s_m_source_file>
AV-unprocessed.smi

> <i_m_source_file_index>
781

> <i_lp_mmshare_version>
43012

> <i_f3d_flags>
0

> <s_epik_input>
W0NIM11jMVtjSF1jKG5vMSlbTkhdQyg9TylbTkhdW0NASF0oW0NAQEhdMjMpW0NASF0oW0NIMl1bT0hdKVtDQEBIXShbQ0gyXTMpW0NIMl1bQ0gyXTI=

> <s_epik_cmdline>
J2VwaWtfcHl0aG9uJywgJy1waCcsICc3LjAnLCAnLXRuJywgJzgnLCAnLW1hJywgJzIwMCcsICctbWV0YWxfYmluZGluZycsICctaW1hZScsICc8aW5maWxlLm1hZT4nLCAnLW9tYWUnLCAnPG91dGZpbGUubWFlPic=

> <r_lp_tautomer_probability>
1

> <r_epik_Ionization_Penalty>
2.32222e-05

> <r_epik_Ionization_Penalty_Charging>
0

> <r_epik_Ionization_Penalty_Neutral>
2.32222e-05

> <r_epik_State_Penalty>
-0

> <r_epik_Charging_Adjusted_Penalty>
0

> <i_epik_Tot_Q>
0

> <i_epik_Tot_abs_Q>
0

> <r_epik_Metal_State_Penalty>
-0

> <b_epik_Metal_Only>
0

> <s_lp_Force_Field>
OPLS_2005

> <r_lp_Energy>
48.8521

> <b_lp_Chiralities_Consistent>
1

> <s_lp_Variant>
AV-unprocessed.smi:781-2

> <Gold.Version>
5.8.1

> <Gold.Id.Protein>
6NUR|6NUR_protein|mol2

> <Gold.PLP.Fitness>
41.6738

> <Gold.PLP.PLP>
-31.1638

> <Gold.PLP.part.hbond>
-3.9396

> <Gold.PLP.part.metal>
0.0000

> <Gold.PLP.part.buried>
-3.3059

> <Gold.PLP.part.nonpolar>
-24.1074

> <Gold.PLP.part.repulsive>
0.2461

> <Gold.PLP.ligand.clash>
0.0000

> <Gold.PLP.ligand.torsion>
0.4621

> <Gold.PLP.Chemscore.Hbond>
3.8080

> <Gold.PLP.Chemscore.CHOScore>
0.0000

> <Gold.PLP.Chemscore.Metal>
0.0000

> <Gold.Chemscore.Hbonds>
donor molecule, donor type, donor heavy atom, donor atom, acceptor molecule, acceptor atom, score
      P1  H  6896  6908       L1     7  1.00
      P1  H  6931  6943       L1    18  0.90
      P1  H  6934  6947       L1    18  0.86
      P1  H  7997  8010       L1    17  1.00

> <Gold.PLP.Chemscore.Internal.Correction>
0.0101

> <Gold.Rescore>
     Score         DG    S(hbond)    S(metal)    S(lipo)     H(rot)  DE(clash)    DE(int)     intcor
     17.03     -19.21       3.08        0.00      69.99       1.86       0.49       1.69       ----

> <Gold.Chemscore.Fitness>
17.0263

> <Gold.Chemscore.DG>
-19.2132

> <Gold.Chemscore.ZeroCoef>
-5.4800

> <Gold.Chemscore.Hbond>
3.0845

> <Gold.Chemscore.Metal>
0.0000

> <Gold.Chemscore.Lipo>
69.9948

> <Gold.Chemscore.Internal_Hbond>
0.0000

> <Gold.Chemscore.DEClash>
0.4935

> <Gold.Chemscore.DEInternal>
1.6934

> <Gold.Chemscore.Rot>
1.8587

> <Gold.Chemscore.Internal.Correction>
   9.000000E+99

> <Gold.Chemscore.Hbonds>
donor molecule, donor type, donor heavy atom, donor atom, acceptor molecule, acceptor atom, score
      P1  H  6896  6908       L1     7  0.96
      P1  H  6931  6943       L1    18  0.20
      P1  H  6934  6947       L1    18  0.42
      P1  H  7997  8010       L1    17  0.98

> <Gold.Chemscore.Hbond.Weighted>
-10.3021

> <Gold.Chemscore.Metal.Weighted>
-0.0000

> <Gold.Chemscore.Lipo.Weighted>
-8.1894

> <Gold.Chemscore.Internal_Hbond.Weighted>
0.0000

> <Gold.Chemscore.DEClash.Weighted>
0.4935

> <Gold.Chemscore.DEInternal.Weighted>
1.6934

> <Gold.Chemscore.Rot.Weighted>
4.7583

> <Gold.Chemscore.Internal.Correction.Weighted>
   9.000000E+99

> <Gold.Protein.RotatedTorsions>
[ 6907 6896 6895 6894 ] final  174.11 input  -60.11 | X-H torsion
[ 7974 7965 7964 7962 ] final   22.38 input  175.53 | X-H torsion
[ 8008 7997 7996 7995 ] final   21.32 input   59.86 | X-H torsion
[ 10167 10162 10161 10158 ] final -158.86 input  -65.29 | X-H torsion
[ 10718 10713 10712 10709 ] final -124.21 input   66.30 | X-H torsion
[ 10763 10752 10751 10750 ] final  130.87 input  -60.55 | X-H torsion
[ 11005 11000 10999 10996 ] final -101.62 input  -57.11 | X-H torsion

> <Gold.Protein.ActiveResidues>
 VAL166  LYS551  ARG553  GLY616  TRP617  ASP618  TYR619  PRO620  LYS621  CYS622 
 ASP623  PHE694  ASN695  SER759  ASP760  ASP761  ALA762  ILE779  LEU786  VAL792 
 PHE793  MET794  SER795  GLU796  ALA797  LYS798  CYS799  TRP800  GLU811  SER814 

> <Gold.Protein.RotatedAtoms>
  151.7575  133.3331  159.3408 H   0  0  0  0  0  0  0  0  0  0  0  0  # atno 6907 bound_to 6896
  150.7511  134.6136  159.6108 H   0  0  0  0  0  0  0  0  0  0  0  0  # atno 6908 bound_to 6896
  152.3427  134.7114  160.0310 H   0  0  0  0  0  0  0  0  0  0  0  0  # atno 6909 bound_to 6896
  146.2031  139.7893  142.8746 H   0  0  0  0  0  0  0  0  0  0  0  0  # atno 7974 bound_to 7965
  154.9489  140.3063  155.5085 H   0  0  0  0  0  0  0  0  0  0  0  0  # atno 8008 bound_to 7997
  156.2989  140.2322  156.4502 H   0  0  0  0  0  0  0  0  0  0  0  0  # atno 8009 bound_to 7997
  154.8074  140.0430  157.1306 H   0  0  0  0  0  0  0  0  0  0  0  0  # atno 8010 bound_to 7997
  139.6659  143.9830  152.2254 H   0  0  0  0  0  0  0  0  0  0  0  0  # atno 10167 bound_to 10162
  156.1568  130.6573  150.9993 H   0  0  0  0  0  0  0  0  0  0  0  0  # atno 10718 bound_to 10713
  153.7651  135.3190  155.3343 H   0  0  0  0  0  0  0  0  0  0  0  0  # atno 10763 bound_to 10752
  154.8216  135.4599  154.0799 H   0  0  0  0  0  0  0  0  0  0  0  0  # atno 10764 bound_to 10752
  153.2042  135.6927  153.8277 H   0  0  0  0  0  0  0  0  0  0  0  0  # atno 10765 bound_to 10752
  141.1223  133.8493  157.1255 H   0  0  0  0  0  0  0  0  0  0  0  0  # atno 11005 bound_to 11000
  145.3415  141.0288  143.3390 LP  0  0  0  0  0  0  0  0  0  0  0  0  # atno 17320 bound_to 7965
  144.8729  139.5013  143.6759 LP  0  0  0  0  0  0  0  0  0  0  0  0  # atno 17321 bound_to 7965
  139.9581  144.6576  150.8106 LP  0  0  0  0  0  0  0  0  0  0  0  0  # atno 17342 bound_to 10162
  140.7599  143.3139  151.2779 LP  0  0  0  0  0  0  0  0  0  0  0  0  # atno 17343 bound_to 10162
  157.6701  131.0863  150.7633 LP  0  0  0  0  0  0  0  0  0  0  0  0  # atno 17370 bound_to 10713
  156.7698  130.4825  149.5420 LP  0  0  0  0  0  0  0  0  0  0  0  0  # atno 17371 bound_to 10713
  140.0191  134.9954  157.0554 LP  0  0  0  0  0  0  0  0  0  0  0  0  # atno 17394 bound_to 11000
  140.4470  134.1621  155.7178 LP  0  0  0  0  0  0  0  0  0  0  0  0  # atno 17395 bound_to 11000

$$$$
