AV-unprocessed.smi:2447|AV-procd|sdf|9650|dock9
  -GOLD-   2272013283D 1   1.00000     0.00000
 Structure written by MMmdl.
 29 30  0  0  0  0  0  0  0  0  2 V2000
  150.3015  138.2147  153.6823 N   0  0  0  0  0  0  0  0  0  0  0  0
  151.2614  137.7229  154.4648 C   0  0  0  0  0  0  0  0  0  0  0  0
  151.3720  136.4998  154.5448 O   0  0  0  0  0  0  0  0  0  0  0  0
  152.0065  138.6728  155.0838 N   0  5  0  0  0  0  0  0  0  0  0  0
  151.5146  139.8095  155.6187 C   0  0  0  0  0  0  0  0  0  0  0  0
  150.5083  140.4446  154.9401 N   0  0  0  0  0  0  0  0  0  0  0  0
  150.2901  141.4810  155.7352 C   0  0  0  0  0  0  0  0  0  0  0  0
  151.0743  141.5060  156.8091 N   0  0  0  0  0  0  0  0  0  0  0  0
  151.1430  142.4618  157.9035 C   0  0  0  0  0  0  0  0  0  0  0  0
  151.4194  143.8904  157.3906 C   0  0  0  0  0  0  0  0  0  0  0  0
  151.4800  144.8972  158.5509 C   0  0  0  0  0  0  0  0  0  0  0  0
  152.5224  144.4755  159.5993 C   0  0  0  0  0  0  0  0  0  0  0  0
  152.2519  143.0523  160.1137 C   0  0  0  0  0  0  0  0  0  0  0  0
  152.1921  142.0440  158.9546 C   0  0  0  0  0  0  0  0  0  0  0  0
  151.8827  140.4222  156.7527 N   0  0  0  0  0  0  0  0  0  0  0  0
  149.6933  137.5868  153.1786 H   0  0  0  0  0  0  0  0  0  0  0  0
  150.1920  139.2146  153.6013 H   0  0  0  0  0  0  0  0  0  0  0  0
  149.5444  142.2342  155.5286 H   0  0  0  0  0  0  0  0  0  0  0  0
  150.1644  142.4616  158.3866 H   0  0  0  0  0  0  0  0  0  0  0  0
  152.3636  143.9164  156.8444 H   0  0  0  0  0  0  0  0  0  0  0  0
  150.6453  144.1894  156.6832 H   0  0  0  0  0  0  0  0  0  0  0  0
  151.7177  145.8900  158.1682 H   0  0  0  0  0  0  0  0  0  0  0  0
  150.4984  144.9735  159.0205 H   0  0  0  0  0  0  0  0  0  0  0  0
  153.5196  144.5205  159.1596 H   0  0  0  0  0  0  0  0  0  0  0  0
  152.5191  145.1795  160.4319 H   0  0  0  0  0  0  0  0  0  0  0  0
  153.0283  142.7586  160.8209 H   0  0  0  0  0  0  0  0  0  0  0  0
  151.3100  143.0343  160.6633 H   0  0  0  0  0  0  0  0  0  0  0  0
  151.9583  141.0515  159.3414 H   0  0  0  0  0  0  0  0  0  0  0  0
  153.1776  141.9711  158.4923 H   0  0  0  0  0  0  0  0  0  0  0  0
  1  2  1  0  0  0  0
  1 16  1  0  0  0  0
  1 17  1  0  0  0  0
  2  3  2  0  0  0  0
  2  4  1  0  0  0  0
  4  5  1  0  0  0  0
  5 15  2  0  0  0  0
  5  6  1  0  0  0  0
  6  7  2  0  0  0  0
  7  8  1  0  0  0  0
  7 18  1  0  0  0  0
  8  9  1  0  0  0  0
  8 15  1  0  0  0  0
  9 14  1  0  0  0  0
  9 10  1  0  0  0  0
  9 19  1  0  0  0  0
 10 11  1  0  0  0  0
 10 20  1  0  0  0  0
 10 21  1  0  0  0  0
 11 12  1  0  0  0  0
 11 22  1  0  0  0  0
 11 23  1  0  0  0  0
 12 13  1  0  0  0  0
 12 24  1  0  0  0  0
 12 25  1  0  0  0  0
 13 14  1  0  0  0  0
 13 26  1  0  0  0  0
 13 27  1  0  0  0  0
 14 28  1  0  0  0  0
 14 29  1  0  0  0  0
M  CHG  1   4  -1
M  END
> <s_m_source_file>
AV-unprocessed.smi

> <i_m_source_file_index>
2447

> <i_lp_mmshare_version>
43012

> <i_f3d_flags>
0

> <s_epik_input>
W05IMl1DKD1PKVtOSF1jMW5bY0hdbihuMSlbQ0hdMltDSDJdW0NIMl1bQ0gyXVtDSDJdW0NIMl0y

> <s_epik_cmdline>
J2VwaWtfcHl0aG9uJywgJy1waCcsICc3LjAnLCAnLXRuJywgJzgnLCAnLW1hJywgJzIwMCcsICctbWV0YWxfYmluZGluZycsICctaW1hZScsICc8aW5maWxlLm1hZT4nLCAnLW9tYWUnLCAnPG91dGZpbGUubWFlPic=

> <r_epik_Ionization_Penalty>
6.34251

> <r_epik_Ionization_Penalty_Charging>
2.59949

> <r_epik_Ionization_Penalty_Neutral>
3.74302

> <r_epik_State_Penalty>
2.59208

> <r_epik_Charging_Adjusted_Penalty>
5.19156

> <i_epik_Tot_Q>
-1

> <i_epik_Tot_abs_Q>
1

> <r_epik_Metal_State_Penalty>
0.11953

> <b_epik_Metal_Only>
1

> <s_lp_Force_Field>
OPLS_2005

> <r_lp_Energy>
9.7345

> <b_lp_Chiralities_Consistent>
1

> <s_lp_Variant>
AV-unprocessed.smi:2447-2

> <Gold.Version>
5.8.1

> <Gold.Id.Protein>
6NUR|6NUR_protein|mol2

> <Gold.PLP.Fitness>
46.7833

> <Gold.PLP.PLP>
-35.9973

> <Gold.PLP.part.hbond>
-4.4419

> <Gold.PLP.part.metal>
0.0000

> <Gold.PLP.part.buried>
-3.6259

> <Gold.PLP.part.nonpolar>
-27.5399

> <Gold.PLP.part.repulsive>
1.0448

> <Gold.PLP.ligand.clash>
0.0000

> <Gold.PLP.ligand.torsion>
0.6175

> <Gold.PLP.Chemscore.Hbond>
3.0000

> <Gold.PLP.Chemscore.CHOScore>
1.0000

> <Gold.PLP.Chemscore.Metal>
0.0000

> <Gold.Chemscore.Hbonds>
donor molecule, donor type, donor heavy atom, donor atom, acceptor molecule, acceptor atom, score
      L1  H     1    16       P1  7948  1.00
      P1  H  7989  7998       L1     6  0.65
      P1  H 10752 10764       L1     3  1.00
      L1  C     7    18       P1  8028  0.90

> <Gold.PLP.Chemscore.Internal.Correction>
0.0211

> <Gold.Rescore>
     Score         DG    S(hbond)    S(metal)    S(lipo)     H(rot)  DE(clash)    DE(int)     intcor
     15.54     -17.93       2.16        0.00      66.66       1.00       0.02       2.37       ----

> <Gold.Chemscore.Fitness>
15.5449

> <Gold.Chemscore.DG>
-17.9336

> <Gold.Chemscore.ZeroCoef>
-5.4800

> <Gold.Chemscore.Hbond>
2.1601

> <Gold.Chemscore.Metal>
0.0000

> <Gold.Chemscore.Lipo>
66.6563

> <Gold.Chemscore.Internal_Hbond>
0.0000

> <Gold.Chemscore.DEClash>
0.0174

> <Gold.Chemscore.DEInternal>
2.3712

> <Gold.Chemscore.Rot>
1.0000

> <Gold.Chemscore.Internal.Correction>
   9.000000E+99

> <Gold.Chemscore.Hbonds>
donor molecule, donor type, donor heavy atom, donor atom, acceptor molecule, acceptor atom, score
      L1  H     1    16       P1  7948  0.68
      P1  H  7989  7998       L1     6  0.04
      P1  H 10752 10764       L1     3  0.99

> <Gold.Chemscore.Hbond.Weighted>
-7.2148

> <Gold.Chemscore.Metal.Weighted>
-0.0000

> <Gold.Chemscore.Lipo.Weighted>
-7.7988

> <Gold.Chemscore.Internal_Hbond.Weighted>
0.0000

> <Gold.Chemscore.DEClash.Weighted>
0.0174

> <Gold.Chemscore.DEInternal.Weighted>
2.3712

> <Gold.Chemscore.Rot.Weighted>
2.5600

> <Gold.Chemscore.Internal.Correction.Weighted>
   9.000000E+99

> <Gold.Protein.RotatedTorsions>
[ 6907 6896 6895 6894 ] final -164.61 input  -60.11 | X-H torsion
[ 7974 7965 7964 7962 ] final   63.34 input  175.53 | X-H torsion
[ 8008 7997 7996 7995 ] final   45.46 input   59.86 | X-H torsion
[ 10167 10162 10161 10158 ] final  -21.18 input  -65.29 | X-H torsion
[ 10718 10713 10712 10709 ] final  142.98 input   66.30 | X-H torsion
[ 10763 10752 10751 10750 ] final  -74.78 input  -60.55 | X-H torsion
[ 11005 11000 10999 10996 ] final   -6.53 input  -57.11 | X-H torsion

> <Gold.Protein.ActiveResidues>
 VAL166  LYS551  ARG553  GLY616  TRP617  ASP618  TYR619  PRO620  LYS621  CYS622 
 ASP623  PHE694  ASN695  SER759  ASP760  ASP761  ALA762  ILE779  LEU786  VAL792 
 PHE793  MET794  SER795  GLU796  ALA797  LYS798  CYS799  TRP800  GLU811  SER814 

> <Gold.Protein.RotatedAtoms>
  151.4145  133.3717  159.2747 H   0  0  0  0  0  0  0  0  0  0  0  0  # atno 6907 bound_to 6896
  150.9338  134.8753  159.7579 H   0  0  0  0  0  0  0  0  0  0  0  0  # atno 6908 bound_to 6896
  152.5040  134.4092  159.9495 H   0  0  0  0  0  0  0  0  0  0  0  0  # atno 6909 bound_to 6896
  145.8629  139.3327  143.0808 H   0  0  0  0  0  0  0  0  0  0  0  0  # atno 7974 bound_to 7965
  155.3362  140.3405  155.4239 H   0  0  0  0  0  0  0  0  0  0  0  0  # atno 8008 bound_to 7997
  156.1836  140.1673  156.8263 H   0  0  0  0  0  0  0  0  0  0  0  0  # atno 8009 bound_to 7997
  154.5361  140.0735  156.8413 H   0  0  0  0  0  0  0  0  0  0  0  0  # atno 8010 bound_to 7997
  140.7280  143.4652  151.0324 H   0  0  0  0  0  0  0  0  0  0  0  0  # atno 10167 bound_to 10162
  157.3742  131.0983  151.0799 H   0  0  0  0  0  0  0  0  0  0  0  0  # atno 10718 bound_to 10713
  154.4777  135.5853  153.6367 H   0  0  0  0  0  0  0  0  0  0  0  0  # atno 10763 bound_to 10752
  152.9843  135.6082  154.3286 H   0  0  0  0  0  0  0  0  0  0  0  0  # atno 10764 bound_to 10752
  154.3174  135.2844  155.2516 H   0  0  0  0  0  0  0  0  0  0  0  0  # atno 10765 bound_to 10752
  140.7030  133.8974  155.8696 H   0  0  0  0  0  0  0  0  0  0  0  0  # atno 11005 bound_to 11000
  145.9227  140.9104  143.0397 LP  0  0  0  0  0  0  0  0  0  0  0  0  # atno 17320 bound_to 7965
  144.6726  140.1311  143.7443 LP  0  0  0  0  0  0  0  0  0  0  0  0  # atno 17321 bound_to 7965
  139.8339  143.7653  152.3180 LP  0  0  0  0  0  0  0  0  0  0  0  0  # atno 17342 bound_to 10162
  139.7779  144.7455  151.0131 LP  0  0  0  0  0  0  0  0  0  0  0  0  # atno 17343 bound_to 10162
  157.1892  130.6344  149.5698 LP  0  0  0  0  0  0  0  0  0  0  0  0  # atno 17370 bound_to 10713
  155.9762  130.4728  150.6510 LP  0  0  0  0  0  0  0  0  0  0  0  0  # atno 17371 bound_to 10713
  141.0148  134.0970  157.4183 LP  0  0  0  0  0  0  0  0  0  0  0  0  # atno 17394 bound_to 11000
  139.8892  135.0103  156.6663 LP  0  0  0  0  0  0  0  0  0  0  0  0  # atno 17395 bound_to 11000

$$$$
