#       Name:                AV-unprocessed.smi:2800
#       Creating user name   scv26
#       Creation time:       Fri Mar 27 15:23:01 2020


#       File generated by GOLD software.
#

@<TRIPOS>MOLECULE
AV-unprocessed.smi:2800
    56    57     1
SMALL
NO_CHARGES


@<TRIPOS>ATOM
      1 ****        -2.1784  -1.7618   0.6924 C.3            1 S1                 0.0000
      2 ****        -2.0163  -0.2598   0.5454 C.ar           1 S1                 0.0000
      3 ****        -3.1437   0.4781   0.4412 N.pl3          1 S1                 1.0000
      4 ****        -3.1574   1.8248   0.3054 C.ar           1 S1                 0.0000
      5 ****        -4.3992   2.4811   0.2070 N.pl3          1 S1                 0.0000
      6 ****        -4.4917   3.8709  -0.2088 C.3            1 S1                 0.0000
      7 ****        -5.9897   4.1311  -0.3623 C.3            1 S1                 0.0000
      8 ****        -6.5334   2.7746  -0.8107 C.3            1 S1                 0.0000
      9 ****        -5.6252   1.7585  -0.1087 C.3            1 S1                 0.0000
     10 ****        -1.9218   2.5112   0.2856 C.ar           1 S1                 0.0000
     11 ****        -0.7172   1.7877   0.3927 C.ar           1 S1                 0.0000
     12 ****        -0.7520   0.3755   0.5113 C.ar           1 S1                 0.0000
     13 ****         0.4122  -0.4353   0.6327 N.am           1 S1                 0.0000
     14 ****         1.6861  -0.1426   0.3195 C.2            1 S1                 0.0000
     15 ****         2.0789   0.9287  -0.1405 O.2            1 S1                 0.0000
     16 ****         2.4906  -1.1883   0.5586 N.am           1 S1                 0.0000
     17 ****         3.9465  -1.2122   0.3855 C.3            1 S1                 0.0000
     18 ****         4.5669  -1.6342   1.7385 C.3            1 S1                 0.0000
     19 ****         4.5246  -0.5557   2.6500 O.3            1 S1                 0.0000
     20 ****         4.3469  -2.1165  -0.8289 C.3            1 S1                 0.0000
     21 ****         3.9362  -3.5878  -0.6015 C.3            1 S1                 0.0000
     22 ****         5.8702  -2.0536  -1.0781 C.3            1 S1                 0.0000
     23 ****         3.6576  -1.6133  -2.1182 C.3            1 S1                 0.0000
     24 ****         4.3098  -0.2068   0.1620 H              1 S1                 0.0000
     25 ****        -1.6933  -2.2797  -0.1354 H              1 S1                 0.0000
     26 ****        -3.2302  -2.0502   0.7019 H              1 S1                 0.0000
     27 ****        -1.7273  -2.1027   1.6245 H              1 S1                 0.0000
     28 ****        -4.0414   4.5434   0.5221 H              1 S1                 0.0000
     29 ****        -3.9788   4.0000  -1.1628 H              1 S1                 0.0000
     30 ****        -6.4200   4.3986   0.6037 H              1 S1                 0.0000
     31 ****        -6.2112   4.9354  -1.0644 H              1 S1                 0.0000
     32 ****        -7.5878   2.6374  -0.5696 H              1 S1                 0.0000
     33 ****        -6.4222   2.6782  -1.8917 H              1 S1                 0.0000
     34 ****        -5.4483   0.8908  -0.7451 H              1 S1                 0.0000
     35 ****        -6.0779   1.4143   0.8217 H              1 S1                 0.0000
     36 ****        -1.8798   3.5865   0.1957 H              1 S1                 0.0000
     37 ****         0.2088   2.3402   0.3941 H              1 S1                 0.0000
     38 ****         0.2449  -1.3808   0.9443 H              1 S1                 0.0000
     39 ****         2.0721  -2.0306   0.9247 H              1 S1                 0.0000
     40 ****         4.0541  -2.4971   2.1651 H              1 S1                 0.0000
     41 ****         5.6149  -1.9078   1.6371 H              1 S1                 0.0000
     42 ****         4.9186  -0.8332   3.4628 H              1 S1                 0.0000
     43 ****         4.2065  -4.2071  -1.4575 H              1 S1                 0.0000
     44 ****         2.8606  -3.6917  -0.4568 H              1 S1                 0.0000
     45 ****         4.4300  -4.0151   0.2712 H              1 S1                 0.0000
     46 ****         6.4438  -2.5240  -0.2805 H              1 S1                 0.0000
     47 ****         6.2157  -1.0236  -1.1741 H              1 S1                 0.0000
     48 ****         6.1417  -2.5727  -1.9980 H              1 S1                 0.0000
     49 ****         3.9871  -2.1768  -2.9918 H              1 S1                 0.0000
     50 ****         3.8832  -0.5626  -2.3040 H              1 S1                 0.0000
     51 ****         2.5732  -1.7138  -2.0712 H              1 S1                 0.0000
     52 ****        -4.0386  -0.0107   0.4659 H              1 S1                 0.0000
     53 ****         1.4281   1.6688  -0.3101 LP             1 S1                 0.0000
     54 ****         3.0490   1.0595  -0.3449 LP             1 S1                 0.0000
     55 ****         3.5749  -0.2869   2.8103 LP             1 S1                 0.0000
     56 ****         5.0324   0.2209   2.2771 LP             1 S1                 0.0000
@<TRIPOS>BOND
    1    1    2 1     
    2    1   25 1     
    3    1   26 1     
    4    1   27 1     
    5    2   12 ar    
    6    2    3 ar    
    7    3    4 ar    
    8    3   52 1     
    9    4    5 1     
   10    4   10 ar    
   11    5    9 1     
   12    5    6 1     
   13    6    7 1     
   14    6   28 1     
   15    6   29 1     
   16    7    8 1     
   17    7   30 1     
   18    7   31 1     
   19    8    9 1     
   20    8   32 1     
   21    8   33 1     
   22    9   34 1     
   23    9   35 1     
   24   10   11 ar    
   25   10   36 1     
   26   11   12 ar    
   27   11   37 1     
   28   12   13 1     
   29   13   14 am    
   30   13   38 1     
   31   14   15 2     
   32   14   16 am    
   33   16   17 1     
   34   16   39 1     
   35   17   24 1     
   36   17   18 1     
   37   17   20 1     
   38   18   19 1     
   39   18   40 1     
   40   18   41 1     
   41   19   42 1     
   42   20   21 1     
   43   20   22 1     
   44   20   23 1     
   45   21   43 1     
   46   21   44 1     
   47   21   45 1     
   48   22   46 1     
   49   22   47 1     
   50   22   48 1     
   51   23   49 1     
   52   23   50 1     
   53   23   51 1     
   54   15   53 1     
   55   15   54 1     
   56   19   55 1     
   57   19   56 1     
@<TRIPOS>SUBSTRUCTURE
      1 S1             1
@<TRIPOS>SET
LONE_PAIRS      STATIC     ATOMS    <user>   **** ""
4 53 54 55 56
DONOR_HYDROGENS      STATIC     ATOMS    <user>   **** ""
4 52 38 39 42
ATOM$BLUE        STATIC     ATOMS    COLORGROUP SYSTEM
4 53 54 55 56
ATOM$RED        STATIC     ATOMS    COLORGROUP SYSTEM
4 52 38 39 42
