#       Name:                AV-unprocessed.smi:34
#       Creating user name   scv26
#       Creation time:       Thu Mar 26 15:58:16 2020


#       File generated by GOLD software.
#

@<TRIPOS>MOLECULE
AV-unprocessed.smi:34
    66    70     1
SMALL
NO_CHARGES


@<TRIPOS>ATOM
      1 ****        -4.9823   0.4800   1.8753 O.2            1 S1                 0.0000
      2 ****        -5.4578   0.5619   0.7407 C.2            1 S1                 0.0000
      3 ****        -4.7909   0.6478  -0.4380 N.pl3          1 S1                -1.0000
      4 ****        -3.4506   0.5913  -0.4565 C.ar           1 S1                 0.0000
      5 ****        -2.7175   1.7313  -0.5256 N.ar           1 S1                 0.0000
      6 ****        -1.3814   1.6741  -0.5561 C.ar           1 S1                 0.0000
      7 ****        -0.5864   0.6004  -0.5339 N.ar           1 S1                 0.0000
      8 ****        -1.3098  -0.5552  -0.4712 C.ar           1 S1                 0.0000
      9 ****        -2.7330  -0.6361  -0.4316 C.ar           1 S1                 0.0000
     10 ****        -3.1507  -1.9570  -0.3711 N.2            1 S1                 0.0000
     11 ****        -1.9890  -2.6055  -0.3736 C.2            1 S1                 0.0000
     12 ****        -0.8619  -1.8680  -0.4281 N.pl3          1 S1                 0.0000
     13 ****         0.5449  -2.3871  -0.4447 C.3            1 S1                 0.0000
     14 ****         1.3109  -1.6343  -1.3400 O.3            1 S1                 0.0000
     15 ****         2.3633  -0.9718  -0.6452 C.3            1 S1                 0.0000
     16 ****         3.5674  -0.7490  -1.5683 C.3            1 S1                 0.0000
     17 ****         4.5498   0.0154  -0.8876 O.3            1 S1                 0.0000
     18 ****         5.7728   0.1775  -1.4294 C.2            1 S1                 0.0000
     19 ****         6.1074  -0.3019  -2.5147 O.2            1 S1                 0.0000
     20 ****         6.6830   0.9926  -0.5743 C.ar           1 S1                 0.0000
     21 ****         8.0283   1.1746  -0.9718 C.ar           1 S1                 0.0000
     22 ****         8.9126   1.9370  -0.1840 C.ar           1 S1                 0.0000
     23 ****         8.4617   2.5287   1.0104 C.ar           1 S1                 0.0000
     24 ****         7.1254   2.3566   1.4162 C.ar           1 S1                 0.0000
     25 ****         6.2400   1.5930   0.6303 C.ar           1 S1                 0.0000
     26 ****         2.6293  -1.8605   0.5708 C.3            1 S1                 0.0000
     27 ****         3.3807  -2.9112   0.2344 F              1 S1                 0.0000
     28 ****         1.2350  -2.3370   0.9351 C.3            1 S1                 0.0000
     29 ****         0.6284  -1.4628   1.8701 O.3            1 S1                 0.0000
     30 ****        -6.9531   0.6422   0.5842 C.ar           1 S1                 0.0000
     31 ****        -7.7240   1.3219   1.5550 C.ar           1 S1                 0.0000
     32 ****        -9.1264   1.3861   1.4397 C.ar           1 S1                 0.0000
     33 ****        -9.7745   0.7633   0.3566 C.ar           1 S1                 0.0000
     34 ****        -9.0192   0.0718  -0.6087 C.ar           1 S1                 0.0000
     35 ****        -7.6167   0.0071  -0.4942 C.ar           1 S1                 0.0000
     36 ****        -0.8760   2.6271  -0.6065 H              1 S1                 0.0000
     37 ****        -1.9557  -3.6843  -0.3324 H              1 S1                 0.0000
     38 ****         0.4579  -3.4026  -0.8331 H              1 S1                 0.0000
     39 ****         1.9909  -0.0064  -0.3027 H              1 S1                 0.0000
     40 ****         3.9787  -1.7059  -1.8927 H              1 S1                 0.0000
     41 ****         3.2550  -0.2090  -2.4629 H              1 S1                 0.0000
     42 ****         8.3977   0.7285  -1.8842 H              1 S1                 0.0000
     43 ****         9.9381   2.0671  -0.4973 H              1 S1                 0.0000
     44 ****         9.1397   3.1139   1.6142 H              1 S1                 0.0000
     45 ****         6.7777   2.8111   2.3323 H              1 S1                 0.0000
     46 ****         5.2205   1.4819   0.9700 H              1 S1                 0.0000
     47 ****         3.1439  -1.3417   1.3806 H              1 S1                 0.0000
     48 ****         1.2491  -3.3368   1.3708 H              1 S1                 0.0000
     49 ****        -0.2664  -1.7373   2.0024 H              1 S1                 0.0000
     50 ****        -7.2421   1.8041   2.3935 H              1 S1                 0.0000
     51 ****        -9.7050   1.9127   2.1843 H              1 S1                 0.0000
     52 ****       -10.8496   0.8122   0.2686 H              1 S1                 0.0000
     53 ****        -9.5151  -0.4123  -1.4369 H              1 S1                 0.0000
     54 ****        -7.0569  -0.5382  -1.2404 H              1 S1                 0.0000
     55 ****        -3.9904   0.4715   2.0024 LP             1 S1                 0.0000
     56 ****        -5.5885   0.4221   2.6685 LP             1 S1                 0.0000
     57 ****        -5.2986   0.7532  -1.2930 LP             1 S1                 0.0000
     58 ****        -3.1783   2.6183  -0.5538 LP             1 S1                 0.0000
     59 ****         0.4126   0.6387  -0.5599 LP             1 S1                 0.0000
     60 ****        -4.0798  -2.3250  -0.3351 LP             1 S1                 0.0000
     61 ****         0.7277  -0.9540  -1.7838 LP             1 S1                 0.0000
     62 ****         1.7018  -2.2408  -2.0323 LP             1 S1                 0.0000
     63 ****         5.4555  -0.8453  -3.0435 LP             1 S1                 0.0000
     64 ****         7.0308  -0.1474  -2.8662 LP             1 S1                 0.0000
     65 ****         0.6453  -0.5274   1.5170 LP             1 S1                 0.0000
     66 ****         1.1243  -1.5006   2.7377 LP             1 S1                 0.0000
@<TRIPOS>BOND
    1    1    2 2     
    2    2    3 1     
    3    2   30 1     
    4    3    4 1     
    5    4    9 ar    
    6    4    5 ar    
    7    5    6 ar    
    8    6    7 ar    
    9    6   36 1     
   10    7    8 ar    
   11    8   12 1     
   12    8    9 ar    
   13    9   10 1     
   14   10   11 2     
   15   11   12 1     
   16   11   37 1     
   17   12   13 1     
   18   13   28 1     
   19   13   14 1     
   20   13   38 1     
   21   14   15 1     
   22   15   16 1     
   23   15   26 1     
   24   15   39 1     
   25   16   17 1     
   26   16   40 1     
   27   16   41 1     
   28   17   18 1     
   29   18   19 2     
   30   18   20 1     
   31   20   25 ar    
   32   20   21 ar    
   33   21   22 ar    
   34   21   42 1     
   35   22   23 ar    
   36   22   43 1     
   37   23   24 ar    
   38   23   44 1     
   39   24   25 ar    
   40   24   45 1     
   41   25   46 1     
   42   26   27 1     
   43   26   28 1     
   44   26   47 1     
   45   28   29 1     
   46   28   48 1     
   47   29   49 1     
   48   30   35 ar    
   49   30   31 ar    
   50   31   32 ar    
   51   31   50 1     
   52   32   33 ar    
   53   32   51 1     
   54   33   34 ar    
   55   33   52 1     
   56   34   35 ar    
   57   34   53 1     
   58   35   54 1     
   59    1   55 1     
   60    1   56 1     
   61    3   57 1     
   62    5   58 1     
   63    7   59 1     
   64   10   60 1     
   65   14   61 1     
   66   14   62 1     
   67   19   63 1     
   68   19   64 1     
   69   29   65 1     
   70   29   66 1     
@<TRIPOS>SUBSTRUCTURE
      1 S1             1
@<TRIPOS>SET
LONE_PAIRS      STATIC     ATOMS    <user>   **** ""
12 55 56 57 58 59 60 61 62 63 64 65 66
DONOR_HYDROGENS      STATIC     ATOMS    <user>   **** ""
1 49
ATOM$BLUE        STATIC     ATOMS    COLORGROUP SYSTEM
12 55 56 57 58 59 60 61 62 63 64 65 66
ATOM$RED        STATIC     ATOMS    COLORGROUP SYSTEM
1 49
