#       Name:                AV-unprocessed.smi:2876
#       Creating user name   scv26
#       Creation time:       Fri Mar 27 15:50:57 2020


#       File generated by GOLD software.
#

@<TRIPOS>MOLECULE
AV-unprocessed.smi:2876
    34    35     1
SMALL
NO_CHARGES


@<TRIPOS>ATOM
      1 ****        -3.8478   3.2430  -0.0076 O.co2          1 S1                 0.0000
      2 ****        -3.2501   2.1451  -0.0085 C.2            1 S1                 0.0000
      3 ****        -3.8808   1.0631  -0.0096 O.co2          1 S1                -1.0000
      4 ****        -1.7388   2.0963  -0.0082 C.ar           1 S1                 0.0000
      5 ****        -1.1841   0.8582  -0.0097 N.ar           1 S1                 0.0000
      6 ****         0.1474   0.7604  -0.0077 C.ar           1 S1                 0.0000
      7 ****         0.6947  -0.5088  -0.0054 N.3            1 S1                 0.0000
      8 ****         0.5236  -1.2863   1.2151 C.3            1 S1                 0.0000
      9 ****         1.4253  -2.5326   1.1850 C.3            1 S1                 0.0000
     10 ****         1.1474  -3.2970   0.0157 O.3            1 S1                 0.0000
     11 ****         1.3920  -2.5555  -1.1756 C.3            1 S1                 0.0000
     12 ****         0.4882  -1.3107  -1.2046 C.3            1 S1                 0.0000
     13 ****         1.0147   1.7719  -0.0044 N.ar           1 S1                 0.0000
     14 ****         0.4907   3.0146  -0.0040 C.ar           1 S1                 0.0000
     15 ****        -0.8995   3.2499  -0.0055 C.ar           1 S1                 0.0000
     16 ****        -1.4568   4.8894  -0.0037 Cl             1 S1                 0.0000
     17 ****         0.7646  -0.6702   2.0823 H              1 S1                 0.0000
     18 ****        -0.5221  -1.5820   1.3115 H              1 S1                 0.0000
     19 ****         2.4792  -2.2505   1.2060 H              1 S1                 0.0000
     20 ****         1.2430  -3.1502   2.0645 H              1 S1                 0.0000
     21 ****         2.4446  -2.2732  -1.2312 H              1 S1                 0.0000
     22 ****         1.1862  -3.1902  -2.0376 H              1 S1                 0.0000
     23 ****        -0.5594  -1.6089  -1.2649 H              1 S1                 0.0000
     24 ****         0.7036  -0.7118  -2.0904 H              1 S1                 0.0000
     25 ****         1.1932   3.8349  -0.0020 H              1 S1                 0.0000
     26 ****        -4.8474   3.2681  -0.0077 LP             1 S1                 0.0000
     27 ****        -3.3262   4.0963  -0.0067 LP             1 S1                 0.0000
     28 ****        -4.8808   1.0673  -0.0098 LP             1 S1                 0.0000
     29 ****        -3.3844   0.1950  -0.0103 LP             1 S1                 0.0000
     30 ****        -1.7581   0.0394  -0.0122 LP             1 S1                 0.0000
     31 ****         1.6641  -0.2638  -0.0247 LP             1 S1                 0.0000
     32 ****         0.1869  -3.5746   0.0320 LP             1 S1                 0.0000
     33 ****         1.7295  -4.1101   0.0154 LP             1 S1                 0.0000
     34 ****         2.0028   1.6177  -0.0023 LP             1 S1                 0.0000
@<TRIPOS>BOND
    1    1    2 ar    
    2    2    3 ar    
    3    2    4 1     
    4    4   15 ar    
    5    4    5 ar    
    6    5    6 ar    
    7    6    7 1     
    8    6   13 ar    
    9    7   12 1     
   10    7    8 1     
   11    8    9 1     
   12    8   17 1     
   13    8   18 1     
   14    9   10 1     
   15    9   19 1     
   16    9   20 1     
   17   10   11 1     
   18   11   12 1     
   19   11   21 1     
   20   11   22 1     
   21   12   23 1     
   22   12   24 1     
   23   13   14 ar    
   24   14   15 ar    
   25   14   25 1     
   26   15   16 1     
   27    1   26 1     
   28    1   27 1     
   29    3   28 1     
   30    3   29 1     
   31    5   30 1     
   32    7   31 1     
   33   10   32 1     
   34   10   33 1     
   35   13   34 1     
@<TRIPOS>SUBSTRUCTURE
      1 S1             1
@<TRIPOS>SET
LONE_PAIRS      STATIC     ATOMS    <user>   **** ""
9 26 27 28 29 30 31 32 33 34
ATOM$BLUE        STATIC     ATOMS    COLORGROUP SYSTEM
9 26 27 28 29 30 31 32 33 34
