AV-unprocessed.smi:2526|AV-procd|sdf|9935|dock8
  -GOLD-   2272013583D 1   1.00000     0.00000
 Structure written by MMmdl.
 29 30  0  0  0  0  0  0  0  0  2 V2000
  142.3660  137.4344  153.3331 C   0  0  0  0  0  0  0  0  0  0  0  0
  143.6022  136.9556  152.7523 N   0  0  0  0  0  0  0  0  0  0  0  0
  143.8082  135.8485  151.9587 C   0  0  0  0  0  0  0  0  0  0  0  0
  145.1398  135.8051  151.6437 C   0  0  0  0  0  0  0  0  0  0  0  0
  145.9007  134.8078  150.7929 C   0  0  1  0  0  0  0  0  0  0  0  0
  146.8713  134.0664  151.6027 N   0  0  0  0  0  0  0  0  0  0  0  0
  146.7046  132.8394  152.1312 C   0  0  0  0  0  0  0  0  0  0  0  0
  147.5353  132.3540  152.8947 O   0  0  0  0  0  0  0  0  0  0  0  0
  145.4742  132.0081  151.7300 C   0  0  0  0  0  0  0  0  0  0  0  0
  144.3685  132.8097  151.0191 C   0  0  0  0  0  0  0  0  0  0  0  0
  144.9659  133.8297  150.0405 C   0  0  1  0  0  0  0  0  0  0  0  0
  143.9195  134.5258  149.2687 N   0  3  0  0  0  0  0  0  0  0  0  0
  145.6671  136.9436  152.3203 C   0  0  0  0  0  0  0  0  0  0  0  0
  144.7469  137.6318  152.9738 N   0  0  0  0  0  0  0  0  0  0  0  0
  141.5386  136.7891  153.0369 H   0  0  0  0  0  0  0  0  0  0  0  0
  142.1642  138.4492  152.9886 H   0  0  0  0  0  0  0  0  0  0  0  0
  142.4443  137.4333  154.4207 H   0  0  0  0  0  0  0  0  0  0  0  0
  142.9965  135.1919  151.6805 H   0  0  0  0  0  0  0  0  0  0  0  0
  146.4837  135.3489  150.0466 H   0  0  0  0  0  0  0  0  0  0  0  0
  147.7152  134.5621  151.8530 H   0  0  0  0  0  0  0  0  0  0  0  0
  145.8262  131.2188  151.0651 H   0  0  0  0  0  0  0  0  0  0  0  0
  145.0671  131.5099  152.6103 H   0  0  0  0  0  0  0  0  0  0  0  0
  143.7110  132.1212  150.4873 H   0  0  0  0  0  0  0  0  0  0  0  0
  143.7451  133.3136  151.7591 H   0  0  0  0  0  0  0  0  0  0  0  0
  145.5633  133.2798  149.3116 H   0  0  0  0  0  0  0  0  0  0  0  0
  144.0216  134.3024  148.2888 H   0  0  0  0  0  0  0  0  0  0  0  0
  144.0119  135.5234  149.3976 H   0  0  0  0  0  0  0  0  0  0  0  0
  146.6890  137.2920  152.3489 H   0  0  0  0  0  0  0  0  0  0  0  0
  143.0087  134.2284  149.5883 H   0  0  0  0  0  0  0  0  0  0  0  0
  1  2  1  0  0  0  0
  1 15  1  0  0  0  0
  1 16  1  0  0  0  0
  1 17  1  0  0  0  0
  2 14  1  0  0  0  0
  2  3  1  0  0  0  0
  3  4  2  0  0  0  0
  3 18  1  0  0  0  0
  4  5  1  0  0  0  0
  4 13  1  0  0  0  0
  5 11  1  0  0  0  0
  5  6  1  0  0  0  0
  5 19  1  0  0  0  0
  6  7  1  0  0  0  0
  6 20  1  0  0  0  0
  7  8  2  0  0  0  0
  7  9  1  0  0  0  0
  9 10  1  0  0  0  0
  9 21  1  0  0  0  0
  9 22  1  0  0  0  0
 10 11  1  0  0  0  0
 10 23  1  0  0  0  0
 10 24  1  0  0  0  0
 11 12  1  0  0  0  0
 11 25  1  0  0  0  0
 12 26  1  0  0  0  0
 12 27  1  0  0  0  0
 12 29  1  0  0  0  0
 13 14  2  0  0  0  0
 13 28  1  0  0  0  0
M  CHG  1  12   1
M  END
> <s_m_source_file>
AV-unprocessed.smi

> <i_m_source_file_index>
2526

> <i_lp_mmshare_version>
43012

> <i_f3d_flags>
0

> <s_epik_input>
W0NIM11uMVtjSF1jKFtjSF1uMSlbQ0BASF0yW05IXUMoPU8pW0NIMl1bQ0gyXVtDQEhdMltOSDJd

> <s_epik_cmdline>
J2VwaWtfcHl0aG9uJywgJy1waCcsICc3LjAnLCAnLXRuJywgJzgnLCAnLW1hJywgJzIwMCcsICctbWV0YWxfYmluZGluZycsICctaW1hZScsICc8aW5maWxlLm1hZT4nLCAnLW9tYWUnLCAnPG91dGZpbGUubWFlPic=

> <r_lp_tautomer_probability>
1

> <r_epik_Ionization_Penalty>
0.00878543

> <r_epik_Ionization_Penalty_Charging>
0.00874185

> <r_epik_Ionization_Penalty_Neutral>
4.35793e-05

> <r_epik_State_Penalty>
0.00660351

> <r_epik_Charging_Adjusted_Penalty>
0.0153454

> <i_epik_Tot_Q>
1

> <i_epik_Tot_abs_Q>
1

> <r_epik_Metal_State_Penalty>
0.00660727

> <b_epik_Metal_Only>
0

> <s_lp_Force_Field>
OPLS_2005

> <r_lp_Energy>
11.1602

> <b_lp_Chiralities_Consistent>
1

> <s_lp_Variant>
AV-unprocessed.smi:2526-2

> <Gold.Version>
5.8.1

> <Gold.Id.Protein>
6NUR|6NUR_protein|mol2

> <Gold.PLP.Fitness>
36.0968

> <Gold.PLP.PLP>
-23.9910

> <Gold.PLP.part.hbond>
-3.0000

> <Gold.PLP.part.metal>
0.0000

> <Gold.PLP.part.buried>
-2.3870

> <Gold.PLP.part.nonpolar>
-19.0291

> <Gold.PLP.part.repulsive>
1.1135

> <Gold.PLP.ligand.clash>
0.0096

> <Gold.PLP.ligand.torsion>
0.1008

> <Gold.PLP.Chemscore.Hbond>
3.0994

> <Gold.PLP.Chemscore.CHOScore>
1.0000

> <Gold.PLP.Chemscore.Metal>
0.0000

> <Gold.Chemscore.Hbonds>
donor molecule, donor type, donor heavy atom, donor atom, acceptor molecule, acceptor atom, score
      L1  H     6    20       P1  7948  1.00
      L1  H    12    26       P1  7921  0.08
      L1  H    12    29       P1 10186  1.95
      L1  C    13    28       P1  7948  0.99

> <Gold.PLP.Chemscore.Internal.Correction>
0.0187

> <Gold.Rescore>
     Score         DG    S(hbond)    S(metal)    S(lipo)     H(rot)  DE(clash)    DE(int)     intcor
     12.96     -15.55       2.13        0.00      47.01       1.00       1.44       1.15       ----

> <Gold.Chemscore.Fitness>
12.9568

> <Gold.Chemscore.DG>
-15.5477

> <Gold.Chemscore.ZeroCoef>
-5.4800

> <Gold.Chemscore.Hbond>
2.1341

> <Gold.Chemscore.Metal>
0.0000

> <Gold.Chemscore.Lipo>
47.0064

> <Gold.Chemscore.Internal_Hbond>
0.0000

> <Gold.Chemscore.DEClash>
1.4407

> <Gold.Chemscore.DEInternal>
1.1502

> <Gold.Chemscore.Rot>
1.0000

> <Gold.Chemscore.Internal.Correction>
   9.000000E+99

> <Gold.Chemscore.Hbonds>
donor molecule, donor type, donor heavy atom, donor atom, acceptor molecule, acceptor atom, score
      L1  H     6    20       P1  7948  0.27
      L1  H    12    26       P1  7921  0.09
      L1  H    12    29       P1 10186  0.89

> <Gold.Chemscore.Hbond.Weighted>
-7.1280

> <Gold.Chemscore.Metal.Weighted>
-0.0000

> <Gold.Chemscore.Lipo.Weighted>
-5.4997

> <Gold.Chemscore.Internal_Hbond.Weighted>
0.0000

> <Gold.Chemscore.DEClash.Weighted>
1.4407

> <Gold.Chemscore.DEInternal.Weighted>
1.1502

> <Gold.Chemscore.Rot.Weighted>
2.5600

> <Gold.Chemscore.Internal.Correction.Weighted>
   9.000000E+99

> <Gold.Protein.RotatedTorsions>
[ 6907 6896 6895 6894 ] final -105.41 input  -60.11 | X-H torsion
[ 7974 7965 7964 7962 ] final  125.19 input  175.53 | X-H torsion
[ 8008 7997 7996 7995 ] final  136.56 input   59.86 | X-H torsion
[ 10167 10162 10161 10158 ] final  138.56 input  -65.29 | X-H torsion
[ 10718 10713 10712 10709 ] final -116.48 input   66.30 | X-H torsion
[ 10763 10752 10751 10750 ] final  -59.08 input  -60.55 | X-H torsion
[ 11005 11000 10999 10996 ] final  134.50 input  -57.11 | X-H torsion

> <Gold.Protein.ActiveResidues>
 VAL166  LYS551  ARG553  GLY616  TRP617  ASP618  TYR619  PRO620  LYS621  CYS622 
 ASP623  PHE694  ASN695  SER759  ASP760  ASP761  ALA762  ILE779  LEU786  VAL792 
 PHE793  MET794  SER795  GLU796  ALA797  LYS798  CYS799  TRP800  GLU811  SER814 

> <Gold.Protein.RotatedAtoms>
  150.7335  134.0131  159.3676 H   0  0  0  0  0  0  0  0  0  0  0  0  # atno 6907 bound_to 6896
  151.8092  135.0684  160.0420 H   0  0  0  0  0  0  0  0  0  0  0  0  # atno 6908 bound_to 6896
  152.3085  133.5691  159.5701 H   0  0  0  0  0  0  0  0  0  0  0  0  # atno 6909 bound_to 6896
  145.0758  139.3695  143.4934 H   0  0  0  0  0  0  0  0  0  0  0  0  # atno 7974 bound_to 7965
  156.3004  140.2442  156.3765 H   0  0  0  0  0  0  0  0  0  0  0  0  # atno 8008 bound_to 7997
  154.8740  140.0415  157.1762 H   0  0  0  0  0  0  0  0  0  0  0  0  # atno 8009 bound_to 7997
  154.8765  140.2943  155.5454 H   0  0  0  0  0  0  0  0  0  0  0  0  # atno 8010 bound_to 7997
  139.5107  144.6346  151.5729 H   0  0  0  0  0  0  0  0  0  0  0  0  # atno 10167 bound_to 10162
  156.0967  130.6138  150.9041 H   0  0  0  0  0  0  0  0  0  0  0  0  # atno 10718 bound_to 10713
  154.2482  135.6331  153.5231 H   0  0  0  0  0  0  0  0  0  0  0  0  # atno 10763 bound_to 10752
  152.9917  135.5558  154.5837 H   0  0  0  0  0  0  0  0  0  0  0  0  # atno 10764 bound_to 10752
  154.5358  135.2891  155.1114 H   0  0  0  0  0  0  0  0  0  0  0  0  # atno 10765 bound_to 10752
  139.9919  134.9512  156.9875 H   0  0  0  0  0  0  0  0  0  0  0  0  # atno 11005 bound_to 11000
  146.3530  140.0525  142.8635 LP  0  0  0  0  0  0  0  0  0  0  0  0  # atno 17320 bound_to 7965
  145.1237  140.9478  143.4585 LP  0  0  0  0  0  0  0  0  0  0  0  0  # atno 17321 bound_to 7965
  140.6091  143.9470  150.6440 LP  0  0  0  0  0  0  0  0  0  0  0  0  # atno 17342 bound_to 10162
  140.2706  143.3458  152.1241 LP  0  0  0  0  0  0  0  0  0  0  0  0  # atno 17343 bound_to 10162
  157.6129  131.0935  150.8763 LP  0  0  0  0  0  0  0  0  0  0  0  0  # atno 17370 bound_to 10713
  156.8899  130.5209  149.5287 LP  0  0  0  0  0  0  0  0  0  0  0  0  # atno 17371 bound_to 10713
  140.4893  134.1210  155.7230 LP  0  0  0  0  0  0  0  0  0  0  0  0  # atno 17394 bound_to 11000
  141.1572  133.8860  157.1944 LP  0  0  0  0  0  0  0  0  0  0  0  0  # atno 17395 bound_to 11000

$$$$
