AV-unprocessed.smi:158|AV-procd|sdf|1333|dock4
  -GOLD-   2262019 33D 1   1.00000     0.00000
 Structure written by MMmdl.
 31 33  0  0  0  0  0  0  0  0  1 V2000
  155.4555  141.1190  160.8207 N   0  0  0  0  0  0  0  0  0  0  0  0
  154.2252  141.3248  160.3305 C   0  0  0  0  0  0  0  0  0  0  0  0
  153.5195  142.3840  160.7885 N   0  0  0  0  0  0  0  0  0  0  0  0
  152.2873  142.6239  160.3256 C   0  0  0  0  0  0  0  0  0  0  0  0
  151.4765  143.9994  160.9761 Cl  0  0  0  0  0  0  0  0  0  0  0  0
  151.6122  141.9149  159.4157 N   0  0  0  0  0  0  0  0  0  0  0  0
  152.3168  140.8436  158.9475 C   0  0  0  0  0  0  0  0  0  0  0  0
  153.6302  140.4851  159.3571 C   0  0  0  0  0  0  0  0  0  0  0  0
  154.0455  139.3474  158.6810 N   0  0  0  0  0  0  0  0  0  0  0  0
  153.0304  139.0519  157.9155 C   0  0  0  0  0  0  0  0  0  0  0  0
  151.9425  139.8926  158.0131 N   0  0  0  0  0  0  0  0  0  0  0  0
  150.6532  139.7677  157.2509 C   0  0  2  0  0  0  0  0  0  0  0  0
  150.8132  140.2978  155.9654 O   0  0  0  0  0  0  0  0  0  0  0  0
  150.1354  141.5534  155.8215 C   0  0  1  0  0  0  0  0  0  0  0  0
  148.9465  141.3269  154.8636 C   0  0  0  0  0  0  0  0  0  0  0  0
  148.5574  142.5542  154.2850 O   0  0  0  0  0  0  0  0  0  0  0  0
  149.7561  141.9352  157.2633 C   0  0  1  0  0  0  0  0  0  0  0  0
  148.6370  142.7879  157.4071 O   0  0  0  0  0  0  0  0  0  0  0  0
  149.5646  140.5913  157.9376 C   0  0  1  0  0  0  0  0  0  0  0  0
  148.3830  140.0475  157.6388 F   0  0  0  0  0  0  0  0  0  0  0  0
  150.4576  138.6952  157.2278 H   0  0  0  0  0  0  0  0  0  0  0  0
  150.8041  142.3092  155.4070 H   0  0  0  0  0  0  0  0  0  0  0  0
  150.6058  142.4373  157.7276 H   0  0  0  0  0  0  0  0  0  0  0  0
  149.6722  140.6067  159.0229 H   0  0  0  0  0  0  0  0  0  0  0  0
  156.0016  140.3345  160.4948 H   0  0  0  0  0  0  0  0  0  0  0  0
  155.8345  141.7476  161.5140 H   0  0  0  0  0  0  0  0  0  0  0  0
  153.0444  138.1987  157.2528 H   0  0  0  0  0  0  0  0  0  0  0  0
  149.1861  140.6053  154.0826 H   0  0  0  0  0  0  0  0  0  0  0  0
  148.0774  140.9467  155.3998 H   0  0  0  0  0  0  0  0  0  0  0  0
  148.5663  143.2192  154.9562 H   0  0  0  0  0  0  0  0  0  0  0  0
  148.5487  143.3017  156.6187 H   0  0  0  0  0  0  0  0  0  0  0  0
  1  2  1  0  0  0  0
  1 25  1  0  0  0  0
  1 26  1  0  0  0  0
  2  8  1  0  0  0  0
  2  3  2  0  0  0  0
  3  4  1  0  0  0  0
  4  5  1  0  0  0  0
  4  6  2  0  0  0  0
  6  7  1  0  0  0  0
  7 11  1  0  0  0  0
  7  8  2  0  0  0  0
  8  9  1  0  0  0  0
  9 10  2  0  0  0  0
 10 11  1  0  0  0  0
 10 27  1  0  0  0  0
 11 12  1  0  0  0  0
 12 21  1  0  0  0  0
 12 19  1  0  0  0  0
 12 13  1  0  0  0  0
 13 14  1  0  0  0  0
 14 22  1  0  0  0  0
 14 15  1  0  0  0  0
 14 17  1  0  0  0  0
 15 16  1  0  0  0  0
 15 28  1  0  0  0  0
 15 29  1  0  0  0  0
 16 30  1  0  0  0  0
 17 23  1  0  0  0  0
 17 18  1  0  0  0  0
 17 19  1  0  0  0  0
 18 31  1  0  0  0  0
 19 24  1  0  0  0  0
 19 20  1  0  0  0  0
M  END
> <s_m_source_file>
AV-unprocessed.smi

> <i_m_source_file_index>
158

> <i_lp_mmshare_version>
43012

> <i_f3d_flags>
0

> <s_epik_input>
Q2xjKG4xKW5jKFtOSDJdKWMoYzEyKW5bY0hdbjJbQ0BASF0zT1tDQEhdKFtDSDJdW09IXSlbQ0BASF0oW09IXSlbQ0BASF0zRg==

> <s_epik_cmdline>
J2VwaWtfcHl0aG9uJywgJy1waCcsICc3LjAnLCAnLXRuJywgJzgnLCAnLW1hJywgJzIwMCcsICctbWV0YWxfYmluZGluZycsICctaW1hZScsICc8aW5maWxlLm1hZT4nLCAnLW9tYWUnLCAnPG91dGZpbGUubWFlPic=

> <r_lp_tautomer_probability>
1

> <r_epik_Ionization_Penalty>
6.51543e-05

> <r_epik_Ionization_Penalty_Charging>
0

> <r_epik_Ionization_Penalty_Neutral>
6.51543e-05

> <r_epik_State_Penalty>
-0

> <r_epik_Charging_Adjusted_Penalty>
0

> <i_epik_Tot_Q>
0

> <i_epik_Tot_abs_Q>
0

> <r_epik_Metal_State_Penalty>
-0

> <b_epik_Metal_Only>
0

> <s_epik_Chemistry_Notes>
This compound contains an acetal/aminal-like group ( X-CH(R)-Y where X, Y are N, S, or O) that may be acid/base labile, releasing an aldehyde.

> <s_lp_Force_Field>
OPLS_2005

> <r_lp_Energy>
36.1336

> <b_lp_Chiralities_Consistent>
1

> <s_lp_Variant>
AV-unprocessed.smi:158-11

> <Gold.Version>
5.8.1

> <Gold.Id.Protein>
6NUR|6NUR_protein|mol2

> <Gold.PLP.Fitness>
40.2653

> <Gold.PLP.PLP>
-32.7311

> <Gold.PLP.part.hbond>
-5.9433

> <Gold.PLP.part.metal>
0.0000

> <Gold.PLP.part.buried>
-3.3381

> <Gold.PLP.part.nonpolar>
-23.4616

> <Gold.PLP.part.repulsive>
0.0425

> <Gold.PLP.ligand.clash>
0.0000

> <Gold.PLP.ligand.torsion>
0.8047

> <Gold.PLP.Chemscore.Hbond>
3.0430

> <Gold.PLP.Chemscore.CHOScore>
0.0000

> <Gold.PLP.Chemscore.Metal>
0.0000

> <Gold.Chemscore.Hbonds>
donor molecule, donor type, donor heavy atom, donor atom, acceptor molecule, acceptor atom, score
      L1  H    16    30       P1  8028  1.00
      L1  H    18    31       P1  8028  1.00
      P1  H  7997  8008       L1     9  0.80
      P1  H  8011  8017       L1    16  0.04

> <Gold.PLP.Chemscore.Internal.Correction>
0.0148

> <Gold.Rescore>
     Score         DG    S(hbond)    S(metal)    S(lipo)     H(rot)  DE(clash)    DE(int)     intcor
      6.24      -9.11       2.03        0.00      41.33       3.12       0.00       2.87       ----

> <Gold.Chemscore.Fitness>
6.2352

> <Gold.Chemscore.DG>
-9.1104

> <Gold.Chemscore.ZeroCoef>
-5.4800

> <Gold.Chemscore.Hbond>
2.0329

> <Gold.Chemscore.Metal>
0.0000

> <Gold.Chemscore.Lipo>
41.3281

> <Gold.Chemscore.Internal_Hbond>
0.0000

> <Gold.Chemscore.DEClash>
0.0037

> <Gold.Chemscore.DEInternal>
2.8715

> <Gold.Chemscore.Rot>
3.1230

> <Gold.Chemscore.Internal.Correction>
   9.000000E+99

> <Gold.Chemscore.Hbonds>
donor molecule, donor type, donor heavy atom, donor atom, acceptor molecule, acceptor atom, score
      L1  H    16    30       P1  8028  0.99
      L1  H    18    31       P1  8028  0.58
      P1  H  7997  8008       L1     9  0.05
      P1  H  8011  8017       L1    16  0.01

> <Gold.Chemscore.Hbond.Weighted>
-6.7900

> <Gold.Chemscore.Metal.Weighted>
-0.0000

> <Gold.Chemscore.Lipo.Weighted>
-4.8354

> <Gold.Chemscore.Internal_Hbond.Weighted>
0.0000

> <Gold.Chemscore.DEClash.Weighted>
0.0037

> <Gold.Chemscore.DEInternal.Weighted>
2.8715

> <Gold.Chemscore.Rot.Weighted>
7.9950

> <Gold.Chemscore.Internal.Correction.Weighted>
   9.000000E+99

> <Gold.Protein.RotatedTorsions>
[ 6907 6896 6895 6894 ] final  -59.22 input  -60.11 | X-H torsion
[ 7974 7965 7964 7962 ] final   -2.45 input  175.53 | X-H torsion
[ 8008 7997 7996 7995 ] final -121.26 input   59.86 | X-H torsion
[ 10167 10162 10161 10158 ] final    4.10 input  -65.29 | X-H torsion
[ 10718 10713 10712 10709 ] final   61.96 input   66.30 | X-H torsion
[ 10763 10752 10751 10750 ] final   76.97 input  -60.55 | X-H torsion
[ 11005 11000 10999 10996 ] final  147.69 input  -57.11 | X-H torsion

> <Gold.Protein.ActiveResidues>
 VAL166  LYS551  ARG553  GLY616  TRP617  ASP618  TYR619  PRO620  LYS621  CYS622 
 ASP623  PHE694  ASN695  SER759  ASP760  ASP761  ALA762  ILE779  LEU786  VAL792 
 PHE793  MET794  SER795  GLU796  ALA797  LYS798  CYS799  TRP800  GLU811  SER814 

> <Gold.Protein.RotatedAtoms>
  150.7947  134.6997  159.6542 H   0  0  0  0  0  0  0  0  0  0  0  0  # atno 6907 bound_to 6896
  152.4057  134.6207  160.0060 H   0  0  0  0  0  0  0  0  0  0  0  0  # atno 6908 bound_to 6896
  151.6465  133.3286  159.3178 H   0  0  0  0  0  0  0  0  0  0  0  0  # atno 6909 bound_to 6896
  146.2404  140.1573  142.8333 H   0  0  0  0  0  0  0  0  0  0  0  0  # atno 7974 bound_to 7965
  155.1451  140.0402  157.2808 H   0  0  0  0  0  0  0  0  0  0  0  0  # atno 8008 bound_to 7997
  154.6444  140.2554  155.7258 H   0  0  0  0  0  0  0  0  0  0  0  0  # atno 8009 bound_to 7997
  156.2548  140.2849  156.0852 H   0  0  0  0  0  0  0  0  0  0  0  0  # atno 8010 bound_to 7997
  140.6552  143.7445  150.7641 H   0  0  0  0  0  0  0  0  0  0  0  0  # atno 10167 bound_to 10162
  157.5866  130.9024  149.9527 H   0  0  0  0  0  0  0  0  0  0  0  0  # atno 10718 bound_to 10713
  153.0764  135.4932  154.8412 H   0  0  0  0  0  0  0  0  0  0  0  0  # atno 10763 bound_to 10752
  154.7093  135.3016  154.9225 H   0  0  0  0  0  0  0  0  0  0  0  0  # atno 10764 bound_to 10752
  153.9924  135.6776  153.4808 H   0  0  0  0  0  0  0  0  0  0  0  0  # atno 10765 bound_to 10752
  140.0897  134.9048  157.1631 H   0  0  0  0  0  0  0  0  0  0  0  0  # atno 11005 bound_to 11000
  145.0118  140.8721  143.5219 LP  0  0  0  0  0  0  0  0  0  0  0  0  # atno 17320 bound_to 7965
  145.1608  139.2460  143.5393 LP  0  0  0  0  0  0  0  0  0  0  0  0  # atno 17321 bound_to 7965
  140.1104  143.4705  152.2373 LP  0  0  0  0  0  0  0  0  0  0  0  0  # atno 17342 bound_to 10162
  139.5773  144.7494  151.3731 LP  0  0  0  0  0  0  0  0  0  0  0  0  # atno 17343 bound_to 10162
  156.0916  130.3663  150.0384 LP  0  0  0  0  0  0  0  0  0  0  0  0  # atno 17370 bound_to 10713
  156.8514  130.9460  151.3625 LP  0  0  0  0  0  0  0  0  0  0  0  0  # atno 17371 bound_to 10713
  140.3370  134.2746  155.7218 LP  0  0  0  0  0  0  0  0  0  0  0  0  # atno 17394 bound_to 11000
  141.2074  133.7807  157.0122 LP  0  0  0  0  0  0  0  0  0  0  0  0  # atno 17395 bound_to 11000

$$$$
