AV-unprocessed.smi:1|AV-procd|sdf|7|dock4
  -GOLD-   2262015 93D 1   1.00000     0.00000
 Structure written by MMmdl.
 57 62  0  0  0  0  0  0  0  0  1 V2000
  153.0542  139.5644  159.1012 O   0  0  0  0  0  0  0  0  0  0  0  0
  153.3728  139.9011  160.2422 C   0  0  0  0  0  0  0  0  0  0  0  0
  153.8108  138.9391  161.2379 N   0  0  0  0  0  0  0  0  0  0  0  0
  154.0243  137.6121  161.0790 C   0  0  0  0  0  0  0  0  0  0  0  0
  154.0184  137.0140  159.8582 N   0  0  0  0  0  0  0  0  0  0  0  0
  154.2382  135.7003  159.7515 C   0  0  0  0  0  0  0  0  0  0  0  0
  154.4801  134.8154  160.7203 N   0  0  0  0  0  0  0  0  0  0  0  0
  154.4964  135.4095  161.9479 C   0  0  0  0  0  0  0  0  0  0  0  0
  154.2813  136.7913  162.2077 C   0  0  0  0  0  0  0  0  0  0  0  0
  154.3742  137.0329  163.5727 N   0  0  0  0  0  0  0  0  0  0  0  0
  154.6298  135.8588  164.0852 C   0  0  0  0  0  0  0  0  0  0  0  0
  154.7158  134.8262  163.1783 N   0  0  0  0  0  0  0  0  0  0  0  0
  154.9921  133.3878  163.4553 C   0  0  2  0  0  0  0  0  0  0  0  0
  153.8858  132.6313  163.0813 O   0  0  0  0  0  0  0  0  0  0  0  0
  153.6900  131.5409  163.9843 C   0  0  2  0  0  0  0  0  0  0  0  0
  152.2777  131.6584  164.5725 C   0  0  0  0  0  0  0  0  0  0  0  0
  152.1905  130.8503  165.7361 O   0  0  0  0  0  0  0  0  0  0  0  0
  151.0273  130.7421  166.4106 C   0  0  0  0  0  0  0  0  0  0  0  0
  149.9528  131.1864  166.0008 O   0  0  0  0  0  0  0  0  0  0  0  0
  151.1772  130.0265  167.7102 C   0  0  0  0  0  0  0  0  0  0  0  0
  150.0236  129.7171  168.4680 C   0  0  0  0  0  0  0  0  0  0  0  0
  150.1337  129.0415  169.6990 C   0  0  0  0  0  0  0  0  0  0  0  0
  151.3989  128.6660  170.1868 C   0  0  0  0  0  0  0  0  0  0  0  0
  152.5541  128.9671  169.4421 C   0  0  0  0  0  0  0  0  0  0  0  0
  152.4460  129.6429  168.2111 C   0  0  0  0  0  0  0  0  0  0  0  0
  154.7740  131.6846  165.0604 C   0  0  1  0  0  0  0  0  0  0  0  0
  155.8862  130.8592  164.7578 O   0  0  0  0  0  0  0  0  0  0  0  0
  157.2819  131.7216  165.0766 S   0  0  0  0  0  0  0  0  0  0  0  0
  157.8096  131.2826  166.3772 O   0  0  0  0  0  0  0  0  0  0  0  0
  158.0995  131.7424  163.8541 O   0  0  0  0  0  0  0  0  0  0  0  0
  156.5945  133.2321  165.2750 O   0  0  0  0  0  0  0  0  0  0  0  0
  155.2201  133.1428  164.9443 C   0  0  1  0  0  0  0  0  0  0  0  0
  153.2405  141.3202  160.7123 C   0  0  0  0  0  0  0  0  0  0  0  0
  154.0056  141.7758  161.8096 C   0  0  0  0  0  0  0  0  0  0  0  0
  153.8757  143.1013  162.2679 C   0  0  0  0  0  0  0  0  0  0  0  0
  152.9733  143.9795  161.6389 C   0  0  0  0  0  0  0  0  0  0  0  0
  152.1990  143.5307  160.5523 C   0  0  0  0  0  0  0  0  0  0  0  0
  152.3287  142.2058  160.0924 C   0  0  0  0  0  0  0  0  0  0  0  0
  153.9805  139.3076  162.1625 H   0  0  0  0  0  0  0  0  0  0  0  0
  154.2173  135.3012  158.7478 H   0  0  0  0  0  0  0  0  0  0  0  0
  154.7604  135.7121  165.1477 H   0  0  0  0  0  0  0  0  0  0  0  0
  155.8465  133.1256  162.8298 H   0  0  0  0  0  0  0  0  0  0  0  0
  153.7944  130.5923  163.4561 H   0  0  0  0  0  0  0  0  0  0  0  0
  152.0672  132.6915  164.8497 H   0  0  0  0  0  0  0  0  0  0  0  0
  151.5421  131.3712  163.8209 H   0  0  0  0  0  0  0  0  0  0  0  0
  149.0415  129.9957  168.1139 H   0  0  0  0  0  0  0  0  0  0  0  0
  149.2459  128.8121  170.2695 H   0  0  0  0  0  0  0  0  0  0  0  0
  151.4831  128.1475  171.1305 H   0  0  0  0  0  0  0  0  0  0  0  0
  153.5260  128.6798  169.8154 H   0  0  0  0  0  0  0  0  0  0  0  0
  153.3527  129.8574  167.6646 H   0  0  0  0  0  0  0  0  0  0  0  0
  154.4196  131.4380  166.0621 H   0  0  0  0  0  0  0  0  0  0  0  0
  154.5957  133.8014  165.5493 H   0  0  0  0  0  0  0  0  0  0  0  0
  154.7017  141.1134  162.3039 H   0  0  0  0  0  0  0  0  0  0  0  0
  154.4675  143.4432  163.1041 H   0  0  0  0  0  0  0  0  0  0  0  0
  152.8726  144.9954  161.9917 H   0  0  0  0  0  0  0  0  0  0  0  0
  151.5021  144.2023  160.0730 H   0  0  0  0  0  0  0  0  0  0  0  0
  151.7175  141.8790  159.2635 H   0  0  0  0  0  0  0  0  0  0  0  0
  1  2  2  0  0  0  0
  2  3  1  0  0  0  0
  2 33  1  0  0  0  0
  3  4  1  0  0  0  0
  3 39  1  0  0  0  0
  4  9  1  0  0  0  0
  4  5  2  0  0  0  0
  5  6  1  0  0  0  0
  6  7  2  0  0  0  0
  6 40  1  0  0  0  0
  7  8  1  0  0  0  0
  8 12  1  0  0  0  0
  8  9  2  0  0  0  0
  9 10  1  0  0  0  0
 10 11  2  0  0  0  0
 11 12  1  0  0  0  0
 11 41  1  0  0  0  0
 12 13  1  0  0  0  0
 13 32  1  0  0  0  0
 13 14  1  0  0  0  0
 13 42  1  0  0  0  0
 14 15  1  0  0  0  0
 15 16  1  0  0  0  0
 15 26  1  0  0  0  0
 15 43  1  0  0  0  0
 16 17  1  0  0  0  0
 16 44  1  0  0  0  0
 16 45  1  0  0  0  0
 17 18  1  0  0  0  0
 18 19  2  0  0  0  0
 18 20  1  0  0  0  0
 20 25  1  0  0  0  0
 20 21  2  0  0  0  0
 21 22  1  0  0  0  0
 21 46  1  0  0  0  0
 22 23  2  0  0  0  0
 22 47  1  0  0  0  0
 23 24  1  0  0  0  0
 23 48  1  0  0  0  0
 24 25  2  0  0  0  0
 24 49  1  0  0  0  0
 25 50  1  0  0  0  0
 26 32  1  0  0  0  0
 26 27  1  0  0  0  0
 26 51  1  0  0  0  0
 27 28  1  0  0  0  0
 28 29  2  0  0  0  0
 28 30  2  0  0  0  0
 28 31  1  0  0  0  0
 31 32  1  0  0  0  0
 32 52  1  0  0  0  0
 33 38  1  0  0  0  0
 33 34  2  0  0  0  0
 34 35  1  0  0  0  0
 34 53  1  0  0  0  0
 35 36  2  0  0  0  0
 35 54  1  0  0  0  0
 36 37  1  0  0  0  0
 36 55  1  0  0  0  0
 37 38  2  0  0  0  0
 37 56  1  0  0  0  0
 38 57  1  0  0  0  0
M  END
> <s_m_source_file>
AV-unprocessed.smi

> <i_m_source_file_index>
1

> <i_lp_mmshare_version>
43012

> <i_f3d_flags>
0

> <s_epik_input>
W2NIXTFbY0hdW2NIXVtjSF1bY0hdYzFDKD1PKVtOSF1jKG5bY0hdbjIpYyhjMjMpbltjSF1uM1tDQEBIXShbQ0BIXShbQ0BIXTQ1KU9TKE81KSg9Tyk9TylPW0NASF00W0NIMl1PQyg9TyljNltjSF1bY0hdW2NIXVtjSF1bY0hdNg==

> <s_epik_cmdline>
J2VwaWtfcHl0aG9uJywgJy1waCcsICc3LjAnLCAnLXRuJywgJzgnLCAnLW1hJywgJzIwMCcsICctbWV0YWxfYmluZGluZycsICctaW1hZScsICc8aW5maWxlLm1hZT4nLCAnLW9tYWUnLCAnPG91dGZpbGUubWFlPic=

> <r_lp_tautomer_probability>
1

> <r_epik_Ionization_Penalty>
0.00195722

> <r_epik_Ionization_Penalty_Charging>
0

> <r_epik_Ionization_Penalty_Neutral>
0.00195722

> <r_epik_State_Penalty>
0.00633741

> <r_epik_Charging_Adjusted_Penalty>
0.00633741

> <i_epik_Tot_Q>
0

> <i_epik_Tot_abs_Q>
0

> <r_epik_Metal_State_Penalty>
0.341185

> <b_epik_Metal_Only>
0

> <s_epik_Chemistry_Notes>
This compound has an ester and may undergo hydrolysis at high or low pH. This compound contains an acetal/aminal-like group ( X-CH(R)-Y where X, Y are N, S, or O) that may be acid/base labile, releasing an aldehyde.

> <s_lp_Force_Field>
OPLS_2005

> <r_lp_Energy>
42.4074

> <b_lp_Chiralities_Consistent>
1

> <s_lp_Variant>
AV-unprocessed.smi:1-7

> <Gold.Version>
5.8.1

> <Gold.Id.Protein>
6NUR|6NUR_protein|mol2

> <Gold.PLP.Fitness>
65.9468

> <Gold.PLP.PLP>
-63.7776

> <Gold.PLP.part.hbond>
-1.0000

> <Gold.PLP.part.metal>
0.0000

> <Gold.PLP.part.buried>
-7.9436

> <Gold.PLP.part.nonpolar>
-54.3060

> <Gold.PLP.part.repulsive>
0.2883

> <Gold.PLP.ligand.clash>
0.0000

> <Gold.PLP.ligand.torsion>
0.4957

> <Gold.PLP.Chemscore.Hbond>
1.0000

> <Gold.PLP.Chemscore.CHOScore>
0.0000

> <Gold.PLP.Chemscore.Metal>
0.0000

> <Gold.PLP.Chemscore.Internal.Correction>
0.1606

> <Gold.Rescore>
     Score         DG    S(hbond)    S(metal)    S(lipo)     H(rot)  DE(clash)    DE(int)     intcor
     18.51     -20.77       0.99        0.00     149.06       2.13       0.02       2.25       ----

> <Gold.Chemscore.Fitness>
18.5053

> <Gold.Chemscore.DG>
-20.7717

> <Gold.Chemscore.ZeroCoef>
-5.4800

> <Gold.Chemscore.Hbond>
0.9921

> <Gold.Chemscore.Metal>
0.0000

> <Gold.Chemscore.Lipo>
149.0557

> <Gold.Chemscore.Internal_Hbond>
0.0000

> <Gold.Chemscore.DEClash>
0.0200

> <Gold.Chemscore.DEInternal>
2.2464

> <Gold.Chemscore.Rot>
2.1333

> <Gold.Chemscore.Internal.Correction>
   9.000000E+99

> <Gold.Chemscore.Hbond.Weighted>
-3.3135

> <Gold.Chemscore.Metal.Weighted>
-0.0000

> <Gold.Chemscore.Lipo.Weighted>
-17.4395

> <Gold.Chemscore.Internal_Hbond.Weighted>
0.0000

> <Gold.Chemscore.DEClash.Weighted>
0.0200

> <Gold.Chemscore.DEInternal.Weighted>
2.2464

> <Gold.Chemscore.Rot.Weighted>
5.4614

> <Gold.Chemscore.Internal.Correction.Weighted>
   9.000000E+99

> <Gold.Protein.RotatedTorsions>
[ 6907 6896 6895 6894 ] final   82.26 input  -60.11 | X-H torsion
[ 7974 7965 7964 7962 ] final  -50.21 input  175.53 | X-H torsion
[ 8008 7997 7996 7995 ] final   12.79 input   59.86 | X-H torsion
[ 10167 10162 10161 10158 ] final  -39.09 input  -65.29 | X-H torsion
[ 10718 10713 10712 10709 ] final  137.74 input   66.30 | X-H torsion
[ 10763 10752 10751 10750 ] final -148.37 input  -60.55 | X-H torsion
[ 11005 11000 10999 10996 ] final  -95.75 input  -57.11 | X-H torsion

> <Gold.Protein.ActiveResidues>
 VAL166  LYS551  ARG553  GLY616  TRP617  ASP618  TYR619  PRO620  LYS621  CYS622 
 ASP623  PHE694  ASN695  SER759  ASP760  ASP761  ALA762  ILE779  LEU786  VAL792 
 PHE793  MET794  SER795  GLU796  ALA797  LYS798  CYS799  TRP800  GLU811  SER814 

> <Gold.Protein.RotatedAtoms>
  152.5294  134.3077  159.9101 H   0  0  0  0  0  0  0  0  0  0  0  0  # atno 6907 bound_to 6896
  151.3027  133.4109  159.2648 H   0  0  0  0  0  0  0  0  0  0  0  0  # atno 6908 bound_to 6896
  151.0105  134.9409  159.8062 H   0  0  0  0  0  0  0  0  0  0  0  0  # atno 6909 bound_to 6896
  145.9323  140.7738  142.9593 H   0  0  0  0  0  0  0  0  0  0  0  0  # atno 7974 bound_to 7965
  154.8255  140.2891  155.5758 H   0  0  0  0  0  0  0  0  0  0  0  0  # atno 8008 bound_to 7997
  156.3001  140.2542  156.3100 H   0  0  0  0  0  0  0  0  0  0  0  0  # atno 8009 bound_to 7997
  154.9291  140.0384  157.2028 H   0  0  0  0  0  0  0  0  0  0  0  0  # atno 8010 bound_to 7997
  140.7074  143.3236  151.2734 H   0  0  0  0  0  0  0  0  0  0  0  0  # atno 10167 bound_to 10162
  157.4328  131.1050  151.0231 H   0  0  0  0  0  0  0  0  0  0  0  0  # atno 10718 bound_to 10713
  154.8236  135.3336  154.6964 H   0  0  0  0  0  0  0  0  0  0  0  0  # atno 10763 bound_to 10752
  153.7593  135.6933  153.4933 H   0  0  0  0  0  0  0  0  0  0  0  0  # atno 10764 bound_to 10752
  153.2121  135.4478  155.0342 H   0  0  0  0  0  0  0  0  0  0  0  0  # atno 10765 bound_to 10752
  141.1432  133.8049  157.0478 H   0  0  0  0  0  0  0  0  0  0  0  0  # atno 11005 bound_to 11000
  144.6766  140.2147  143.7373 LP  0  0  0  0  0  0  0  0  0  0  0  0  # atno 17320 bound_to 7965
  145.8409  139.2129  143.1828 LP  0  0  0  0  0  0  0  0  0  0  0  0  # atno 17321 bound_to 7965
  139.6697  144.0042  152.2745 LP  0  0  0  0  0  0  0  0  0  0  0  0  # atno 17342 bound_to 10162
  139.9636  144.6541  150.8055 LP  0  0  0  0  0  0  0  0  0  0  0  0  # atno 17343 bound_to 10162
  157.1121  130.6026  149.5484 LP  0  0  0  0  0  0  0  0  0  0  0  0  # atno 17370 bound_to 10713
  155.9919  130.4976  150.7319 LP  0  0  0  0  0  0  0  0  0  0  0  0  # atno 17371 bound_to 10713
  140.0651  134.9733  157.1372 LP  0  0  0  0  0  0  0  0  0  0  0  0  # atno 17394 bound_to 11000
  140.3792  134.2306  155.7172 LP  0  0  0  0  0  0  0  0  0  0  0  0  # atno 17395 bound_to 11000

$$$$
