AV-unprocessed.smi:104|AV-procd|sdf|1006|dock10
  -GOLD-   2262018 03D 1   1.00000     0.00000
 Structure written by MMmdl.
 47 49  0  0  0  0  0  0  0  0  1 V2000
  149.3076  141.4098  154.9492 C   0  0  0  0  0  0  0  0  0  0  0  0
  149.9089  140.0114  154.9950 C   0  0  0  0  0  0  0  0  0  0  0  0
  151.0752  139.8012  154.6624 O   0  0  0  0  0  0  0  0  0  0  0  0
  149.0345  139.0925  155.4258 O   0  0  0  0  0  0  0  0  0  0  0  0
  149.4317  137.7340  155.5300 C   0  0  0  0  0  0  0  0  0  0  0  0
  149.1196  137.1796  156.9286 C   0  0  1  0  0  0  0  0  0  0  0  0
  147.7334  136.8643  157.0624 O   0  0  0  0  0  0  0  0  0  0  0  0
  147.5661  135.5100  157.3578 C   0  0  1  0  0  0  0  0  0  0  0  0
  147.3243  134.8050  156.0436 N   0  0  0  0  0  0  0  0  0  0  0  0
  146.1869  134.9052  155.2723 C   0  0  0  0  0  0  0  0  0  0  0  0
  144.7111  135.9963  155.7810 Br  0  0  0  0  0  0  0  0  0  0  0  0
  146.1445  134.2282  154.1619 N   0  0  0  0  0  0  0  0  0  0  0  0
  147.3689  133.5785  154.1579 C   0  0  0  0  0  0  0  0  0  0  0  0
  147.9942  132.6871  153.2501 C   0  0  0  0  0  0  0  0  0  0  0  0
  147.4201  132.2872  152.1074 N   0  0  0  0  0  0  0  0  0  0  0  0
  149.2281  132.2199  153.5449 N   0  0  0  0  0  0  0  0  0  0  0  0
  149.8207  132.6046  154.6775 C   0  0  0  0  0  0  0  0  0  0  0  0
  149.3601  133.4300  155.6194 N   0  0  0  0  0  0  0  0  0  0  0  0
  148.1162  133.9143  155.3279 C   0  0  0  0  0  0  0  0  0  0  0  0
  148.8545  135.1070  158.0855 C   0  0  2  0  0  0  0  0  0  0  0  0
  148.7733  135.5249  159.4454 O   0  0  0  0  0  0  0  0  0  0  0  0
  147.9434  134.9033  160.3006 C   0  0  0  0  0  0  0  0  0  0  0  0
  147.7757  135.6703  161.6053 C   0  0  0  0  0  0  0  0  0  0  0  0
  147.3578  133.8395  160.0989 O   0  0  0  0  0  0  0  0  0  0  0  0
  149.8992  135.9180  157.3229 C   0  0  2  0  0  0  0  0  0  0  0  0
  151.0485  136.2107  158.1087 O   0  0  0  0  0  0  0  0  0  0  0  0
  152.1782  136.6352  157.5155 C   0  0  0  0  0  0  0  0  0  0  0  0
  153.3047  136.8699  158.5128 C   0  0  0  0  0  0  0  0  0  0  0  0
  152.3373  136.8214  156.3089 O   0  0  0  0  0  0  0  0  0  0  0  0
  148.2924  141.3759  154.5528 H   0  0  0  0  0  0  0  0  0  0  0  0
  149.9043  142.0627  154.3120 H   0  0  0  0  0  0  0  0  0  0  0  0
  149.2748  141.8393  155.9503 H   0  0  0  0  0  0  0  0  0  0  0  0
  148.9016  137.1491  154.7773 H   0  0  0  0  0  0  0  0  0  0  0  0
  150.4987  137.6398  155.3239 H   0  0  0  0  0  0  0  0  0  0  0  0
  149.3136  137.9635  157.6617 H   0  0  0  0  0  0  0  0  0  0  0  0
  146.6529  135.3238  157.9243 H   0  0  0  0  0  0  0  0  0  0  0  0
  146.5003  132.6236  151.8615 H   0  0  0  0  0  0  0  0  0  0  0  0
  147.9069  131.6474  151.4966 H   0  0  0  0  0  0  0  0  0  0  0  0
  150.8042  132.1947  154.8550 H   0  0  0  0  0  0  0  0  0  0  0  0
  149.0337  134.0346  158.0480 H   0  0  0  0  0  0  0  0  0  0  0  0
  148.7253  135.7209  162.1384 H   0  0  0  0  0  0  0  0  0  0  0  0
  147.0443  135.1795  162.2478 H   0  0  0  0  0  0  0  0  0  0  0  0
  147.4347  136.6863  161.4070 H   0  0  0  0  0  0  0  0  0  0  0  0
  150.1929  135.3851  156.4193 H   0  0  0  0  0  0  0  0  0  0  0  0
  153.0246  137.6459  159.2252 H   0  0  0  0  0  0  0  0  0  0  0  0
  154.2130  137.1841  157.9982 H   0  0  0  0  0  0  0  0  0  0  0  0
  153.5194  135.9539  159.0633 H   0  0  0  0  0  0  0  0  0  0  0  0
  1  2  1  0  0  0  0
  1 30  1  0  0  0  0
  1 31  1  0  0  0  0
  1 32  1  0  0  0  0
  2  3  2  0  0  0  0
  2  4  1  0  0  0  0
  4  5  1  0  0  0  0
  5  6  1  0  0  0  0
  5 33  1  0  0  0  0
  5 34  1  0  0  0  0
  6 25  1  0  0  0  0
  6  7  1  0  0  0  0
  6 35  1  0  0  0  0
  7  8  1  0  0  0  0
  8  9  1  0  0  0  0
  8 20  1  0  0  0  0
  8 36  1  0  0  0  0
  9 19  1  0  0  0  0
  9 10  1  0  0  0  0
 10 11  1  0  0  0  0
 10 12  2  0  0  0  0
 12 13  1  0  0  0  0
 13 19  2  0  0  0  0
 13 14  1  0  0  0  0
 14 15  1  0  0  0  0
 14 16  2  0  0  0  0
 15 37  1  0  0  0  0
 15 38  1  0  0  0  0
 16 17  1  0  0  0  0
 17 18  2  0  0  0  0
 17 39  1  0  0  0  0
 18 19  1  0  0  0  0
 20 21  1  0  0  0  0
 20 25  1  0  0  0  0
 20 40  1  0  0  0  0
 21 22  1  0  0  0  0
 22 23  1  0  0  0  0
 22 24  2  0  0  0  0
 23 41  1  0  0  0  0
 23 42  1  0  0  0  0
 23 43  1  0  0  0  0
 25 26  1  0  0  0  0
 25 44  1  0  0  0  0
 26 27  1  0  0  0  0
 27 28  1  0  0  0  0
 27 29  2  0  0  0  0
 28 45  1  0  0  0  0
 28 46  1  0  0  0  0
 28 47  1  0  0  0  0
M  END
> <s_m_source_file>
AV-unprocessed.smi

> <i_m_source_file_index>
104

> <i_lp_mmshare_version>
43012

> <i_f3d_flags>
0

> <s_epik_input>
W0NIM11DKD1PKU9bQ0gyXVtDQEBIXTFPW0NASF0oW0NAQEhdKE9DKD1PKVtDSDNdKVtDQEhdMU9DKD1PKVtDSDNdKW4oYyhCciluMiljKGMyMyluW2NIXW5jM1tOSDJd

> <s_epik_cmdline>
J2VwaWtfcHl0aG9uJywgJy1waCcsICc3LjAnLCAnLXRuJywgJzgnLCAnLW1hJywgJzIwMCcsICctbWV0YWxfYmluZGluZycsICctaW1hZScsICc8aW5maWxlLm1hZT4nLCAnLW9tYWUnLCAnPG91dGZpbGUubWFlPic=

> <r_lp_tautomer_probability>
1

> <r_epik_Ionization_Penalty>
7.36622e-05

> <r_epik_Ionization_Penalty_Charging>
0

> <r_epik_Ionization_Penalty_Neutral>
7.36622e-05

> <r_epik_State_Penalty>
-0

> <r_epik_Charging_Adjusted_Penalty>
0

> <i_epik_Tot_Q>
0

> <i_epik_Tot_abs_Q>
0

> <r_epik_Metal_State_Penalty>
-0

> <b_epik_Metal_Only>
0

> <s_epik_Chemistry_Notes>
This compound has an ester and may undergo hydrolysis at high or low pH. This compound contains an acetal/aminal-like group ( X-CH(R)-Y where X, Y are N, S, or O) that may be acid/base labile, releasing an aldehyde.

> <s_lp_Force_Field>
OPLS_2005

> <r_lp_Energy>
17.7308

> <b_lp_Chiralities_Consistent>
1

> <s_lp_Variant>
AV-unprocessed.smi:104-14

> <Gold.Version>
5.8.1

> <Gold.Id.Protein>
6NUR|6NUR_protein|mol2

> <Gold.PLP.Fitness>
34.5628

> <Gold.PLP.PLP>
-27.4026

> <Gold.PLP.part.hbond>
-4.3589

> <Gold.PLP.part.metal>
0.0000

> <Gold.PLP.part.buried>
-5.6037

> <Gold.PLP.part.nonpolar>
-17.8211

> <Gold.PLP.part.repulsive>
0.4213

> <Gold.PLP.ligand.clash>
0.0000

> <Gold.PLP.ligand.torsion>
0.9729

> <Gold.PLP.Chemscore.Hbond>
3.0000

> <Gold.PLP.Chemscore.CHOScore>
0.0000

> <Gold.PLP.Chemscore.Metal>
0.0000

> <Gold.Chemscore.Hbonds>
donor molecule, donor type, donor heavy atom, donor atom, acceptor molecule, acceptor atom, score
      L1  H    15    38       P1 10747  1.00
      P1  H  7989  7998       L1     3  1.00
      P1  H 10752 10765       L1    29  0.99

> <Gold.PLP.Chemscore.Internal.Correction>
0.1060

> <Gold.Rescore>
     Score         DG    S(hbond)    S(metal)    S(lipo)     H(rot)  DE(clash)    DE(int)     intcor
      6.20      -8.20       2.96        0.00      32.96       4.31       0.01       1.98       ----

> <Gold.Chemscore.Fitness>
6.2045

> <Gold.Chemscore.DG>
-8.2044

> <Gold.Chemscore.ZeroCoef>
-5.4800

> <Gold.Chemscore.Hbond>
2.9623

> <Gold.Chemscore.Metal>
0.0000

> <Gold.Chemscore.Lipo>
32.9595

> <Gold.Chemscore.Internal_Hbond>
0.0000

> <Gold.Chemscore.DEClash>
0.0149

> <Gold.Chemscore.DEInternal>
1.9850

> <Gold.Chemscore.Rot>
4.3070

> <Gold.Chemscore.Internal.Correction>
   9.000000E+99

> <Gold.Chemscore.Hbonds>
donor molecule, donor type, donor heavy atom, donor atom, acceptor molecule, acceptor atom, score
      L1  H    15    38       P1 10747  1.00
      P1  H  7989  7998       L1     3  0.88
      P1  H 10752 10765       L1    29  0.89

> <Gold.Chemscore.Hbond.Weighted>
-9.8940

> <Gold.Chemscore.Metal.Weighted>
-0.0000

> <Gold.Chemscore.Lipo.Weighted>
-3.8563

> <Gold.Chemscore.Internal_Hbond.Weighted>
0.0000

> <Gold.Chemscore.DEClash.Weighted>
0.0149

> <Gold.Chemscore.DEInternal.Weighted>
1.9850

> <Gold.Chemscore.Rot.Weighted>
11.0259

> <Gold.Chemscore.Internal.Correction.Weighted>
   9.000000E+99

> <Gold.Protein.RotatedTorsions>
[ 6907 6896 6895 6894 ] final  -65.06 input  -60.11 | X-H torsion
[ 7974 7965 7964 7962 ] final  135.93 input  175.53 | X-H torsion
[ 8008 7997 7996 7995 ] final  176.24 input   59.86 | X-H torsion
[ 10167 10162 10161 10158 ] final   -9.03 input  -65.29 | X-H torsion
[ 10718 10713 10712 10709 ] final  130.60 input   66.30 | X-H torsion
[ 10763 10752 10751 10750 ] final -158.40 input  -60.55 | X-H torsion
[ 11005 11000 10999 10996 ] final -160.59 input  -57.11 | X-H torsion

> <Gold.Protein.ActiveResidues>
 VAL166  LYS551  ARG553  GLY616  TRP617  ASP618  TYR619  PRO620  LYS621  CYS622 
 ASP623  PHE694  ASN695  SER759  ASP760  ASP761  ALA762  ILE779  LEU786  VAL792 
 PHE793  MET794  SER795  GLU796  ALA797  LYS798  CYS799  TRP800  GLU811  SER814 

> <Gold.Protein.RotatedAtoms>
  150.7547  134.6212  159.6136 H   0  0  0  0  0  0  0  0  0  0  0  0  # atno 6907 bound_to 6896
  152.3518  134.6992  160.0243 H   0  0  0  0  0  0  0  0  0  0  0  0  # atno 6908 bound_to 6896
  151.7410  133.3286  159.3402 H   0  0  0  0  0  0  0  0  0  0  0  0  # atno 6909 bound_to 6896
  144.9615  139.4705  143.5477 H   0  0  0  0  0  0  0  0  0  0  0  0  # atno 7974 bound_to 7965
  156.0786  140.1388  156.9741 H   0  0  0  0  0  0  0  0  0  0  0  0  # atno 8008 bound_to 7997
  154.4572  140.0957  156.6840 H   0  0  0  0  0  0  0  0  0  0  0  0  # atno 8009 bound_to 7997
  155.5113  140.3454  155.4391 H   0  0  0  0  0  0  0  0  0  0  0  0  # atno 8010 bound_to 7997
  140.7076  143.5903  150.8900 H   0  0  0  0  0  0  0  0  0  0  0  0  # atno 10167 bound_to 10162
  157.5047  131.1095  150.9378 H   0  0  0  0  0  0  0  0  0  0  0  0  # atno 10718 bound_to 10713
  154.7560  135.3105  154.8469 H   0  0  0  0  0  0  0  0  0  0  0  0  # atno 10763 bound_to 10752
  153.9243  135.6792  153.4751 H   0  0  0  0  0  0  0  0  0  0  0  0  # atno 10764 bound_to 10752
  153.1157  135.4845  154.9041 H   0  0  0  0  0  0  0  0  0  0  0  0  # atno 10765 bound_to 10752
  140.6298  134.4663  157.5229 H   0  0  0  0  0  0  0  0  0  0  0  0  # atno 11005 bound_to 11000
  146.3354  139.8767  142.8831 LP  0  0  0  0  0  0  0  0  0  0  0  0  # atno 17320 bound_to 7965
  145.2693  141.0103  143.3781 LP  0  0  0  0  0  0  0  0  0  0  0  0  # atno 17321 bound_to 7965
  139.9629  143.6144  152.2997 LP  0  0  0  0  0  0  0  0  0  0  0  0  # atno 17342 bound_to 10162
  139.6703  144.7661  151.1796 LP  0  0  0  0  0  0  0  0  0  0  0  0  # atno 17343 bound_to 10162
  157.0038  130.5610  149.5314 LP  0  0  0  0  0  0  0  0  0  0  0  0  # atno 17370 bound_to 10713
  156.0251  130.5345  150.8383 LP  0  0  0  0  0  0  0  0  0  0  0  0  # atno 17371 bound_to 10713
  139.9120  134.8324  156.1494 LP  0  0  0  0  0  0  0  0  0  0  0  0  # atno 17394 bound_to 11000
  141.0683  133.6809  156.2089 LP  0  0  0  0  0  0  0  0  0  0  0  0  # atno 17395 bound_to 11000

$$$$
