AV-unprocessed.smi:1819|AV-procd|sdf|7383|dock7
  -GOLD-   22720 9 53D 1   1.00000     0.00000
 Structure written by MMmdl.
 28 28  0  0  0  0  0  0  0  0  2 V2000
  146.4969  141.9755  159.4727 O   0  0  0  0  0  0  0  0  0  0  0  0
  146.8368  142.7673  158.5927 C   0  0  0  0  0  0  0  0  0  0  0  0
  146.5988  142.4317  157.1157 C   0  0  0  0  0  0  0  0  0  0  0  0
  147.7233  141.6855  156.5295 N   0  0  0  0  0  0  0  0  0  0  0  0
  148.2543  142.1466  155.3121 C   0  0  0  0  0  0  0  0  0  0  0  0
  149.2785  141.5206  154.7015 C   0  0  0  0  0  0  0  0  0  0  0  0
  149.8390  140.3337  155.3357 C   0  0  0  0  0  0  0  0  0  0  0  0
  150.7776  139.7522  154.7949 O   0  0  0  0  0  0  0  0  0  0  0  0
  149.2861  139.9228  156.5145 N   0  5  0  0  0  0  0  0  0  0  0  0
  148.2430  140.5681  157.1228 C   0  0  0  0  0  0  0  0  0  0  0  0
  147.7570  140.1785  158.1858 O   0  0  0  0  0  0  0  0  0  0  0  0
  147.4131  143.9522  158.8456 N   0  0  0  0  0  0  0  0  0  0  0  0
  147.7975  144.4446  160.1643 C   0  0  0  0  0  0  0  0  0  0  0  0
  149.3082  144.7186  160.2443 C   0  0  0  0  0  0  0  0  0  0  0  0
  150.2221  144.0259  158.8342 S   0  0  0  0  0  0  0  0  0  0  0  0
  151.9137  144.5060  159.2753 C   0  0  0  0  0  0  0  0  0  0  0  0
  151.8921  145.6316  159.9868 F   0  0  0  0  0  0  0  0  0  0  0  0
  152.4900  143.5508  160.0039 F   0  0  0  0  0  0  0  0  0  0  0  0
  152.6365  144.7111  158.1748 F   0  0  0  0  0  0  0  0  0  0  0  0
  145.6743  141.8577  157.0423 H   0  0  0  0  0  0  0  0  0  0  0  0
  146.4180  143.3439  156.5435 H   0  0  0  0  0  0  0  0  0  0  0  0
  147.7783  143.0269  154.9058 H   0  0  0  0  0  0  0  0  0  0  0  0
  149.6731  141.8855  153.7648 H   0  0  0  0  0  0  0  0  0  0  0  0
  147.6514  144.5346  158.0560 H   0  0  0  0  0  0  0  0  0  0  0  0
  147.2548  145.3745  160.3352 H   0  0  0  0  0  0  0  0  0  0  0  0
  147.4884  143.7621  160.9576 H   0  0  0  0  0  0  0  0  0  0  0  0
  149.4944  145.7916  160.3017 H   0  0  0  0  0  0  0  0  0  0  0  0
  149.7104  144.2792  161.1571 H   0  0  0  0  0  0  0  0  0  0  0  0
  1  2  2  0  0  0  0
  2  3  1  0  0  0  0
  2 12  1  0  0  0  0
  3  4  1  0  0  0  0
  3 20  1  0  0  0  0
  3 21  1  0  0  0  0
  4 10  1  0  0  0  0
  4  5  1  0  0  0  0
  5  6  2  0  0  0  0
  5 22  1  0  0  0  0
  6  7  1  0  0  0  0
  6 23  1  0  0  0  0
  7  8  2  0  0  0  0
  7  9  1  0  0  0  0
  9 10  1  0  0  0  0
 10 11  2  0  0  0  0
 12 13  1  0  0  0  0
 12 24  1  0  0  0  0
 13 14  1  0  0  0  0
 13 25  1  0  0  0  0
 13 26  1  0  0  0  0
 14 15  1  0  0  0  0
 14 27  1  0  0  0  0
 14 28  1  0  0  0  0
 15 16  1  0  0  0  0
 16 17  1  0  0  0  0
 16 18  1  0  0  0  0
 16 19  1  0  0  0  0
M  CHG  1   9  -1
M  END
> <s_m_source_file>
AV-unprocessed.smi

> <i_m_source_file_index>
1819

> <i_lp_mmshare_version>
43012

> <i_f3d_flags>
0

> <s_epik_input>
RkMoRikoRilTW0NIMl1bQ0gyXVtOSF1DKD1PKVtDSDJdbjFbY0hdW2NIXWMoPU8pW25IXWMxPU8=

> <s_epik_cmdline>
J2VwaWtfcHl0aG9uJywgJy1waCcsICc3LjAnLCAnLXRuJywgJzgnLCAnLW1hJywgJzIwMCcsICctbWV0YWxfYmluZGluZycsICctaW1hZScsICc8aW5maWxlLm1hZT4nLCAnLW9tYWUnLCAnPG91dGZpbGUubWFlPic=

> <r_lp_tautomer_probability>
0.999537

> <r_epik_Ionization_Penalty>
3.04617

> <r_epik_Ionization_Penalty_Charging>
2.49125e-08

> <r_epik_Ionization_Penalty_Neutral>
3.04617

> <r_epik_State_Penalty>
3.04516

> <r_epik_Charging_Adjusted_Penalty>
3.04516

> <i_epik_Tot_Q>
-1

> <i_epik_Tot_abs_Q>
1

> <r_epik_Metal_State_Penalty>
0.457105

> <b_epik_Metal_Only>
1

> <s_lp_Force_Field>
OPLS_2005

> <r_lp_Energy>
9.91428

> <b_lp_Chiralities_Consistent>
1

> <s_lp_Variant>
AV-unprocessed.smi:1819-2

> <Gold.Version>
5.8.1

> <Gold.Id.Protein>
6NUR|6NUR_protein|mol2

> <Gold.PLP.Fitness>
45.4044

> <Gold.PLP.PLP>
-37.3835

> <Gold.PLP.part.hbond>
-4.0000

> <Gold.PLP.part.metal>
0.0000

> <Gold.PLP.part.buried>
-2.2249

> <Gold.PLP.part.nonpolar>
-31.9963

> <Gold.PLP.part.repulsive>
0.1520

> <Gold.PLP.ligand.clash>
0.0000

> <Gold.PLP.ligand.torsion>
1.3744

> <Gold.PLP.Chemscore.Hbond>
3.0000

> <Gold.PLP.Chemscore.CHOScore>
0.5633

> <Gold.PLP.Chemscore.Metal>
0.0000

> <Gold.Chemscore.Hbonds>
donor molecule, donor type, donor heavy atom, donor atom, acceptor molecule, acceptor atom, score
      L1  H    12    24       P1  8029  1.00
      P1  H  6934  6946       L1     1  1.00
      P1  H  7989  7998       L1     8  1.00
      L1  C     5    22       P1  8028  0.56

> <Gold.PLP.Chemscore.Internal.Correction>
0.0798

> <Gold.Rescore>
     Score         DG    S(hbond)    S(metal)    S(lipo)     H(rot)  DE(clash)    DE(int)     intcor
      7.11     -12.82       2.75        0.00      47.13       2.88       1.48       4.23       ----

> <Gold.Chemscore.Fitness>
7.1129

> <Gold.Chemscore.DG>
-12.8213

> <Gold.Chemscore.ZeroCoef>
-5.4800

> <Gold.Chemscore.Hbond>
2.7508

> <Gold.Chemscore.Metal>
0.0000

> <Gold.Chemscore.Lipo>
47.1270

> <Gold.Chemscore.Internal_Hbond>
0.0000

> <Gold.Chemscore.DEClash>
1.4750

> <Gold.Chemscore.DEInternal>
4.2334

> <Gold.Chemscore.Rot>
2.8751

> <Gold.Chemscore.Internal.Correction>
   9.000000E+99

> <Gold.Chemscore.Hbonds>
donor molecule, donor type, donor heavy atom, donor atom, acceptor molecule, acceptor atom, score
      L1  H    12    24       P1  8029  0.49
      P1  H  6934  6946       L1     1  0.94
      P1  H  7989  7998       L1     8  0.78

> <Gold.Chemscore.Hbond.Weighted>
-9.1878

> <Gold.Chemscore.Metal.Weighted>
-0.0000

> <Gold.Chemscore.Lipo.Weighted>
-5.5139

> <Gold.Chemscore.Internal_Hbond.Weighted>
0.0000

> <Gold.Chemscore.DEClash.Weighted>
1.4750

> <Gold.Chemscore.DEInternal.Weighted>
4.2334

> <Gold.Chemscore.Rot.Weighted>
7.3603

> <Gold.Chemscore.Internal.Correction.Weighted>
   9.000000E+99

> <Gold.Protein.RotatedTorsions>
[ 6907 6896 6895 6894 ] final   -5.16 input  -60.11 | X-H torsion
[ 7974 7965 7964 7962 ] final   98.13 input  175.53 | X-H torsion
[ 8008 7997 7996 7995 ] final -169.32 input   59.86 | X-H torsion
[ 10167 10162 10161 10158 ] final  161.61 input  -65.29 | X-H torsion
[ 10718 10713 10712 10709 ] final    5.18 input   66.30 | X-H torsion
[ 10763 10752 10751 10750 ] final -167.59 input  -60.55 | X-H torsion
[ 11005 11000 10999 10996 ] final   82.79 input  -57.11 | X-H torsion

> <Gold.Protein.ActiveResidues>
 VAL166  LYS551  ARG553  GLY616  TRP617  ASP618  TYR619  PRO620  LYS621  CYS622 
 ASP623  PHE694  ASN695  SER759  ASP760  ASP761  ALA762  ILE779  LEU786  VAL792 
 PHE793  MET794  SER795  GLU796  ALA797  LYS798  CYS799  TRP800  GLU811  SER814 

> <Gold.Protein.RotatedAtoms>
  151.4861  135.1055  159.9790 H   0  0  0  0  0  0  0  0  0  0  0  0  # atno 6907 bound_to 6896
  152.4760  133.8135  159.7026 H   0  0  0  0  0  0  0  0  0  0  0  0  # atno 6908 bound_to 6896
  150.8798  133.7326  159.2962 H   0  0  0  0  0  0  0  0  0  0  0  0  # atno 6909 bound_to 6896
  145.4163  139.2327  143.3220 H   0  0  0  0  0  0  0  0  0  0  0  0  # atno 7974 bound_to 7965
  155.9034  140.1045  157.1333 H   0  0  0  0  0  0  0  0  0  0  0  0  # atno 8008 bound_to 7997
  154.4029  140.1288  156.4529 H   0  0  0  0  0  0  0  0  0  0  0  0  # atno 8009 bound_to 7997
  155.7396  140.3467  155.5100 H   0  0  0  0  0  0  0  0  0  0  0  0  # atno 8010 bound_to 7997
  139.4851  144.4519  151.8818 H   0  0  0  0  0  0  0  0  0  0  0  0  # atno 10167 bound_to 10162
  156.9035  130.5730  149.5648 H   0  0  0  0  0  0  0  0  0  0  0  0  # atno 10718 bound_to 10713
  154.6717  135.2940  154.9733 H   0  0  0  0  0  0  0  0  0  0  0  0  # atno 10763 bound_to 10752
  154.0758  135.6611  153.4834 H   0  0  0  0  0  0  0  0  0  0  0  0  # atno 10764 bound_to 10752
  153.0490  135.5186  154.7716 H   0  0  0  0  0  0  0  0  0  0  0  0  # atno 10765 bound_to 10752
  139.9052  134.8097  156.2222 H   0  0  0  0  0  0  0  0  0  0  0  0  # atno 11005 bound_to 11000
  146.2679  140.4882  142.8826 LP  0  0  0  0  0  0  0  0  0  0  0  0  # atno 17320 bound_to 7965
  144.8275  140.6652  143.6313 LP  0  0  0  0  0  0  0  0  0  0  0  0  # atno 17321 bound_to 7965
  140.3976  144.2534  150.5895 LP  0  0  0  0  0  0  0  0  0  0  0  0  # atno 17342 bound_to 10162
  140.5087  143.2297  151.8568 LP  0  0  0  0  0  0  0  0  0  0  0  0  # atno 17343 bound_to 10162
  156.0570  130.5630  150.9113 LP  0  0  0  0  0  0  0  0  0  0  0  0  # atno 17370 bound_to 10713
  157.6011  131.0941  150.8958 LP  0  0  0  0  0  0  0  0  0  0  0  0  # atno 17371 bound_to 10713
  141.0398  133.6944  156.1578 LP  0  0  0  0  0  0  0  0  0  0  0  0  # atno 17394 bound_to 11000
  140.6972  134.4603  157.5587 LP  0  0  0  0  0  0  0  0  0  0  0  0  # atno 17395 bound_to 11000

$$$$
