AV-unprocessed.smi:528|AV-procd|sdf|2831|dock10
  -GOLD-   2262023323D 1   1.00000     0.00000
 Structure written by MMmdl.
 45 47  0  0  0  0  0  0  0  0  1 V2000
  148.1171  141.9589  154.1001 C   0  0  0  0  0  0  0  0  0  0  0  0
  148.3893  140.7419  154.9978 C   0  0  2  0  0  0  0  0  0  0  0  0
  149.7916  140.7628  155.4095 N   0  0  0  0  0  0  0  0  0  0  0  0
  150.2548  140.5136  156.6443 C   0  0  0  0  0  0  0  0  0  0  0  0
  149.5247  140.2835  157.6092 O   0  0  0  0  0  0  0  0  0  0  0  0
  151.7808  140.5350  156.8038 C   0  0  0  0  0  0  0  0  0  0  0  0
  152.2085  141.1344  158.0781 N   0  0  0  0  0  0  0  0  0  0  0  0
  151.7006  142.4148  158.3732 C   0  0  0  0  0  0  0  0  0  0  0  0
  152.0083  143.0849  159.4998 C   0  0  0  0  0  0  0  0  0  0  0  0
  151.4935  144.4926  159.7561 C   0  0  0  0  0  0  0  0  0  0  0  0
  150.1609  144.5210  159.7814 F   0  0  0  0  0  0  0  0  0  0  0  0
  151.9451  144.9646  160.9188 F   0  0  0  0  0  0  0  0  0  0  0  0
  151.9085  145.3092  158.7886 F   0  0  0  0  0  0  0  0  0  0  0  0
  152.9295  142.4300  160.4077 C   0  0  0  0  0  0  0  0  0  0  0  0
  153.4359  141.2115  160.1339 C   0  0  0  0  0  0  0  0  0  0  0  0
  153.0819  140.4905  158.9088 C   0  0  0  0  0  0  0  0  0  0  0  0
  153.5444  139.3803  158.6464 O   0  0  0  0  0  0  0  0  0  0  0  0
  148.0746  139.4061  154.2828 C   0  0  2  0  0  0  0  0  0  0  0  0
  146.8981  139.4614  153.2822 C   0  0  0  0  0  0  0  0  0  0  0  0
  146.0423  138.2451  153.6846 C   0  0  2  0  0  0  0  0  0  0  0  0
  145.3028  138.5625  154.9968 C   0  0  0  0  0  0  0  0  0  0  0  0
  146.4336  138.5178  156.0398 C   0  0  0  0  0  0  0  0  0  0  0  0
  147.6792  138.2076  155.1833 C   0  0  1  0  0  0  0  0  0  0  0  0
  147.0957  137.2470  154.1521 C   0  0  0  0  0  0  0  0  0  0  0  0
  147.0711  142.0029  153.7964 H   0  0  0  0  0  0  0  0  0  0  0  0
  148.7248  141.9301  153.1952 H   0  0  0  0  0  0  0  0  0  0  0  0
  148.3428  142.8889  154.6231 H   0  0  0  0  0  0  0  0  0  0  0  0
  147.7386  140.8329  155.8683 H   0  0  0  0  0  0  0  0  0  0  0  0
  150.4688  140.9524  154.6851 H   0  0  0  0  0  0  0  0  0  0  0  0
  152.1671  139.5162  156.7366 H   0  0  0  0  0  0  0  0  0  0  0  0
  152.2117  141.0587  155.9491 H   0  0  0  0  0  0  0  0  0  0  0  0
  151.0507  142.8239  157.6126 H   0  0  0  0  0  0  0  0  0  0  0  0
  153.2167  142.9226  161.3249 H   0  0  0  0  0  0  0  0  0  0  0  0
  154.1185  140.7528  160.8341 H   0  0  0  0  0  0  0  0  0  0  0  0
  148.9699  139.1101  153.7324 H   0  0  0  0  0  0  0  0  0  0  0  0
  146.3289  140.3899  153.3415 H   0  0  0  0  0  0  0  0  0  0  0  0
  147.2628  139.3632  152.2589 H   0  0  0  0  0  0  0  0  0  0  0  0
  145.3871  137.8885  152.8895 H   0  0  0  0  0  0  0  0  0  0  0  0
  144.8022  139.5309  154.9674 H   0  0  0  0  0  0  0  0  0  0  0  0
  144.5507  137.8032  155.2147 H   0  0  0  0  0  0  0  0  0  0  0  0
  146.5159  139.4424  156.6089 H   0  0  0  0  0  0  0  0  0  0  0  0
  146.2554  137.7140  156.7554 H   0  0  0  0  0  0  0  0  0  0  0  0
  148.5111  137.7999  155.7586 H   0  0  0  0  0  0  0  0  0  0  0  0
  146.6705  136.3430  154.5922 H   0  0  0  0  0  0  0  0  0  0  0  0
  147.8023  136.9649  153.3696 H   0  0  0  0  0  0  0  0  0  0  0  0
  1  2  1  0  0  0  0
  1 25  1  0  0  0  0
  1 26  1  0  0  0  0
  1 27  1  0  0  0  0
  2  3  1  0  0  0  0
  2 18  1  0  0  0  0
  2 28  1  0  0  0  0
  3  4  1  0  0  0  0
  3 29  1  0  0  0  0
  4  5  2  0  0  0  0
  4  6  1  0  0  0  0
  6  7  1  0  0  0  0
  6 30  1  0  0  0  0
  6 31  1  0  0  0  0
  7 16  1  0  0  0  0
  7  8  1  0  0  0  0
  8  9  2  0  0  0  0
  8 32  1  0  0  0  0
  9 10  1  0  0  0  0
  9 14  1  0  0  0  0
 10 11  1  0  0  0  0
 10 12  1  0  0  0  0
 10 13  1  0  0  0  0
 14 15  2  0  0  0  0
 14 33  1  0  0  0  0
 15 16  1  0  0  0  0
 15 34  1  0  0  0  0
 16 17  2  0  0  0  0
 18 23  1  0  0  0  0
 18 19  1  0  0  0  0
 18 35  1  0  0  0  0
 19 20  1  0  0  0  0
 19 36  1  0  0  0  0
 19 37  1  0  0  0  0
 20 24  1  0  0  0  0
 20 21  1  0  0  0  0
 20 38  1  0  0  0  0
 21 22  1  0  0  0  0
 21 39  1  0  0  0  0
 21 40  1  0  0  0  0
 22 23  1  0  0  0  0
 22 41  1  0  0  0  0
 22 42  1  0  0  0  0
 23 24  1  0  0  0  0
 23 43  1  0  0  0  0
 24 44  1  0  0  0  0
 24 45  1  0  0  0  0
M  END
> <s_m_source_file>
AV-unprocessed.smi

> <i_m_source_file_index>
528

> <i_lp_mmshare_version>
43012

> <i_f3d_flags>
0

> <s_epik_input>
W0NIMl0xW0NIMl1bQ0BASF0oW0NIMl0yKVtDQEBIXShbQ0gyXVtDQEhdMTIpW0NASF0oW0NIM10pW05IXUMoPU8pW0NIMl1uM1tjSF1jKEMoRikoRilGKVtjSF1bY0hdYzM9Tw==

> <s_epik_cmdline>
J2VwaWtfcHl0aG9uJywgJy1waCcsICc3LjAnLCAnLXRuJywgJzgnLCAnLW1hJywgJzIwMCcsICctbWV0YWxfYmluZGluZycsICctaW1hZScsICc8aW5maWxlLm1hZT4nLCAnLW9tYWUnLCAnPG91dGZpbGUubWFlPic=

> <r_lp_tautomer_probability>
1

> <r_epik_Ionization_Penalty>
4.09479e-08

> <r_epik_Ionization_Penalty_Charging>
1.9321e-08

> <r_epik_Ionization_Penalty_Neutral>
2.16269e-08

> <r_epik_State_Penalty>
-0

> <r_epik_Charging_Adjusted_Penalty>
1.9321e-08

> <i_epik_Tot_Q>
0

> <i_epik_Tot_abs_Q>
0

> <r_epik_Metal_State_Penalty>
-0

> <b_epik_Metal_Only>
0

> <s_lp_Force_Field>
OPLS_2005

> <r_lp_Energy>
62.8802

> <b_lp_Chiralities_Consistent>
1

> <s_lp_Variant>
AV-unprocessed.smi:528-1

> <Gold.Version>
5.8.1

> <Gold.Id.Protein>
6NUR|6NUR_protein|mol2

> <Gold.PLP.Fitness>
41.5933

> <Gold.PLP.PLP>
-41.7721

> <Gold.PLP.part.hbond>
-1.0000

> <Gold.PLP.part.metal>
0.0000

> <Gold.PLP.part.buried>
-3.2981

> <Gold.PLP.part.nonpolar>
-37.2128

> <Gold.PLP.part.repulsive>
0.1232

> <Gold.PLP.ligand.clash>
0.0000

> <Gold.PLP.ligand.torsion>
1.2411

> <Gold.PLP.Chemscore.Hbond>
0.7500

> <Gold.PLP.Chemscore.CHOScore>
0.0000

> <Gold.PLP.Chemscore.Metal>
0.0000

> <Gold.Chemscore.Hbonds>
donor molecule, donor type, donor heavy atom, donor atom, acceptor molecule, acceptor atom, score
      P1  H  7997  8009       L1    17  0.70

> <Gold.PLP.Chemscore.Internal.Correction>
0.0534

> <Gold.Rescore>
     Score         DG    S(hbond)    S(metal)    S(lipo)     H(rot)  DE(clash)    DE(int)     intcor
     11.88     -13.80       0.60        0.00      91.38       1.71       0.65       1.26       ----

> <Gold.Chemscore.Fitness>
11.8839

> <Gold.Chemscore.DG>
-13.7982

> <Gold.Chemscore.ZeroCoef>
-5.4800

> <Gold.Chemscore.Hbond>
0.6021

> <Gold.Chemscore.Metal>
0.0000

> <Gold.Chemscore.Lipo>
91.3784

> <Gold.Chemscore.Internal_Hbond>
0.0000

> <Gold.Chemscore.DEClash>
0.6529

> <Gold.Chemscore.DEInternal>
1.2614

> <Gold.Chemscore.Rot>
1.7125

> <Gold.Chemscore.Internal.Correction>
   9.000000E+99

> <Gold.Chemscore.Hbonds>
donor molecule, donor type, donor heavy atom, donor atom, acceptor molecule, acceptor atom, score
      P1  H  7997  8009       L1    17  0.07

> <Gold.Chemscore.Hbond.Weighted>
-2.0109

> <Gold.Chemscore.Metal.Weighted>
-0.0000

> <Gold.Chemscore.Lipo.Weighted>
-10.6913

> <Gold.Chemscore.Internal_Hbond.Weighted>
0.0000

> <Gold.Chemscore.DEClash.Weighted>
0.6529

> <Gold.Chemscore.DEInternal.Weighted>
1.2614

> <Gold.Chemscore.Rot.Weighted>
4.3840

> <Gold.Chemscore.Internal.Correction.Weighted>
   9.000000E+99

> <Gold.Protein.RotatedTorsions>
[ 6907 6896 6895 6894 ] final -167.50 input  -60.11 | X-H torsion
[ 7974 7965 7964 7962 ] final  144.79 input  175.53 | X-H torsion
[ 8008 7997 7996 7995 ] final  151.35 input   59.86 | X-H torsion
[ 10167 10162 10161 10158 ] final  -72.41 input  -65.29 | X-H torsion
[ 10718 10713 10712 10709 ] final -117.87 input   66.30 | X-H torsion
[ 10763 10752 10751 10750 ] final  -84.55 input  -60.55 | X-H torsion
[ 11005 11000 10999 10996 ] final -171.07 input  -57.11 | X-H torsion

> <Gold.Protein.ActiveResidues>
 VAL166  LYS551  ARG553  GLY616  TRP617  ASP618  TYR619  PRO620  LYS621  CYS622 
 ASP623  PHE694  ASN695  SER759  ASP760  ASP761  ALA762  ILE779  LEU786  VAL792 
 PHE793  MET794  SER795  GLU796  ALA797  LYS798  CYS799  TRP800  GLU811  SER814 

> <Gold.Protein.RotatedAtoms>
  151.4606  133.3594  159.2808 H   0  0  0  0  0  0  0  0  0  0  0  0  # atno 6907 bound_to 6896
  150.9028  134.8443  159.7383 H   0  0  0  0  0  0  0  0  0  0  0  0  # atno 6908 bound_to 6896
  152.4889  134.4528  159.9632 H   0  0  0  0  0  0  0  0  0  0  0  0  # atno 6909 bound_to 6896
  144.8806  139.5705  143.5844 H   0  0  0  0  0  0  0  0  0  0  0  0  # atno 7974 bound_to 7965
  156.2677  140.2050  156.6161 H   0  0  0  0  0  0  0  0  0  0  0  0  # atno 8008 bound_to 7997
  154.6793  140.0541  157.0273 H   0  0  0  0  0  0  0  0  0  0  0  0  # atno 8009 bound_to 7997
  155.1023  140.3207  155.4546 H   0  0  0  0  0  0  0  0  0  0  0  0  # atno 8010 bound_to 7997
  140.5195  143.2333  151.7455 H   0  0  0  0  0  0  0  0  0  0  0  0  # atno 10167 bound_to 10162
  156.1065  130.6214  150.9219 H   0  0  0  0  0  0  0  0  0  0  0  0  # atno 10718 bound_to 10713
  154.6008  135.5516  153.7373 H   0  0  0  0  0  0  0  0  0  0  0  0  # atno 10763 bound_to 10752
  153.0154  135.6366  154.1717 H   0  0  0  0  0  0  0  0  0  0  0  0  # atno 10764 bound_to 10752
  154.1656  135.2895  155.3076 H   0  0  0  0  0  0  0  0  0  0  0  0  # atno 10765 bound_to 10752
  140.5124  134.5789  157.5023 H   0  0  0  0  0  0  0  0  0  0  0  0  # atno 11005 bound_to 11000
  146.2992  139.7372  142.9104 LP  0  0  0  0  0  0  0  0  0  0  0  0  # atno 17320 bound_to 7965
  145.3961  141.0379  143.3096 LP  0  0  0  0  0  0  0  0  0  0  0  0  # atno 17321 bound_to 7965
  139.4919  144.4276  151.9908 LP  0  0  0  0  0  0  0  0  0  0  0  0  # atno 17342 bound_to 10162
  140.3372  144.3247  150.5975 LP  0  0  0  0  0  0  0  0  0  0  0  0  # atno 17343 bound_to 10162
  157.6242  131.0927  150.8565 LP  0  0  0  0  0  0  0  0  0  0  0  0  # atno 17370 bound_to 10713
  156.8683  130.5137  149.5298 LP  0  0  0  0  0  0  0  0  0  0  0  0  # atno 17371 bound_to 10713
  139.9651  134.7386  156.0154 LP  0  0  0  0  0  0  0  0  0  0  0  0  # atno 17394 bound_to 11000
  141.1378  133.6571  156.3644 LP  0  0  0  0  0  0  0  0  0  0  0  0  # atno 17395 bound_to 11000

$$$$
