AV-unprocessed.smi:212|AV-procd|sdf|1626|dock3
  -GOLD-   2262019573D 1   1.00000     0.00000
 Structure written by MMmdl.
 65 68  0  0  0  0  0  0  0  0  2 V2000
  150.4532  132.8770  156.1271 C   0  0  0  0  0  0  0  0  0  0  0  0
  150.3693  134.2095  155.3632 C   0  0  1  0  0  0  0  0  0  0  0  0
  149.3957  134.1347  154.1675 C   0  0  0  0  0  0  0  0  0  0  0  0
  147.9790  134.1040  154.6151 N   0  3  2  0  0  0  0  0  0  0  0  0
  147.0131  133.9047  153.5030 C   0  0  0  0  0  0  0  0  0  0  0  0
  146.7354  132.4087  153.2303 C   0  0  0  0  0  0  0  0  0  0  0  0
  146.1435  131.7414  154.4831 C   0  0  0  0  0  0  0  0  0  0  0  0
  145.8033  132.1971  152.0226 C   0  0  0  0  0  0  0  0  0  0  0  0
  147.9628  131.7579  152.9659 O   0  0  0  0  0  0  0  0  0  0  0  0
  147.6388  135.2547  155.4895 C   0  0  0  0  0  0  0  0  0  0  0  0
  148.6033  135.3425  156.6863 C   0  0  0  0  0  0  0  0  0  0  0  0
  150.0000  135.3181  156.2475 N   0  0  0  0  0  0  0  0  0  0  0  0
  150.6348  136.4983  156.0195 C   0  0  0  0  0  0  0  0  0  0  0  0
  151.0537  136.8130  154.7646 N   0  0  0  0  0  0  0  0  0  0  0  0
  151.6886  137.9658  154.5320 C   0  0  0  0  0  0  0  0  0  0  0  0
  152.0018  138.9340  155.3947 N   0  0  0  0  0  0  0  0  0  0  0  0
  151.5781  138.6287  156.6539 C   0  0  0  0  0  0  0  0  0  0  0  0
  150.8930  137.4457  157.0506 C   0  0  0  0  0  0  0  0  0  0  0  0
  150.6126  137.4963  158.4117 N   0  0  0  0  0  0  0  0  0  0  0  0
  151.1083  138.6406  158.7976 C   0  0  0  0  0  0  0  0  0  0  0  0
  151.7137  139.3802  157.8070 N   0  0  0  0  0  0  0  0  0  0  0  0
  152.3430  140.6810  157.9478 C   0  0  0  0  0  0  0  0  0  0  0  0
  151.4648  141.6952  158.7274 C   0  0  2  0  0  0  0  0  0  0  0  0
  150.2225  142.1196  157.9089 C   0  0  0  0  0  0  0  0  0  0  0  0
  150.5959  142.7581  156.7056 O   0  0  0  0  0  0  0  0  0  0  0  0
  152.2728  142.9201  159.2431 C   0  0  1  0  0  0  0  0  0  0  0  0
  151.4363  143.9104  160.0589 C   0  0  0  0  0  0  0  0  0  0  0  0
  152.2094  144.0742  161.3666 C   0  0  0  0  0  0  0  0  0  0  0  0
  152.9470  142.8687  161.4776 O   0  0  0  0  0  0  0  0  0  0  0  0
  153.4416  142.5782  160.1807 C   0  0  0  0  0  0  0  0  0  0  0  0
  150.7890  132.0736  155.4712 H   0  0  0  0  0  0  0  0  0  0  0  0
  149.4904  132.5792  156.5427 H   0  0  0  0  0  0  0  0  0  0  0  0
  151.1648  132.9452  156.9504 H   0  0  0  0  0  0  0  0  0  0  0  0
  151.3606  134.3865  154.9464 H   0  0  0  0  0  0  0  0  0  0  0  0
  149.5415  135.0012  153.5202 H   0  0  0  0  0  0  0  0  0  0  0  0
  149.6147  133.2518  153.5654 H   0  0  0  0  0  0  0  0  0  0  0  0
  146.0799  134.4292  153.7157 H   0  0  0  0  0  0  0  0  0  0  0  0
  147.3973  134.3623  152.5897 H   0  0  0  0  0  0  0  0  0  0  0  0
  145.1868  132.1894  154.7537 H   0  0  0  0  0  0  0  0  0  0  0  0
  146.8082  131.8435  155.3417 H   0  0  0  0  0  0  0  0  0  0  0  0
  145.9727  130.6756  154.3256 H   0  0  0  0  0  0  0  0  0  0  0  0
  144.8451  132.6956  152.1739 H   0  0  0  0  0  0  0  0  0  0  0  0
  145.5997  131.1378  151.8609 H   0  0  0  0  0  0  0  0  0  0  0  0
  146.2356  132.5871  151.1005 H   0  0  0  0  0  0  0  0  0  0  0  0
  148.1338  131.8014  152.0368 H   0  0  0  0  0  0  0  0  0  0  0  0
  147.6777  136.1744  154.9043 H   0  0  0  0  0  0  0  0  0  0  0  0
  146.6155  135.1544  155.8524 H   0  0  0  0  0  0  0  0  0  0  0  0
  148.3946  136.2322  157.2821 H   0  0  0  0  0  0  0  0  0  0  0  0
  148.4377  134.4965  157.3534 H   0  0  0  0  0  0  0  0  0  0  0  0
  151.9887  138.1372  153.5086 H   0  0  0  0  0  0  0  0  0  0  0  0
  151.0497  138.9765  159.8229 H   0  0  0  0  0  0  0  0  0  0  0  0
  153.3019  140.5259  158.4414 H   0  0  0  0  0  0  0  0  0  0  0  0
  152.5740  141.0580  156.9512 H   0  0  0  0  0  0  0  0  0  0  0  0
  151.0889  141.1774  159.6116 H   0  0  0  0  0  0  0  0  0  0  0  0
  149.5897  141.2621  157.6811 H   0  0  0  0  0  0  0  0  0  0  0  0
  149.6089  142.8266  158.4664 H   0  0  0  0  0  0  0  0  0  0  0  0
  150.1297  143.5776  156.6421 H   0  0  0  0  0  0  0  0  0  0  0  0
  152.6765  143.4572  158.3843 H   0  0  0  0  0  0  0  0  0  0  0  0
  151.3146  144.8657  159.5473 H   0  0  0  0  0  0  0  0  0  0  0  0
  150.4356  143.5270  160.2575 H   0  0  0  0  0  0  0  0  0  0  0  0
  152.8993  144.9173  161.3057 H   0  0  0  0  0  0  0  0  0  0  0  0
  151.5556  144.2271  162.2257 H   0  0  0  0  0  0  0  0  0  0  0  0
  153.7865  141.5474  160.1036 H   0  0  0  0  0  0  0  0  0  0  0  0
  154.2958  143.2260  159.9756 H   0  0  0  0  0  0  0  0  0  0  0  0
  147.8947  133.2819  155.1959 H   0  0  0  0  0  0  0  0  0  0  0  0
  1  2  1  0  0  0  0
  1 31  1  0  0  0  0
  1 32  1  0  0  0  0
  1 33  1  0  0  0  0
  2 12  1  0  0  0  0
  2  3  1  0  0  0  0
  2 34  1  0  0  0  0
  3  4  1  0  0  0  0
  3 35  1  0  0  0  0
  3 36  1  0  0  0  0
  4  5  1  0  0  0  0
  4 10  1  0  0  0  0
  4 65  1  0  0  0  0
  5  6  1  0  0  0  0
  5 37  1  0  0  0  0
  5 38  1  0  0  0  0
  6  7  1  0  0  0  0
  6  8  1  0  0  0  0
  6  9  1  0  0  0  0
  7 39  1  0  0  0  0
  7 40  1  0  0  0  0
  7 41  1  0  0  0  0
  8 42  1  0  0  0  0
  8 43  1  0  0  0  0
  8 44  1  0  0  0  0
  9 45  1  0  0  0  0
 10 11  1  0  0  0  0
 10 46  1  0  0  0  0
 10 47  1  0  0  0  0
 11 12  1  0  0  0  0
 11 48  1  0  0  0  0
 11 49  1  0  0  0  0
 12 13  1  0  0  0  0
 13 18  1  0  0  0  0
 13 14  2  0  0  0  0
 14 15  1  0  0  0  0
 15 16  2  0  0  0  0
 15 50  1  0  0  0  0
 16 17  1  0  0  0  0
 17 21  1  0  0  0  0
 17 18  2  0  0  0  0
 18 19  1  0  0  0  0
 19 20  2  0  0  0  0
 20 21  1  0  0  0  0
 20 51  1  0  0  0  0
 21 22  1  0  0  0  0
 22 23  1  0  0  0  0
 22 52  1  0  0  0  0
 22 53  1  0  0  0  0
 23 24  1  0  0  0  0
 23 26  1  0  0  0  0
 23 54  1  0  0  0  0
 24 25  1  0  0  0  0
 24 55  1  0  0  0  0
 24 56  1  0  0  0  0
 25 57  1  0  0  0  0
 26 30  1  0  0  0  0
 26 27  1  0  0  0  0
 26 58  1  0  0  0  0
 27 28  1  0  0  0  0
 27 59  1  0  0  0  0
 27 60  1  0  0  0  0
 28 29  1  0  0  0  0
 28 61  1  0  0  0  0
 28 62  1  0  0  0  0
 29 30  1  0  0  0  0
 30 63  1  0  0  0  0
 30 64  1  0  0  0  0
M  CHG  1   4   1
M  END
> <s_m_source_file>
AV-unprocessed.smi

> <i_m_source_file_index>
212

> <i_lp_mmshare_version>
43012

> <i_f3d_flags>
0

> <s_epik_input>
W0NIM11bQ0BASF0xW0NIMl1OKFtDSDJdQyhbQ0gzXSkoW0NIM10pW09IXSlbQ0gyXVtDSDJdTjFjKG5bY0hdbjIpYyhjMjMpbltjSF1uM1tDSDJdW0NASF0oW0NIMl1bT0hdKVtDQEBIXTRbQ0gyXVtDSDJdT1tDSDJdNA==

> <s_epik_cmdline>
J2VwaWtfcHl0aG9uJywgJy1waCcsICc3LjAnLCAnLXRuJywgJzgnLCAnLW1hJywgJzIwMCcsICctbWV0YWxfYmluZGluZycsICctaW1hZScsICc8aW5maWxlLm1hZT4nLCAnLW9tYWUnLCAnPG91dGZpbGUubWFlPic=

> <r_lp_tautomer_probability>
1

> <r_epik_Ionization_Penalty>
0.00182193

> <r_epik_Ionization_Penalty_Charging>
0.00173996

> <r_epik_Ionization_Penalty_Neutral>
8.19718e-05

> <r_epik_State_Penalty>
-0

> <r_epik_Charging_Adjusted_Penalty>
0.00173996

> <i_epik_Tot_Q>
1

> <i_epik_Tot_abs_Q>
1

> <r_epik_Metal_State_Penalty>
-0

> <b_epik_Metal_Only>
0

> <s_lp_Force_Field>
OPLS_2005

> <r_lp_Energy>
61.088

> <b_lp_Chiralities_Consistent>
1

> <s_lp_Variant>
AV-unprocessed.smi:212-10

> <Gold.Version>
5.8.1

> <Gold.Id.Protein>
6NUR|6NUR_protein|mol2

> <Gold.PLP.Fitness>
52.3889

> <Gold.PLP.PLP>
-45.8301

> <Gold.PLP.part.hbond>
-3.0000

> <Gold.PLP.part.metal>
0.0000

> <Gold.PLP.part.buried>
-8.8026

> <Gold.PLP.part.nonpolar>
-33.8845

> <Gold.PLP.part.repulsive>
0.2229

> <Gold.PLP.ligand.clash>
0.0000

> <Gold.PLP.ligand.torsion>
1.4946

> <Gold.PLP.Chemscore.Hbond>
2.8000

> <Gold.PLP.Chemscore.CHOScore>
0.0000

> <Gold.PLP.Chemscore.Metal>
0.0000

> <Gold.Chemscore.Hbonds>
donor molecule, donor type, donor heavy atom, donor atom, acceptor molecule, acceptor atom, score
      L1  H     9    45       P1 10747  0.63
      L1  H    25    57       P1  8028  0.99
      P1  H 10752 10765       L1    14  0.31

> <Gold.PLP.Chemscore.Internal.Correction>
1.1479

> <Gold.Rescore>
     Score         DG    S(hbond)    S(metal)    S(lipo)     H(rot)  DE(clash)    DE(int)     intcor
     15.10     -16.63       2.12        0.00     109.18       3.40       0.06       1.47       ----

> <Gold.Chemscore.Fitness>
15.0996

> <Gold.Chemscore.DG>
-16.6342

> <Gold.Chemscore.ZeroCoef>
-5.4800

> <Gold.Chemscore.Hbond>
2.1200

> <Gold.Chemscore.Metal>
0.0000

> <Gold.Chemscore.Lipo>
109.1777

> <Gold.Chemscore.Internal_Hbond>
0.0000

> <Gold.Chemscore.DEClash>
0.0635

> <Gold.Chemscore.DEInternal>
1.4711

> <Gold.Chemscore.Rot>
3.3986

> <Gold.Chemscore.Internal.Correction>
   9.000000E+99

> <Gold.Chemscore.Hbonds>
donor molecule, donor type, donor heavy atom, donor atom, acceptor molecule, acceptor atom, score
      L1  H     9    45       P1 10747  0.62
      L1  H    25    57       P1  8028  0.94
      P1  H 10752 10765       L1    14  0.01

> <Gold.Chemscore.Hbond.Weighted>
-7.0809

> <Gold.Chemscore.Metal.Weighted>
-0.0000

> <Gold.Chemscore.Lipo.Weighted>
-12.7738

> <Gold.Chemscore.Internal_Hbond.Weighted>
0.0000

> <Gold.Chemscore.DEClash.Weighted>
0.0635

> <Gold.Chemscore.DEInternal.Weighted>
1.4711

> <Gold.Chemscore.Rot.Weighted>
8.7005

> <Gold.Chemscore.Internal.Correction.Weighted>
   9.000000E+99

> <Gold.Protein.RotatedTorsions>
[ 6907 6896 6895 6894 ] final -119.98 input  -60.11 | X-H torsion
[ 7974 7965 7964 7962 ] final  -85.68 input  175.53 | X-H torsion
[ 8008 7997 7996 7995 ] final   86.80 input   59.86 | X-H torsion
[ 10167 10162 10161 10158 ] final  -15.78 input  -65.29 | X-H torsion
[ 10718 10713 10712 10709 ] final  -12.71 input   66.30 | X-H torsion
[ 10763 10752 10751 10750 ] final  178.26 input  -60.55 | X-H torsion
[ 11005 11000 10999 10996 ] final  131.09 input  -57.11 | X-H torsion

> <Gold.Protein.ActiveResidues>
 VAL166  LYS551  ARG553  GLY616  TRP617  ASP618  TYR619  PRO620  LYS621  CYS622 
 ASP623  PHE694  ASN695  SER759  ASP760  ASP761  ALA762  ILE779  LEU786  VAL792 
 PHE793  MET794  SER795  GLU796  ALA797  LYS798  CYS799  TRP800  GLU811  SER814 

> <Gold.Protein.RotatedAtoms>
  150.8352  133.8025  159.3082 H   0  0  0  0  0  0  0  0  0  0  0  0  # atno 6907 bound_to 6896
  151.5743  135.1059  160.0012 H   0  0  0  0  0  0  0  0  0  0  0  0  # atno 6908 bound_to 6896
  152.4426  133.7434  159.6710 H   0  0  0  0  0  0  0  0  0  0  0  0  # atno 6909 bound_to 6896
  145.4900  140.9553  143.1817 H   0  0  0  0  0  0  0  0  0  0  0  0  # atno 7974 bound_to 7965
  155.9673  140.3388  155.6544 H   0  0  0  0  0  0  0  0  0  0  0  0  # atno 8008 bound_to 7997
  155.6720  140.0728  157.2534 H   0  0  0  0  0  0  0  0  0  0  0  0  # atno 8009 bound_to 7997
  154.4157  140.1690  156.1877 H   0  0  0  0  0  0  0  0  0  0  0  0  # atno 8010 bound_to 7997
  140.7224  143.5183  150.9665 H   0  0  0  0  0  0  0  0  0  0  0  0  # atno 10167 bound_to 10162
  156.6407  130.4927  149.6096 H   0  0  0  0  0  0  0  0  0  0  0  0  # atno 10718 bound_to 10713
  154.5053  135.2785  155.1387 H   0  0  0  0  0  0  0  0  0  0  0  0  # atno 10763 bound_to 10752
  154.3004  135.6249  153.5426 H   0  0  0  0  0  0  0  0  0  0  0  0  # atno 10764 bound_to 10752
  152.9909  135.5695  154.5505 H   0  0  0  0  0  0  0  0  0  0  0  0  # atno 10765 bound_to 10752
  139.9710  134.9577  156.9389 H   0  0  0  0  0  0  0  0  0  0  0  0  # atno 11005 bound_to 11000
  144.7839  139.6468  143.7142 LP  0  0  0  0  0  0  0  0  0  0  0  0  # atno 17320 bound_to 7965
  146.2290  139.5776  142.9568 LP  0  0  0  0  0  0  0  0  0  0  0  0  # atno 17321 bound_to 7965
  139.8899  143.6966  152.3146 LP  0  0  0  0  0  0  0  0  0  0  0  0  # atno 17342 bound_to 10162
  139.7278  144.7589  151.0850 LP  0  0  0  0  0  0  0  0  0  0  0  0  # atno 17343 bound_to 10162
  156.2161  130.6709  151.1320 LP  0  0  0  0  0  0  0  0  0  0  0  0  # atno 17370 bound_to 10713
  157.7172  131.0703  150.6281 LP  0  0  0  0  0  0  0  0  0  0  0  0  # atno 17371 bound_to 10713
  140.5293  134.0829  155.7312 LP  0  0  0  0  0  0  0  0  0  0  0  0  # atno 17394 bound_to 11000
  141.1389  133.9172  157.2370 LP  0  0  0  0  0  0  0  0  0  0  0  0  # atno 17395 bound_to 11000

$$$$
