AV-unprocessed.smi:2519|AV-procd|sdf|9903|dock8
  -GOLD-   2272013543D 1   1.00000     0.00000
 Structure written by MMmdl.
 43 44  0  0  0  0  0  0  0  0  1 V2000
  149.7360  134.7372  154.6224 C   0  0  0  0  0  0  0  0  0  0  0  0
  149.3394  136.1222  154.4223 N   0  0  0  0  0  0  0  0  0  0  0  0
  149.3703  137.0683  155.3754 C   0  0  0  0  0  0  0  0  0  0  0  0
  149.7540  136.8485  156.5253 O   0  0  0  0  0  0  0  0  0  0  0  0
  148.9128  138.4428  154.9590 C   0  0  0  0  0  0  0  0  0  0  0  0
  148.0517  138.5964  153.8495 C   0  0  0  0  0  0  0  0  0  0  0  0
  147.6478  139.8917  153.4807 C   0  0  0  0  0  0  0  0  0  0  0  0
  148.1141  140.9886  154.2284 C   0  0  0  0  0  0  0  0  0  0  0  0
  148.9723  140.7618  155.3256 C   0  0  0  0  0  0  0  0  0  0  0  0
  149.3849  141.9284  156.0209 N   0  0  0  0  0  0  0  0  0  0  0  0
  149.7139  142.0532  157.3223 C   0  0  0  0  0  0  0  0  0  0  0  0
  149.7637  141.1224  158.1246 O   0  0  0  0  0  0  0  0  0  0  0  0
  150.0047  143.3115  157.7010 N   0  0  0  0  0  0  0  0  0  0  0  0
  150.3980  143.8040  159.0258 C   0  0  2  0  0  0  0  0  0  0  0  0
  151.1860  145.1204  158.8853 C   0  0  0  0  0  0  0  0  0  0  0  0
  152.5815  144.8999  158.2768 C   0  0  0  0  0  0  0  0  0  0  0  0
  153.3825  143.8552  159.0697 C   0  0  0  0  0  0  0  0  0  0  0  0
  152.6212  142.5181  159.1863 C   0  0  1  0  0  0  0  0  0  0  0  0
  153.4257  141.4607  159.9697 C   0  0  0  0  0  0  0  0  0  0  0  0
  153.3917  141.7120  161.2786 F   0  0  0  0  0  0  0  0  0  0  0  0
  152.9191  140.2472  159.7505 F   0  0  0  0  0  0  0  0  0  0  0  0
  154.6955  141.4601  159.5636 F   0  0  0  0  0  0  0  0  0  0  0  0
  151.2256  142.7566  159.8053 C   0  0  0  0  0  0  0  0  0  0  0  0
  149.3551  139.5084  155.6702 N   0  0  0  0  0  0  0  0  0  0  0  0
  149.6880  134.1972  153.6766 H   0  0  0  0  0  0  0  0  0  0  0  0
  149.0707  134.2438  155.3318 H   0  0  0  0  0  0  0  0  0  0  0  0
  150.7574  134.6734  154.9996 H   0  0  0  0  0  0  0  0  0  0  0  0
  149.0138  136.3864  153.5029 H   0  0  0  0  0  0  0  0  0  0  0  0
  147.7025  137.7437  153.2855 H   0  0  0  0  0  0  0  0  0  0  0  0
  146.9905  140.0423  152.6371 H   0  0  0  0  0  0  0  0  0  0  0  0
  147.8128  141.9906  153.9591 H   0  0  0  0  0  0  0  0  0  0  0  0
  149.4065  142.7755  155.4726 H   0  0  0  0  0  0  0  0  0  0  0  0
  149.9669  144.0117  156.9744 H   0  0  0  0  0  0  0  0  0  0  0  0
  149.4916  144.0279  159.5908 H   0  0  0  0  0  0  0  0  0  0  0  0
  150.6243  145.8359  158.2835 H   0  0  0  0  0  0  0  0  0  0  0  0
  151.2971  145.5762  159.8700 H   0  0  0  0  0  0  0  0  0  0  0  0
  152.4867  144.5776  157.2392 H   0  0  0  0  0  0  0  0  0  0  0  0
  153.1271  145.8435  158.2544 H   0  0  0  0  0  0  0  0  0  0  0  0
  154.3463  143.6972  158.5852 H   0  0  0  0  0  0  0  0  0  0  0  0
  153.5989  144.2445  160.0652 H   0  0  0  0  0  0  0  0  0  0  0  0
  152.4784  142.1292  158.1767 H   0  0  0  0  0  0  0  0  0  0  0  0
  151.3450  143.0995  160.8339 H   0  0  0  0  0  0  0  0  0  0  0  0
  150.6797  141.8153  159.8703 H   0  0  0  0  0  0  0  0  0  0  0  0
  1  2  1  0  0  0  0
  1 25  1  0  0  0  0
  1 26  1  0  0  0  0
  1 27  1  0  0  0  0
  2  3  1  0  0  0  0
  2 28  1  0  0  0  0
  3  4  2  0  0  0  0
  3  5  1  0  0  0  0
  5 24  1  0  0  0  0
  5  6  2  0  0  0  0
  6  7  1  0  0  0  0
  6 29  1  0  0  0  0
  7  8  2  0  0  0  0
  7 30  1  0  0  0  0
  8  9  1  0  0  0  0
  8 31  1  0  0  0  0
  9 10  1  0  0  0  0
  9 24  2  0  0  0  0
 10 11  1  0  0  0  0
 10 32  1  0  0  0  0
 11 12  2  0  0  0  0
 11 13  1  0  0  0  0
 13 14  1  0  0  0  0
 13 33  1  0  0  0  0
 14 23  1  0  0  0  0
 14 15  1  0  0  0  0
 14 34  1  0  0  0  0
 15 16  1  0  0  0  0
 15 35  1  0  0  0  0
 15 36  1  0  0  0  0
 16 17  1  0  0  0  0
 16 37  1  0  0  0  0
 16 38  1  0  0  0  0
 17 18  1  0  0  0  0
 17 39  1  0  0  0  0
 17 40  1  0  0  0  0
 18 19  1  0  0  0  0
 18 23  1  0  0  0  0
 18 41  1  0  0  0  0
 19 20  1  0  0  0  0
 19 21  1  0  0  0  0
 19 22  1  0  0  0  0
 23 42  1  0  0  0  0
 23 43  1  0  0  0  0
M  END
> <s_m_source_file>
AV-unprocessed.smi

> <i_m_source_file_index>
2519

> <i_lp_mmshare_version>
43012

> <i_f3d_flags>
0

> <s_epik_input>
W0NIM11bTkhdQyg9TyljMVtjSF1bY0hdW2NIXWMobjEpW05IXUMoPU8pW05IXVtDQEBIXTJbQ0gyXVtDSDJdW0NIMl1bQ0BASF0oQyhGKShGKUYpW0NIMl0y

> <s_epik_cmdline>
J2VwaWtfcHl0aG9uJywgJy1waCcsICc3LjAnLCAnLXRuJywgJzgnLCAnLW1hJywgJzIwMCcsICctbWV0YWxfYmluZGluZycsICctaW1hZScsICc8aW5maWxlLm1hZT4nLCAnLW9tYWUnLCAnPG91dGZpbGUubWFlPic=

> <r_lp_tautomer_probability>
1

> <r_epik_Ionization_Penalty>
3.74915e-05

> <r_epik_Ionization_Penalty_Charging>
0

> <r_epik_Ionization_Penalty_Neutral>
3.74915e-05

> <r_epik_State_Penalty>
-0

> <r_epik_Charging_Adjusted_Penalty>
0

> <i_epik_Tot_Q>
0

> <i_epik_Tot_abs_Q>
0

> <r_epik_Metal_State_Penalty>
-0

> <b_epik_Metal_Only>
0

> <s_lp_Force_Field>
OPLS_2005

> <r_lp_Energy>
26.8043

> <b_lp_Chiralities_Consistent>
1

> <s_lp_Variant>
AV-unprocessed.smi:2519-1

> <Gold.Version>
5.8.1

> <Gold.Id.Protein>
6NUR|6NUR_protein|mol2

> <Gold.PLP.Fitness>
46.3077

> <Gold.PLP.PLP>
-40.3787

> <Gold.PLP.part.hbond>
-3.0000

> <Gold.PLP.part.metal>
0.0000

> <Gold.PLP.part.buried>
-2.7251

> <Gold.PLP.part.nonpolar>
-34.7961

> <Gold.PLP.part.repulsive>
0.1786

> <Gold.PLP.ligand.clash>
0.0000

> <Gold.PLP.ligand.torsion>
1.0479

> <Gold.PLP.Chemscore.Hbond>
2.6640

> <Gold.PLP.Chemscore.CHOScore>
0.0000

> <Gold.PLP.Chemscore.Metal>
0.0000

> <Gold.Chemscore.Hbonds>
donor molecule, donor type, donor heavy atom, donor atom, acceptor molecule, acceptor atom, score
      L1  H     2    28       P1  7948  1.00
      L1  H    10    32       P1  8028  0.78
      L1  H    13    33       P1  8028  0.88

> <Gold.PLP.Chemscore.Internal.Correction>
0.0329

> <Gold.Rescore>
     Score         DG    S(hbond)    S(metal)    S(lipo)     H(rot)  DE(clash)    DE(int)     intcor
     19.04     -23.45       2.59        0.00     101.48       1.00       0.95       3.46       ----

> <Gold.Chemscore.Fitness>
19.0407

> <Gold.Chemscore.DG>
-23.4523

> <Gold.Chemscore.ZeroCoef>
-5.4800

> <Gold.Chemscore.Hbond>
2.5925

> <Gold.Chemscore.Metal>
0.0000

> <Gold.Chemscore.Lipo>
101.4812

> <Gold.Chemscore.Internal_Hbond>
0.0000

> <Gold.Chemscore.DEClash>
0.9477

> <Gold.Chemscore.DEInternal>
3.4640

> <Gold.Chemscore.Rot>
1.0000

> <Gold.Chemscore.Internal.Correction>
   9.000000E+99

> <Gold.Chemscore.Hbonds>
donor molecule, donor type, donor heavy atom, donor atom, acceptor molecule, acceptor atom, score
      L1  H     2    28       P1  7948  0.95
      L1  H    10    32       P1  8028  0.73
      L1  H    13    33       P1  8028  0.80

> <Gold.Chemscore.Hbond.Weighted>
-8.6590

> <Gold.Chemscore.Metal.Weighted>
-0.0000

> <Gold.Chemscore.Lipo.Weighted>
-11.8733

> <Gold.Chemscore.Internal_Hbond.Weighted>
0.0000

> <Gold.Chemscore.DEClash.Weighted>
0.9477

> <Gold.Chemscore.DEInternal.Weighted>
3.4640

> <Gold.Chemscore.Rot.Weighted>
2.5600

> <Gold.Chemscore.Internal.Correction.Weighted>
   9.000000E+99

> <Gold.Protein.RotatedTorsions>
[ 6907 6896 6895 6894 ] final  -51.61 input  -60.11 | X-H torsion
[ 7974 7965 7964 7962 ] final   26.49 input  175.53 | X-H torsion
[ 8008 7997 7996 7995 ] final   65.89 input   59.86 | X-H torsion
[ 10167 10162 10161 10158 ] final  177.25 input  -65.29 | X-H torsion
[ 10718 10713 10712 10709 ] final  -66.95 input   66.30 | X-H torsion
[ 10763 10752 10751 10750 ] final   28.78 input  -60.55 | X-H torsion
[ 11005 11000 10999 10996 ] final  -81.29 input  -57.11 | X-H torsion

> <Gold.Protein.ActiveResidues>
 VAL166  LYS551  ARG553  GLY616  TRP617  ASP618  TYR619  PRO620  LYS621  CYS622 
 ASP623  PHE694  ASN695  SER759  ASP760  ASP761  ALA762  ILE779  LEU786  VAL792 
 PHE793  MET794  SER795  GLU796  ALA797  LYS798  CYS799  TRP800  GLU811  SER814 

> <Gold.Protein.RotatedAtoms>
  150.8595  134.7943  159.7071 H   0  0  0  0  0  0  0  0  0  0  0  0  # atno 6907 bound_to 6896
  152.4636  134.5123  159.9767 H   0  0  0  0  0  0  0  0  0  0  0  0  # atno 6908 bound_to 6896
  151.5230  133.3425  159.2940 H   0  0  0  0  0  0  0  0  0  0  0  0  # atno 6909 bound_to 6896
  146.1835  139.7321  142.8883 H   0  0  0  0  0  0  0  0  0  0  0  0  # atno 7974 bound_to 7965
  155.6688  140.3497  155.4810 H   0  0  0  0  0  0  0  0  0  0  0  0  # atno 8008 bound_to 7997
  155.9706  140.1155  157.0839 H   0  0  0  0  0  0  0  0  0  0  0  0  # atno 8009 bound_to 7997
  154.4165  140.1158  156.5287 H   0  0  0  0  0  0  0  0  0  0  0  0  # atno 8010 bound_to 7997
  139.5246  144.2820  152.0538 H   0  0  0  0  0  0  0  0  0  0  0  0  # atno 10167 bound_to 10162
  156.0584  130.4270  150.1784 H   0  0  0  0  0  0  0  0  0  0  0  0  # atno 10718 bound_to 10713
  153.0470  135.6505  154.0791 H   0  0  0  0  0  0  0  0  0  0  0  0  # atno 10763 bound_to 10752
  154.0486  135.2897  155.3345 H   0  0  0  0  0  0  0  0  0  0  0  0  # atno 10764 bound_to 10752
  154.6734  135.5347  153.8234 H   0  0  0  0  0  0  0  0  0  0  0  0  # atno 10765 bound_to 10752
  141.1667  133.7189  156.8400 H   0  0  0  0  0  0  0  0  0  0  0  0  # atno 11005 bound_to 11000
  145.4008  141.0385  143.3072 LP  0  0  0  0  0  0  0  0  0  0  0  0  # atno 17320 bound_to 7965
  144.8356  139.5556  143.6924 LP  0  0  0  0  0  0  0  0  0  0  0  0  # atno 17321 bound_to 7965
  140.2275  144.4403  150.6314 LP  0  0  0  0  0  0  0  0  0  0  0  0  # atno 17342 bound_to 10162
  140.6378  143.2198  151.6357 LP  0  0  0  0  0  0  0  0  0  0  0  0  # atno 17343 bound_to 10162
  156.9856  130.9877  151.3427 LP  0  0  0  0  0  0  0  0  0  0  0  0  # atno 17370 bound_to 10713
  157.5573  130.8222  149.8220 LP  0  0  0  0  0  0  0  0  0  0  0  0  # atno 17371 bound_to 10713
  140.1990  134.8911  157.3147 LP  0  0  0  0  0  0  0  0  0  0  0  0  # atno 17394 bound_to 11000
  140.2208  134.4026  155.7567 LP  0  0  0  0  0  0  0  0  0  0  0  0  # atno 17395 bound_to 11000

$$$$
