AV-unprocessed.smi:53|AV-procd|sdf|519|dock4
  -GOLD-   2262016393D 1   1.00000     0.00000
 Structure written by MMmdl.
 30 31  0  0  0  0  0  0  0  0  1 V2000
  154.0539  138.1629  155.0090 N   0  0  0  0  0  0  0  0  0  0  0  0
  152.8033  138.6319  155.1193 C   0  0  0  0  0  0  0  0  0  0  0  0
  151.7407  138.0732  154.3144 C   0  0  0  0  0  0  0  0  0  0  0  0
  150.5067  138.5979  154.4815 C   0  0  0  0  0  0  0  0  0  0  0  0
  150.2561  139.6254  155.3820 N   0  0  0  0  0  0  0  0  0  0  0  0
  148.8711  140.2186  155.5685 C   0  0  2  0  0  0  0  0  0  0  0  0
  147.9180  139.1946  155.5840 O   0  0  0  0  0  0  0  0  0  0  0  0
  147.1477  139.2200  154.3850 C   0  0  1  0  0  0  0  0  0  0  0  0
  145.7848  138.5548  154.6295 C   0  0  0  0  0  0  0  0  0  0  0  0
  145.0705  138.4571  153.4158 O   0  0  0  0  0  0  0  0  0  0  0  0
  147.0611  140.7200  154.1078 C   0  0  2  0  0  0  0  0  0  0  0  0
  146.6575  141.0198  152.7845 O   0  0  0  0  0  0  0  0  0  0  0  0
  148.4710  141.1991  154.4389 C   0  0  2  0  0  0  0  0  0  0  0  0
  149.3292  141.1466  153.3082 O   0  0  0  0  0  0  0  0  0  0  0  0
  151.3193  140.1536  156.1529 C   0  0  0  0  0  0  0  0  0  0  0  0
  151.1432  141.0747  156.9497 O   0  0  0  0  0  0  0  0  0  0  0  0
  152.5619  139.6091  155.9715 N   0  0  0  0  0  0  0  0  0  0  0  0
  148.8715  140.6750  156.5602 H   0  0  0  0  0  0  0  0  0  0  0  0
  147.6901  138.7281  153.5753 H   0  0  0  0  0  0  0  0  0  0  0  0
  146.3570  141.1789  154.8039 H   0  0  0  0  0  0  0  0  0  0  0  0
  148.4683  142.2194  154.8235 H   0  0  0  0  0  0  0  0  0  0  0  0
  154.7937  138.5563  155.5725 H   0  0  0  0  0  0  0  0  0  0  0  0
  154.2537  137.4153  154.3603 H   0  0  0  0  0  0  0  0  0  0  0  0
  151.8911  137.2737  153.6030 H   0  0  0  0  0  0  0  0  0  0  0  0
  149.7102  138.1849  153.8817 H   0  0  0  0  0  0  0  0  0  0  0  0
  145.8989  137.5706  155.0849 H   0  0  0  0  0  0  0  0  0  0  0  0
  145.1876  139.1606  155.3118 H   0  0  0  0  0  0  0  0  0  0  0  0
  144.6760  139.2957  153.2307 H   0  0  0  0  0  0  0  0  0  0  0  0
  145.7967  140.6558  152.6444 H   0  0  0  0  0  0  0  0  0  0  0  0
  148.9484  140.5586  152.6734 H   0  0  0  0  0  0  0  0  0  0  0  0
  1  2  1  0  0  0  0
  1 22  1  0  0  0  0
  1 23  1  0  0  0  0
  2 17  2  0  0  0  0
  2  3  1  0  0  0  0
  3  4  2  0  0  0  0
  3 24  1  0  0  0  0
  4  5  1  0  0  0  0
  4 25  1  0  0  0  0
  5  6  1  0  0  0  0
  5 15  1  0  0  0  0
  6 18  1  0  0  0  0
  6 13  1  0  0  0  0
  6  7  1  0  0  0  0
  7  8  1  0  0  0  0
  8 19  1  0  0  0  0
  8  9  1  0  0  0  0
  8 11  1  0  0  0  0
  9 10  1  0  0  0  0
  9 26  1  0  0  0  0
  9 27  1  0  0  0  0
 10 28  1  0  0  0  0
 11 20  1  0  0  0  0
 11 12  1  0  0  0  0
 11 13  1  0  0  0  0
 12 29  1  0  0  0  0
 13 21  1  0  0  0  0
 13 14  1  0  0  0  0
 14 30  1  0  0  0  0
 15 16  2  0  0  0  0
 15 17  1  0  0  0  0
M  END
> <s_m_source_file>
AV-unprocessed.smi

> <i_m_source_file_index>
53

> <i_lp_mmshare_version>
43012

> <i_f3d_flags>
0

> <s_epik_input>
W05IMl1jMVtjSF1bY0hdbihjKD1PKW4xKVtDQEBIXTJPW0NASF0oW0NIMl1bT0hdKVtDQEBIXShbT0hdKVtDQEBIXTJbT0hd

> <s_epik_cmdline>
J2VwaWtfcHl0aG9uJywgJy1waCcsICc3LjAnLCAnLXRuJywgJzgnLCAnLW1hJywgJzIwMCcsICctbWV0YWxfYmluZGluZycsICctaW1hZScsICc8aW5maWxlLm1hZT4nLCAnLW9tYWUnLCAnPG91dGZpbGUubWFlPic=

> <r_lp_tautomer_probability>
0.99996

> <r_epik_Ionization_Penalty>
0.00069087

> <r_epik_Ionization_Penalty_Charging>
2.61959e-08

> <r_epik_Ionization_Penalty_Neutral>
0.000690844

> <r_epik_State_Penalty>
1.15523e-05

> <r_epik_Charging_Adjusted_Penalty>
1.15785e-05

> <i_epik_Tot_Q>
0

> <i_epik_Tot_abs_Q>
0

> <r_epik_Metal_State_Penalty>
-0

> <b_epik_Metal_Only>
0

> <s_epik_Chemistry_Notes>
This compound contains an acetal/aminal-like group ( X-CH(R)-Y where X, Y are N, S, or O) that may be acid/base labile, releasing an aldehyde.

> <s_lp_Force_Field>
OPLS_2005

> <r_lp_Energy>
37.6577

> <b_lp_Chiralities_Consistent>
1

> <s_lp_Variant>
AV-unprocessed.smi:53-7

> <Gold.Version>
5.8.1

> <Gold.Id.Protein>
6NUR|6NUR_protein|mol2

> <Gold.PLP.Fitness>
40.1155

> <Gold.PLP.PLP>
-26.9982

> <Gold.PLP.part.hbond>
-5.3695

> <Gold.PLP.part.metal>
0.0000

> <Gold.PLP.part.buried>
-5.8691

> <Gold.PLP.part.nonpolar>
-17.6348

> <Gold.PLP.part.repulsive>
1.1047

> <Gold.PLP.ligand.clash>
0.0000

> <Gold.PLP.ligand.torsion>
0.5353

> <Gold.PLP.Chemscore.Hbond>
4.4042

> <Gold.PLP.Chemscore.CHOScore>
0.2960

> <Gold.PLP.Chemscore.Metal>
0.0000

> <Gold.Chemscore.Hbonds>
donor molecule, donor type, donor heavy atom, donor atom, acceptor molecule, acceptor atom, score
      L1  H    10    28       P1 10175  1.00
      L1  H    12    29       P1 10175  0.78
      L1  H    14    30       P1  7957  0.56
      P1  H  7989  7998       L1    14  0.05
      P1  H  7997  8008       L1    17  0.95
      P1  H  8011  8017       L1    14  1.00
      L1  C     4    25       P1  7948  0.13

> <Gold.PLP.Chemscore.Internal.Correction>
0.0875

> <Gold.Rescore>
     Score         DG    S(hbond)    S(metal)    S(lipo)     H(rot)  DE(clash)    DE(int)     intcor
     10.03     -12.36       3.74        0.00      33.12       3.71       0.88       1.46       ----

> <Gold.Chemscore.Fitness>
10.0287

> <Gold.Chemscore.DG>
-12.3620

> <Gold.Chemscore.ZeroCoef>
-5.4800

> <Gold.Chemscore.Hbond>
3.7434

> <Gold.Chemscore.Metal>
0.0000

> <Gold.Chemscore.Lipo>
33.1217

> <Gold.Chemscore.Internal_Hbond>
0.0000

> <Gold.Chemscore.DEClash>
0.8765

> <Gold.Chemscore.DEInternal>
1.4567

> <Gold.Chemscore.Rot>
3.7095

> <Gold.Chemscore.Internal.Correction>
   9.000000E+99

> <Gold.Chemscore.Hbonds>
donor molecule, donor type, donor heavy atom, donor atom, acceptor molecule, acceptor atom, score
      L1  H    10    28       P1 10175  0.99
      L1  H    12    29       P1 10175  0.34
      L1  H    14    30       P1  7957  0.56
      P1  H  7989  7998       L1    14  0.05
      P1  H  7997  8008       L1    17  0.22
      P1  H  8011  8017       L1    14  0.29

> <Gold.Chemscore.Hbond.Weighted>
-12.5031

> <Gold.Chemscore.Metal.Weighted>
-0.0000

> <Gold.Chemscore.Lipo.Weighted>
-3.8752

> <Gold.Chemscore.Internal_Hbond.Weighted>
0.0000

> <Gold.Chemscore.DEClash.Weighted>
0.8765

> <Gold.Chemscore.DEInternal.Weighted>
1.4567

> <Gold.Chemscore.Rot.Weighted>
9.4964

> <Gold.Chemscore.Internal.Correction.Weighted>
   9.000000E+99

> <Gold.Protein.RotatedTorsions>
[ 6907 6896 6895 6894 ] final -163.85 input  -60.11 | X-H torsion
[ 7974 7965 7964 7962 ] final    0.72 input  175.53 | X-H torsion
[ 8008 7997 7996 7995 ] final  -44.33 input   59.86 | X-H torsion
[ 10167 10162 10161 10158 ] final -120.23 input  -65.29 | X-H torsion
[ 10718 10713 10712 10709 ] final   -1.68 input   66.30 | X-H torsion
[ 10763 10752 10751 10750 ] final  -78.38 input  -60.55 | X-H torsion
[ 11005 11000 10999 10996 ] final -145.02 input  -57.11 | X-H torsion

> <Gold.Protein.ActiveResidues>
 VAL166  LYS551  ARG553  GLY616  TRP617  ASP618  TYR619  PRO620  LYS621  CYS622 
 ASP623  PHE694  ASN695  SER759  ASP760  ASP761  ALA762  ILE779  LEU786  VAL792 
 PHE793  MET794  SER795  GLU796  ALA797  LYS798  CYS799  TRP800  GLU811  SER814 

> <Gold.Protein.RotatedAtoms>
  151.4025  133.3753  159.2733 H   0  0  0  0  0  0  0  0  0  0  0  0  # atno 6907 bound_to 6896
  150.9423  134.8832  159.7630 H   0  0  0  0  0  0  0  0  0  0  0  0  # atno 6908 bound_to 6896
  152.5076  134.3976  159.9458 H   0  0  0  0  0  0  0  0  0  0  0  0  # atno 6909 bound_to 6896
  146.2436  140.1096  142.8344 H   0  0  0  0  0  0  0  0  0  0  0  0  # atno 7974 bound_to 7965
  154.3997  140.1425  156.3665 H   0  0  0  0  0  0  0  0  0  0  0  0  # atno 8008 bound_to 7997
  155.8133  140.3472  155.5449 H   0  0  0  0  0  0  0  0  0  0  0  0  # atno 8009 bound_to 7997
  155.8364  140.0920  157.1752 H   0  0  0  0  0  0  0  0  0  0  0  0  # atno 8010 bound_to 7997
  140.0380  143.5181  152.2144 H   0  0  0  0  0  0  0  0  0  0  0  0  # atno 10167 bound_to 10162
  156.8020  130.5396  149.5720 H   0  0  0  0  0  0  0  0  0  0  0  0  # atno 10718 bound_to 10713
  154.5251  135.5732  153.6712 H   0  0  0  0  0  0  0  0  0  0  0  0  # atno 10763 bound_to 10752
  152.9926  135.6191  154.2703 H   0  0  0  0  0  0  0  0  0  0  0  0  # atno 10764 bound_to 10752
  154.2626  135.2855  155.2751 H   0  0  0  0  0  0  0  0  0  0  0  0  # atno 10765 bound_to 10752
  140.7965  134.2907  157.4994 H   0  0  0  0  0  0  0  0  0  0  0  0  # atno 11005 bound_to 11000
  145.0499  140.9009  143.5002 LP  0  0  0  0  0  0  0  0  0  0  0  0  # atno 17320 bound_to 7965
  145.1191  139.2705  143.5597 LP  0  0  0  0  0  0  0  0  0  0  0  0  # atno 17321 bound_to 7965
  139.6032  144.7589  151.3123 LP  0  0  0  0  0  0  0  0  0  0  0  0  # atno 17342 bound_to 10162
  140.7273  143.6968  150.7877 LP  0  0  0  0  0  0  0  0  0  0  0  0  # atno 17343 bound_to 10162
  156.1095  130.6030  151.0025 LP  0  0  0  0  0  0  0  0  0  0  0  0  # atno 17370 bound_to 10713
  157.6549  131.0891  150.7970 LP  0  0  0  0  0  0  0  0  0  0  0  0  # atno 17371 bound_to 10713
  139.8726  134.9405  156.3770 LP  0  0  0  0  0  0  0  0  0  0  0  0  # atno 17394 bound_to 11000
  140.9338  133.7561  156.0058 LP  0  0  0  0  0  0  0  0  0  0  0  0  # atno 17395 bound_to 11000

$$$$
