AV-unprocessed.smi:2247|AV-procd|sdf|9086|dock10
  -GOLD-   2272012293D 1   1.00000     0.00000
 Structure written by MMmdl.
 34 35  0  0  0  0  0  0  0  0  1 V2000
  143.3980  132.2691  150.6731 C   0  0  0  0  0  0  0  0  0  0  0  0
  144.7031  133.0625  150.4844 C   0  0  0  0  0  0  0  0  0  0  0  0
  145.8278  132.1904  149.9042 C   0  0  0  0  0  0  0  0  0  0  0  0
  145.1508  133.7144  151.7223 N   0  0  0  0  0  0  0  0  0  0  0  0
  145.5846  132.9612  152.8881 C   0  0  0  0  0  0  0  0  0  0  0  0
  146.2875  133.9944  153.7739 C   0  0  0  0  0  0  0  0  0  0  0  0
  145.7653  135.3665  153.3179 C   0  0  1  0  0  0  0  0  0  0  0  0
  146.8607  136.3332  153.2705 N   0  0  0  0  0  0  0  0  0  0  0  0
  146.8517  137.5385  153.8590 C   0  0  0  0  0  0  0  0  0  0  0  0
  145.9187  137.9515  154.5485 O   0  0  0  0  0  0  0  0  0  0  0  0
  147.9781  138.2205  153.5922 N   0  0  0  0  0  0  0  0  0  0  0  0
  148.3133  139.5317  154.0141 C   0  0  0  0  0  0  0  0  0  0  0  0
  147.4832  140.5710  154.1157 N   0  0  0  0  0  0  0  0  0  0  0  0
  148.2821  141.6145  154.5600 C   0  0  0  0  0  0  0  0  0  0  0  0
  149.5613  141.1422  154.7049 C   0  0  0  0  0  0  0  0  0  0  0  0
  149.5963  139.8173  154.3610 O   0  0  0  0  0  0  0  0  0  0  0  0
  145.2604  135.0365  151.9126 C   0  0  0  0  0  0  0  0  0  0  0  0
  144.9850  135.9037  151.0833 O   0  0  0  0  0  0  0  0  0  0  0  0
  143.0392  131.8833  149.7184 H   0  0  0  0  0  0  0  0  0  0  0  0
  142.6098  132.8988  151.0871 H   0  0  0  0  0  0  0  0  0  0  0  0
  143.5328  131.4156  151.3379 H   0  0  0  0  0  0  0  0  0  0  0  0
  144.4853  133.8460  149.7560 H   0  0  0  0  0  0  0  0  0  0  0  0
  145.5269  131.7403  148.9580 H   0  0  0  0  0  0  0  0  0  0  0  0
  146.0939  131.3826  150.5868 H   0  0  0  0  0  0  0  0  0  0  0  0
  146.7274  132.7772  149.7154 H   0  0  0  0  0  0  0  0  0  0  0  0
  144.7136  132.5461  153.3971 H   0  0  0  0  0  0  0  0  0  0  0  0
  146.2521  132.1419  152.6189 H   0  0  0  0  0  0  0  0  0  0  0  0
  146.1010  133.8169  154.8336 H   0  0  0  0  0  0  0  0  0  0  0  0
  147.3656  133.9188  153.6199 H   0  0  0  0  0  0  0  0  0  0  0  0
  144.9340  135.7002  153.9416 H   0  0  0  0  0  0  0  0  0  0  0  0
  147.6680  136.0770  152.7217 H   0  0  0  0  0  0  0  0  0  0  0  0
  148.6636  137.7597  153.0126 H   0  0  0  0  0  0  0  0  0  0  0  0
  147.8819  142.6018  154.7373 H   0  0  0  0  0  0  0  0  0  0  0  0
  150.4938  141.5872  155.0193 H   0  0  0  0  0  0  0  0  0  0  0  0
  1  2  1  0  0  0  0
  1 19  1  0  0  0  0
  1 20  1  0  0  0  0
  1 21  1  0  0  0  0
  2  3  1  0  0  0  0
  2  4  1  0  0  0  0
  2 22  1  0  0  0  0
  3 23  1  0  0  0  0
  3 24  1  0  0  0  0
  3 25  1  0  0  0  0
  4 17  1  0  0  0  0
  4  5  1  0  0  0  0
  5  6  1  0  0  0  0
  5 26  1  0  0  0  0
  5 27  1  0  0  0  0
  6  7  1  0  0  0  0
  6 28  1  0  0  0  0
  6 29  1  0  0  0  0
  7  8  1  0  0  0  0
  7 17  1  0  0  0  0
  7 30  1  0  0  0  0
  8  9  1  0  0  0  0
  8 31  1  0  0  0  0
  9 10  2  0  0  0  0
  9 11  1  0  0  0  0
 11 12  1  0  0  0  0
 11 32  1  0  0  0  0
 12 16  1  0  0  0  0
 12 13  2  0  0  0  0
 13 14  1  0  0  0  0
 14 15  2  0  0  0  0
 14 33  1  0  0  0  0
 15 16  1  0  0  0  0
 15 34  1  0  0  0  0
 17 18  2  0  0  0  0
M  END
> <s_m_source_file>
AV-unprocessed.smi

> <i_m_source_file_index>
2247

> <i_lp_mmshare_version>
43012

> <i_f3d_flags>
0

> <s_epik_input>
W0NIM11bQ0hdKFtDSDNdKU4xW0NIMl1bQ0gyXVtDQEhdKEMxPU8pW05IXUMoPU8pW05IXWMybltjSF1bY0hdbzI=

> <s_epik_cmdline>
J2VwaWtfcHl0aG9uJywgJy1waCcsICc3LjAnLCAnLXRuJywgJzgnLCAnLW1hJywgJzIwMCcsICctbWV0YWxfYmluZGluZycsICctaW1hZScsICc8aW5maWxlLm1hZT4nLCAnLW9tYWUnLCAnPG91dGZpbGUubWFlPic=

> <r_lp_tautomer_probability>
0.785861

> <r_epik_Ionization_Penalty>
5.15801e-05

> <r_epik_Ionization_Penalty_Charging>
0

> <r_epik_Ionization_Penalty_Neutral>
5.15801e-05

> <r_epik_State_Penalty>
0.0205761

> <r_epik_Charging_Adjusted_Penalty>
0.0205761

> <i_epik_Tot_Q>
0

> <i_epik_Tot_abs_Q>
0

> <r_epik_Metal_State_Penalty>
0.0168939

> <b_epik_Metal_Only>
0

> <s_lp_Force_Field>
OPLS_2005

> <r_lp_Energy>
20.5401

> <b_lp_Chiralities_Consistent>
1

> <s_lp_Variant>
AV-unprocessed.smi:2247-1

> <Gold.Version>
5.8.1

> <Gold.Id.Protein>
6NUR|6NUR_protein|mol2

> <Gold.PLP.Fitness>
34.9188

> <Gold.PLP.PLP>
-26.9269

> <Gold.PLP.part.hbond>
-1.9003

> <Gold.PLP.part.metal>
0.0000

> <Gold.PLP.part.buried>
-3.5857

> <Gold.PLP.part.nonpolar>
-22.1389

> <Gold.PLP.part.repulsive>
1.0665

> <Gold.PLP.ligand.clash>
0.0000

> <Gold.PLP.ligand.torsion>
0.3411

> <Gold.PLP.Chemscore.Hbond>
1.8640

> <Gold.PLP.Chemscore.CHOScore>
1.0000

> <Gold.PLP.Chemscore.Metal>
0.0000

> <Gold.Chemscore.Hbonds>
donor molecule, donor type, donor heavy atom, donor atom, acceptor molecule, acceptor atom, score
      L1  H     8    31       P1  7948  1.00
      L1  H    11    32       P1  7948  0.90
      L1  C    14    33       P1  8028  1.00

> <Gold.PLP.Chemscore.Internal.Correction>
0.0821

> <Gold.Rescore>
     Score         DG    S(hbond)    S(metal)    S(lipo)     H(rot)  DE(clash)    DE(int)     intcor
     14.67     -15.15       1.92        0.00      57.05       1.33       0.01       0.47       ----

> <Gold.Chemscore.Fitness>
14.6729

> <Gold.Chemscore.DG>
-15.1514

> <Gold.Chemscore.ZeroCoef>
-5.4800

> <Gold.Chemscore.Hbond>
1.9195

> <Gold.Chemscore.Metal>
0.0000

> <Gold.Chemscore.Lipo>
57.0486

> <Gold.Chemscore.Internal_Hbond>
0.0000

> <Gold.Chemscore.DEClash>
0.0126

> <Gold.Chemscore.DEInternal>
0.4659

> <Gold.Chemscore.Rot>
1.3338

> <Gold.Chemscore.Internal.Correction>
   9.000000E+99

> <Gold.Chemscore.Hbonds>
donor molecule, donor type, donor heavy atom, donor atom, acceptor molecule, acceptor atom, score
      L1  H     8    31       P1  7948  0.95
      L1  H    11    32       P1  7948  0.88

> <Gold.Chemscore.Hbond.Weighted>
-6.4112

> <Gold.Chemscore.Metal.Weighted>
-0.0000

> <Gold.Chemscore.Lipo.Weighted>
-6.6747

> <Gold.Chemscore.Internal_Hbond.Weighted>
0.0000

> <Gold.Chemscore.DEClash.Weighted>
0.0126

> <Gold.Chemscore.DEInternal.Weighted>
0.4659

> <Gold.Chemscore.Rot.Weighted>
3.4145

> <Gold.Chemscore.Internal.Correction.Weighted>
   9.000000E+99

> <Gold.Protein.RotatedTorsions>
[ 6907 6896 6895 6894 ] final  169.56 input  -60.11 | X-H torsion
[ 7974 7965 7964 7962 ] final  112.85 input  175.53 | X-H torsion
[ 8008 7997 7996 7995 ] final  176.85 input   59.86 | X-H torsion
[ 10167 10162 10161 10158 ] final   20.15 input  -65.29 | X-H torsion
[ 10718 10713 10712 10709 ] final  -56.64 input   66.30 | X-H torsion
[ 10763 10752 10751 10750 ] final  -53.84 input  -60.55 | X-H torsion
[ 11005 11000 10999 10996 ] final -143.03 input  -57.11 | X-H torsion

> <Gold.Protein.ActiveResidues>
 VAL166  LYS551  ARG553  GLY616  TRP617  ASP618  TYR619  PRO620  LYS621  CYS622 
 ASP623  PHE694  ASN695  SER759  ASP760  ASP761  ALA762  ILE779  LEU786  VAL792 
 PHE793  MET794  SER795  GLU796  ALA797  LYS798  CYS799  TRP800  GLU811  SER814 

> <Gold.Protein.RotatedAtoms>
  151.8300  133.3407  159.3610 H   0  0  0  0  0  0  0  0  0  0  0  0  # atno 6907 bound_to 6896
  150.7267  134.5492  159.5795 H   0  0  0  0  0  0  0  0  0  0  0  0  # atno 6908 bound_to 6896
  152.2943  134.7686  160.0422 H   0  0  0  0  0  0  0  0  0  0  0  0  # atno 6909 bound_to 6896
  145.2244  139.2847  143.4201 H   0  0  0  0  0  0  0  0  0  0  0  0  # atno 7974 bound_to 7965
  156.0720  140.1373  156.9817 H   0  0  0  0  0  0  0  0  0  0  0  0  # atno 8008 bound_to 7997
  154.4537  140.0970  156.6745 H   0  0  0  0  0  0  0  0  0  0  0  0  # atno 8009 bound_to 7997
  155.5213  140.3456  155.4409 H   0  0  0  0  0  0  0  0  0  0  0  0  # atno 8010 bound_to 7997
  140.5525  143.9483  150.6588 H   0  0  0  0  0  0  0  0  0  0  0  0  # atno 10167 bound_to 10162
  156.1272  130.4162  150.0333 H   0  0  0  0  0  0  0  0  0  0  0  0  # atno 10718 bound_to 10713
  154.1653  135.6468  153.4996 H   0  0  0  0  0  0  0  0  0  0  0  0  # atno 10763 bound_to 10752
  153.0099  135.5370  154.6668 H   0  0  0  0  0  0  0  0  0  0  0  0  # atno 10764 bound_to 10752
  154.5993  135.2942  155.0524 H   0  0  0  0  0  0  0  0  0  0  0  0  # atno 10765 bound_to 10752
  140.8166  134.2681  157.4918 H   0  0  0  0  0  0  0  0  0  0  0  0  # atno 11005 bound_to 11000
  146.3368  140.2560  142.8600 LP  0  0  0  0  0  0  0  0  0  0  0  0  # atno 17320 bound_to 7965
  144.9735  140.8391  143.5441 LP  0  0  0  0  0  0  0  0  0  0  0  0  # atno 17321 bound_to 7965
  140.2912  143.3323  152.1060 LP  0  0  0  0  0  0  0  0  0  0  0  0  # atno 17342 bound_to 10162
  139.5033  144.6754  151.6142 LP  0  0  0  0  0  0  0  0  0  0  0  0  # atno 17343 bound_to 10162
  156.8255  130.9374  151.3639 LP  0  0  0  0  0  0  0  0  0  0  0  0  # atno 17370 bound_to 10713
  157.6453  130.8839  149.9526 LP  0  0  0  0  0  0  0  0  0  0  0  0  # atno 17371 bound_to 10713
  139.8711  134.9512  156.4079 LP  0  0  0  0  0  0  0  0  0  0  0  0  # atno 17394 bound_to 11000
  140.9143  133.7690  155.9829 LP  0  0  0  0  0  0  0  0  0  0  0  0  # atno 17395 bound_to 11000

$$$$
