AV-unprocessed.smi:1234|AV-procd|sdf|5174|dock2
  -GOLD-   22720 4253D 1   1.00000     0.00000
 Structure written by MMmdl.
 32 33  0  0  0  0  0  0  0  0  2 V2000
  148.8757  135.1955  159.0320 O   0  0  0  0  0  0  0  0  0  0  0  0
  149.2427  136.1528  159.7174 C   0  0  0  0  0  0  0  0  0  0  0  0
  150.0583  137.0762  159.1912 N   0  0  0  0  0  0  0  0  0  0  0  0
  150.5853  137.0563  157.8325 C   0  0  0  0  0  0  0  0  0  0  0  0
  151.6314  138.1699  157.6461 C   0  0  0  0  0  0  0  0  0  0  0  0
  152.8260  138.0678  158.6097 C   0  0  0  0  0  0  0  0  0  0  0  0
  153.3654  136.9781  158.8084 O   0  0  0  0  0  0  0  0  0  0  0  0
  153.2518  139.1958  159.2159 N   0  0  0  0  0  0  0  0  0  0  0  0
  154.3854  139.2388  160.1376 C   0  0  0  0  0  0  0  0  0  0  0  0
  154.6793  140.7216  160.3643 C   0  0  0  0  0  0  0  0  0  0  0  0
  153.3477  141.4101  160.0988 C   0  0  0  0  0  0  0  0  0  0  0  0
  152.6699  140.5276  159.0498 C   0  0  0  0  0  0  0  0  0  0  0  0
  148.9033  136.3949  161.0041 N   0  5  0  0  0  0  0  0  0  0  0  0
  147.6188  136.3071  161.3875 C   0  0  0  0  0  0  0  0  0  0  0  0
  146.6772  137.1535  160.9397 N   0  0  0  0  0  0  0  0  0  0  0  0
  145.4153  136.8883  161.4540 N   0  0  0  0  0  0  0  0  0  0  0  0
  145.4362  135.8380  162.2744 C   0  0  0  0  0  0  0  0  0  0  0  0
  146.9977  135.0755  162.4902 S   0  0  0  0  0  0  0  0  0  0  0  0
  150.3359  137.8455  159.7828 H   0  0  0  0  0  0  0  0  0  0  0  0
  151.0327  136.0806  157.6344 H   0  0  0  0  0  0  0  0  0  0  0  0
  149.7599  137.1859  157.1304 H   0  0  0  0  0  0  0  0  0  0  0  0
  152.0027  138.1450  156.6207 H   0  0  0  0  0  0  0  0  0  0  0  0
  151.1531  139.1395  157.7894 H   0  0  0  0  0  0  0  0  0  0  0  0
  154.0991  138.7566  161.0737 H   0  0  0  0  0  0  0  0  0  0  0  0
  155.2582  138.7179  159.7408 H   0  0  0  0  0  0  0  0  0  0  0  0
  155.0716  140.9273  161.3607 H   0  0  0  0  0  0  0  0  0  0  0  0
  155.4176  141.0636  159.6376 H   0  0  0  0  0  0  0  0  0  0  0  0
  152.7521  141.4148  161.0128 H   0  0  0  0  0  0  0  0  0  0  0  0
  153.4638  142.4434  159.7710 H   0  0  0  0  0  0  0  0  0  0  0  0
  152.8918  140.8914  158.0457 H   0  0  0  0  0  0  0  0  0  0  0  0
  151.5871  140.5272  159.1819 H   0  0  0  0  0  0  0  0  0  0  0  0
  144.5261  135.5087  162.7529 H   0  0  0  0  0  0  0  0  0  0  0  0
  1  2  2  0  0  0  0
  2  3  1  0  0  0  0
  2 13  1  0  0  0  0
  3  4  1  0  0  0  0
  3 19  1  0  0  0  0
  4  5  1  0  0  0  0
  4 20  1  0  0  0  0
  4 21  1  0  0  0  0
  5  6  1  0  0  0  0
  5 22  1  0  0  0  0
  5 23  1  0  0  0  0
  6  7  2  0  0  0  0
  6  8  1  0  0  0  0
  8 12  1  0  0  0  0
  8  9  1  0  0  0  0
  9 10  1  0  0  0  0
  9 24  1  0  0  0  0
  9 25  1  0  0  0  0
 10 11  1  0  0  0  0
 10 26  1  0  0  0  0
 10 27  1  0  0  0  0
 11 12  1  0  0  0  0
 11 28  1  0  0  0  0
 11 29  1  0  0  0  0
 12 30  1  0  0  0  0
 12 31  1  0  0  0  0
 13 14  1  0  0  0  0
 14 18  1  0  0  0  0
 14 15  2  0  0  0  0
 15 16  1  0  0  0  0
 16 17  2  0  0  0  0
 17 18  1  0  0  0  0
 17 32  1  0  0  0  0
M  CHG  1  13  -1
M  END
> <s_m_source_file>
AV-unprocessed.smi

> <i_m_source_file_index>
1234

> <i_lp_mmshare_version>
43012

> <i_f3d_flags>
0

> <s_epik_input>
czFbY0hdbm5jMVtOSF1DKD1PKVtOSF1bQ0gyXVtDSDJdQyg9TylOMltDSDJdW0NIMl1bQ0gyXVtDSDJdMg==

> <s_epik_cmdline>
J2VwaWtfcHl0aG9uJywgJy1waCcsICc3LjAnLCAnLXRuJywgJzgnLCAnLW1hJywgJzIwMCcsICctbWV0YWxfYmluZGluZycsICctaW1hZScsICc8aW5maWxlLm1hZT4nLCAnLW9tYWUnLCAnPG91dGZpbGUubWFlPic=

> <r_lp_tautomer_probability>
1

> <r_epik_Ionization_Penalty>
3.2941

> <r_epik_Ionization_Penalty_Charging>
3.25456

> <r_epik_Ionization_Penalty_Neutral>
0.039538

> <r_epik_State_Penalty>
3.25212

> <r_epik_Charging_Adjusted_Penalty>
6.50668

> <i_epik_Tot_Q>
-1

> <i_epik_Tot_abs_Q>
1

> <r_epik_Metal_State_Penalty>
0.477003

> <b_epik_Metal_Only>
1

> <s_lp_Force_Field>
OPLS_2005

> <r_lp_Energy>
26.7799

> <b_lp_Chiralities_Consistent>
1

> <s_lp_Variant>
AV-unprocessed.smi:1234-2

> <Gold.Version>
5.8.1

> <Gold.Id.Protein>
6NUR|6NUR_protein|mol2

> <Gold.PLP.Fitness>
41.3044

> <Gold.PLP.PLP>
-31.7402

> <Gold.PLP.part.hbond>
-3.0000

> <Gold.PLP.part.metal>
0.0000

> <Gold.PLP.part.buried>
-4.8726

> <Gold.PLP.part.nonpolar>
-24.7270

> <Gold.PLP.part.repulsive>
0.2368

> <Gold.PLP.ligand.clash>
0.0000

> <Gold.PLP.ligand.torsion>
1.2639

> <Gold.PLP.Chemscore.Hbond>
4.0000

> <Gold.PLP.Chemscore.CHOScore>
0.0000

> <Gold.PLP.Chemscore.Metal>
0.0000

> <Gold.Chemscore.Hbonds>
donor molecule, donor type, donor heavy atom, donor atom, acceptor molecule, acceptor atom, score
      P1  H  6896  6907       L1     1  0.15
      P1  H  6931  6943       L1    13  1.04
      P1  H  6934  6947       L1    15  1.00

> <Gold.PLP.Chemscore.Internal.Correction>
0.0919

> <Gold.Rescore>
     Score         DG    S(hbond)    S(metal)    S(lipo)     H(rot)  DE(clash)    DE(int)     intcor
     12.98     -14.70       1.98        0.00      60.82       1.76       0.30       1.43       ----

> <Gold.Chemscore.Fitness>
12.9774

> <Gold.Chemscore.DG>
-14.7045

> <Gold.Chemscore.ZeroCoef>
-5.4800

> <Gold.Chemscore.Hbond>
1.9801

> <Gold.Chemscore.Metal>
0.0000

> <Gold.Chemscore.Lipo>
60.8179

> <Gold.Chemscore.Internal_Hbond>
0.0000

> <Gold.Chemscore.DEClash>
0.3010

> <Gold.Chemscore.DEInternal>
1.4262

> <Gold.Chemscore.Rot>
1.7596

> <Gold.Chemscore.Internal.Correction>
   9.000000E+99

> <Gold.Chemscore.Hbonds>
donor molecule, donor type, donor heavy atom, donor atom, acceptor molecule, acceptor atom, score
      P1  H  6931  6943       L1    13  0.03
      P1  H  6934  6947       L1    15  0.83

> <Gold.Chemscore.Hbond.Weighted>
-6.6134

> <Gold.Chemscore.Metal.Weighted>
-0.0000

> <Gold.Chemscore.Lipo.Weighted>
-7.1157

> <Gold.Chemscore.Internal_Hbond.Weighted>
0.0000

> <Gold.Chemscore.DEClash.Weighted>
0.3010

> <Gold.Chemscore.DEInternal.Weighted>
1.4262

> <Gold.Chemscore.Rot.Weighted>
4.5046

> <Gold.Chemscore.Internal.Correction.Weighted>
   9.000000E+99

> <Gold.Protein.RotatedTorsions>
[ 6907 6896 6895 6894 ] final  -76.78 input  -60.11 | X-H torsion
[ 7974 7965 7964 7962 ] final  -18.19 input  175.53 | X-H torsion
[ 8008 7997 7996 7995 ] final  146.85 input   59.86 | X-H torsion
[ 10167 10162 10161 10158 ] final   65.12 input  -65.29 | X-H torsion
[ 10718 10713 10712 10709 ] final   34.40 input   66.30 | X-H torsion
[ 10763 10752 10751 10750 ] final   68.51 input  -60.55 | X-H torsion
[ 11005 11000 10999 10996 ] final -119.09 input  -57.11 | X-H torsion

> <Gold.Protein.ActiveResidues>
 VAL166  LYS551  ARG553  GLY616  TRP617  ASP618  TYR619  PRO620  LYS621  CYS622 
 ASP623  PHE694  ASN695  SER759  ASP760  ASP761  ALA762  ILE779  LEU786  VAL792 
 PHE793  MET794  SER795  GLU796  ALA797  LYS798  CYS799  TRP800  GLU811  SER814 

> <Gold.Protein.RotatedAtoms>
  150.7017  134.4521  159.5340 H   0  0  0  0  0  0  0  0  0  0  0  0  # atno 6907 bound_to 6896
  152.2211  134.8409  160.0495 H   0  0  0  0  0  0  0  0  0  0  0  0  # atno 6908 bound_to 6896
  151.9259  133.3563  159.3950 H   0  0  0  0  0  0  0  0  0  0  0  0  # atno 6909 bound_to 6896
  146.1904  140.3886  142.8460 H   0  0  0  0  0  0  0  0  0  0  0  0  # atno 7974 bound_to 7965
  156.2843  140.2171  156.5442 H   0  0  0  0  0  0  0  0  0  0  0  0  # atno 8008 bound_to 7997
  154.7344  140.0493  157.0778 H   0  0  0  0  0  0  0  0  0  0  0  0  # atno 8009 bound_to 7997
  155.0311  140.3135  155.4761 H   0  0  0  0  0  0  0  0  0  0  0  0  # atno 8010 bound_to 7997
  140.1147  144.4786  150.6956 H   0  0  0  0  0  0  0  0  0  0  0  0  # atno 10167 bound_to 10162
  157.3099  130.7393  149.6718 H   0  0  0  0  0  0  0  0  0  0  0  0  # atno 10718 bound_to 10713
  153.0239  135.5244  154.7146 H   0  0  0  0  0  0  0  0  0  0  0  0  # atno 10763 bound_to 10752
  154.6218  135.2890  155.0319 H   0  0  0  0  0  0  0  0  0  0  0  0  # atno 10764 bound_to 10752
  154.1303  135.6594  153.4973 H   0  0  0  0  0  0  0  0  0  0  0  0  # atno 10765 bound_to 10752
  141.0240  134.0082  157.3242 H   0  0  0  0  0  0  0  0  0  0  0  0  # atno 11005 bound_to 11000
  144.8477  140.6953  143.6189 LP  0  0  0  0  0  0  0  0  0  0  0  0  # atno 17320 bound_to 7965
  145.3809  139.1637  143.4281 LP  0  0  0  0  0  0  0  0  0  0  0  0  # atno 17321 bound_to 7965
  140.6906  143.2374  151.5142 LP  0  0  0  0  0  0  0  0  0  0  0  0  # atno 17342 bound_to 10162
  139.5600  144.2180  152.1676 LP  0  0  0  0  0  0  0  0  0  0  0  0  # atno 17343 bound_to 10162
  155.9677  130.4254  150.4654 LP  0  0  0  0  0  0  0  0  0  0  0  0  # atno 17370 bound_to 10713
  157.2651  131.0575  151.2296 LP  0  0  0  0  0  0  0  0  0  0  0  0  # atno 17371 bound_to 10713
  139.9164  135.0197  156.7897 LP  0  0  0  0  0  0  0  0  0  0  0  0  # atno 17394 bound_to 11000
  140.6524  133.9719  155.7762 LP  0  0  0  0  0  0  0  0  0  0  0  0  # atno 17395 bound_to 11000

$$$$
