AV-unprocessed.smi:794|AV-procd|sdf|3758|dock7
  -GOLD-   22720 1193D 1   1.00000     0.00000
 Structure written by MMmdl.
 41 43  0  0  0  0  0  0  0  0  1 V2000
  142.5184  135.5619  159.8716 C   0  0  0  0  0  0  0  0  0  0  0  0
  143.1492  135.8058  158.5349 C   0  0  0  0  0  0  0  0  0  0  0  0
  143.0144  134.8503  157.5232 N   0  0  0  0  0  0  0  0  0  0  0  0
  143.6297  135.2173  156.3946 C   0  0  0  0  0  0  0  0  0  0  0  0
  143.6531  134.4421  155.2055 N   0  0  0  0  0  0  0  0  0  0  0  0
  143.7507  134.8725  153.9355 C   0  0  0  0  0  0  0  0  0  0  0  0
  143.8387  136.0503  153.5869 O   0  0  0  0  0  0  0  0  0  0  0  0
  143.7359  133.8470  153.0728 N   0  0  0  0  0  0  0  0  0  0  0  0
  143.8117  133.9806  151.6195 C   0  0  2  0  0  0  0  0  0  0  0  0
  143.5355  132.6563  150.8636 C   0  0  2  0  0  0  0  0  0  0  0  0
  144.4114  131.5041  151.4018 C   0  0  0  0  0  0  0  0  0  0  0  0
  145.8201  131.9002  150.9224 C   0  0  0  0  0  0  0  0  0  0  0  0
  145.5622  133.2095  150.1513 C   0  0  1  0  0  0  0  0  0  0  0  0
  144.2027  132.9277  149.5215 C   0  0  0  0  0  0  0  0  0  0  0  0
  145.2475  134.3432  151.1551 C   0  0  1  0  0  0  0  0  0  0  0  0
  145.3523  135.7449  150.5240 C   0  0  0  0  0  0  0  0  0  0  0  0
  144.6470  136.6847  151.3069 O   0  0  0  0  0  0  0  0  0  0  0  0
  144.4268  136.7773  156.5028 S   0  0  0  0  0  0  0  0  0  0  0  0
  143.8781  136.9094  158.1556 C   0  0  0  0  0  0  0  0  0  0  0  0
  144.2075  138.1102  158.9786 C   0  0  0  0  0  0  0  0  0  0  0  0
  143.2373  135.7067  160.6782 H   0  0  0  0  0  0  0  0  0  0  0  0
  142.1310  134.5461  159.9563 H   0  0  0  0  0  0  0  0  0  0  0  0
  141.6879  136.2467  160.0430 H   0  0  0  0  0  0  0  0  0  0  0  0
  143.5883  133.4437  155.3375 H   0  0  0  0  0  0  0  0  0  0  0  0
  143.6647  132.9099  153.4415 H   0  0  0  0  0  0  0  0  0  0  0  0
  143.1037  134.7430  151.2874 H   0  0  0  0  0  0  0  0  0  0  0  0
  142.4765  132.4036  150.8021 H   0  0  0  0  0  0  0  0  0  0  0  0
  144.3542  131.3803  152.4833 H   0  0  0  0  0  0  0  0  0  0  0  0
  144.1119  130.5565  150.9521 H   0  0  0  0  0  0  0  0  0  0  0  0
  146.5195  132.0339  151.7483 H   0  0  0  0  0  0  0  0  0  0  0  0
  146.2279  131.1337  150.2619 H   0  0  0  0  0  0  0  0  0  0  0  0
  146.3549  133.4533  149.4432 H   0  0  0  0  0  0  0  0  0  0  0  0
  144.2044  132.0631  148.8552 H   0  0  0  0  0  0  0  0  0  0  0  0
  143.7776  133.7812  148.9914 H   0  0  0  0  0  0  0  0  0  0  0  0
  145.9584  134.2924  151.9823 H   0  0  0  0  0  0  0  0  0  0  0  0
  146.3952  136.0586  150.4707 H   0  0  0  0  0  0  0  0  0  0  0  0
  144.9604  135.7573  149.5069 H   0  0  0  0  0  0  0  0  0  0  0  0
  144.5056  137.4623  150.7886 H   0  0  0  0  0  0  0  0  0  0  0  0
  143.3004  138.5717  159.3692 H   0  0  0  0  0  0  0  0  0  0  0  0
  144.7383  138.8594  158.3909 H   0  0  0  0  0  0  0  0  0  0  0  0
  144.8390  137.8372  159.8243 H   0  0  0  0  0  0  0  0  0  0  0  0
  1  2  1  0  0  0  0
  1 21  1  0  0  0  0
  1 22  1  0  0  0  0
  1 23  1  0  0  0  0
  2 19  2  0  0  0  0
  2  3  1  0  0  0  0
  3  4  2  0  0  0  0
  4  5  1  0  0  0  0
  4 18  1  0  0  0  0
  5  6  1  0  0  0  0
  5 24  1  0  0  0  0
  6  7  2  0  0  0  0
  6  8  1  0  0  0  0
  8  9  1  0  0  0  0
  8 25  1  0  0  0  0
  9 15  1  0  0  0  0
  9 10  1  0  0  0  0
  9 26  1  0  0  0  0
 10 14  1  0  0  0  0
 10 11  1  0  0  0  0
 10 27  1  0  0  0  0
 11 12  1  0  0  0  0
 11 28  1  0  0  0  0
 11 29  1  0  0  0  0
 12 13  1  0  0  0  0
 12 30  1  0  0  0  0
 12 31  1  0  0  0  0
 13 14  1  0  0  0  0
 13 15  1  0  0  0  0
 13 32  1  0  0  0  0
 14 33  1  0  0  0  0
 14 34  1  0  0  0  0
 15 16  1  0  0  0  0
 15 35  1  0  0  0  0
 16 17  1  0  0  0  0
 16 36  1  0  0  0  0
 16 37  1  0  0  0  0
 17 38  1  0  0  0  0
 18 19  1  0  0  0  0
 19 20  1  0  0  0  0
 20 39  1  0  0  0  0
 20 40  1  0  0  0  0
 20 41  1  0  0  0  0
M  END
> <s_m_source_file>
AV-unprocessed.smi

> <i_m_source_file_index>
794

> <i_lp_mmshare_version>
43012

> <i_f3d_flags>
0

> <s_epik_input>
W0NIM11jMW5jKHNjMVtDSDNdKVtOSF1DKD1PKVtOSF1bQ0BIXShbQ0BASF0yMylbQ0BIXShbQ0gyXVtPSF0pW0NAQEhdKFtDSDJdMylbQ0gyXVtDSDJdMg==

> <s_epik_cmdline>
J2VwaWtfcHl0aG9uJywgJy1waCcsICc3LjAnLCAnLXRuJywgJzgnLCAnLW1hJywgJzIwMCcsICctbWV0YWxfYmluZGluZycsICctaW1hZScsICc8aW5maWxlLm1hZT4nLCAnLW9tYWUnLCAnPG91dGZpbGUubWFlPic=

> <r_lp_tautomer_probability>
0.999

> <r_epik_Ionization_Penalty>
0.000713029

> <r_epik_Ionization_Penalty_Charging>
0

> <r_epik_Ionization_Penalty_Neutral>
0.000713029

> <r_epik_State_Penalty>
0.000177984

> <r_epik_Charging_Adjusted_Penalty>
0.000177984

> <i_epik_Tot_Q>
0

> <i_epik_Tot_abs_Q>
0

> <r_epik_Metal_State_Penalty>
-0

> <b_epik_Metal_Only>
0

> <s_lp_Force_Field>
OPLS_2005

> <r_lp_Energy>
47.0696

> <b_lp_Chiralities_Consistent>
1

> <s_lp_Variant>
AV-unprocessed.smi:794-3

> <Gold.Version>
5.8.1

> <Gold.Id.Protein>
6NUR|6NUR_protein|mol2

> <Gold.PLP.Fitness>
37.2306

> <Gold.PLP.PLP>
-27.4369

> <Gold.PLP.part.hbond>
-4.0000

> <Gold.PLP.part.metal>
0.0000

> <Gold.PLP.part.buried>
-2.7984

> <Gold.PLP.part.nonpolar>
-21.1786

> <Gold.PLP.part.repulsive>
0.1099

> <Gold.PLP.ligand.clash>
0.0000

> <Gold.PLP.ligand.torsion>
0.4514

> <Gold.PLP.Chemscore.Hbond>
3.5600

> <Gold.PLP.Chemscore.CHOScore>
0.0000

> <Gold.PLP.Chemscore.Metal>
0.0000

> <Gold.Chemscore.Hbonds>
donor molecule, donor type, donor heavy atom, donor atom, acceptor molecule, acceptor atom, score
      L1  H     5    24       P1 10957  0.93
      L1  H     8    25       P1 10957  0.88
      L1  H    17    38       P1 10171  1.00
      P1  H 11000 11005       L1     3  0.61

> <Gold.PLP.Chemscore.Internal.Correction>
0.0165

> <Gold.Rescore>
     Score         DG    S(hbond)    S(metal)    S(lipo)     H(rot)  DE(clash)    DE(int)     intcor
     19.43     -19.90       3.35        0.00      66.69       1.78       0.05       0.43       ----

> <Gold.Chemscore.Fitness>
19.4295

> <Gold.Chemscore.DG>
-19.9017

> <Gold.Chemscore.ZeroCoef>
-5.4800

> <Gold.Chemscore.Hbond>
3.3458

> <Gold.Chemscore.Metal>
0.0000

> <Gold.Chemscore.Lipo>
66.6907

> <Gold.Chemscore.Internal_Hbond>
0.0000

> <Gold.Chemscore.DEClash>
0.0471

> <Gold.Chemscore.DEInternal>
0.4251

> <Gold.Chemscore.Rot>
1.7798

> <Gold.Chemscore.Internal.Correction>
   9.000000E+99

> <Gold.Chemscore.Hbonds>
donor molecule, donor type, donor heavy atom, donor atom, acceptor molecule, acceptor atom, score
      L1  H     5    24       P1 10957  0.87
      L1  H     8    25       P1 10957  0.61
      L1  H    17    38       P1 10171  0.99
      P1  H 11000 11005       L1     3  0.51

> <Gold.Chemscore.Hbond.Weighted>
-11.1751

> <Gold.Chemscore.Metal.Weighted>
-0.0000

> <Gold.Chemscore.Lipo.Weighted>
-7.8028

> <Gold.Chemscore.Internal_Hbond.Weighted>
0.0000

> <Gold.Chemscore.DEClash.Weighted>
0.0471

> <Gold.Chemscore.DEInternal.Weighted>
0.4251

> <Gold.Chemscore.Rot.Weighted>
4.5562

> <Gold.Chemscore.Internal.Correction.Weighted>
   9.000000E+99

> <Gold.Protein.RotatedTorsions>
[ 6907 6896 6895 6894 ] final  -22.76 input  -60.11 | X-H torsion
[ 7974 7965 7964 7962 ] final  -49.38 input  175.53 | X-H torsion
[ 8008 7997 7996 7995 ] final   -0.22 input   59.86 | X-H torsion
[ 10167 10162 10161 10158 ] final   15.04 input  -65.29 | X-H torsion
[ 10718 10713 10712 10709 ] final  170.58 input   66.30 | X-H torsion
[ 10763 10752 10751 10750 ] final  158.05 input  -60.55 | X-H torsion
[ 11005 11000 10999 10996 ] final -113.17 input  -57.11 | X-H torsion

> <Gold.Protein.ActiveResidues>
 VAL166  LYS551  ARG553  GLY616  TRP617  ASP618  TYR619  PRO620  LYS621  CYS622 
 ASP623  PHE694  ASN695  SER759  ASP760  ASP761  ALA762  ILE779  LEU786  VAL792 
 PHE793  MET794  SER795  GLU796  ALA797  LYS798  CYS799  TRP800  GLU811  SER814 

> <Gold.Protein.RotatedAtoms>
  151.2139  135.0492  159.8922 H   0  0  0  0  0  0  0  0  0  0  0  0  # atno 6907 bound_to 6896
  152.5422  134.0715  159.8206 H   0  0  0  0  0  0  0  0  0  0  0  0  # atno 6908 bound_to 6896
  151.0872  133.5296  159.2649 H   0  0  0  0  0  0  0  0  0  0  0  0  # atno 6909 bound_to 6896
  145.9411  140.7661  142.9551 H   0  0  0  0  0  0  0  0  0  0  0  0  # atno 7974 bound_to 7965
  154.6605  140.2589  155.7114 H   0  0  0  0  0  0  0  0  0  0  0  0  # atno 8008 bound_to 7997
  156.2616  140.2849  156.0997 H   0  0  0  0  0  0  0  0  0  0  0  0  # atno 8009 bound_to 7997
  155.1315  140.0378  157.2766 H   0  0  0  0  0  0  0  0  0  0  0  0  # atno 8010 bound_to 7997
  140.5894  143.8825  150.6860 H   0  0  0  0  0  0  0  0  0  0  0  0  # atno 10167 bound_to 10162
  157.0060  131.0190  151.2817 H   0  0  0  0  0  0  0  0  0  0  0  0  # atno 10718 bound_to 10713
  154.2099  135.2786  155.2962 H   0  0  0  0  0  0  0  0  0  0  0  0  # atno 10763 bound_to 10752
  154.5786  135.5596  153.7167 H   0  0  0  0  0  0  0  0  0  0  0  0  # atno 10764 bound_to 10752
  153.0067  135.6339  154.2238 H   0  0  0  0  0  0  0  0  0  0  0  0  # atno 10765 bound_to 10752
  141.0631  133.9503  157.2630 H   0  0  0  0  0  0  0  0  0  0  0  0  # atno 11005 bound_to 11000
  144.6779  140.2282  143.7358 LP  0  0  0  0  0  0  0  0  0  0  0  0  # atno 17320 bound_to 7965
  145.8298  139.2081  143.1889 LP  0  0  0  0  0  0  0  0  0  0  0  0  # atno 17321 bound_to 7965
  140.2344  143.3711  152.1539 LP  0  0  0  0  0  0  0  0  0  0  0  0  # atno 17342 bound_to 10162
  139.5218  144.7051  151.5379 LP  0  0  0  0  0  0  0  0  0  0  0  0  # atno 17343 bound_to 10162
  157.5355  130.8086  149.7967 LP  0  0  0  0  0  0  0  0  0  0  0  0  # atno 17370 bound_to 10713
  156.0153  130.3816  150.2130 LP  0  0  0  0  0  0  0  0  0  0  0  0  # atno 17371 bound_to 10713
  139.9451  135.0185  156.8826 LP  0  0  0  0  0  0  0  0  0  0  0  0  # atno 17394 bound_to 11000
  140.5829  134.0335  155.7470 LP  0  0  0  0  0  0  0  0  0  0  0  0  # atno 17395 bound_to 11000

$$$$
