#       Name:                AV-unprocessed.smi:1199
#       Creating user name   scv26
#       Creation time:       Fri Mar 27 04:04:07 2020


#       File generated by GOLD software.
#

@<TRIPOS>MOLECULE
AV-unprocessed.smi:1199
    51    52     1
SMALL
NO_CHARGES


@<TRIPOS>ATOM
      1 ****        -2.2186  -1.5920   3.2652 C.3            1 S1                 0.0000
      2 ****        -1.7057  -0.7870   2.0636 C.3            1 S1                 0.0000
      3 ****        -2.2567  -1.3447   0.7298 C.3            1 S1                 0.0000
      4 ****        -1.7066  -0.6582  -0.4683 N.4            1 S1                 1.0000
      5 ****        -1.7820  -1.4848  -1.6959 C.3            1 S1                 0.0000
      6 ****        -1.1395  -0.7454  -2.8837 C.3            1 S1                 0.0000
      7 ****        -1.7594   0.5228  -3.0585 O.3            1 S1                 0.0000
      8 ****        -1.6139   1.3502  -1.9106 C.3            1 S1                 0.0000
      9 ****        -2.3009   0.6785  -0.7110 C.3            1 S1                 0.0000
     10 ****        -0.2428  -0.7943   2.0646 N.am           1 S1                 0.0000
     11 ****         0.5474   0.2514   1.7744 C.2            1 S1                 0.0000
     12 ****         0.1196   1.3825   1.5441 O.2            1 S1                 0.0000
     13 ****         2.0537  -0.0289   1.7125 C.3            1 S1                 0.0000
     14 ****         2.6634   0.5322   0.4985 N.am           1 S1                 0.0000
     15 ****         3.3994   1.6873   0.7128 N.2            1 S1                 0.0000
     16 ****         3.9556   2.2907  -0.2827 C.2            1 S1                 0.0000
     17 ****         4.6728   3.4330  -0.0261 O.3            1 S1                 0.0000
     18 ****         3.8297   1.7831  -1.6314 C.2            1 S1                 0.0000
     19 ****         3.1168   0.6527  -1.8296 C.2            1 S1                 0.0000
     20 ****         2.4739  -0.0570  -0.7228 C.2            1 S1                 0.0000
     21 ****         1.8114  -1.0840  -0.8735 O.2            1 S1                 0.0000
     22 ****         4.6107   3.5643   0.9076 H              1 S1                 0.0000
     23 ****        -3.3081  -1.5820   3.3062 H              1 S1                 0.0000
     24 ****        -1.8516  -1.1746   4.2036 H              1 S1                 0.0000
     25 ****        -1.8974  -2.6330   3.2159 H              1 S1                 0.0000
     26 ****        -2.0657   0.2344   2.1946 H              1 S1                 0.0000
     27 ****        -1.9965  -2.4030   0.6743 H              1 S1                 0.0000
     28 ****        -3.3466  -1.2996   0.7126 H              1 S1                 0.0000
     29 ****        -1.2694  -2.4343  -1.5367 H              1 S1                 0.0000
     30 ****        -2.8255  -1.7145  -1.9176 H              1 S1                 0.0000
     31 ****        -0.0676  -0.6160  -2.7328 H              1 S1                 0.0000
     32 ****        -1.2616  -1.3271  -3.7974 H              1 S1                 0.0000
     33 ****        -0.5573   1.5319  -1.7051 H              1 S1                 0.0000
     34 ****        -2.0714   2.3188  -2.1125 H              1 S1                 0.0000
     35 ****        -3.3702   0.5764  -0.9021 H              1 S1                 0.0000
     36 ****        -2.1957   1.3115   0.1691 H              1 S1                 0.0000
     37 ****         0.2041  -1.6801   2.2544 H              1 S1                 0.0000
     38 ****         2.5158   0.3931   2.6068 H              1 S1                 0.0000
     39 ****         2.2443  -1.1029   1.7591 H              1 S1                 0.0000
     40 ****         4.3006   2.3021  -2.4535 H              1 S1                 0.0000
     41 ****         3.0161   0.2617  -2.8314 H              1 S1                 0.0000
     42 ****        -0.7229  -0.5152  -0.2866 H              1 S1                 0.0000
     43 ****        -2.7339   0.3842  -3.2351 LP             1 S1                 0.0000
     44 ****        -1.3407   0.9815  -3.8422 LP             1 S1                 0.0000
     45 ****        -0.8644   1.5594   1.5679 LP             1 S1                 0.0000
     46 ****         0.7560   2.1245   1.3333 LP             1 S1                 0.0000
     47 ****         3.4991   2.0526   1.6384 LP             1 S1                 0.0000
     48 ****         4.2787   4.2108  -0.5157 LP             1 S1                 0.0000
     49 ****         5.6273   3.3156  -0.3001 LP             1 S1                 0.0000
     50 ****         1.3841  -1.5238  -0.0835 LP             1 S1                 0.0000
     51 ****         1.7006  -1.4782  -1.7858 LP             1 S1                 0.0000
@<TRIPOS>BOND
    1    1    2 1     
    2    1   23 1     
    3    1   24 1     
    4    1   25 1     
    5    2    3 1     
    6    2   10 1     
    7    2   26 1     
    8    3    4 1     
    9    3   27 1     
   10    3   28 1     
   11    4    9 1     
   12    4    5 1     
   13    4   42 1     
   14    5    6 1     
   15    5   29 1     
   16    5   30 1     
   17    6    7 1     
   18    6   31 1     
   19    6   32 1     
   20    7    8 1     
   21    8    9 1     
   22    8   33 1     
   23    8   34 1     
   24    9   35 1     
   25    9   36 1     
   26   10   11 am    
   27   10   37 1     
   28   11   12 2     
   29   11   13 1     
   30   13   38 1     
   31   13   39 1     
   32   13   14 1     
   33   14   15 1     
   34   14   20 am    
   35   15   16 2     
   36   16   17 1     
   37   16   18 1     
   38   17   22 1     
   39   18   40 1     
   40   18   19 2     
   41   19   41 1     
   42   19   20 1     
   43   20   21 2     
   44    7   43 1     
   45    7   44 1     
   46   12   45 1     
   47   12   46 1     
   48   15   47 1     
   49   17   48 1     
   50   17   49 1     
   51   21   50 1     
   52   21   51 1     
@<TRIPOS>SUBSTRUCTURE
      1 S1             1
@<TRIPOS>SET
LONE_PAIRS      STATIC     ATOMS    <user>   **** ""
9 43 44 45 46 47 48 49 50 51
DONOR_HYDROGENS      STATIC     ATOMS    <user>   **** ""
3 42 37 22
ATOM$BLUE        STATIC     ATOMS    COLORGROUP SYSTEM
9 43 44 45 46 47 48 49 50 51
ATOM$RED        STATIC     ATOMS    COLORGROUP SYSTEM
3 42 37 22
