AV-unprocessed.smi:1138|AV-procd|sdf|4867|dock3
  -GOLD-   22720 3433D 1   1.00000     0.00000
 Structure written by MMmdl.
 50 52  0  0  0  0  0  0  0  0  2 V2000
  144.7680  131.4707  151.2136 C   0  0  0  0  0  0  0  0  0  0  0  0
  144.3821  132.6483  150.4466 N   0  0  0  0  0  0  0  0  0  0  0  0
  143.7613  132.5017  149.1350 C   0  0  0  0  0  0  0  0  0  0  0  0
  144.5861  133.9363  150.9872 C   0  0  0  0  0  0  0  0  0  0  0  0
  145.8536  134.4080  151.4089 C   0  0  0  0  0  0  0  0  0  0  0  0
  145.9780  135.7099  151.9355 C   0  0  0  0  0  0  0  0  0  0  0  0
  144.8392  136.5340  152.0491 C   0  0  0  0  0  0  0  0  0  0  0  0
  145.0190  137.8444  152.5689 N   0  0  0  0  0  0  0  0  0  0  0  0
  146.0351  138.3218  153.3080 C   0  0  0  0  0  0  0  0  0  0  0  0
  147.0364  137.6857  153.6362 O   0  0  0  0  0  0  0  0  0  0  0  0
  145.8333  139.6063  153.6339 N   0  0  0  0  0  0  0  0  0  0  0  0
  146.7462  140.4336  154.4169 C   0  0  0  0  0  0  0  0  0  0  0  0
  148.0001  140.7549  153.5747 C   0  0  0  0  0  0  0  0  0  0  0  0
  149.0835  141.4465  154.4213 C   0  0  0  0  0  0  0  0  0  0  0  0
  149.4000  140.5915  155.5716 N   0  0  0  0  0  0  0  0  0  0  0  0
  150.5528  139.8813  155.6550 C   0  0  0  0  0  0  0  0  0  0  0  0
  151.4307  139.9472  154.7933 O   0  0  0  0  0  0  0  0  0  0  0  0
  150.7347  139.0179  156.8639 C   0  0  0  0  0  0  0  0  0  0  0  0
  150.5898  139.6637  158.2300 C   0  0  0  0  0  0  0  0  0  0  0  0
  151.9550  139.2812  157.7218 C   0  0  0  0  0  0  0  0  0  0  0  0
  148.2481  140.4713  156.4763 C   0  0  0  0  0  0  0  0  0  0  0  0
  147.1188  139.7273  155.7415 C   0  0  0  0  0  0  0  0  0  0  0  0
  143.5966  136.0213  151.6068 C   0  0  0  0  0  0  0  0  0  0  0  0
  143.5230  134.7689  151.1063 N   0  3  0  0  0  0  0  0  0  0  0  0
  145.8454  131.4594  151.3821 H   0  0  0  0  0  0  0  0  0  0  0  0
  144.5029  130.5521  150.6897 H   0  0  0  0  0  0  0  0  0  0  0  0
  144.2624  131.4595  152.1798 H   0  0  0  0  0  0  0  0  0  0  0  0
  144.3247  133.0498  148.3791 H   0  0  0  0  0  0  0  0  0  0  0  0
  142.7394  132.8817  149.1510 H   0  0  0  0  0  0  0  0  0  0  0  0
  143.7257  131.4562  148.8279 H   0  0  0  0  0  0  0  0  0  0  0  0
  146.7379  133.7932  151.3332 H   0  0  0  0  0  0  0  0  0  0  0  0
  146.9463  136.0693  152.2527 H   0  0  0  0  0  0  0  0  0  0  0  0
  144.3059  138.5128  152.3155 H   0  0  0  0  0  0  0  0  0  0  0  0
  144.9832  140.0492  153.3172 H   0  0  0  0  0  0  0  0  0  0  0  0
  146.2588  141.3807  154.6567 H   0  0  0  0  0  0  0  0  0  0  0  0
  148.4116  139.8351  153.1557 H   0  0  0  0  0  0  0  0  0  0  0  0
  147.7308  141.3865  152.7274 H   0  0  0  0  0  0  0  0  0  0  0  0
  149.9559  141.6657  153.8042 H   0  0  0  0  0  0  0  0  0  0  0  0
  148.7234  142.4135  154.7753 H   0  0  0  0  0  0  0  0  0  0  0  0
  150.3732  137.9942  156.7847 H   0  0  0  0  0  0  0  0  0  0  0  0
  150.3672  140.7275  158.2932 H   0  0  0  0  0  0  0  0  0  0  0  0
  150.1504  139.0560  159.0184 H   0  0  0  0  0  0  0  0  0  0  0  0
  152.4438  138.4145  158.1617 H   0  0  0  0  0  0  0  0  0  0  0  0
  152.6243  140.0879  157.4273 H   0  0  0  0  0  0  0  0  0  0  0  0
  148.4723  139.9644  157.4136 H   0  0  0  0  0  0  0  0  0  0  0  0
  147.9107  141.4685  156.7625 H   0  0  0  0  0  0  0  0  0  0  0  0
  146.2437  139.6534  156.3882 H   0  0  0  0  0  0  0  0  0  0  0  0
  147.4396  138.7043  155.5384 H   0  0  0  0  0  0  0  0  0  0  0  0
  142.6607  136.5590  151.6178 H   0  0  0  0  0  0  0  0  0  0  0  0
  142.6114  134.4318  150.7965 H   0  0  0  0  0  0  0  0  0  0  0  0
  1  2  1  0  0  0  0
  1 25  1  0  0  0  0
  1 26  1  0  0  0  0
  1 27  1  0  0  0  0
  2  3  1  0  0  0  0
  2  4  1  0  0  0  0
  3 28  1  0  0  0  0
  3 29  1  0  0  0  0
  3 30  1  0  0  0  0
  4 24  1  0  0  0  0
  4  5  2  0  0  0  0
  5  6  1  0  0  0  0
  5 31  1  0  0  0  0
  6  7  2  0  0  0  0
  6 32  1  0  0  0  0
  7  8  1  0  0  0  0
  7 23  1  0  0  0  0
  8  9  1  0  0  0  0
  8 33  1  0  0  0  0
  9 10  2  0  0  0  0
  9 11  1  0  0  0  0
 11 12  1  0  0  0  0
 11 34  1  0  0  0  0
 12 22  1  0  0  0  0
 12 13  1  0  0  0  0
 12 35  1  0  0  0  0
 13 14  1  0  0  0  0
 13 36  1  0  0  0  0
 13 37  1  0  0  0  0
 14 15  1  0  0  0  0
 14 38  1  0  0  0  0
 14 39  1  0  0  0  0
 15 16  1  0  0  0  0
 15 21  1  0  0  0  0
 16 17  2  0  0  0  0
 16 18  1  0  0  0  0
 18 20  1  0  0  0  0
 18 19  1  0  0  0  0
 18 40  1  0  0  0  0
 19 20  1  0  0  0  0
 19 41  1  0  0  0  0
 19 42  1  0  0  0  0
 20 43  1  0  0  0  0
 20 44  1  0  0  0  0
 21 22  1  0  0  0  0
 21 45  1  0  0  0  0
 21 46  1  0  0  0  0
 22 47  1  0  0  0  0
 22 48  1  0  0  0  0
 23 24  2  0  0  0  0
 23 49  1  0  0  0  0
 24 50  1  0  0  0  0
M  CHG  1  24   1
M  END
> <s_m_source_file>
AV-unprocessed.smi

> <i_m_source_file_index>
1138

> <i_lp_mmshare_version>
43012

> <i_f3d_flags>
0

> <s_epik_input>
W0NIM11OKFtDSDNdKWMxW2NIXVtjSF1jKFtjSF1uMSlbTkhdQyg9TylbTkhdW0NIXTJbQ0gyXVtDSDJdTihbQ0gyXVtDSDJdMilDKD1PKVtDSF0zW0NIMl1bQ0gyXTM=

> <s_epik_cmdline>
J2VwaWtfcHl0aG9uJywgJy1waCcsICc3LjAnLCAnLXRuJywgJzgnLCAnLW1hJywgJzIwMCcsICctbWV0YWxfYmluZGluZycsICctaW1hZScsICc8aW5maWxlLm1hZT4nLCAnLW9tYWUnLCAnPG91dGZpbGUubWFlPic=

> <r_lp_tautomer_probability>
0.999994

> <r_epik_Ionization_Penalty>
0.25564

> <r_epik_Ionization_Penalty_Charging>
0.25562

> <r_epik_Ionization_Penalty_Neutral>
1.99621e-05

> <r_epik_State_Penalty>
0.247139

> <r_epik_Charging_Adjusted_Penalty>
0.502759

> <i_epik_Tot_Q>
1

> <i_epik_Tot_abs_Q>
1

> <r_epik_Metal_State_Penalty>
0.536902

> <b_epik_Metal_Only>
0

> <s_lp_Force_Field>
OPLS_2005

> <r_lp_Energy>
38.8624

> <b_lp_Chiralities_Consistent>
1

> <s_lp_Variant>
AV-unprocessed.smi:1138-1

> <Gold.Version>
5.8.1

> <Gold.Id.Protein>
6NUR|6NUR_protein|mol2

> <Gold.PLP.Fitness>
48.2181

> <Gold.PLP.PLP>
-35.8047

> <Gold.PLP.part.hbond>
-4.8537

> <Gold.PLP.part.metal>
0.0000

> <Gold.PLP.part.buried>
-1.6265

> <Gold.PLP.part.nonpolar>
-30.6376

> <Gold.PLP.part.repulsive>
1.1585

> <Gold.PLP.ligand.clash>
0.0000

> <Gold.PLP.ligand.torsion>
1.2524

> <Gold.PLP.Chemscore.Hbond>
4.9357

> <Gold.PLP.Chemscore.CHOScore>
0.0000

> <Gold.PLP.Chemscore.Metal>
0.0000

> <Gold.Chemscore.Hbonds>
donor molecule, donor type, donor heavy atom, donor atom, acceptor molecule, acceptor atom, score
      L1  H     8    33       P1 10175  0.94
      L1  H    11    34       P1 10175  1.00
      L1  H    24    50       P1 10186  2.00
      P1  H  7989  7998       L1    17  1.00

> <Gold.PLP.Chemscore.Internal.Correction>
0.1110

> <Gold.Rescore>
     Score         DG    S(hbond)    S(metal)    S(lipo)     H(rot)  DE(clash)    DE(int)     intcor
     16.46     -21.89       3.15        0.00      76.85       1.21       2.02       3.41       ----

> <Gold.Chemscore.Fitness>
16.4604

> <Gold.Chemscore.DG>
-21.8930

> <Gold.Chemscore.ZeroCoef>
-5.4800

> <Gold.Chemscore.Hbond>
3.1476

> <Gold.Chemscore.Metal>
0.0000

> <Gold.Chemscore.Lipo>
76.8460

> <Gold.Chemscore.Internal_Hbond>
0.0000

> <Gold.Chemscore.DEClash>
2.0208

> <Gold.Chemscore.DEInternal>
3.4119

> <Gold.Chemscore.Rot>
1.2074

> <Gold.Chemscore.Internal.Correction>
   9.000000E+99

> <Gold.Chemscore.Hbonds>
donor molecule, donor type, donor heavy atom, donor atom, acceptor molecule, acceptor atom, score
      L1  H     8    33       P1 10175  0.84
      L1  H    11    34       P1 10175  0.99
      L1  H    24    50       P1 10186  0.23
      P1  H  7989  7998       L1    17  0.98

> <Gold.Chemscore.Hbond.Weighted>
-10.5129

> <Gold.Chemscore.Metal.Weighted>
-0.0000

> <Gold.Chemscore.Lipo.Weighted>
-8.9910

> <Gold.Chemscore.Internal_Hbond.Weighted>
0.0000

> <Gold.Chemscore.DEClash.Weighted>
2.0208

> <Gold.Chemscore.DEInternal.Weighted>
3.4119

> <Gold.Chemscore.Rot.Weighted>
3.0909

> <Gold.Chemscore.Internal.Correction.Weighted>
   9.000000E+99

> <Gold.Protein.RotatedTorsions>
[ 6907 6896 6895 6894 ] final  -37.41 input  -60.11 | X-H torsion
[ 7974 7965 7964 7962 ] final  -22.49 input  175.53 | X-H torsion
[ 8008 7997 7996 7995 ] final  -25.31 input   59.86 | X-H torsion
[ 10167 10162 10161 10158 ] final  -44.22 input  -65.29 | X-H torsion
[ 10718 10713 10712 10709 ] final -102.66 input   66.30 | X-H torsion
[ 10763 10752 10751 10750 ] final -175.18 input  -60.55 | X-H torsion
[ 11005 11000 10999 10996 ] final   45.01 input  -57.11 | X-H torsion

> <Gold.Protein.ActiveResidues>
 VAL166  LYS551  ARG553  GLY616  TRP617  ASP618  TYR619  PRO620  LYS621  CYS622 
 ASP623  PHE694  ASN695  SER759  ASP760  ASP761  ALA762  ILE779  LEU786  VAL792 
 PHE793  MET794  SER795  GLU796  ALA797  LYS798  CYS799  TRP800  GLU811  SER814 

> <Gold.Protein.RotatedAtoms>
  151.0150  134.9426  159.8027 H   0  0  0  0  0  0  0  0  0  0  0  0  # atno 6907 bound_to 6896
  152.5312  134.2978  159.9077 H   0  0  0  0  0  0  0  0  0  0  0  0  # atno 6908 bound_to 6896
  151.2985  133.4091  159.2672 H   0  0  0  0  0  0  0  0  0  0  0  0  # atno 6909 bound_to 6896
  146.1672  140.4486  142.8547 H   0  0  0  0  0  0  0  0  0  0  0  0  # atno 7974 bound_to 7965
  154.4482  140.1930  156.0600 H   0  0  0  0  0  0  0  0  0  0  0  0  # atno 8008 bound_to 7997
  156.0590  140.3299  155.7412 H   0  0  0  0  0  0  0  0  0  0  0  0  # atno 8009 bound_to 7997
  155.5441  140.0589  157.2854 H   0  0  0  0  0  0  0  0  0  0  0  0  # atno 8010 bound_to 7997
  140.6905  143.2941  151.3464 H   0  0  0  0  0  0  0  0  0  0  0  0  # atno 10167 bound_to 10162
  156.0237  130.5430  150.7140 H   0  0  0  0  0  0  0  0  0  0  0  0  # atno 10718 bound_to 10713
  154.5875  135.2842  155.0670 H   0  0  0  0  0  0  0  0  0  0  0  0  # atno 10763 bound_to 10752
  154.1983  135.6429  153.5083 H   0  0  0  0  0  0  0  0  0  0  0  0  # atno 10764 bound_to 10752
  153.0109  135.5463  154.6549 H   0  0  0  0  0  0  0  0  0  0  0  0  # atno 10765 bound_to 10752
  140.1498  134.4475  155.8389 H   0  0  0  0  0  0  0  0  0  0  0  0  # atno 11005 bound_to 11000
  144.8110  140.6386  143.6415 LP  0  0  0  0  0  0  0  0  0  0  0  0  # atno 17320 bound_to 7965
  145.4435  139.1532  143.3957 LP  0  0  0  0  0  0  0  0  0  0  0  0  # atno 17321 bound_to 7965
  139.6303  144.0734  152.2470 LP  0  0  0  0  0  0  0  0  0  0  0  0  # atno 17342 bound_to 10162
  140.0207  144.6155  150.7569 LP  0  0  0  0  0  0  0  0  0  0  0  0  # atno 17343 bound_to 10162
  157.4772  131.0899  151.0577 LP  0  0  0  0  0  0  0  0  0  0  0  0  # atno 17370 bound_to 10713
  157.1021  130.5986  149.5462 LP  0  0  0  0  0  0  0  0  0  0  0  0  # atno 17371 bound_to 10713
  141.2197  133.6868  156.7401 LP  0  0  0  0  0  0  0  0  0  0  0  0  # atno 17394 bound_to 11000
  140.2618  134.8461  157.3766 LP  0  0  0  0  0  0  0  0  0  0  0  0  # atno 17395 bound_to 11000

$$$$
