AV-unprocessed.smi:1884|AV-procd|sdf|7649|dock7
  -GOLD-   22720 9383D 1   1.00000     0.00000
 Structure written by MMmdl.
 41 43  0  0  0  0  0  0  0  0  2 V2000
  149.6106  141.2706  155.2971 C   0  0  0  0  0  0  0  0  0  0  0  0
  150.4548  141.7519  156.4289 C   0  0  0  0  0  0  0  0  0  0  0  0
  150.5400  143.0362  156.8769 N   0  3  0  0  0  0  0  0  0  0  0  0
  151.4281  143.1036  157.9514 C   0  0  0  0  0  0  0  0  0  0  0  0
  151.8364  144.1829  158.7290 C   0  0  0  0  0  0  0  0  0  0  0  0
  152.7682  143.9092  159.7518 C   0  0  0  0  0  0  0  0  0  0  0  0
  153.2567  142.6047  159.9703 C   0  0  0  0  0  0  0  0  0  0  0  0
  152.8320  141.5176  159.1780 C   0  0  0  0  0  0  0  0  0  0  0  0
  151.9102  141.7963  158.1690 C   0  0  0  0  0  0  0  0  0  0  0  0
  151.2797  140.9958  157.2083 N   0  0  0  0  0  0  0  0  0  0  0  0
  151.5568  139.5513  157.1658 C   0  0  0  0  0  0  0  0  0  0  0  0
  151.9544  139.0591  155.7597 C   0  0  1  0  0  0  0  0  0  0  0  0
  153.3437  138.8189  155.6605 O   0  0  0  0  0  0  0  0  0  0  0  0
  151.1892  137.8044  155.3082 C   0  0  0  0  0  0  0  0  0  0  0  0
  151.4030  136.7435  156.2317 O   0  0  0  0  0  0  0  0  0  0  0  0
  150.9660  135.4817  155.8905 C   0  0  0  0  0  0  0  0  0  0  0  0
  151.5076  134.3994  156.6143 C   0  0  0  0  0  0  0  0  0  0  0  0
  151.1179  133.0755  156.3337 C   0  0  0  0  0  0  0  0  0  0  0  0
  150.1749  132.8185  155.3192 C   0  0  0  0  0  0  0  0  0  0  0  0
  149.7699  131.4538  155.0266 C   0  0  0  0  0  0  0  0  0  0  0  0
  149.4473  130.3673  154.7934 N   0  0  0  0  0  0  0  0  0  0  0  0
  149.6259  133.8912  154.5892 C   0  0  0  0  0  0  0  0  0  0  0  0
  150.0172  135.2148  154.8711 C   0  0  0  0  0  0  0  0  0  0  0  0
  149.0760  142.1017  154.8366 H   0  0  0  0  0  0  0  0  0  0  0  0
  148.8809  140.5439  155.6546 H   0  0  0  0  0  0  0  0  0  0  0  0
  150.2324  140.7956  154.5382 H   0  0  0  0  0  0  0  0  0  0  0  0
  151.4643  145.1832  158.5627 H   0  0  0  0  0  0  0  0  0  0  0  0
  153.1163  144.7162  160.3801 H   0  0  0  0  0  0  0  0  0  0  0  0
  153.9726  142.4333  160.7613 H   0  0  0  0  0  0  0  0  0  0  0  0
  153.2161  140.5233  159.3521 H   0  0  0  0  0  0  0  0  0  0  0  0
  152.3209  139.3133  157.9058 H   0  0  0  0  0  0  0  0  0  0  0  0
  150.6516  139.0389  157.4932 H   0  0  0  0  0  0  0  0  0  0  0  0
  151.7369  139.8519  155.0431 H   0  0  0  0  0  0  0  0  0  0  0  0
  153.5079  137.9149  155.8807 H   0  0  0  0  0  0  0  0  0  0  0  0
  150.1241  138.0389  155.2779 H   0  0  0  0  0  0  0  0  0  0  0  0
  151.4947  137.5164  154.3006 H   0  0  0  0  0  0  0  0  0  0  0  0
  152.2313  134.5863  157.3940 H   0  0  0  0  0  0  0  0  0  0  0  0
  151.5468  132.2619  156.9011 H   0  0  0  0  0  0  0  0  0  0  0  0
  148.9016  133.7062  153.8087 H   0  0  0  0  0  0  0  0  0  0  0  0
  149.5729  136.0083  154.2902 H   0  0  0  0  0  0  0  0  0  0  0  0
  150.0258  143.8096  156.4752 H   0  0  0  0  0  0  0  0  0  0  0  0
  1  2  1  0  0  0  0
  1 24  1  0  0  0  0
  1 25  1  0  0  0  0
  1 26  1  0  0  0  0
  2 10  1  0  0  0  0
  2  3  2  0  0  0  0
  3  4  1  0  0  0  0
  3 41  1  0  0  0  0
  4  9  2  0  0  0  0
  4  5  1  0  0  0  0
  5  6  2  0  0  0  0
  5 27  1  0  0  0  0
  6  7  1  0  0  0  0
  6 28  1  0  0  0  0
  7  8  2  0  0  0  0
  7 29  1  0  0  0  0
  8  9  1  0  0  0  0
  8 30  1  0  0  0  0
  9 10  1  0  0  0  0
 10 11  1  0  0  0  0
 11 12  1  0  0  0  0
 11 31  1  0  0  0  0
 11 32  1  0  0  0  0
 12 13  1  0  0  0  0
 12 14  1  0  0  0  0
 12 33  1  0  0  0  0
 13 34  1  0  0  0  0
 14 15  1  0  0  0  0
 14 35  1  0  0  0  0
 14 36  1  0  0  0  0
 15 16  1  0  0  0  0
 16 23  1  0  0  0  0
 16 17  2  0  0  0  0
 17 18  1  0  0  0  0
 17 37  1  0  0  0  0
 18 19  2  0  0  0  0
 18 38  1  0  0  0  0
 19 20  1  0  0  0  0
 19 22  1  0  0  0  0
 20 21  3  0  0  0  0
 22 23  2  0  0  0  0
 22 39  1  0  0  0  0
 23 40  1  0  0  0  0
M  CHG  1   3   1
M  END
> <s_m_source_file>
AV-unprocessed.smi

> <i_m_source_file_index>
1884

> <i_lp_mmshare_version>
43012

> <i_f3d_flags>
0

> <s_epik_input>
W2NIXTFbY0hdW2NIXVtjSF1jKGMxMiluKGMobjIpW0NIM10pW0NIMl1bQ0BIXShbT0hdKVtDSDJdT2MzW2NIXVtjSF1jKEMjTilbY0hdW2NIXTM=

> <s_epik_cmdline>
J2VwaWtfcHl0aG9uJywgJy1waCcsICc3LjAnLCAnLXRuJywgJzgnLCAnLW1hJywgJzIwMCcsICctbWV0YWxfYmluZGluZycsICctaW1hZScsICc8aW5maWxlLm1hZT4nLCAnLW9tYWUnLCAnPG91dGZpbGUubWFlPic=

> <r_epik_Ionization_Penalty>
1.04791

> <r_epik_Ionization_Penalty_Charging>
1.04791

> <r_epik_Ionization_Penalty_Neutral>
2.3993e-06

> <r_epik_State_Penalty>
1.10051

> <r_epik_Charging_Adjusted_Penalty>
2.14841

> <i_epik_Tot_Q>
1

> <i_epik_Tot_abs_Q>
1

> <r_epik_Metal_State_Penalty>
5.09283

> <b_epik_Metal_Only>
0

> <s_lp_Force_Field>
OPLS_2005

> <r_lp_Energy>
19.6719

> <b_lp_Chiralities_Consistent>
1

> <s_lp_Variant>
AV-unprocessed.smi:1884-4

> <Gold.Version>
5.8.1

> <Gold.Id.Protein>
6NUR|6NUR_protein|mol2

> <Gold.PLP.Fitness>
55.5370

> <Gold.PLP.PLP>
-48.5451

> <Gold.PLP.part.hbond>
-2.0000

> <Gold.PLP.part.metal>
0.0000

> <Gold.PLP.part.buried>
-5.3853

> <Gold.PLP.part.nonpolar>
-41.7895

> <Gold.PLP.part.repulsive>
0.0886

> <Gold.PLP.ligand.clash>
0.0000

> <Gold.PLP.ligand.torsion>
0.9998

> <Gold.PLP.Chemscore.Hbond>
2.9760

> <Gold.PLP.Chemscore.CHOScore>
0.0000

> <Gold.PLP.Chemscore.Metal>
0.0000

> <Gold.Chemscore.Hbonds>
donor molecule, donor type, donor heavy atom, donor atom, acceptor molecule, acceptor atom, score
      L1  H     3    41       P1  8028  2.00
      P1  H  7997  8010       L1    13  1.00

> <Gold.PLP.Chemscore.Internal.Correction>
0.0636

> <Gold.Rescore>
     Score         DG    S(hbond)    S(metal)    S(lipo)     H(rot)  DE(clash)    DE(int)     intcor
     18.96     -19.90       1.93        0.00     120.57       2.39       0.00       0.94       ----

> <Gold.Chemscore.Fitness>
18.9607

> <Gold.Chemscore.DG>
-19.8964

> <Gold.Chemscore.ZeroCoef>
-5.4800

> <Gold.Chemscore.Hbond>
1.9260

> <Gold.Chemscore.Metal>
0.0000

> <Gold.Chemscore.Lipo>
120.5669

> <Gold.Chemscore.Internal_Hbond>
0.0000

> <Gold.Chemscore.DEClash>
0.0000

> <Gold.Chemscore.DEInternal>
0.9357

> <Gold.Chemscore.Rot>
2.3917

> <Gold.Chemscore.Internal.Correction>
   9.000000E+99

> <Gold.Chemscore.Hbonds>
donor molecule, donor type, donor heavy atom, donor atom, acceptor molecule, acceptor atom, score
      L1  H     3    41       P1  8028  1.00
      P1  H  7997  8010       L1    13  0.88

> <Gold.Chemscore.Hbond.Weighted>
-6.4330

> <Gold.Chemscore.Metal.Weighted>
-0.0000

> <Gold.Chemscore.Lipo.Weighted>
-14.1063

> <Gold.Chemscore.Internal_Hbond.Weighted>
0.0000

> <Gold.Chemscore.DEClash.Weighted>
0.0000

> <Gold.Chemscore.DEInternal.Weighted>
0.9357

> <Gold.Chemscore.Rot.Weighted>
6.1229

> <Gold.Chemscore.Internal.Correction.Weighted>
   9.000000E+99

> <Gold.Protein.RotatedTorsions>
[ 6907 6896 6895 6894 ] final -147.41 input  -60.11 | X-H torsion
[ 7974 7965 7964 7962 ] final   18.03 input  175.53 | X-H torsion
[ 8008 7997 7996 7995 ] final   86.97 input   59.86 | X-H torsion
[ 10167 10162 10161 10158 ] final   55.24 input  -65.29 | X-H torsion
[ 10718 10713 10712 10709 ] final  -58.26 input   66.30 | X-H torsion
[ 10763 10752 10751 10750 ] final   97.14 input  -60.55 | X-H torsion
[ 11005 11000 10999 10996 ] final   75.24 input  -57.11 | X-H torsion

> <Gold.Protein.ActiveResidues>
 VAL166  LYS551  ARG553  GLY616  TRP617  ASP618  TYR619  PRO620  LYS621  CYS622 
 ASP623  PHE694  ASN695  SER759  ASP760  ASP761  ALA762  ILE779  LEU786  VAL792 
 PHE793  MET794  SER795  GLU796  ALA797  LYS798  CYS799  TRP800  GLU811  SER814 

> <Gold.Protein.RotatedAtoms>
  151.1552  133.4881  159.2594 H   0  0  0  0  0  0  0  0  0  0  0  0  # atno 6907 bound_to 6896
  151.1511  135.0227  159.8679 H   0  0  0  0  0  0  0  0  0  0  0  0  # atno 6908 bound_to 6896
  152.5463  134.1436  159.8542 H   0  0  0  0  0  0  0  0  0  0  0  0  # atno 6909 bound_to 6896
  146.2199  139.8517  142.8621 H   0  0  0  0  0  0  0  0  0  0  0  0  # atno 7974 bound_to 7965
  155.9695  140.3387  155.6562 H   0  0  0  0  0  0  0  0  0  0  0  0  # atno 8008 bound_to 7997
  155.6693  140.0725  157.2544 H   0  0  0  0  0  0  0  0  0  0  0  0  # atno 8009 bound_to 7997
  154.4163  140.1694  156.1849 H   0  0  0  0  0  0  0  0  0  0  0  0  # atno 8010 bound_to 7997
  140.2215  144.3783  150.6449 H   0  0  0  0  0  0  0  0  0  0  0  0  # atno 10167 bound_to 10162
  156.1148  130.4171  150.0553 H   0  0  0  0  0  0  0  0  0  0  0  0  # atno 10718 bound_to 10713
  153.2734  135.4193  155.1009 H   0  0  0  0  0  0  0  0  0  0  0  0  # atno 10763 bound_to 10752
  154.8464  135.3477  154.6213 H   0  0  0  0  0  0  0  0  0  0  0  0  # atno 10764 bound_to 10752
  153.6633  135.7047  153.5228 H   0  0  0  0  0  0  0  0  0  0  0  0  # atno 10765 bound_to 10752
  139.9353  134.7500  156.1246 H   0  0  0  0  0  0  0  0  0  0  0  0  # atno 11005 bound_to 11000
  145.2795  141.0134  143.3726 LP  0  0  0  0  0  0  0  0  0  0  0  0  # atno 17320 bound_to 7965
  144.9161  139.4468  143.6563 LP  0  0  0  0  0  0  0  0  0  0  0  0  # atno 17321 bound_to 7965
  140.6251  143.2180  151.6613 LP  0  0  0  0  0  0  0  0  0  0  0  0  # atno 17342 bound_to 10162
  139.5142  144.3417  152.0734 LP  0  0  0  0  0  0  0  0  0  0  0  0  # atno 17343 bound_to 10162
  156.8507  130.9458  151.3625 LP  0  0  0  0  0  0  0  0  0  0  0  0  # atno 17370 bound_to 10713
  157.6331  130.8745  149.9310 LP  0  0  0  0  0  0  0  0  0  0  0  0  # atno 17371 bound_to 10713
  141.0964  133.6694  156.2654 LP  0  0  0  0  0  0  0  0  0  0  0  0  # atno 17394 bound_to 11000
  140.6092  134.5476  157.5531 LP  0  0  0  0  0  0  0  0  0  0  0  0  # atno 17395 bound_to 11000

$$$$
