AV-unprocessed.smi:2172|AV-procd|sdf|8836|dock7
  -GOLD-   2272012 33D 1   1.00000     0.00000
 Structure written by MMmdl.
 37 39  0  0  0  0  0  0  0  0  2 V2000
  152.1810  137.2477  153.7498 O   0  0  0  0  0  0  0  0  0  0  0  0
  151.4024  137.5719  154.8804 C   0  0  0  0  0  0  0  0  0  0  0  0
  150.2936  138.5167  154.5516 C   0  0  0  0  0  0  0  0  0  0  0  0
  149.2186  138.2333  153.7638 N   0  3  0  0  0  0  0  0  0  0  0  0
  148.4019  139.3589  153.6545 C   0  0  0  0  0  0  0  0  0  0  0  0
  147.2131  139.5551  152.9586 C   0  0  0  0  0  0  0  0  0  0  0  0
  146.6323  140.8371  153.0465 C   0  0  0  0  0  0  0  0  0  0  0  0
  147.2310  141.8628  153.8059 C   0  0  0  0  0  0  0  0  0  0  0  0
  148.4338  141.6501  154.5108 C   0  0  0  0  0  0  0  0  0  0  0  0
  149.0049  140.3803  154.4172 C   0  0  0  0  0  0  0  0  0  0  0  0
  150.1710  139.8159  154.9518 N   0  0  0  0  0  0  0  0  0  0  0  0
  151.0592  140.6354  155.7940 C   0  0  0  0  0  0  0  0  0  0  0  0
  151.1242  140.1295  157.2493 C   0  0  2  0  0  0  0  0  0  0  0  0
  149.9151  139.4585  157.5374 O   0  0  0  0  0  0  0  0  0  0  0  0
  151.4163  141.2485  158.2392 C   0  0  0  0  0  0  0  0  0  0  0  0
  150.5748  142.3808  158.2866 C   0  0  0  0  0  0  0  0  0  0  0  0
  150.8146  143.4057  159.2221 C   0  0  0  0  0  0  0  0  0  0  0  0
  151.8994  143.3055  160.1146 C   0  0  0  0  0  0  0  0  0  0  0  0
  152.1904  144.5584  161.2642 Cl  0  0  0  0  0  0  0  0  0  0  0  0
  152.7445  142.1798  160.0700 C   0  0  0  0  0  0  0  0  0  0  0  0
  152.5040  141.1542  159.1355 C   0  0  0  0  0  0  0  0  0  0  0  0
  151.6003  137.0192  153.0398 H   0  0  0  0  0  0  0  0  0  0  0  0
  150.9840  136.6555  155.2969 H   0  0  0  0  0  0  0  0  0  0  0  0
  152.0452  138.0054  155.6464 H   0  0  0  0  0  0  0  0  0  0  0  0
  146.7538  138.7712  152.3744 H   0  0  0  0  0  0  0  0  0  0  0  0
  145.7105  141.0382  152.5201 H   0  0  0  0  0  0  0  0  0  0  0  0
  146.7591  142.8337  153.8488 H   0  0  0  0  0  0  0  0  0  0  0  0
  148.8817  142.4479  155.0838 H   0  0  0  0  0  0  0  0  0  0  0  0
  152.0512  140.6870  155.3455 H   0  0  0  0  0  0  0  0  0  0  0  0
  150.6699  141.6536  155.7702 H   0  0  0  0  0  0  0  0  0  0  0  0
  151.9137  139.3817  157.3303 H   0  0  0  0  0  0  0  0  0  0  0  0
  149.6639  138.9541  156.7785 H   0  0  0  0  0  0  0  0  0  0  0  0
  149.7347  142.4612  157.6120 H   0  0  0  0  0  0  0  0  0  0  0  0
  150.1636  144.2669  159.2551 H   0  0  0  0  0  0  0  0  0  0  0  0
  153.5761  142.0996  160.7547 H   0  0  0  0  0  0  0  0  0  0  0  0
  153.1517  140.2898  159.1169 H   0  0  0  0  0  0  0  0  0  0  0  0
  149.0628  137.3347  153.3257 H   0  0  0  0  0  0  0  0  0  0  0  0
  1  2  1  0  0  0  0
  1 22  1  0  0  0  0
  2  3  1  0  0  0  0
  2 23  1  0  0  0  0
  2 24  1  0  0  0  0
  3 11  1  0  0  0  0
  3  4  2  0  0  0  0
  4  5  1  0  0  0  0
  4 37  1  0  0  0  0
  5 10  2  0  0  0  0
  5  6  1  0  0  0  0
  6  7  2  0  0  0  0
  6 25  1  0  0  0  0
  7  8  1  0  0  0  0
  7 26  1  0  0  0  0
  8  9  2  0  0  0  0
  8 27  1  0  0  0  0
  9 10  1  0  0  0  0
  9 28  1  0  0  0  0
 10 11  1  0  0  0  0
 11 12  1  0  0  0  0
 12 13  1  0  0  0  0
 12 29  1  0  0  0  0
 12 30  1  0  0  0  0
 13 14  1  0  0  0  0
 13 15  1  0  0  0  0
 13 31  1  0  0  0  0
 14 32  1  0  0  0  0
 15 21  1  0  0  0  0
 15 16  2  0  0  0  0
 16 17  1  0  0  0  0
 16 33  1  0  0  0  0
 17 18  2  0  0  0  0
 17 34  1  0  0  0  0
 18 19  1  0  0  0  0
 18 20  1  0  0  0  0
 20 21  2  0  0  0  0
 20 35  1  0  0  0  0
 21 36  1  0  0  0  0
M  CHG  1   4   1
M  END
> <s_m_source_file>
AV-unprocessed.smi

> <i_m_source_file_index>
2172

> <i_lp_mmshare_version>
43012

> <i_f3d_flags>
0

> <s_epik_input>
W2NIXTFbY0hdW2NIXVtjSF1jKGMxMiluKGMobjIpW0NIMl1bT0hdKVtDSDJdW0NASF0oW09IXSljM1tjSF1bY0hdYyhDbClbY0hdW2NIXTM=

> <s_epik_cmdline>
J2VwaWtfcHl0aG9uJywgJy1waCcsICc3LjAnLCAnLXRuJywgJzgnLCAnLW1hJywgJzIwMCcsICctbWV0YWxfYmluZGluZycsICctaW1hZScsICc8aW5maWxlLm1hZT4nLCAnLW9tYWUnLCAnPG91dGZpbGUubWFlPic=

> <r_epik_Ionization_Penalty>
1.35643

> <r_epik_Ionization_Penalty_Charging>
1.35557

> <r_epik_Ionization_Penalty_Neutral>
0.000858184

> <r_epik_State_Penalty>
1.43401

> <r_epik_Charging_Adjusted_Penalty>
2.78958

> <i_epik_Tot_Q>
1

> <i_epik_Tot_abs_Q>
1

> <r_epik_Metal_State_Penalty>
5.47166

> <b_epik_Metal_Only>
0

> <s_lp_Force_Field>
OPLS_2005

> <r_lp_Energy>
15.2583

> <b_lp_Chiralities_Consistent>
1

> <s_lp_Variant>
AV-unprocessed.smi:2172-3

> <Gold.Version>
5.8.1

> <Gold.Id.Protein>
6NUR|6NUR_protein|mol2

> <Gold.PLP.Fitness>
56.3032

> <Gold.PLP.PLP>
-45.3811

> <Gold.PLP.part.hbond>
-3.4292

> <Gold.PLP.part.metal>
0.0000

> <Gold.PLP.part.buried>
-0.4521

> <Gold.PLP.part.nonpolar>
-42.2879

> <Gold.PLP.part.repulsive>
0.0402

> <Gold.PLP.ligand.clash>
0.0000

> <Gold.PLP.ligand.torsion>
0.5474

> <Gold.PLP.Chemscore.Hbond>
4.0000

> <Gold.PLP.Chemscore.CHOScore>
0.0000

> <Gold.PLP.Chemscore.Metal>
0.0000

> <Gold.Chemscore.Hbonds>
donor molecule, donor type, donor heavy atom, donor atom, acceptor molecule, acceptor atom, score
      L1  H     1    22       P1  7949  1.00
      L1  H     4    37       P1  7948  2.00
      P1  H 10752 10765       L1     1  1.00

> <Gold.PLP.Chemscore.Internal.Correction>
0.0170

> <Gold.Rescore>
     Score         DG    S(hbond)    S(metal)    S(lipo)     H(rot)  DE(clash)    DE(int)     intcor
     20.21     -21.65       2.48        0.00     126.50       2.70       0.95       0.49       ----

> <Gold.Chemscore.Fitness>
20.2073

> <Gold.Chemscore.DG>
-21.6454

> <Gold.Chemscore.ZeroCoef>
-5.4800

> <Gold.Chemscore.Hbond>
2.4752

> <Gold.Chemscore.Metal>
0.0000

> <Gold.Chemscore.Lipo>
126.5018

> <Gold.Chemscore.Internal_Hbond>
0.0000

> <Gold.Chemscore.DEClash>
0.9493

> <Gold.Chemscore.DEInternal>
0.4888

> <Gold.Chemscore.Rot>
2.6963

> <Gold.Chemscore.Internal.Correction>
   9.000000E+99

> <Gold.Chemscore.Hbonds>
donor molecule, donor type, donor heavy atom, donor atom, acceptor molecule, acceptor atom, score
      L1  H     1    22       P1  7949  0.91
      L1  H     4    37       P1  7948  0.96
      P1  H 10752 10765       L1     1  0.22

> <Gold.Chemscore.Hbond.Weighted>
-8.2671

> <Gold.Chemscore.Metal.Weighted>
-0.0000

> <Gold.Chemscore.Lipo.Weighted>
-14.8007

> <Gold.Chemscore.Internal_Hbond.Weighted>
0.0000

> <Gold.Chemscore.DEClash.Weighted>
0.9493

> <Gold.Chemscore.DEInternal.Weighted>
0.4888

> <Gold.Chemscore.Rot.Weighted>
6.9024

> <Gold.Chemscore.Internal.Correction.Weighted>
   9.000000E+99

> <Gold.Protein.RotatedTorsions>
[ 6907 6896 6895 6894 ] final -128.22 input  -60.11 | X-H torsion
[ 7974 7965 7964 7962 ] final  171.82 input  175.53 | X-H torsion
[ 8008 7997 7996 7995 ] final  109.40 input   59.86 | X-H torsion
[ 10167 10162 10161 10158 ] final  115.29 input  -65.29 | X-H torsion
[ 10718 10713 10712 10709 ] final   29.86 input   66.30 | X-H torsion
[ 10763 10752 10751 10750 ] final  143.20 input  -60.55 | X-H torsion
[ 11005 11000 10999 10996 ] final  109.44 input  -57.11 | X-H torsion

> <Gold.Protein.ActiveResidues>
 VAL166  LYS551  ARG553  GLY616  TRP617  ASP618  TYR619  PRO620  LYS621  CYS622 
 ASP623  PHE694  ASN695  SER759  ASP760  ASP761  ALA762  ILE779  LEU786  VAL792 
 PHE793  MET794  SER795  GLU796  ALA797  LYS798  CYS799  TRP800  GLU811  SER814 

> <Gold.Protein.RotatedAtoms>
  150.9155  133.6944  159.2844 H   0  0  0  0  0  0  0  0  0  0  0  0  # atno 6907 bound_to 6896
  151.4416  135.1019  159.9681 H   0  0  0  0  0  0  0  0  0  0  0  0  # atno 6908 bound_to 6896
  152.4953  133.8562  159.7282 H   0  0  0  0  0  0  0  0  0  0  0  0  # atno 6909 bound_to 6896
  144.7284  139.9406  143.6428 H   0  0  0  0  0  0  0  0  0  0  0  0  # atno 7974 bound_to 7965
  156.1976  140.3058  155.9460 H   0  0  0  0  0  0  0  0  0  0  0  0  # atno 8008 bound_to 7997
  155.3029  140.0447  157.3047 H   0  0  0  0  0  0  0  0  0  0  0  0  # atno 8009 bound_to 7997
  154.5530  140.2297  155.8464 H   0  0  0  0  0  0  0  0  0  0  0  0  # atno 8010 bound_to 7997
  139.6327  144.7116  151.2398 H   0  0  0  0  0  0  0  0  0  0  0  0  # atno 10167 bound_to 10162
  157.2520  130.7120  149.6410 H   0  0  0  0  0  0  0  0  0  0  0  0  # atno 10718 bound_to 10713
  153.9684  135.2953  155.3429 H   0  0  0  0  0  0  0  0  0  0  0  0  # atno 10763 bound_to 10752
  154.7336  135.5056  153.9008 H   0  0  0  0  0  0  0  0  0  0  0  0  # atno 10764 bound_to 10752
  153.0912  135.6708  153.9962 H   0  0  0  0  0  0  0  0  0  0  0  0  # atno 10765 bound_to 10752
  139.8862  134.9458  156.6126 H   0  0  0  0  0  0  0  0  0  0  0  0  # atno 11005 bound_to 11000
  146.0787  139.3775  143.0478 LP  0  0  0  0  0  0  0  0  0  0  0  0  # atno 17320 bound_to 7965
  145.7870  140.9831  143.1069 LP  0  0  0  0  0  0  0  0  0  0  0  0  # atno 17321 bound_to 7965
  140.7448  143.6450  150.8300 LP  0  0  0  0  0  0  0  0  0  0  0  0  # atno 17342 bound_to 10162
  140.0078  143.5675  152.2851 LP  0  0  0  0  0  0  0  0  0  0  0  0  # atno 17343 bound_to 10162
  155.9666  130.4424  150.5381 LP  0  0  0  0  0  0  0  0  0  0  0  0  # atno 17370 bound_to 10713
  157.3267  131.0692  151.1891 LP  0  0  0  0  0  0  0  0  0  0  0  0  # atno 17371 bound_to 10713
  140.7800  133.8668  155.8560 LP  0  0  0  0  0  0  0  0  0  0  0  0  # atno 17394 bound_to 11000
  140.9768  134.1458  157.4529 LP  0  0  0  0  0  0  0  0  0  0  0  0  # atno 17395 bound_to 11000

$$$$
