AV-unprocessed.smi:1887|AV-procd|sdf|7655|dock5
  -GOLD-   22720 9393D 1   1.00000     0.00000
 Structure written by MMmdl.
 44 46  0  0  0  0  0  0  0  0  1 V2000
  153.0553  137.4913  159.8872 C   0  0  0  0  0  0  0  0  0  0  0  0
  152.0100  136.9673  159.0889 O   0  0  0  0  0  0  0  0  0  0  0  0
  152.3287  136.9545  157.7076 C   0  0  0  0  0  0  0  0  0  0  0  0
  152.7467  138.3631  157.2641 C   0  0  0  0  0  0  0  0  0  0  0  0
  151.5997  139.1790  156.8754 N   0  0  0  0  0  0  0  0  0  0  0  0
  151.1614  140.3390  157.4304 C   0  0  0  0  0  0  0  0  0  0  0  0
  151.8238  140.9311  158.5260 N   0  0  0  0  0  0  0  0  0  0  0  0
  152.6357  140.1890  159.3070 N   0  0  0  0  0  0  0  0  0  0  0  0
  153.0757  141.0257  160.2314 C   0  0  0  0  0  0  0  0  0  0  0  0
  154.0324  140.5200  161.2724 C   0  0  0  0  0  0  0  0  0  0  0  0
  152.5379  142.3370  160.0785 C   0  0  0  0  0  0  0  0  0  0  0  0
  152.8006  143.5407  160.9417 C   0  0  0  0  0  0  0  0  0  0  0  0
  151.7362  142.2370  158.9735 C   0  0  0  0  0  0  0  0  0  0  0  0
  150.8881  143.2676  158.2967 C   0  0  0  0  0  0  0  0  0  0  0  0
  150.0909  140.8779  156.8404 N   0  0  0  0  0  0  0  0  0  0  0  0
  149.8191  139.9782  155.8196 C   0  0  0  0  0  0  0  0  0  0  0  0
  150.7155  138.9584  155.8201 C   0  0  0  0  0  0  0  0  0  0  0  0
  150.6807  137.8755  154.8296 C   0  0  0  0  0  0  0  0  0  0  0  0
  151.4895  136.9502  154.8088 O   0  0  0  0  0  0  0  0  0  0  0  0
  149.6700  138.0060  153.9363 N   0  0  0  0  0  0  0  0  0  0  0  0
  148.7346  139.0028  153.8788 C   0  0  0  0  0  0  0  0  0  0  0  0
  147.8747  138.9889  152.9983 O   0  0  0  0  0  0  0  0  0  0  0  0
  148.8009  139.9950  154.8237 N   0  0  0  0  0  0  0  0  0  0  0  0
  147.8267  141.0878  154.8072 C   0  0  0  0  0  0  0  0  0  0  0  0
  149.6009  137.2878  153.2303 H   0  0  0  0  0  0  0  0  0  0  0  0
  152.7572  137.4735  160.9355 H   0  0  0  0  0  0  0  0  0  0  0  0
  153.2770  138.5246  159.6176 H   0  0  0  0  0  0  0  0  0  0  0  0
  153.9650  136.8983  159.7849 H   0  0  0  0  0  0  0  0  0  0  0  0
  153.1360  136.2458  157.5168 H   0  0  0  0  0  0  0  0  0  0  0  0
  151.4637  136.6271  157.1291 H   0  0  0  0  0  0  0  0  0  0  0  0
  153.2887  138.8698  158.0618 H   0  0  0  0  0  0  0  0  0  0  0  0
  153.4487  138.2946  156.4348 H   0  0  0  0  0  0  0  0  0  0  0  0
  154.2665  141.2889  162.0084 H   0  0  0  0  0  0  0  0  0  0  0  0
  154.9711  140.2018  160.8183 H   0  0  0  0  0  0  0  0  0  0  0  0
  153.6150  139.6672  161.8082 H   0  0  0  0  0  0  0  0  0  0  0  0
  152.0841  144.3416  160.7600 H   0  0  0  0  0  0  0  0  0  0  0  0
  153.7943  143.9518  160.7636 H   0  0  0  0  0  0  0  0  0  0  0  0
  152.7384  143.2971  162.0024 H   0  0  0  0  0  0  0  0  0  0  0  0
  151.3067  144.2653  158.4284 H   0  0  0  0  0  0  0  0  0  0  0  0
  149.8794  143.2663  158.7099 H   0  0  0  0  0  0  0  0  0  0  0  0
  150.8130  143.0848  157.2247 H   0  0  0  0  0  0  0  0  0  0  0  0
  146.8081  140.6973  154.8349 H   0  0  0  0  0  0  0  0  0  0  0  0
  147.9393  141.6825  153.8997 H   0  0  0  0  0  0  0  0  0  0  0  0
  147.9375  141.7611  155.6572 H   0  0  0  0  0  0  0  0  0  0  0  0
  1  2  1  0  0  0  0
  1 26  1  0  0  0  0
  1 27  1  0  0  0  0
  1 28  1  0  0  0  0
  2  3  1  0  0  0  0
  3  4  1  0  0  0  0
  3 29  1  0  0  0  0
  3 30  1  0  0  0  0
  4  5  1  0  0  0  0
  4 31  1  0  0  0  0
  4 32  1  0  0  0  0
  5 17  1  0  0  0  0
  5  6  1  0  0  0  0
  6  7  1  0  0  0  0
  6 15  2  0  0  0  0
  7 13  1  0  0  0  0
  7  8  1  0  0  0  0
  8  9  2  0  0  0  0
  9 10  1  0  0  0  0
  9 11  1  0  0  0  0
 10 33  1  0  0  0  0
 10 34  1  0  0  0  0
 10 35  1  0  0  0  0
 11 12  1  0  0  0  0
 11 13  2  0  0  0  0
 12 36  1  0  0  0  0
 12 37  1  0  0  0  0
 12 38  1  0  0  0  0
 13 14  1  0  0  0  0
 14 39  1  0  0  0  0
 14 40  1  0  0  0  0
 14 41  1  0  0  0  0
 15 16  1  0  0  0  0
 16 23  1  0  0  0  0
 16 17  2  0  0  0  0
 17 18  1  0  0  0  0
 18 19  2  0  0  0  0
 18 20  1  0  0  0  0
 20 25  1  0  0  0  0
 20 21  1  0  0  0  0
 21 22  2  0  0  0  0
 21 23  1  0  0  0  0
 23 24  1  0  0  0  0
 24 42  1  0  0  0  0
 24 43  1  0  0  0  0
 24 44  1  0  0  0  0
M  END
> <s_m_source_file>
AV-unprocessed.smi

> <i_m_source_file_index>
1887

> <i_lp_mmshare_version>
43012

> <i_f3d_flags>
0

> <s_epik_input>
W0NIM11uMWMoPU8pW25IXWMoPU8pYyhjMTIpbihbQ0gyXVtDSDJdT1tDSDNdKWMobjIpLW4zbmMoW0NIM10pYyhbQ0gzXSljM1tDSDNd

> <s_epik_cmdline>
J2VwaWtfcHl0aG9uJywgJy1waCcsICc3LjAnLCAnLXRuJywgJzgnLCAnLW1hJywgJzIwMCcsICctbWV0YWxfYmluZGluZycsICctaW1hZScsICc8aW5maWxlLm1hZT4nLCAnLW9tYWUnLCAnPG91dGZpbGUubWFlPic=

> <r_lp_tautomer_probability>
1

> <r_epik_Ionization_Penalty>
0.00244877

> <r_epik_Ionization_Penalty_Charging>
0.000731299

> <r_epik_Ionization_Penalty_Neutral>
0.00171747

> <r_epik_State_Penalty>
-0

> <r_epik_Charging_Adjusted_Penalty>
0.000731299

> <i_epik_Tot_Q>
0

> <i_epik_Tot_abs_Q>
0

> <r_epik_Metal_State_Penalty>
0.260296

> <b_epik_Metal_Only>
0

> <s_lp_Force_Field>
OPLS_2005

> <r_lp_Energy>
24.2445

> <b_lp_Chiralities_Consistent>
1

> <s_lp_Variant>
AV-unprocessed.smi:1887-1

> <Gold.Version>
5.8.1

> <Gold.Id.Protein>
6NUR|6NUR_protein|mol2

> <Gold.PLP.Fitness>
43.6008

> <Gold.PLP.PLP>
-35.2444

> <Gold.PLP.part.hbond>
-3.0000

> <Gold.PLP.part.metal>
0.0000

> <Gold.PLP.part.buried>
-7.0011

> <Gold.PLP.part.nonpolar>
-28.8675

> <Gold.PLP.part.repulsive>
2.9590

> <Gold.PLP.ligand.clash>
0.2818

> <Gold.PLP.ligand.torsion>
0.3270

> <Gold.PLP.Chemscore.Hbond>
2.9750

> <Gold.PLP.Chemscore.CHOScore>
0.0000

> <Gold.PLP.Chemscore.Metal>
0.0000

> <Gold.Chemscore.Hbonds>
donor molecule, donor type, donor heavy atom, donor atom, acceptor molecule, acceptor atom, score
      L1  H    20    25       P1  7948  1.00
      P1  H  6896  6909       L1     2  0.96
      P1  H 10752 10763       L1    19  1.00

> <Gold.PLP.Chemscore.Internal.Correction>
0.3672

> <Gold.Rescore>
     Score         DG    S(hbond)    S(metal)    S(lipo)     H(rot)  DE(clash)    DE(int)     intcor
     14.49     -19.78       2.65        0.00      79.60       1.50       0.12       5.18       ----

> <Gold.Chemscore.Fitness>
14.4863

> <Gold.Chemscore.DG>
-19.7837

> <Gold.Chemscore.ZeroCoef>
-5.4800

> <Gold.Chemscore.Hbond>
2.6450

> <Gold.Chemscore.Metal>
0.0000

> <Gold.Chemscore.Lipo>
79.5987

> <Gold.Chemscore.Internal_Hbond>
0.0000

> <Gold.Chemscore.DEClash>
0.1214

> <Gold.Chemscore.DEInternal>
5.1760

> <Gold.Chemscore.Rot>
1.5014

> <Gold.Chemscore.Internal.Correction>
   9.000000E+99

> <Gold.Chemscore.Hbonds>
donor molecule, donor type, donor heavy atom, donor atom, acceptor molecule, acceptor atom, score
      L1  H    20    25       P1  7948  0.78
      P1  H  6896  6909       L1     2  0.32
      P1  H 10752 10763       L1    19  0.96

> <Gold.Chemscore.Hbond.Weighted>
-8.8343

> <Gold.Chemscore.Metal.Weighted>
-0.0000

> <Gold.Chemscore.Lipo.Weighted>
-9.3130

> <Gold.Chemscore.Internal_Hbond.Weighted>
0.0000

> <Gold.Chemscore.DEClash.Weighted>
0.1214

> <Gold.Chemscore.DEInternal.Weighted>
5.1760

> <Gold.Chemscore.Rot.Weighted>
3.8437

> <Gold.Chemscore.Internal.Correction.Weighted>
   9.000000E+99

> <Gold.Protein.RotatedTorsions>
[ 6907 6896 6895 6894 ] final  121.87 input  -60.11 | X-H torsion
[ 7974 7965 7964 7962 ] final -101.45 input  175.53 | X-H torsion
[ 8008 7997 7996 7995 ] final   20.70 input   59.86 | X-H torsion
[ 10167 10162 10161 10158 ] final -113.13 input  -65.29 | X-H torsion
[ 10718 10713 10712 10709 ] final   73.29 input   66.30 | X-H torsion
[ 10763 10752 10751 10750 ] final   47.02 input  -60.55 | X-H torsion
[ 11005 11000 10999 10996 ] final  -53.04 input  -57.11 | X-H torsion

> <Gold.Protein.ActiveResidues>
 VAL166  LYS551  ARG553  GLY616  TRP617  ASP618  TYR619  PRO620  LYS621  CYS622 
 ASP623  PHE694  ASN695  SER759  ASP760  ASP761  ALA762  ILE779  LEU786  VAL792 
 PHE793  MET794  SER795  GLU796  ALA797  LYS798  CYS799  TRP800  GLU811  SER814 

> <Gold.Protein.RotatedAtoms>
  152.4288  133.7241  159.6549 H   0  0  0  0  0  0  0  0  0  0  0  0  # atno 6907 bound_to 6896
  150.8165  133.8316  159.3164 H   0  0  0  0  0  0  0  0  0  0  0  0  # atno 6908 bound_to 6896
  151.6011  135.1049  160.0112 H   0  0  0  0  0  0  0  0  0  0  0  0  # atno 6909 bound_to 6896
  145.2815  140.9328  143.2929 H   0  0  0  0  0  0  0  0  0  0  0  0  # atno 7974 bound_to 7965
  154.9396  140.3051  155.5127 H   0  0  0  0  0  0  0  0  0  0  0  0  # atno 8008 bound_to 7997
  156.2997  140.2339  156.4401 H   0  0  0  0  0  0  0  0  0  0  0  0  # atno 8009 bound_to 7997
  154.8158  140.0426  157.1364 H   0  0  0  0  0  0  0  0  0  0  0  0  # atno 8010 bound_to 7997
  140.1152  143.4492  152.1727 H   0  0  0  0  0  0  0  0  0  0  0  0  # atno 10167 bound_to 10162
  157.6541  130.9621  150.1049 H   0  0  0  0  0  0  0  0  0  0  0  0  # atno 10718 bound_to 10713
  152.9804  135.5989  154.3695 H   0  0  0  0  0  0  0  0  0  0  0  0  # atno 10763 bound_to 10752
  154.3369  135.2768  155.2444 H   0  0  0  0  0  0  0  0  0  0  0  0  # atno 10764 bound_to 10752
  154.4543  135.5982  153.6268 H   0  0  0  0  0  0  0  0  0  0  0  0  # atno 10765 bound_to 10752
  141.0956  133.6625  156.4113 H   0  0  0  0  0  0  0  0  0  0  0  0  # atno 11005 bound_to 11000
  144.9249  139.4367  143.6523 LP  0  0  0  0  0  0  0  0  0  0  0  0  # atno 17320 bound_to 7965
  146.3215  139.8129  142.8942 LP  0  0  0  0  0  0  0  0  0  0  0  0  # atno 17321 bound_to 7965
  139.5598  144.7398  151.4189 LP  0  0  0  0  0  0  0  0  0  0  0  0  # atno 17342 bound_to 10162
  140.6903  143.7877  150.7246 LP  0  0  0  0  0  0  0  0  0  0  0  0  # atno 17343 bound_to 10162
  156.1961  130.3657  149.8847 LP  0  0  0  0  0  0  0  0  0  0  0  0  # atno 17370 bound_to 10713
  156.6763  130.8840  151.3569 LP  0  0  0  0  0  0  0  0  0  0  0  0  # atno 17371 bound_to 10713
  140.5149  134.6360  157.5297 LP  0  0  0  0  0  0  0  0  0  0  0  0  # atno 17394 bound_to 11000
  139.9791  134.7166  155.9893 LP  0  0  0  0  0  0  0  0  0  0  0  0  # atno 17395 bound_to 11000

$$$$
