AV-unprocessed.smi:13|AV-procd|sdf|72|dock4
  -GOLD-   2262015193D 1   1.00000     0.00000
 Structure written by MMmdl.
 54 58  0  0  0  0  0  0  0  0  1 V2000
  152.4596  143.0272  161.2291 C   0  0  0  0  0  0  0  0  0  0  0  0
  153.0082  142.3659  159.9652 C   0  0  0  0  0  0  0  0  0  0  0  0
  153.3817  143.5001  159.0003 C   0  0  0  0  0  0  0  0  0  0  0  0
  154.0954  141.3002  160.1859 C   0  0  0  0  0  0  0  0  0  0  0  0
  153.4497  140.5361  159.1329 N   0  0  0  0  0  0  0  0  0  0  0  0
  153.5104  139.1280  159.3156 C   0  0  0  0  0  0  0  0  0  0  0  0
  153.2502  138.2642  158.2970 N   0  0  0  0  0  0  0  0  0  0  0  0
  153.3230  136.9432  158.4829 C   0  0  0  0  0  0  0  0  0  0  0  0
  153.6287  136.2739  159.5951 N   0  0  0  0  0  0  0  0  0  0  0  0
  153.8809  137.1286  160.6267 C   0  0  0  0  0  0  0  0  0  0  0  0
  153.8448  138.5502  160.5697 C   0  0  0  0  0  0  0  0  0  0  0  0
  154.1667  139.0827  161.8110 N   0  0  0  0  0  0  0  0  0  0  0  0
  154.3841  138.0355  162.5589 C   0  0  0  0  0  0  0  0  0  0  0  0
  154.2202  136.8194  161.9331 N   0  0  0  0  0  0  0  0  0  0  0  0
  154.4077  135.4992  162.5175 C   0  0  0  0  0  0  0  0  0  0  0  0
  155.0005  135.4942  163.9504 C   0  0  2  0  0  0  0  0  0  0  0  0
  154.0051  136.0313  164.8026 O   0  0  0  0  0  0  0  0  0  0  0  0
  156.2771  136.3157  164.1370 C   0  0  0  0  0  0  0  0  0  0  0  0
  157.0036  135.5713  165.2486 C   0  0  0  0  0  0  0  0  0  0  0  0
  156.7533  134.2166  164.9193 O   0  0  0  0  0  0  0  0  0  0  0  0
  155.3984  134.1059  164.4983 C   0  0  0  0  0  0  0  0  0  0  0  0
  152.1754  141.1918  159.4060 C   0  0  2  0  0  0  0  0  0  0  0  0
  151.3236  141.3137  158.1422 C   0  0  2  0  0  0  0  0  0  0  0  0
  150.0872  142.2003  158.3088 C   0  0  0  0  0  0  0  0  0  0  0  0
  149.0551  141.5809  157.3761 C   0  0  0  0  0  0  0  0  0  0  0  0
  149.7209  140.2976  156.8774 C   0  0  0  0  0  0  0  0  0  0  0  0
  150.7578  140.0542  157.8137 O   0  0  0  0  0  0  0  0  0  0  0  0
  153.1925  143.6951  161.6825 H   0  0  0  0  0  0  0  0  0  0  0  0
  152.1896  142.2862  161.9823 H   0  0  0  0  0  0  0  0  0  0  0  0
  151.5640  143.6120  161.0172 H   0  0  0  0  0  0  0  0  0  0  0  0
  153.7488  143.1174  158.0475 H   0  0  0  0  0  0  0  0  0  0  0  0
  154.1693  144.1299  159.4148 H   0  0  0  0  0  0  0  0  0  0  0  0
  152.5294  144.1442  158.7838 H   0  0  0  0  0  0  0  0  0  0  0  0
  155.1073  141.6221  159.9385 H   0  0  0  0  0  0  0  0  0  0  0  0
  154.0429  140.8168  161.1638 H   0  0  0  0  0  0  0  0  0  0  0  0
  153.1059  136.3369  157.6161 H   0  0  0  0  0  0  0  0  0  0  0  0
  154.6769  138.1267  163.5946 H   0  0  0  0  0  0  0  0  0  0  0  0
  153.4409  134.9933  162.5159 H   0  0  0  0  0  0  0  0  0  0  0  0
  155.0486  134.9239  161.8480 H   0  0  0  0  0  0  0  0  0  0  0  0
  154.2302  136.9281  164.9979 H   0  0  0  0  0  0  0  0  0  0  0  0
  156.9058  136.2822  163.2493 H   0  0  0  0  0  0  0  0  0  0  0  0
  156.0956  137.3657  164.3701 H   0  0  0  0  0  0  0  0  0  0  0  0
  158.0715  135.7893  165.2767 H   0  0  0  0  0  0  0  0  0  0  0  0
  156.5750  135.8019  166.2253 H   0  0  0  0  0  0  0  0  0  0  0  0
  154.7840  133.8136  165.3517 H   0  0  0  0  0  0  0  0  0  0  0  0
  155.3129  133.3093  163.7620 H   0  0  0  0  0  0  0  0  0  0  0  0
  151.6293  140.7204  160.2251 H   0  0  0  0  0  0  0  0  0  0  0  0
  151.9142  141.6653  157.2937 H   0  0  0  0  0  0  0  0  0  0  0  0
  149.7227  142.1590  159.3362 H   0  0  0  0  0  0  0  0  0  0  0  0
  150.2924  143.2439  158.0700 H   0  0  0  0  0  0  0  0  0  0  0  0
  148.1388  141.3574  157.9238 H   0  0  0  0  0  0  0  0  0  0  0  0
  148.7989  142.2412  156.5470 H   0  0  0  0  0  0  0  0  0  0  0  0
  149.0285  139.4574  156.8197 H   0  0  0  0  0  0  0  0  0  0  0  0
  150.1582  140.4488  155.8893 H   0  0  0  0  0  0  0  0  0  0  0  0
  1  2  1  0  0  0  0
  1 28  1  0  0  0  0
  1 29  1  0  0  0  0
  1 30  1  0  0  0  0
  2 22  1  0  0  0  0
  2  3  1  0  0  0  0
  2  4  1  0  0  0  0
  3 31  1  0  0  0  0
  3 32  1  0  0  0  0
  3 33  1  0  0  0  0
  4  5  1  0  0  0  0
  4 34  1  0  0  0  0
  4 35  1  0  0  0  0
  5  6  1  0  0  0  0
  5 22  1  0  0  0  0
  6 11  1  0  0  0  0
  6  7  2  0  0  0  0
  7  8  1  0  0  0  0
  8  9  2  0  0  0  0
  8 36  1  0  0  0  0
  9 10  1  0  0  0  0
 10 14  1  0  0  0  0
 10 11  2  0  0  0  0
 11 12  1  0  0  0  0
 12 13  2  0  0  0  0
 13 14  1  0  0  0  0
 13 37  1  0  0  0  0
 14 15  1  0  0  0  0
 15 16  1  0  0  0  0
 15 38  1  0  0  0  0
 15 39  1  0  0  0  0
 16 21  1  0  0  0  0
 16 17  1  0  0  0  0
 16 18  1  0  0  0  0
 17 40  1  0  0  0  0
 18 19  1  0  0  0  0
 18 41  1  0  0  0  0
 18 42  1  0  0  0  0
 19 20  1  0  0  0  0
 19 43  1  0  0  0  0
 19 44  1  0  0  0  0
 20 21  1  0  0  0  0
 21 45  1  0  0  0  0
 21 46  1  0  0  0  0
 22 23  1  0  0  0  0
 22 47  1  0  0  0  0
 23 27  1  0  0  0  0
 23 24  1  0  0  0  0
 23 48  1  0  0  0  0
 24 25  1  0  0  0  0
 24 49  1  0  0  0  0
 24 50  1  0  0  0  0
 25 26  1  0  0  0  0
 25 51  1  0  0  0  0
 25 52  1  0  0  0  0
 26 27  1  0  0  0  0
 26 53  1  0  0  0  0
 26 54  1  0  0  0  0
M  END
> <s_m_source_file>
AV-unprocessed.smi

> <i_m_source_file_index>
13

> <i_lp_mmshare_version>
43012

> <i_f3d_flags>
0

> <s_epik_input>
TzFbQ0gyXVtDSDJdW0NIMl1bQ0BIXTFbQ0BASF0yTihbQ0gyXUMyKFtDSDNdKVtDSDNdKWMobltjSF1uMyljKGMzNCluW2NIXW40W0NIMl1bQ0BAXTUoW09IXSlbQ0gyXVtDSDJdT1tDSDJdNQ==

> <s_epik_cmdline>
J2VwaWtfcHl0aG9uJywgJy1waCcsICc3LjAnLCAnLXRuJywgJzgnLCAnLW1hJywgJzIwMCcsICctbWV0YWxfYmluZGluZycsICctaW1hZScsICc8aW5maWxlLm1hZT4nLCAnLW9tYWUnLCAnPG91dGZpbGUubWFlPic=

> <r_lp_tautomer_probability>
1

> <r_epik_Ionization_Penalty>
0.00202764

> <r_epik_Ionization_Penalty_Charging>
0

> <r_epik_Ionization_Penalty_Neutral>
0.00202764

> <r_epik_State_Penalty>
0.00134017

> <r_epik_Charging_Adjusted_Penalty>
0.00134017

> <i_epik_Tot_Q>
0

> <i_epik_Tot_abs_Q>
0

> <r_epik_Metal_State_Penalty>
-0

> <b_epik_Metal_Only>
0

> <s_lp_Force_Field>
OPLS_2005

> <r_lp_Energy>
64.4217

> <b_lp_Chiralities_Consistent>
1

> <s_lp_Variant>
AV-unprocessed.smi:13-4

> <Gold.Version>
5.8.1

> <Gold.Id.Protein>
6NUR|6NUR_protein|mol2

> <Gold.PLP.Fitness>
43.4503

> <Gold.PLP.PLP>
-41.6204

> <Gold.PLP.part.hbond>
-2.3213

> <Gold.PLP.part.metal>
0.0000

> <Gold.PLP.part.buried>
-7.3276

> <Gold.PLP.part.nonpolar>
-32.1526

> <Gold.PLP.part.repulsive>
0.0567

> <Gold.PLP.ligand.clash>
0.0000

> <Gold.PLP.ligand.torsion>
0.8148

> <Gold.PLP.Chemscore.Hbond>
1.0000

> <Gold.PLP.Chemscore.CHOScore>
0.0000

> <Gold.PLP.Chemscore.Metal>
0.0000

> <Gold.Chemscore.Hbonds>
donor molecule, donor type, donor heavy atom, donor atom, acceptor molecule, acceptor atom, score
      P1  H  6896  6908       L1     9  1.00

> <Gold.PLP.Chemscore.Internal.Correction>
0.4595

> <Gold.Rescore>
     Score         DG    S(hbond)    S(metal)    S(lipo)     H(rot)  DE(clash)    DE(int)     intcor
     11.49     -15.56       0.86        0.00     111.90       2.30       0.47       3.61       ----

> <Gold.Chemscore.Fitness>
11.4870

> <Gold.Chemscore.DG>
-15.5620

> <Gold.Chemscore.ZeroCoef>
-5.4800

> <Gold.Chemscore.Hbond>
0.8612

> <Gold.Chemscore.Metal>
0.0000

> <Gold.Chemscore.Lipo>
111.9031

> <Gold.Chemscore.Internal_Hbond>
0.0000

> <Gold.Chemscore.DEClash>
0.4669

> <Gold.Chemscore.DEInternal>
3.6081

> <Gold.Chemscore.Rot>
2.2996

> <Gold.Chemscore.Internal.Correction>
   9.000000E+99

> <Gold.Chemscore.Hbonds>
donor molecule, donor type, donor heavy atom, donor atom, acceptor molecule, acceptor atom, score
      P1  H  6896  6908       L1     9  0.78

> <Gold.Chemscore.Hbond.Weighted>
-2.8763

> <Gold.Chemscore.Metal.Weighted>
-0.0000

> <Gold.Chemscore.Lipo.Weighted>
-13.0927

> <Gold.Chemscore.Internal_Hbond.Weighted>
0.0000

> <Gold.Chemscore.DEClash.Weighted>
0.4669

> <Gold.Chemscore.DEInternal.Weighted>
3.6081

> <Gold.Chemscore.Rot.Weighted>
5.8869

> <Gold.Chemscore.Internal.Correction.Weighted>
   9.000000E+99

> <Gold.Protein.RotatedTorsions>
[ 6907 6896 6895 6894 ] final  -59.03 input  -60.11 | X-H torsion
[ 7974 7965 7964 7962 ] final   39.60 input  175.53 | X-H torsion
[ 8008 7997 7996 7995 ] final   88.37 input   59.86 | X-H torsion
[ 10167 10162 10161 10158 ] final -142.63 input  -65.29 | X-H torsion
[ 10718 10713 10712 10709 ] final  -71.99 input   66.30 | X-H torsion
[ 10763 10752 10751 10750 ] final  155.97 input  -60.55 | X-H torsion
[ 11005 11000 10999 10996 ] final  -21.59 input  -57.11 | X-H torsion

> <Gold.Protein.ActiveResidues>
 VAL166  LYS551  ARG553  GLY616  TRP617  ASP618  TYR619  PRO620  LYS621  CYS622 
 ASP623  PHE694  ASN695  SER759  ASP760  ASP761  ALA762  ILE779  LEU786  VAL792 
 PHE793  MET794  SER795  GLU796  ALA797  LYS798  CYS799  TRP800  GLU811  SER814 

> <Gold.Protein.RotatedAtoms>
  150.7961  134.7021  159.6555 H   0  0  0  0  0  0  0  0  0  0  0  0  # atno 6907 bound_to 6896
  152.4073  134.6181  160.0053 H   0  0  0  0  0  0  0  0  0  0  0  0  # atno 6908 bound_to 6896
  151.6435  133.3288  159.3171 H   0  0  0  0  0  0  0  0  0  0  0  0  # atno 6909 bound_to 6896
  146.0971  139.5632  142.9438 H   0  0  0  0  0  0  0  0  0  0  0  0  # atno 7974 bound_to 7965
  155.9869  140.3372  155.6716 H   0  0  0  0  0  0  0  0  0  0  0  0  # atno 8008 bound_to 7997
  155.6473  140.0701  157.2617 H   0  0  0  0  0  0  0  0  0  0  0  0  # atno 8009 bound_to 7997
  154.4208  140.1732  156.1624 H   0  0  0  0  0  0  0  0  0  0  0  0  # atno 8010 bound_to 7997
  139.8070  143.7754  152.2661 H   0  0  0  0  0  0  0  0  0  0  0  0  # atno 10167 bound_to 10162
  156.0339  130.4363  150.2526 H   0  0  0  0  0  0  0  0  0  0  0  0  # atno 10718 bound_to 10713
  154.1769  135.2801  155.3064 H   0  0  0  0  0  0  0  0  0  0  0  0  # atno 10763 bound_to 10752
  154.6032  135.5523  153.7399 H   0  0  0  0  0  0  0  0  0  0  0  0  # atno 10764 bound_to 10752
  153.0149  135.6397  154.1909 H   0  0  0  0  0  0  0  0  0  0  0  0  # atno 10765 bound_to 10752
  140.8575  133.7812  156.0036 H   0  0  0  0  0  0  0  0  0  0  0  0  # atno 11005 bound_to 11000
  145.5926  141.0367  143.2061 LP  0  0  0  0  0  0  0  0  0  0  0  0  # atno 17320 bound_to 7965
  144.7404  139.7466  143.7313 LP  0  0  0  0  0  0  0  0  0  0  0  0  # atno 17321 bound_to 7965
  139.7892  144.7416  150.9979 LP  0  0  0  0  0  0  0  0  0  0  0  0  # atno 17342 bound_to 10162
  140.7819  143.4460  151.0482 LP  0  0  0  0  0  0  0  0  0  0  0  0  # atno 17343 bound_to 10162
  157.0626  131.0094  151.3217 LP  0  0  0  0  0  0  0  0  0  0  0  0  # atno 17370 bound_to 10713
  157.5059  130.7908  149.7653 LP  0  0  0  0  0  0  0  0  0  0  0  0  # atno 17371 bound_to 10713
  140.8720  134.2715  157.5186 LP  0  0  0  0  0  0  0  0  0  0  0  0  # atno 17394 bound_to 11000
  139.8706  134.9572  156.4261 LP  0  0  0  0  0  0  0  0  0  0  0  0  # atno 17395 bound_to 11000

$$$$
