AV-unprocessed.smi:2060|AV-procd|sdf|8354|dock7
  -GOLD-   2272011 23D 1   1.00000     0.00000
 Structure written by MMmdl.
 45 46  0  0  0  0  0  0  0  0  1 V2000
  152.4171  138.0753  154.6734 C   0  0  0  0  0  0  0  0  0  0  0  0
  151.0958  138.5215  154.0207 C   0  0  0  0  0  0  0  0  0  0  0  0
  149.8933  138.7221  154.9974 C   0  0  1  0  0  0  0  0  0  0  0  0
  148.6927  139.1771  154.1244 C   0  0  0  0  0  0  0  0  0  0  0  0
  149.5482  137.3392  155.6414 C   0  0  0  0  0  0  0  0  0  0  0  0
  149.1353  136.3190  154.6774 N   0  0  0  0  0  0  0  0  0  0  0  0
  149.0670  135.0001  154.9110 C   0  0  0  0  0  0  0  0  0  0  0  0
  149.3529  134.4849  155.9917 O   0  0  0  0  0  0  0  0  0  0  0  0
  148.6465  134.3376  153.8205 N   0  0  0  0  0  0  0  0  0  0  0  0
  148.4161  132.9459  153.6680 C   0  0  0  0  0  0  0  0  0  0  0  0
  149.1998  131.8933  154.2248 C   0  0  0  0  0  0  0  0  0  0  0  0
  148.5547  130.7693  153.7922 C   0  0  0  0  0  0  0  0  0  0  0  0
  148.8071  129.3143  153.9929 C   0  0  0  0  0  0  0  0  0  0  0  0
  147.4738  131.1040  153.0371 O   0  0  0  0  0  0  0  0  0  0  0  0
  147.3925  132.4995  152.9633 N   0  0  0  0  0  0  0  0  0  0  0  0
  150.2062  139.7542  156.0266 N   0  0  0  0  0  0  0  0  0  0  0  0
  150.6656  141.0448  155.4988 C   0  0  0  0  0  0  0  0  0  0  0  0
  150.8272  142.0978  156.6082 C   0  0  0  0  0  0  0  0  0  0  0  0
  151.7259  141.6154  157.5996 O   0  0  0  0  0  0  0  0  0  0  0  0
  151.2896  140.3918  158.1790 C   0  0  0  0  0  0  0  0  0  0  0  0
  151.1317  139.3251  157.0821 C   0  0  0  0  0  0  0  0  0  0  0  0
  153.1939  137.9571  153.9180 H   0  0  0  0  0  0  0  0  0  0  0  0
  152.3153  137.1185  155.1855 H   0  0  0  0  0  0  0  0  0  0  0  0
  152.7786  138.8059  155.3963 H   0  0  0  0  0  0  0  0  0  0  0  0
  151.2975  139.4489  153.4839 H   0  0  0  0  0  0  0  0  0  0  0  0
  150.8337  137.8084  153.2391 H   0  0  0  0  0  0  0  0  0  0  0  0
  148.5914  138.5761  153.2205 H   0  0  0  0  0  0  0  0  0  0  0  0
  148.7942  140.2155  153.8078 H   0  0  0  0  0  0  0  0  0  0  0  0
  147.7455  139.0917  154.6574 H   0  0  0  0  0  0  0  0  0  0  0  0
  150.4202  136.9300  156.1504 H   0  0  0  0  0  0  0  0  0  0  0  0
  148.7825  137.4446  156.4103 H   0  0  0  0  0  0  0  0  0  0  0  0
  148.8802  136.6486  153.7578 H   0  0  0  0  0  0  0  0  0  0  0  0
  148.4620  134.8963  153.0004 H   0  0  0  0  0  0  0  0  0  0  0  0
  150.0847  131.9361  154.8413 H   0  0  0  0  0  0  0  0  0  0  0  0
  149.7834  129.1476  154.4484 H   0  0  0  0  0  0  0  0  0  0  0  0
  148.7823  128.7814  153.0423 H   0  0  0  0  0  0  0  0  0  0  0  0
  148.0505  128.8788  154.6457 H   0  0  0  0  0  0  0  0  0  0  0  0
  151.6232  140.9265  154.9921 H   0  0  0  0  0  0  0  0  0  0  0  0
  149.9658  141.4390  154.7645 H   0  0  0  0  0  0  0  0  0  0  0  0
  151.2201  143.0264  156.1942 H   0  0  0  0  0  0  0  0  0  0  0  0
  149.8628  142.3319  157.0617 H   0  0  0  0  0  0  0  0  0  0  0  0
  152.0210  140.0678  158.9193 H   0  0  0  0  0  0  0  0  0  0  0  0
  150.3469  140.5452  158.7064 H   0  0  0  0  0  0  0  0  0  0  0  0
  150.7833  138.4103  157.5585 H   0  0  0  0  0  0  0  0  0  0  0  0
  152.1138  139.1098  156.6615 H   0  0  0  0  0  0  0  0  0  0  0  0
  1  2  1  0  0  0  0
  1 22  1  0  0  0  0
  1 23  1  0  0  0  0
  1 24  1  0  0  0  0
  2  3  1  0  0  0  0
  2 25  1  0  0  0  0
  2 26  1  0  0  0  0
  3  4  1  0  0  0  0
  3  5  1  0  0  0  0
  3 16  1  0  0  0  0
  4 27  1  0  0  0  0
  4 28  1  0  0  0  0
  4 29  1  0  0  0  0
  5  6  1  0  0  0  0
  5 30  1  0  0  0  0
  5 31  1  0  0  0  0
  6  7  1  0  0  0  0
  6 32  1  0  0  0  0
  7  8  2  0  0  0  0
  7  9  1  0  0  0  0
  9 10  1  0  0  0  0
  9 33  1  0  0  0  0
 10 15  2  0  0  0  0
 10 11  1  0  0  0  0
 11 12  2  0  0  0  0
 11 34  1  0  0  0  0
 12 13  1  0  0  0  0
 12 14  1  0  0  0  0
 13 35  1  0  0  0  0
 13 36  1  0  0  0  0
 13 37  1  0  0  0  0
 14 15  1  0  0  0  0
 16 21  1  0  0  0  0
 16 17  1  0  0  0  0
 17 18  1  0  0  0  0
 17 38  1  0  0  0  0
 17 39  1  0  0  0  0
 18 19  1  0  0  0  0
 18 40  1  0  0  0  0
 18 41  1  0  0  0  0
 19 20  1  0  0  0  0
 20 21  1  0  0  0  0
 20 42  1  0  0  0  0
 20 43  1  0  0  0  0
 21 44  1  0  0  0  0
 21 45  1  0  0  0  0
M  END
> <s_m_source_file>
AV-unprocessed.smi

> <i_m_source_file_index>
2060

> <i_lp_mmshare_version>
43012

> <i_f3d_flags>
0

> <s_epik_input>
W0NIMl0xW0NIMl1PW0NIMl1bQ0gyXU4xW0NAQF0oW0NIM10pKFtDSDJdW0NIM10pW0NIMl1bTkhdQyg9TylbTkhdYzJbY0hdYyhbQ0gzXSlvbjI=

> <s_epik_cmdline>
J2VwaWtfcHl0aG9uJywgJy1waCcsICc3LjAnLCAnLXRuJywgJzgnLCAnLW1hJywgJzIwMCcsICctbWV0YWxfYmluZGluZycsICctaW1hZScsICc8aW5maWxlLm1hZT4nLCAnLW9tYWUnLCAnPG91dGZpbGUubWFlPic=

> <r_epik_Ionization_Penalty>
0.289127

> <r_epik_Ionization_Penalty_Charging>
0

> <r_epik_Ionization_Penalty_Neutral>
0.289127

> <r_epik_State_Penalty>
0.282056

> <r_epik_Charging_Adjusted_Penalty>
0.282056

> <i_epik_Tot_Q>
0

> <i_epik_Tot_abs_Q>
0

> <r_epik_Metal_State_Penalty>
0.284526

> <b_epik_Metal_Only>
0

> <s_lp_Force_Field>
OPLS_2005

> <r_lp_Energy>
41.8264

> <b_lp_Chiralities_Consistent>
1

> <s_lp_Variant>
AV-unprocessed.smi:2060-1

> <Gold.Version>
5.8.1

> <Gold.Id.Protein>
6NUR|6NUR_protein|mol2

> <Gold.PLP.Fitness>
36.7158

> <Gold.PLP.PLP>
-31.8289

> <Gold.PLP.part.hbond>
-2.0000

> <Gold.PLP.part.metal>
0.0000

> <Gold.PLP.part.buried>
-5.4672

> <Gold.PLP.part.nonpolar>
-25.0151

> <Gold.PLP.part.repulsive>
0.8966

> <Gold.PLP.ligand.clash>
0.0000

> <Gold.PLP.ligand.torsion>
0.5685

> <Gold.PLP.Chemscore.Hbond>
1.9675

> <Gold.PLP.Chemscore.CHOScore>
0.0000

> <Gold.PLP.Chemscore.Metal>
0.0000

> <Gold.Chemscore.Hbonds>
donor molecule, donor type, donor heavy atom, donor atom, acceptor molecule, acceptor atom, score
      L1  H     6    32       P1  7948  0.86
      L1  H     9    33       P1  7948  0.99

> <Gold.PLP.Chemscore.Internal.Correction>
0.1214

> <Gold.Rescore>
     Score         DG    S(hbond)    S(metal)    S(lipo)     H(rot)  DE(clash)    DE(int)     intcor
     13.24     -14.91       1.79        0.00      66.92       1.71       0.03       1.64       ----

> <Gold.Chemscore.Fitness>
13.2405

> <Gold.Chemscore.DG>
-14.9100

> <Gold.Chemscore.ZeroCoef>
-5.4800

> <Gold.Chemscore.Hbond>
1.7930

> <Gold.Chemscore.Metal>
0.0000

> <Gold.Chemscore.Lipo>
66.9220

> <Gold.Chemscore.Internal_Hbond>
0.0000

> <Gold.Chemscore.DEClash>
0.0251

> <Gold.Chemscore.DEInternal>
1.6445

> <Gold.Chemscore.Rot>
1.7143

> <Gold.Chemscore.Internal.Correction>
   9.000000E+99

> <Gold.Chemscore.Hbonds>
donor molecule, donor type, donor heavy atom, donor atom, acceptor molecule, acceptor atom, score
      L1  H     6    32       P1  7948  0.84
      L1  H     9    33       P1  7948  0.57

> <Gold.Chemscore.Hbond.Weighted>
-5.9887

> <Gold.Chemscore.Metal.Weighted>
-0.0000

> <Gold.Chemscore.Lipo.Weighted>
-7.8299

> <Gold.Chemscore.Internal_Hbond.Weighted>
0.0000

> <Gold.Chemscore.DEClash.Weighted>
0.0251

> <Gold.Chemscore.DEInternal.Weighted>
1.6445

> <Gold.Chemscore.Rot.Weighted>
4.3885

> <Gold.Chemscore.Internal.Correction.Weighted>
   9.000000E+99

> <Gold.Protein.RotatedTorsions>
[ 6907 6896 6895 6894 ] final -163.65 input  -60.11 | X-H torsion
[ 7974 7965 7964 7962 ] final   25.42 input  175.53 | X-H torsion
[ 8008 7997 7996 7995 ] final  -73.66 input   59.86 | X-H torsion
[ 10167 10162 10161 10158 ] final -136.97 input  -65.29 | X-H torsion
[ 10718 10713 10712 10709 ] final  128.09 input   66.30 | X-H torsion
[ 10763 10752 10751 10750 ] final -125.95 input  -60.55 | X-H torsion
[ 11005 11000 10999 10996 ] final   47.22 input  -57.11 | X-H torsion

> <Gold.Protein.ActiveResidues>
 VAL166  LYS551  ARG553  GLY616  TRP617  ASP618  TYR619  PRO620  LYS621  CYS622 
 ASP623  PHE694  ASN695  SER759  ASP760  ASP761  ALA762  ILE779  LEU786  VAL792 
 PHE793  MET794  SER795  GLU796  ALA797  LYS798  CYS799  TRP800  GLU811  SER814 

> <Gold.Protein.RotatedAtoms>
  151.3994  133.3762  159.2730 H   0  0  0  0  0  0  0  0  0  0  0  0  # atno 6907 bound_to 6896
  150.9445  134.8852  159.7644 H   0  0  0  0  0  0  0  0  0  0  0  0  # atno 6908 bound_to 6896
  152.5086  134.3946  159.9448 H   0  0  0  0  0  0  0  0  0  0  0  0  # atno 6909 bound_to 6896
  146.1889  139.7468  142.8846 H   0  0  0  0  0  0  0  0  0  0  0  0  # atno 7974 bound_to 7965
  154.5266  140.0775  156.8269 H   0  0  0  0  0  0  0  0  0  0  0  0  # atno 8008 bound_to 7997
  155.3463  140.3410  155.4221 H   0  0  0  0  0  0  0  0  0  0  0  0  # atno 8009 bound_to 7997
  156.1738  140.1628  156.8387 H   0  0  0  0  0  0  0  0  0  0  0  0  # atno 8010 bound_to 7997
  139.8624  143.7060  152.2648 H   0  0  0  0  0  0  0  0  0  0  0  0  # atno 10167 bound_to 10162
  157.5276  131.1098  150.9059 H   0  0  0  0  0  0  0  0  0  0  0  0  # atno 10718 bound_to 10713
  154.8741  135.4012  154.3351 H   0  0  0  0  0  0  0  0  0  0  0  0  # atno 10763 bound_to 10752
  153.4158  135.7022  153.6333 H   0  0  0  0  0  0  0  0  0  0  0  0  # atno 10764 bound_to 10752
  153.5016  135.3726  155.2513 H   0  0  0  0  0  0  0  0  0  0  0  0  # atno 10765 bound_to 10752
  140.1298  134.4720  155.8530 H   0  0  0  0  0  0  0  0  0  0  0  0  # atno 11005 bound_to 11000
  145.3854  141.0364  143.3154 LP  0  0  0  0  0  0  0  0  0  0  0  0  # atno 17320 bound_to 7965
  144.8449  139.5413  143.6883 LP  0  0  0  0  0  0  0  0  0  0  0  0  # atno 17321 bound_to 7965
  139.7361  144.7571  151.0726 LP  0  0  0  0  0  0  0  0  0  0  0  0  # atno 17342 bound_to 10162
  140.7773  143.5029  150.9748 LP  0  0  0  0  0  0  0  0  0  0  0  0  # atno 17343 bound_to 10162
  156.9651  130.5469  149.5287 LP  0  0  0  0  0  0  0  0  0  0  0  0  # atno 17370 bound_to 10713
  156.0398  130.5482  150.8743 LP  0  0  0  0  0  0  0  0  0  0  0  0  # atno 17371 bound_to 10713
  141.2168  133.6792  156.7048 LP  0  0  0  0  0  0  0  0  0  0  0  0  # atno 17394 bound_to 11000
  140.2856  134.8281  157.3972 LP  0  0  0  0  0  0  0  0  0  0  0  0  # atno 17395 bound_to 11000

$$$$
