AV-unprocessed.smi:3282|AV-procd|sdf|12560|dock9
  -GOLD-   2272018483D 1   1.00000     0.00000
 Structure written by MMmdl.
 34 35  0  0  0  0  0  0  0  0  1 V2000
  152.3460  138.1253  155.2975 C   0  0  0  0  0  0  0  0  0  0  0  0
  150.8618  138.2589  154.9204 C   0  0  0  0  0  0  0  0  0  0  0  0
  150.3927  139.7143  154.7555 C   0  0  0  0  0  0  0  0  0  0  0  0
  151.1826  140.6395  154.9501 O   0  0  0  0  0  0  0  0  0  0  0  0
  149.1105  139.9338  154.3965 N   0  0  0  0  0  0  0  0  0  0  0  0
  148.4971  141.2427  154.1809 C   0  0  0  0  0  0  0  0  0  0  0  0
  147.1115  140.9668  153.5970 C   0  0  0  0  0  0  0  0  0  0  0  0
  146.7753  139.5465  154.0498 C   0  0  1  0  0  0  0  0  0  0  0  0
  145.9179  138.8429  153.1015 N   0  0  0  0  0  0  0  0  0  0  0  0
  145.7161  137.5176  153.0909 C   0  0  0  0  0  0  0  0  0  0  0  0
  146.2335  136.7455  153.8990 O   0  0  0  0  0  0  0  0  0  0  0  0
  144.8867  137.1570  152.0971 N   0  0  0  0  0  0  0  0  0  0  0  0
  144.4597  135.8472  151.7624 C   0  0  0  0  0  0  0  0  0  0  0  0
  144.5203  135.2745  150.5591 N   0  0  0  0  0  0  0  0  0  0  0  0
  143.9815  134.0098  150.7466 C   0  0  0  0  0  0  0  0  0  0  0  0
  143.6232  133.8885  152.0646 C   0  0  0  0  0  0  0  0  0  0  0  0
  143.9213  135.0510  152.7235 O   0  0  0  0  0  0  0  0  0  0  0  0
  148.1405  138.8630  154.1807 C   0  0  0  0  0  0  0  0  0  0  0  0
  152.6248  137.0759  155.3946 H   0  0  0  0  0  0  0  0  0  0  0  0
  152.5612  138.6110  156.2500 H   0  0  0  0  0  0  0  0  0  0  0  0
  152.9920  138.5678  154.5384 H   0  0  0  0  0  0  0  0  0  0  0  0
  150.6848  137.7203  153.9889 H   0  0  0  0  0  0  0  0  0  0  0  0
  150.2532  137.7787  155.6872 H   0  0  0  0  0  0  0  0  0  0  0  0
  148.4080  141.7568  155.1390 H   0  0  0  0  0  0  0  0  0  0  0  0
  149.0856  141.8700  153.5102 H   0  0  0  0  0  0  0  0  0  0  0  0
  146.3676  141.6971  153.9170 H   0  0  0  0  0  0  0  0  0  0  0  0
  147.1693  141.0103  152.5082 H   0  0  0  0  0  0  0  0  0  0  0  0
  146.3057  139.5830  155.0349 H   0  0  0  0  0  0  0  0  0  0  0  0
  145.4539  139.4041  152.4022 H   0  0  0  0  0  0  0  0  0  0  0  0
  144.5281  137.8967  151.5114 H   0  0  0  0  0  0  0  0  0  0  0  0
  143.8949  133.3020  149.9354 H   0  0  0  0  0  0  0  0  0  0  0  0
  143.1753  133.0994  152.6503 H   0  0  0  0  0  0  0  0  0  0  0  0
  148.4102  138.3347  153.2644 H   0  0  0  0  0  0  0  0  0  0  0  0
  148.1415  138.1402  154.9982 H   0  0  0  0  0  0  0  0  0  0  0  0
  1  2  1  0  0  0  0
  1 19  1  0  0  0  0
  1 20  1  0  0  0  0
  1 21  1  0  0  0  0
  2  3  1  0  0  0  0
  2 22  1  0  0  0  0
  2 23  1  0  0  0  0
  3  4  2  0  0  0  0
  3  5  1  0  0  0  0
  5 18  1  0  0  0  0
  5  6  1  0  0  0  0
  6  7  1  0  0  0  0
  6 24  1  0  0  0  0
  6 25  1  0  0  0  0
  7  8  1  0  0  0  0
  7 26  1  0  0  0  0
  7 27  1  0  0  0  0
  8  9  1  0  0  0  0
  8 18  1  0  0  0  0
  8 28  1  0  0  0  0
  9 10  1  0  0  0  0
  9 29  1  0  0  0  0
 10 11  2  0  0  0  0
 10 12  1  0  0  0  0
 12 13  1  0  0  0  0
 12 30  1  0  0  0  0
 13 17  1  0  0  0  0
 13 14  2  0  0  0  0
 14 15  1  0  0  0  0
 15 16  2  0  0  0  0
 15 31  1  0  0  0  0
 16 17  1  0  0  0  0
 16 32  1  0  0  0  0
 18 33  1  0  0  0  0
 18 34  1  0  0  0  0
M  END
> <s_m_source_file>
AV-unprocessed.smi

> <i_m_source_file_index>
3282

> <i_lp_mmshare_version>
43012

> <i_f3d_flags>
0

> <s_epik_input>
W0NIM11bQ0gyXUMoPU8pTjFbQ0gyXVtDSDJdW0NASF0oW0NIMl0xKVtOSF1DKD1PKVtOSF1jMm5bY0hdW2NIXW8y

> <s_epik_cmdline>
J2VwaWtfcHl0aG9uJywgJy1waCcsICc3LjAnLCAnLXRuJywgJzgnLCAnLW1hJywgJzIwMCcsICctbWV0YWxfYmluZGluZycsICctaW1hZScsICc8aW5maWxlLm1hZT4nLCAnLW9tYWUnLCAnPG91dGZpbGUubWFlPic=

> <r_lp_tautomer_probability>
0.785861

> <r_epik_Ionization_Penalty>
4.35681e-05

> <r_epik_Ionization_Penalty_Charging>
0

> <r_epik_Ionization_Penalty_Neutral>
4.35681e-05

> <r_epik_State_Penalty>
0.0212547

> <r_epik_Charging_Adjusted_Penalty>
0.0212547

> <i_epik_Tot_Q>
0

> <i_epik_Tot_abs_Q>
0

> <r_epik_Metal_State_Penalty>
0.00779955

> <b_epik_Metal_Only>
0

> <s_lp_Force_Field>
OPLS_2005

> <r_lp_Energy>
25.4051

> <b_lp_Chiralities_Consistent>
1

> <s_lp_Variant>
AV-unprocessed.smi:3282-1

> <Gold.Version>
5.8.1

> <Gold.Id.Protein>
6NUR|6NUR_protein|mol2

> <Gold.PLP.Fitness>
36.9371

> <Gold.PLP.PLP>
-27.9788

> <Gold.PLP.part.hbond>
-2.6647

> <Gold.PLP.part.metal>
0.0000

> <Gold.PLP.part.buried>
-3.2234

> <Gold.PLP.part.nonpolar>
-23.4755

> <Gold.PLP.part.repulsive>
0.5295

> <Gold.PLP.ligand.clash>
0.0000

> <Gold.PLP.ligand.torsion>
0.6370

> <Gold.PLP.Chemscore.Hbond>
2.4944

> <Gold.PLP.Chemscore.CHOScore>
0.9138

> <Gold.PLP.Chemscore.Metal>
0.0000

> <Gold.Chemscore.Hbonds>
donor molecule, donor type, donor heavy atom, donor atom, acceptor molecule, acceptor atom, score
      L1  H     9    29       P1 10175  0.58
      L1  H    12    30       P1 10171  1.00
      P1  H  7989  7998       L1     4  0.91
      L1  C    16    32       P1 10957  0.95

> <Gold.PLP.Chemscore.Internal.Correction>
0.0078

> <Gold.Rescore>
     Score         DG    S(hbond)    S(metal)    S(lipo)     H(rot)  DE(clash)    DE(int)     intcor
     14.30     -16.47       2.57        0.00      49.60       1.32       0.27       1.91       ----

> <Gold.Chemscore.Fitness>
14.2988

> <Gold.Chemscore.DG>
-16.4747

> <Gold.Chemscore.ZeroCoef>
-5.4800

> <Gold.Chemscore.Hbond>
2.5662

> <Gold.Chemscore.Metal>
0.0000

> <Gold.Chemscore.Lipo>
49.5950

> <Gold.Chemscore.Internal_Hbond>
0.0000

> <Gold.Chemscore.DEClash>
0.2700

> <Gold.Chemscore.DEInternal>
1.9059

> <Gold.Chemscore.Rot>
1.3199

> <Gold.Chemscore.Internal.Correction>
   9.000000E+99

> <Gold.Chemscore.Hbonds>
donor molecule, donor type, donor heavy atom, donor atom, acceptor molecule, acceptor atom, score
      L1  H     9    29       P1 10175  0.57
      L1  H    12    30       P1 10171  0.96
      P1  H  7989  7998       L1     4  0.21

> <Gold.Chemscore.Hbond.Weighted>
-8.5710

> <Gold.Chemscore.Metal.Weighted>
-0.0000

> <Gold.Chemscore.Lipo.Weighted>
-5.8026

> <Gold.Chemscore.Internal_Hbond.Weighted>
0.0000

> <Gold.Chemscore.DEClash.Weighted>
0.2700

> <Gold.Chemscore.DEInternal.Weighted>
1.9059

> <Gold.Chemscore.Rot.Weighted>
3.3789

> <Gold.Chemscore.Internal.Correction.Weighted>
   9.000000E+99

> <Gold.Protein.RotatedTorsions>
[ 6907 6896 6895 6894 ] final  152.22 input  -60.11 | X-H torsion
[ 7974 7965 7964 7962 ] final  147.18 input  175.53 | X-H torsion
[ 8008 7997 7996 7995 ] final  115.95 input   59.86 | X-H torsion
[ 10167 10162 10161 10158 ] final -142.75 input  -65.29 | X-H torsion
[ 10718 10713 10712 10709 ] final  -85.16 input   66.30 | X-H torsion
[ 10763 10752 10751 10750 ] final -159.44 input  -60.55 | X-H torsion
[ 11005 11000 10999 10996 ] final   17.16 input  -57.11 | X-H torsion

> <Gold.Protein.ActiveResidues>
 VAL166  LYS551  ARG553  GLY616  TRP617  ASP618  TYR619  PRO620  LYS621  CYS622 
 ASP623  PHE694  ASN695  SER759  ASP760  ASP761  ALA762  ILE779  LEU786  VAL792 
 PHE793  MET794  SER795  GLU796  ALA797  LYS798  CYS799  TRP800  GLU811  SER814 

> <Gold.Protein.RotatedAtoms>
  152.0897  133.4194  159.4538 H   0  0  0  0  0  0  0  0  0  0  0  0  # atno 6907 bound_to 6896
  150.6862  134.2886  159.4666 H   0  0  0  0  0  0  0  0  0  0  0  0  # atno 6908 bound_to 6896
  152.0736  134.9517  160.0625 H   0  0  0  0  0  0  0  0  0  0  0  0  # atno 6909 bound_to 6896
  144.8612  139.5997  143.5930 H   0  0  0  0  0  0  0  0  0  0  0  0  # atno 7974 bound_to 7965
  156.2411  140.2928  156.0448 H   0  0  0  0  0  0  0  0  0  0  0  0  # atno 8008 bound_to 7997
  155.1947  140.0408  157.2924 H   0  0  0  0  0  0  0  0  0  0  0  0  # atno 8009 bound_to 7997
  154.6171  140.2466  155.7603 H   0  0  0  0  0  0  0  0  0  0  0  0  # atno 8010 bound_to 7997
  139.8058  143.7770  152.2661 H   0  0  0  0  0  0  0  0  0  0  0  0  # atno 10167 bound_to 10162
  155.9999  130.4722  150.4520 H   0  0  0  0  0  0  0  0  0  0  0  0  # atno 10718 bound_to 10713
  154.7475  135.3084  154.8618 H   0  0  0  0  0  0  0  0  0  0  0  0  # atno 10763 bound_to 10752
  153.9415  135.6774  153.4748 H   0  0  0  0  0  0  0  0  0  0  0  0  # atno 10764 bound_to 10752
  153.1071  135.4884  154.8897 H   0  0  0  0  0  0  0  0  0  0  0  0  # atno 10765 bound_to 10752
  140.4391  134.1341  155.7688 H   0  0  0  0  0  0  0  0  0  0  0  0  # atno 11005 bound_to 11000
  146.2861  139.7009  142.9194 LP  0  0  0  0  0  0  0  0  0  0  0  0  # atno 17320 bound_to 7965
  145.4309  141.0415  143.2911 LP  0  0  0  0  0  0  0  0  0  0  0  0  # atno 17321 bound_to 7965
  139.7904  144.7412  150.9963 LP  0  0  0  0  0  0  0  0  0  0  0  0  # atno 17342 bound_to 10162
  140.7819  143.4448  151.0498 LP  0  0  0  0  0  0  0  0  0  0  0  0  # atno 17343 bound_to 10162
  157.2552  131.0555  151.2354 LP  0  0  0  0  0  0  0  0  0  0  0  0  # atno 17370 bound_to 10713
  157.3489  130.7072  149.6428 LP  0  0  0  0  0  0  0  0  0  0  0  0  # atno 17371 bound_to 10713
  141.1713  133.8602  157.1561 LP  0  0  0  0  0  0  0  0  0  0  0  0  # atno 17394 bound_to 11000
  140.0082  134.9999  157.0338 LP  0  0  0  0  0  0  0  0  0  0  0  0  # atno 17395 bound_to 11000

$$$$
