AV-unprocessed.smi:3211|AV-procd|sdf|12277|dock9
  -GOLD-   2272018113D 1   1.00000     0.00000
 Structure written by MMmdl.
 34 35  0  0  0  0  0  0  0  0  1 V2000
  151.4419  145.0568  159.6783 C   0  0  0  0  0  0  0  0  0  0  0  0
  152.3504  144.2564  160.6173 C   0  0  0  0  0  0  0  0  0  0  0  0
  152.5688  142.8572  160.1473 C   0  0  0  0  0  0  0  0  0  0  0  0
  152.0524  142.3707  159.0155 N   0  0  0  0  0  0  0  0  0  0  0  0
  152.4296  141.0453  158.7774 C   0  0  0  0  0  0  0  0  0  0  0  0
  151.9388  140.3345  157.5530 C   0  0  0  0  0  0  0  0  0  0  0  0
  150.4338  140.0267  157.6237 C   0  0  0  0  0  0  0  0  0  0  0  0
  149.6782  140.8112  156.6534 N   0  0  0  0  0  0  0  0  0  0  0  0
  149.8437  140.7568  155.3230 C   0  0  0  0  0  0  0  0  0  0  0  0
  150.6717  140.0238  154.7797 O   0  0  0  0  0  0  0  0  0  0  0  0
  148.9318  141.6613  154.5600 C   0  0  1  0  0  0  0  0  0  0  0  0
  148.0085  141.0266  153.5395 C   0  0  0  0  0  0  0  0  0  0  0  0
  147.4430  141.5572  154.8346 C   0  0  2  0  0  0  0  0  0  0  0  0
  146.5801  142.8005  154.8544 C   0  0  0  0  0  0  0  0  0  0  0  0
  153.2556  140.5351  159.7478 C   0  0  0  0  0  0  0  0  0  0  0  0
  153.5914  141.7032  160.9957 S   0  0  0  0  0  0  0  0  0  0  0  0
  151.3023  146.0733  160.0458 H   0  0  0  0  0  0  0  0  0  0  0  0
  150.4580  144.5943  159.5945 H   0  0  0  0  0  0  0  0  0  0  0  0
  151.8695  145.1195  158.6770 H   0  0  0  0  0  0  0  0  0  0  0  0
  153.3188  144.7493  160.7065 H   0  0  0  0  0  0  0  0  0  0  0  0
  151.9199  144.2296  161.6191 H   0  0  0  0  0  0  0  0  0  0  0  0
  152.1488  140.9394  156.6700 H   0  0  0  0  0  0  0  0  0  0  0  0
  152.4938  139.4056  157.4157 H   0  0  0  0  0  0  0  0  0  0  0  0
  150.2594  138.9710  157.4139 H   0  0  0  0  0  0  0  0  0  0  0  0
  150.0529  140.2096  158.6300 H   0  0  0  0  0  0  0  0  0  0  0  0
  148.9775  141.4392  157.0200 H   0  0  0  0  0  0  0  0  0  0  0  0
  149.3204  142.6495  154.3170 H   0  0  0  0  0  0  0  0  0  0  0  0
  147.8238  141.5895  152.6267 H   0  0  0  0  0  0  0  0  0  0  0  0
  148.0367  139.9457  153.4125 H   0  0  0  0  0  0  0  0  0  0  0  0
  147.1236  140.8046  155.5541 H   0  0  0  0  0  0  0  0  0  0  0  0
  146.9196  143.5201  154.1087 H   0  0  0  0  0  0  0  0  0  0  0  0
  146.6240  143.2704  155.8370 H   0  0  0  0  0  0  0  0  0  0  0  0
  145.5438  142.5397  154.6396 H   0  0  0  0  0  0  0  0  0  0  0  0
  153.6889  139.5471  159.8013 H   0  0  0  0  0  0  0  0  0  0  0  0
  1  2  1  0  0  0  0
  1 17  1  0  0  0  0
  1 18  1  0  0  0  0
  1 19  1  0  0  0  0
  2  3  1  0  0  0  0
  2 20  1  0  0  0  0
  2 21  1  0  0  0  0
  3 16  1  0  0  0  0
  3  4  2  0  0  0  0
  4  5  1  0  0  0  0
  5  6  1  0  0  0  0
  5 15  2  0  0  0  0
  6  7  1  0  0  0  0
  6 22  1  0  0  0  0
  6 23  1  0  0  0  0
  7  8  1  0  0  0  0
  7 24  1  0  0  0  0
  7 25  1  0  0  0  0
  8  9  1  0  0  0  0
  8 26  1  0  0  0  0
  9 10  2  0  0  0  0
  9 11  1  0  0  0  0
 11 13  1  0  0  0  0
 11 12  1  0  0  0  0
 11 27  1  0  0  0  0
 12 13  1  0  0  0  0
 12 28  1  0  0  0  0
 12 29  1  0  0  0  0
 13 14  1  0  0  0  0
 13 30  1  0  0  0  0
 14 31  1  0  0  0  0
 14 32  1  0  0  0  0
 14 33  1  0  0  0  0
 15 16  1  0  0  0  0
 15 34  1  0  0  0  0
M  END
> <s_m_source_file>
AV-unprocessed.smi

> <i_m_source_file_index>
3211

> <i_lp_mmshare_version>
43012

> <i_f3d_flags>
0

> <s_epik_input>
W0NIM11bQ0gyXWMxbmMoW2NIXXMxKVtDSDJdW0NIMl1bTkhdQyg9TylbQ0BASF0yW0NIMl1bQ0BIXTJbQ0gzXQ==

> <s_epik_cmdline>
J2VwaWtfcHl0aG9uJywgJy1waCcsICc3LjAnLCAnLXRuJywgJzgnLCAnLW1hJywgJzIwMCcsICctbWV0YWxfYmluZGluZycsICctaW1hZScsICc8aW5maWxlLm1hZT4nLCAnLW9tYWUnLCAnPG91dGZpbGUubWFlPic=

> <r_epik_Ionization_Penalty>
0.00109667

> <r_epik_Ionization_Penalty_Charging>
0

> <r_epik_Ionization_Penalty_Neutral>
0.00109667

> <r_epik_State_Penalty>
0.000719322

> <r_epik_Charging_Adjusted_Penalty>
0.000719322

> <i_epik_Tot_Q>
0

> <i_epik_Tot_abs_Q>
0

> <r_epik_Metal_State_Penalty>
-0

> <b_epik_Metal_Only>
0

> <s_lp_Force_Field>
OPLS_2005

> <r_lp_Energy>
-0.564993

> <b_lp_Chiralities_Consistent>
1

> <s_lp_Variant>
AV-unprocessed.smi:3211-4

> <Gold.Version>
5.8.1

> <Gold.Id.Protein>
6NUR|6NUR_protein|mol2

> <Gold.PLP.Fitness>
39.9338

> <Gold.PLP.PLP>
-37.8551

> <Gold.PLP.part.hbond>
-1.0000

> <Gold.PLP.part.metal>
0.0000

> <Gold.PLP.part.buried>
-2.9865

> <Gold.PLP.part.nonpolar>
-34.5778

> <Gold.PLP.part.repulsive>
0.0981

> <Gold.PLP.ligand.clash>
0.0000

> <Gold.PLP.ligand.torsion>
0.5024

> <Gold.PLP.Chemscore.Hbond>
1.0000

> <Gold.PLP.Chemscore.CHOScore>
0.0000

> <Gold.PLP.Chemscore.Metal>
0.0000

> <Gold.Chemscore.Hbonds>
donor molecule, donor type, donor heavy atom, donor atom, acceptor molecule, acceptor atom, score
      P1  H  7989  7998       L1    10  1.00

> <Gold.PLP.Chemscore.Internal.Correction>
0.0835

> <Gold.Rescore>
     Score         DG    S(hbond)    S(metal)    S(lipo)     H(rot)  DE(clash)    DE(int)     intcor
     16.01     -16.63       0.99        0.00     100.01       1.51       0.03       0.59       ----

> <Gold.Chemscore.Fitness>
16.0056

> <Gold.Chemscore.DG>
-16.6285

> <Gold.Chemscore.ZeroCoef>
-5.4800

> <Gold.Chemscore.Hbond>
0.9914

> <Gold.Chemscore.Metal>
0.0000

> <Gold.Chemscore.Lipo>
100.0144

> <Gold.Chemscore.Internal_Hbond>
0.0000

> <Gold.Chemscore.DEClash>
0.0348

> <Gold.Chemscore.DEInternal>
0.5880

> <Gold.Chemscore.Rot>
1.5096

> <Gold.Chemscore.Internal.Correction>
   9.000000E+99

> <Gold.Chemscore.Hbonds>
donor molecule, donor type, donor heavy atom, donor atom, acceptor molecule, acceptor atom, score
      P1  H  7989  7998       L1    10  0.85

> <Gold.Chemscore.Hbond.Weighted>
-3.3113

> <Gold.Chemscore.Metal.Weighted>
-0.0000

> <Gold.Chemscore.Lipo.Weighted>
-11.7017

> <Gold.Chemscore.Internal_Hbond.Weighted>
0.0000

> <Gold.Chemscore.DEClash.Weighted>
0.0348

> <Gold.Chemscore.DEInternal.Weighted>
0.5880

> <Gold.Chemscore.Rot.Weighted>
3.8646

> <Gold.Chemscore.Internal.Correction.Weighted>
   9.000000E+99

> <Gold.Protein.RotatedTorsions>
[ 6907 6896 6895 6894 ] final  141.96 input  -60.11 | X-H torsion
[ 7974 7965 7964 7962 ] final  -53.06 input  175.53 | X-H torsion
[ 8008 7997 7996 7995 ] final  150.41 input   59.86 | X-H torsion
[ 10167 10162 10161 10158 ] final -102.72 input  -65.29 | X-H torsion
[ 10718 10713 10712 10709 ] final   68.34 input   66.30 | X-H torsion
[ 10763 10752 10751 10750 ] final  130.33 input  -60.55 | X-H torsion
[ 11005 11000 10999 10996 ] final -126.67 input  -57.11 | X-H torsion

> <Gold.Protein.ActiveResidues>
 VAL166  LYS551  ARG553  GLY616  TRP617  ASP618  TYR619  PRO620  LYS621  CYS622 
 ASP623  PHE694  ASN695  SER759  ASP760  ASP761  ALA762  ILE779  LEU786  VAL792 
 PHE793  MET794  SER795  GLU796  ALA797  LYS798  CYS799  TRP800  GLU811  SER814 

> <Gold.Protein.RotatedAtoms>
  152.2245  133.5009  159.5180 H   0  0  0  0  0  0  0  0  0  0  0  0  # atno 6907 bound_to 6896
  150.7021  134.1298  159.4074 H   0  0  0  0  0  0  0  0  0  0  0  0  # atno 6908 bound_to 6896
  151.9219  135.0294  160.0573 H   0  0  0  0  0  0  0  0  0  0  0  0  # atno 6909 bound_to 6896
  145.9010  140.7994  142.9743 H   0  0  0  0  0  0  0  0  0  0  0  0  # atno 7974 bound_to 7965
  156.2716  140.2075  156.6013 H   0  0  0  0  0  0  0  0  0  0  0  0  # atno 8008 bound_to 7997
  154.6904  140.0531  157.0381 H   0  0  0  0  0  0  0  0  0  0  0  0  # atno 8009 bound_to 7997
  155.0874  140.3193  155.4586 H   0  0  0  0  0  0  0  0  0  0  0  0  # atno 8010 bound_to 7997
  140.2277  143.3629  152.0914 H   0  0  0  0  0  0  0  0  0  0  0  0  # atno 10167 bound_to 10162
  157.6284  130.9368  150.0365 H   0  0  0  0  0  0  0  0  0  0  0  0  # atno 10718 bound_to 10713
  153.7563  135.3202  155.3329 H   0  0  0  0  0  0  0  0  0  0  0  0  # atno 10763 bound_to 10752
  154.8246  135.4579  154.0882 H   0  0  0  0  0  0  0  0  0  0  0  0  # atno 10764 bound_to 10752
  153.2099  135.6934  153.8209 H   0  0  0  0  0  0  0  0  0  0  0  0  # atno 10765 bound_to 10752
  140.9662  134.0868  157.3917 H   0  0  0  0  0  0  0  0  0  0  0  0  # atno 11005 bound_to 11000
  144.6736  140.1677  143.7417 LP  0  0  0  0  0  0  0  0  0  0  0  0  # atno 17320 bound_to 7965
  145.8791  139.2313  143.1616 LP  0  0  0  0  0  0  0  0  0  0  0  0  # atno 17321 bound_to 7965
  139.5121  144.6912  151.5756 LP  0  0  0  0  0  0  0  0  0  0  0  0  # atno 17342 bound_to 10162
  140.6208  143.9261  150.6525 LP  0  0  0  0  0  0  0  0  0  0  0  0  # atno 17343 bound_to 10162
  156.1470  130.3642  149.9495 LP  0  0  0  0  0  0  0  0  0  0  0  0  # atno 17370 bound_to 10713
  156.7523  130.9120  151.3638 LP  0  0  0  0  0  0  0  0  0  0  0  0  # atno 17371 bound_to 10713
  139.8895  135.0106  156.6685 LP  0  0  0  0  0  0  0  0  0  0  0  0  # atno 17394 bound_to 11000
  140.7396  133.8989  155.8268 LP  0  0  0  0  0  0  0  0  0  0  0  0  # atno 17395 bound_to 11000

$$$$
