AV-unprocessed.smi:1607|AV-procd|sdf|6464|dock2
  -GOLD-   22720 7123D 1   1.00000     0.00000
 Structure written by MMmdl.
 39 40  0  0  0  0  0  0  0  0  2 V2000
  150.9879  145.1547  159.5060 C   0  0  0  0  0  0  0  0  0  0  0  0
  152.2798  144.5748  158.9041 C   0  0  1  0  0  0  0  0  0  0  0  0
  152.9855  143.5826  159.8471 C   0  0  0  0  0  0  0  0  0  0  0  0
  152.2405  142.2415  159.9047 C   0  0  0  0  0  0  0  0  0  0  0  0
  152.0147  141.6735  158.4945 C   0  0  0  0  0  0  0  0  0  0  0  0
  151.2953  142.6477  157.6338 N   0  3  2  0  0  0  0  0  0  0  0  0
  150.9220  142.0689  156.3185 C   0  0  0  0  0  0  0  0  0  0  0  0
  150.2087  140.7096  156.4573 C   0  0  0  0  0  0  0  0  0  0  0  0
  148.8505  140.7582  155.9281 N   0  0  0  0  0  0  0  0  0  0  0  0
  148.5288  141.0987  154.6704 C   0  0  0  0  0  0  0  0  0  0  0  0
  149.3635  141.4245  153.8264 O   0  0  0  0  0  0  0  0  0  0  0  0
  147.0419  141.0678  154.3095 C   0  0  0  0  0  0  0  0  0  0  0  0
  146.6053  139.7203  153.9937 N   0  0  0  0  0  0  0  0  0  0  0  0
  147.0319  138.8525  153.0738 C   0  0  0  0  0  0  0  0  0  0  0  0
  146.3516  137.7173  153.1194 N   0  0  0  0  0  0  0  0  0  0  0  0
  145.4507  137.9317  154.1491 N   0  0  0  0  0  0  0  0  0  0  0  0
  145.5968  139.1181  154.6720 N   0  0  0  0  0  0  0  0  0  0  0  0
  152.0405  143.9313  157.5227 C   0  0  0  0  0  0  0  0  0  0  0  0
  150.2330  144.3858  159.6705 H   0  0  0  0  0  0  0  0  0  0  0  0
  150.5525  145.9059  158.8464 H   0  0  0  0  0  0  0  0  0  0  0  0
  151.1843  145.6371  160.4640 H   0  0  0  0  0  0  0  0  0  0  0  0
  152.9552  145.4190  158.7586 H   0  0  0  0  0  0  0  0  0  0  0  0
  154.0013  143.4092  159.4892 H   0  0  0  0  0  0  0  0  0  0  0  0
  153.0829  144.0062  160.8474 H   0  0  0  0  0  0  0  0  0  0  0  0
  152.8075  141.5288  160.5045 H   0  0  0  0  0  0  0  0  0  0  0  0
  151.2820  142.3685  160.4087 H   0  0  0  0  0  0  0  0  0  0  0  0
  152.9690  141.4139  158.0334 H   0  0  0  0  0  0  0  0  0  0  0  0
  151.4386  140.7506  158.5732 H   0  0  0  0  0  0  0  0  0  0  0  0
  150.3060  142.7773  155.7624 H   0  0  0  0  0  0  0  0  0  0  0  0
  151.8278  141.9213  155.7287 H   0  0  0  0  0  0  0  0  0  0  0  0
  150.7767  139.9264  155.9520 H   0  0  0  0  0  0  0  0  0  0  0  0
  150.1355  140.4127  157.5027 H   0  0  0  0  0  0  0  0  0  0  0  0
  148.1034  140.5034  156.5583 H   0  0  0  0  0  0  0  0  0  0  0  0
  146.4332  141.4462  155.1323 H   0  0  0  0  0  0  0  0  0  0  0  0
  146.8632  141.7174  153.4514 H   0  0  0  0  0  0  0  0  0  0  0  0
  147.8319  139.0514  152.3760 H   0  0  0  0  0  0  0  0  0  0  0  0
  151.5032  144.6357  156.8885 H   0  0  0  0  0  0  0  0  0  0  0  0
  152.9978  143.7447  157.0330 H   0  0  0  0  0  0  0  0  0  0  0  0
  150.4278  142.8512  158.1097 H   0  0  0  0  0  0  0  0  0  0  0  0
  1  2  1  0  0  0  0
  1 19  1  0  0  0  0
  1 20  1  0  0  0  0
  1 21  1  0  0  0  0
  2 18  1  0  0  0  0
  2  3  1  0  0  0  0
  2 22  1  0  0  0  0
  3  4  1  0  0  0  0
  3 23  1  0  0  0  0
  3 24  1  0  0  0  0
  4  5  1  0  0  0  0
  4 25  1  0  0  0  0
  4 26  1  0  0  0  0
  5  6  1  0  0  0  0
  5 27  1  0  0  0  0
  5 28  1  0  0  0  0
  6  7  1  0  0  0  0
  6 18  1  0  0  0  0
  6 39  1  0  0  0  0
  7  8  1  0  0  0  0
  7 29  1  0  0  0  0
  7 30  1  0  0  0  0
  8  9  1  0  0  0  0
  8 31  1  0  0  0  0
  8 32  1  0  0  0  0
  9 10  1  0  0  0  0
  9 33  1  0  0  0  0
 10 11  2  0  0  0  0
 10 12  1  0  0  0  0
 12 13  1  0  0  0  0
 12 34  1  0  0  0  0
 12 35  1  0  0  0  0
 13 17  1  0  0  0  0
 13 14  1  0  0  0  0
 14 15  2  0  0  0  0
 14 36  1  0  0  0  0
 15 16  1  0  0  0  0
 16 17  2  0  0  0  0
 18 37  1  0  0  0  0
 18 38  1  0  0  0  0
M  CHG  1   6   1
M  END
> <s_m_source_file>
AV-unprocessed.smi

> <i_m_source_file_index>
1607

> <i_lp_mmshare_version>
43012

> <i_f3d_flags>
0

> <s_epik_input>
W0NIM11bQ0BASF0xW0NIMl1bQ0gyXVtDSDJdTihbQ0gyXTEpW0NIMl1bQ0gyXVtOSF1DKD1PKVtDSDJdbjJbY0hdbm5uMg==

> <s_epik_cmdline>
J2VwaWtfcHl0aG9uJywgJy1waCcsICc3LjAnLCAnLXRuJywgJzgnLCAnLW1hJywgJzIwMCcsICctbWV0YWxfYmluZGluZycsICctaW1hZScsICc8aW5maWxlLm1hZT4nLCAnLW9tYWUnLCAnPG91dGZpbGUubWFlPic=

> <r_lp_tautomer_probability>
1

> <r_epik_Ionization_Penalty>
0.00268321

> <r_epik_Ionization_Penalty_Charging>
0.00267875

> <r_epik_Ionization_Penalty_Neutral>
4.46125e-06

> <r_epik_State_Penalty>
0.00186642

> <r_epik_Charging_Adjusted_Penalty>
0.00454517

> <i_epik_Tot_Q>
1

> <i_epik_Tot_abs_Q>
1

> <r_epik_Metal_State_Penalty>
-0

> <b_epik_Metal_Only>
0

> <s_lp_Force_Field>
OPLS_2005

> <r_lp_Energy>
22.4706

> <b_lp_Chiralities_Consistent>
1

> <s_lp_Variant>
AV-unprocessed.smi:1607-2

> <Gold.Version>
5.8.1

> <Gold.Id.Protein>
6NUR|6NUR_protein|mol2

> <Gold.PLP.Fitness>
39.0676

> <Gold.PLP.PLP>
-35.5231

> <Gold.PLP.part.hbond>
-1.9667

> <Gold.PLP.part.metal>
0.0000

> <Gold.PLP.part.buried>
-4.1850

> <Gold.PLP.part.nonpolar>
-30.1184

> <Gold.PLP.part.repulsive>
0.7442

> <Gold.PLP.ligand.clash>
0.0000

> <Gold.PLP.ligand.torsion>
0.7145

> <Gold.PLP.Chemscore.Hbond>
0.6400

> <Gold.PLP.Chemscore.CHOScore>
1.0000

> <Gold.PLP.Chemscore.Metal>
0.0000

> <Gold.Chemscore.Hbonds>
donor molecule, donor type, donor heavy atom, donor atom, acceptor molecule, acceptor atom, score
      P1  H  7989  7998       L1    11  0.06
      P1  H  8011  8017       L1    11  0.77
      L1  C    14    36       P1  7957  1.00

> <Gold.PLP.Chemscore.Internal.Correction>
0.0535

> <Gold.Rescore>
     Score         DG    S(hbond)    S(metal)    S(lipo)     H(rot)  DE(clash)    DE(int)     intcor
     10.28     -11.63       0.80        0.00      88.63       2.69       0.23       1.12       ----

> <Gold.Chemscore.Fitness>
10.2789

> <Gold.Chemscore.DG>
-11.6305

> <Gold.Chemscore.ZeroCoef>
-5.4800

> <Gold.Chemscore.Hbond>
0.8008

> <Gold.Chemscore.Metal>
0.0000

> <Gold.Chemscore.Lipo>
88.6341

> <Gold.Chemscore.Internal_Hbond>
0.0000

> <Gold.Chemscore.DEClash>
0.2339

> <Gold.Chemscore.DEInternal>
1.1177

> <Gold.Chemscore.Rot>
2.6932

> <Gold.Chemscore.Internal.Correction>
   9.000000E+99

> <Gold.Chemscore.Hbonds>
donor molecule, donor type, donor heavy atom, donor atom, acceptor molecule, acceptor atom, score
      P1  H  7989  7998       L1    11  0.06
      P1  H  8011  8017       L1    11  0.78

> <Gold.Chemscore.Hbond.Weighted>
-2.6748

> <Gold.Chemscore.Metal.Weighted>
-0.0000

> <Gold.Chemscore.Lipo.Weighted>
-10.3702

> <Gold.Chemscore.Internal_Hbond.Weighted>
0.0000

> <Gold.Chemscore.DEClash.Weighted>
0.2339

> <Gold.Chemscore.DEInternal.Weighted>
1.1177

> <Gold.Chemscore.Rot.Weighted>
6.8945

> <Gold.Chemscore.Internal.Correction.Weighted>
   9.000000E+99

> <Gold.Protein.RotatedTorsions>
[ 6907 6896 6895 6894 ] final  125.53 input  -60.11 | X-H torsion
[ 7974 7965 7964 7962 ] final -135.29 input  175.53 | X-H torsion
[ 8008 7997 7996 7995 ] final  126.91 input   59.86 | X-H torsion
[ 10167 10162 10161 10158 ] final -172.59 input  -65.29 | X-H torsion
[ 10718 10713 10712 10709 ] final   72.37 input   66.30 | X-H torsion
[ 10763 10752 10751 10750 ] final   68.92 input  -60.55 | X-H torsion
[ 11005 11000 10999 10996 ] final  -89.25 input  -57.11 | X-H torsion

> <Gold.Protein.ActiveResidues>
 VAL166  LYS551  ARG553  GLY616  TRP617  ASP618  TYR619  PRO620  LYS621  CYS622 
 ASP623  PHE694  ASN695  SER759  ASP760  ASP761  ALA762  ILE779  LEU786  VAL792 
 PHE793  MET794  SER795  GLU796  ALA797  LYS798  CYS799  TRP800  GLU811  SER814 

> <Gold.Protein.RotatedAtoms>
  152.3983  133.6780  159.6294 H   0  0  0  0  0  0  0  0  0  0  0  0  # atno 6907 bound_to 6896
  150.7878  133.8835  159.3301 H   0  0  0  0  0  0  0  0  0  0  0  0  # atno 6908 bound_to 6896
  151.6606  135.0991  160.0230 H   0  0  0  0  0  0  0  0  0  0  0  0  # atno 6909 bound_to 6896
  144.9027  140.6792  143.5075 H   0  0  0  0  0  0  0  0  0  0  0  0  # atno 7974 bound_to 7965
  156.2877  140.2681  156.2188 H   0  0  0  0  0  0  0  0  0  0  0  0  # atno 8008 bound_to 7997
  155.0189  140.0386  157.2447 H   0  0  0  0  0  0  0  0  0  0  0  0  # atno 8009 bound_to 7997
  154.7452  140.2732  155.6344 H   0  0  0  0  0  0  0  0  0  0  0  0  # atno 8010 bound_to 7997
  139.5736  144.1584  152.1419 H   0  0  0  0  0  0  0  0  0  0  0  0  # atno 10167 bound_to 10162
  157.6498  130.9575  150.0919 H   0  0  0  0  0  0  0  0  0  0  0  0  # atno 10718 bound_to 10713
  153.0260  135.5229  154.7209 H   0  0  0  0  0  0  0  0  0  0  0  0  # atno 10763 bound_to 10752
  154.6265  135.2895  155.0269 H   0  0  0  0  0  0  0  0  0  0  0  0  # atno 10764 bound_to 10752
  154.1236  135.6604  153.4960 H   0  0  0  0  0  0  0  0  0  0  0  0  # atno 10765 bound_to 10752
  141.1588  133.7619  156.9568 H   0  0  0  0  0  0  0  0  0  0  0  0  # atno 11005 bound_to 11000
  145.3589  139.1687  143.4394 LP  0  0  0  0  0  0  0  0  0  0  0  0  # atno 17320 bound_to 7965
  146.3117  140.3649  142.8668 LP  0  0  0  0  0  0  0  0  0  0  0  0  # atno 17321 bound_to 7965
  140.1122  144.5447  150.6917 LP  0  0  0  0  0  0  0  0  0  0  0  0  # atno 17342 bound_to 10162
  140.7020  143.2441  151.4837 LP  0  0  0  0  0  0  0  0  0  0  0  0  # atno 17343 bound_to 10162
  156.1866  130.3652  149.8965 LP  0  0  0  0  0  0  0  0  0  0  0  0  # atno 17370 bound_to 10713
  156.6903  130.8893  151.3587 LP  0  0  0  0  0  0  0  0  0  0  0  0  # atno 17371 bound_to 10713
  140.1220  134.9411  157.2216 LP  0  0  0  0  0  0  0  0  0  0  0  0  # atno 17394 bound_to 11000
  140.3060  134.3077  155.7278 LP  0  0  0  0  0  0  0  0  0  0  0  0  # atno 17395 bound_to 11000

$$$$
