AV-unprocessed.smi:257|AV-procd|sdf|1964|dock4
  -GOLD-   2262021113D 1   1.00000     0.00000
 Structure written by MMmdl.
 50 53  0  0  0  0  0  0  0  0  1 V2000
  151.6152  145.5923  160.0989 C   0  0  0  0  0  0  0  0  0  0  0  0
  152.1477  144.2524  159.9068 N   0  0  0  0  0  0  0  0  0  0  0  0
  152.1758  143.6144  158.7281 C   0  0  0  0  0  0  0  0  0  0  0  0
  151.7383  144.1051  157.6864 O   0  0  0  0  0  0  0  0  0  0  0  0
  152.7772  142.2017  158.7364 C   0  0  1  0  0  0  0  0  0  0  0  0
  153.4657  141.8760  160.0685 C   0  0  0  0  0  0  0  0  0  0  0  0
  153.4187  140.3542  160.1146 C   0  0  0  0  0  0  0  0  0  0  0  0
  152.0684  140.0356  159.4735 C   0  0  0  0  0  0  0  0  0  0  0  0
  151.7537  141.1624  158.5995 N   0  0  0  0  0  0  0  0  0  0  0  0
  151.4191  140.8503  157.3278 C   0  0  0  0  0  0  0  0  0  0  0  0
  152.3345  140.1735  156.5929 N   0  0  0  0  0  0  0  0  0  0  0  0
  152.0531  139.8252  155.3336 C   0  0  0  0  0  0  0  0  0  0  0  0
  150.9376  140.0478  154.6345 N   0  0  0  0  0  0  0  0  0  0  0  0
  150.0143  140.7258  155.3753 C   0  0  0  0  0  0  0  0  0  0  0  0
  150.1719  141.1649  156.7191 C   0  0  0  0  0  0  0  0  0  0  0  0
  149.0221  141.8197  157.1439 N   0  0  0  0  0  0  0  0  0  0  0  0
  148.2294  141.7716  156.1081 C   0  0  0  0  0  0  0  0  0  0  0  0
  148.7406  141.1220  155.0068 N   0  0  0  0  0  0  0  0  0  0  0  0
  148.0731  140.9137  153.7311 C   0  0  0  0  0  0  0  0  0  0  0  0
  147.5611  139.4671  153.5205 C   0  0  0  0  0  0  0  0  0  0  0  0
  148.6776  138.5975  153.6043 O   0  0  0  0  0  0  0  0  0  0  0  0
  146.5625  139.0833  154.6307 C   0  0  0  0  0  0  0  0  0  0  0  0
  145.9011  137.7183  154.3697 C   0  0  0  0  0  0  0  0  0  0  0  0
  145.2763  137.7169  153.0918 O   0  0  0  0  0  0  0  0  0  0  0  0
  146.2039  137.8928  152.0280 C   0  0  0  0  0  0  0  0  0  0  0  0
  146.8885  139.2663  152.1445 C   0  0  0  0  0  0  0  0  0  0  0  0
  151.7244  145.8900  161.1416 H   0  0  0  0  0  0  0  0  0  0  0  0
  150.5557  145.6295  159.8426 H   0  0  0  0  0  0  0  0  0  0  0  0
  152.1488  146.3152  159.4802 H   0  0  0  0  0  0  0  0  0  0  0  0
  152.5206  143.7814  160.7184 H   0  0  0  0  0  0  0  0  0  0  0  0
  153.5080  142.1142  157.9294 H   0  0  0  0  0  0  0  0  0  0  0  0
  154.4839  142.2630  160.1204 H   0  0  0  0  0  0  0  0  0  0  0  0
  152.9066  142.2853  160.9123 H   0  0  0  0  0  0  0  0  0  0  0  0
  154.2247  139.9433  159.5052 H   0  0  0  0  0  0  0  0  0  0  0  0
  153.5172  139.9520  161.1231 H   0  0  0  0  0  0  0  0  0  0  0  0
  152.0844  139.0705  158.9644 H   0  0  0  0  0  0  0  0  0  0  0  0
  151.2934  139.9833  160.2387 H   0  0  0  0  0  0  0  0  0  0  0  0
  152.8325  139.2891  154.8127 H   0  0  0  0  0  0  0  0  0  0  0  0
  147.2396  142.2047  156.1214 H   0  0  0  0  0  0  0  0  0  0  0  0
  147.2463  141.6221  153.6600 H   0  0  0  0  0  0  0  0  0  0  0  0
  148.7703  141.1828  152.9365 H   0  0  0  0  0  0  0  0  0  0  0  0
  148.5398  137.8759  153.0100 H   0  0  0  0  0  0  0  0  0  0  0  0
  147.0541  139.0804  155.6044 H   0  0  0  0  0  0  0  0  0  0  0  0
  145.7784  139.8396  154.6876 H   0  0  0  0  0  0  0  0  0  0  0  0
  146.6296  136.9084  154.4326 H   0  0  0  0  0  0  0  0  0  0  0  0
  145.1447  137.5202  155.1291 H   0  0  0  0  0  0  0  0  0  0  0  0
  146.9379  137.0856  152.0326 H   0  0  0  0  0  0  0  0  0  0  0  0
  145.6675  137.8243  151.0814 H   0  0  0  0  0  0  0  0  0  0  0  0
  146.1348  140.0410  151.9976 H   0  0  0  0  0  0  0  0  0  0  0  0
  147.6104  139.3837  151.3356 H   0  0  0  0  0  0  0  0  0  0  0  0
  1  2  1  0  0  0  0
  1 27  1  0  0  0  0
  1 28  1  0  0  0  0
  1 29  1  0  0  0  0
  2  3  1  0  0  0  0
  2 30  1  0  0  0  0
  3  4  2  0  0  0  0
  3  5  1  0  0  0  0
  5  9  1  0  0  0  0
  5  6  1  0  0  0  0
  5 31  1  0  0  0  0
  6  7  1  0  0  0  0
  6 32  1  0  0  0  0
  6 33  1  0  0  0  0
  7  8  1  0  0  0  0
  7 34  1  0  0  0  0
  7 35  1  0  0  0  0
  8  9  1  0  0  0  0
  8 36  1  0  0  0  0
  8 37  1  0  0  0  0
  9 10  1  0  0  0  0
 10 15  1  0  0  0  0
 10 11  2  0  0  0  0
 11 12  1  0  0  0  0
 12 13  2  0  0  0  0
 12 38  1  0  0  0  0
 13 14  1  0  0  0  0
 14 18  1  0  0  0  0
 14 15  2  0  0  0  0
 15 16  1  0  0  0  0
 16 17  2  0  0  0  0
 17 18  1  0  0  0  0
 17 39  1  0  0  0  0
 18 19  1  0  0  0  0
 19 20  1  0  0  0  0
 19 40  1  0  0  0  0
 19 41  1  0  0  0  0
 20 26  1  0  0  0  0
 20 21  1  0  0  0  0
 20 22  1  0  0  0  0
 21 42  1  0  0  0  0
 22 23  1  0  0  0  0
 22 43  1  0  0  0  0
 22 44  1  0  0  0  0
 23 24  1  0  0  0  0
 23 45  1  0  0  0  0
 23 46  1  0  0  0  0
 24 25  1  0  0  0  0
 25 26  1  0  0  0  0
 25 47  1  0  0  0  0
 25 48  1  0  0  0  0
 26 49  1  0  0  0  0
 26 50  1  0  0  0  0
M  END
> <s_m_source_file>
AV-unprocessed.smi

> <i_m_source_file_index>
257

> <i_lp_mmshare_version>
43012

> <i_f3d_flags>
0

> <s_epik_input>
W0NIM11bTkhdQyg9TylbQ0BASF0xW0NIMl1bQ0gyXVtDSDJdTjFjKG5bY0hdbjIpYyhjMjMpbltjSF1uM1tDSDJdQzQoW09IXSlbQ0gyXVtDSDJdT1tDSDJdW0NIMl00

> <s_epik_cmdline>
J2VwaWtfcHl0aG9uJywgJy1waCcsICc3LjAnLCAnLXRuJywgJzgnLCAnLW1hJywgJzIwMCcsICctbWV0YWxfYmluZGluZycsICctaW1hZScsICc8aW5maWxlLm1hZT4nLCAnLW9tYWUnLCAnPG91dGZpbGUubWFlPic=

> <r_lp_tautomer_probability>
1

> <r_epik_Ionization_Penalty>
0.000951012

> <r_epik_Ionization_Penalty_Charging>
0

> <r_epik_Ionization_Penalty_Neutral>
0.000951012

> <r_epik_State_Penalty>
0.000495984

> <r_epik_Charging_Adjusted_Penalty>
0.000495984

> <i_epik_Tot_Q>
0

> <i_epik_Tot_abs_Q>
0

> <r_epik_Metal_State_Penalty>
-0

> <b_epik_Metal_Only>
0

> <s_lp_Force_Field>
OPLS_2005

> <r_lp_Energy>
37.7708

> <b_lp_Chiralities_Consistent>
1

> <s_lp_Variant>
AV-unprocessed.smi:257-2

> <Gold.Version>
5.8.1

> <Gold.Id.Protein>
6NUR|6NUR_protein|mol2

> <Gold.PLP.Fitness>
51.7530

> <Gold.PLP.PLP>
-45.2963

> <Gold.PLP.part.hbond>
-4.0000

> <Gold.PLP.part.metal>
0.0000

> <Gold.PLP.part.buried>
-0.6560

> <Gold.PLP.part.nonpolar>
-41.0340

> <Gold.PLP.part.repulsive>
0.5848

> <Gold.PLP.ligand.clash>
1.0047

> <Gold.PLP.ligand.torsion>
0.5418

> <Gold.PLP.Chemscore.Hbond>
2.8000

> <Gold.PLP.Chemscore.CHOScore>
0.0000

> <Gold.PLP.Chemscore.Metal>
0.0000

> <Gold.Chemscore.Hbonds>
donor molecule, donor type, donor heavy atom, donor atom, acceptor molecule, acceptor atom, score
      L1  H    21    42       P1  7948  1.00
      P1  H  7989  7998       L1    13  0.80
      P1  H  7997  8010       L1    11  1.00

> <Gold.PLP.Chemscore.Internal.Correction>
0.1450

> <Gold.Rescore>
     Score         DG    S(hbond)    S(metal)    S(lipo)     H(rot)  DE(clash)    DE(int)     intcor
     13.25     -13.80       1.60        0.00      83.43       2.65       0.09       0.46       ----

> <Gold.Chemscore.Fitness>
13.2459

> <Gold.Chemscore.DG>
-13.7990

> <Gold.Chemscore.ZeroCoef>
-5.4800

> <Gold.Chemscore.Hbond>
1.5980

> <Gold.Chemscore.Metal>
0.0000

> <Gold.Chemscore.Lipo>
83.4281

> <Gold.Chemscore.Internal_Hbond>
0.0000

> <Gold.Chemscore.DEClash>
0.0932

> <Gold.Chemscore.DEInternal>
0.4600

> <Gold.Chemscore.Rot>
2.6482

> <Gold.Chemscore.Internal.Correction>
   9.000000E+99

> <Gold.Chemscore.Hbonds>
donor molecule, donor type, donor heavy atom, donor atom, acceptor molecule, acceptor atom, score
      L1  H    21    42       P1  7948  0.93
      P1  H  7989  7998       L1    13  0.11
      P1  H  7997  8010       L1    11  0.27

> <Gold.Chemscore.Hbond.Weighted>
-5.3373

> <Gold.Chemscore.Metal.Weighted>
-0.0000

> <Gold.Chemscore.Lipo.Weighted>
-9.7611

> <Gold.Chemscore.Internal_Hbond.Weighted>
0.0000

> <Gold.Chemscore.DEClash.Weighted>
0.0932

> <Gold.Chemscore.DEInternal.Weighted>
0.4600

> <Gold.Chemscore.Rot.Weighted>
6.7793

> <Gold.Chemscore.Internal.Correction.Weighted>
   9.000000E+99

> <Gold.Protein.RotatedTorsions>
[ 6907 6896 6895 6894 ] final  175.12 input  -60.11 | X-H torsion
[ 7974 7965 7964 7962 ] final -177.96 input  175.53 | X-H torsion
[ 8008 7997 7996 7995 ] final   64.34 input   59.86 | X-H torsion
[ 10167 10162 10161 10158 ] final   71.41 input  -65.29 | X-H torsion
[ 10718 10713 10712 10709 ] final  127.66 input   66.30 | X-H torsion
[ 10763 10752 10751 10750 ] final  134.66 input  -60.55 | X-H torsion
[ 11005 11000 10999 10996 ] final  158.04 input  -57.11 | X-H torsion

> <Gold.Protein.ActiveResidues>
 VAL166  LYS551  ARG553  GLY616  TRP617  ASP618  TYR619  PRO620  LYS621  CYS622 
 ASP623  PHE694  ASN695  SER759  ASP760  ASP761  ALA762  ILE779  LEU786  VAL792 
 PHE793  MET794  SER795  GLU796  ALA797  LYS798  CYS799  TRP800  GLU811  SER814 

> <Gold.Protein.RotatedAtoms>
  151.7413  133.3322  159.3366 H   0  0  0  0  0  0  0  0  0  0  0  0  # atno 6907 bound_to 6896
  150.7572  134.6275  159.6178 H   0  0  0  0  0  0  0  0  0  0  0  0  # atno 6908 bound_to 6896
  152.3528  134.6983  160.0282 H   0  0  0  0  0  0  0  0  0  0  0  0  # atno 6909 bound_to 6896
  144.7129  140.0940  143.6420 H   0  0  0  0  0  0  0  0  0  0  0  0  # atno 7974 bound_to 7965
  155.6445  140.3497  155.4726 H   0  0  0  0  0  0  0  0  0  0  0  0  # atno 8008 bound_to 7997
  155.9898  140.1191  157.0672 H   0  0  0  0  0  0  0  0  0  0  0  0  # atno 8009 bound_to 7997
  154.4216  140.1121  156.5536 H   0  0  0  0  0  0  0  0  0  0  0  0  # atno 8010 bound_to 7997
  140.0464  144.5348  150.7396 H   0  0  0  0  0  0  0  0  0  0  0  0  # atno 10167 bound_to 10162
  157.5314  131.1098  150.9004 H   0  0  0  0  0  0  0  0  0  0  0  0  # atno 10718 bound_to 10713
  153.8272  135.3108  155.3415 H   0  0  0  0  0  0  0  0  0  0  0  0  # atno 10763 bound_to 10752
  154.7988  135.4739  154.0229 H   0  0  0  0  0  0  0  0  0  0  0  0  # atno 10764 bound_to 10752
  153.1657  135.6869  153.8770 H   0  0  0  0  0  0  0  0  0  0  0  0  # atno 10765 bound_to 10752
  140.1827  134.8464  157.2821 H   0  0  0  0  0  0  0  0  0  0  0  0  # atno 11005 bound_to 11000
  145.9595  139.2791  143.1164 LP  0  0  0  0  0  0  0  0  0  0  0  0  # atno 17320 bound_to 7965
  145.9236  140.9098  143.0392 LP  0  0  0  0  0  0  0  0  0  0  0  0  # atno 17321 bound_to 7965
  140.7237  143.2614  151.4193 LP  0  0  0  0  0  0  0  0  0  0  0  0  # atno 17342 bound_to 10162
  139.5981  144.1354  152.2167 LP  0  0  0  0  0  0  0  0  0  0  0  0  # atno 17343 bound_to 10162
  156.9584  130.5446  149.5285 LP  0  0  0  0  0  0  0  0  0  0  0  0  # atno 17370 bound_to 10713
  156.0425  130.5506  150.8804 LP  0  0  0  0  0  0  0  0  0  0  0  0  # atno 17371 bound_to 10713
  140.2249  134.3978  155.7548 LP  0  0  0  0  0  0  0  0  0  0  0  0  # atno 17394 bound_to 11000
  141.2223  133.7185  156.8549 LP  0  0  0  0  0  0  0  0  0  0  0  0  # atno 17395 bound_to 11000

$$$$
