AV-unprocessed.smi:158|AV-procd|sdf|1329|dock6
  -GOLD-   2262019 23D 1   1.00000     0.00000
 Structure written by MMmdl.
 31 33  0  0  0  0  0  0  0  0  1 V2000
  149.4947  138.3922  153.5787 N   0  0  0  0  0  0  0  0  0  0  0  0
  149.6428  138.6271  154.8902 C   0  0  0  0  0  0  0  0  0  0  0  0
  149.4712  137.5978  155.7519 N   0  0  0  0  0  0  0  0  0  0  0  0
  149.6113  137.7889  157.0696 C   0  0  0  0  0  0  0  0  0  0  0  0
  149.3718  136.4085  158.0747 Cl  0  0  0  0  0  0  0  0  0  0  0  0
  149.9180  138.9299  157.6951 N   0  0  0  0  0  0  0  0  0  0  0  0
  150.0923  139.9710  156.8298 C   0  0  0  0  0  0  0  0  0  0  0  0
  149.9710  139.9006  155.4161 C   0  0  0  0  0  0  0  0  0  0  0  0
  150.2133  141.1481  154.8568 N   0  0  0  0  0  0  0  0  0  0  0  0
  150.4641  141.9105  155.8876 C   0  0  0  0  0  0  0  0  0  0  0  0
  150.4131  141.2839  157.1135 N   0  0  0  0  0  0  0  0  0  0  0  0
  150.6544  141.8915  158.4590 C   0  0  2  0  0  0  0  0  0  0  0  0
  151.1282  143.1970  158.3012 O   0  0  0  0  0  0  0  0  0  0  0  0
  152.2933  143.3998  159.1029 C   0  0  1  0  0  0  0  0  0  0  0  0
  152.2479  144.8073  159.7174 C   0  0  0  0  0  0  0  0  0  0  0  0
  151.2165  144.8984  160.6772 O   0  0  0  0  0  0  0  0  0  0  0  0
  152.2542  142.2507  160.1177 C   0  0  2  0  0  0  0  0  0  0  0  0
  153.5162  141.9259  160.6661 O   0  0  0  0  0  0  0  0  0  0  0  0
  151.6989  141.1209  159.2733 C   0  0  2  0  0  0  0  0  0  0  0  0
  152.6348  140.6206  158.4605 F   0  0  0  0  0  0  0  0  0  0  0  0
  149.6756  141.9190  158.9398 H   0  0  0  0  0  0  0  0  0  0  0  0
  153.1608  143.2973  158.4480 H   0  0  0  0  0  0  0  0  0  0  0  0
  151.5578  142.4830  160.9249 H   0  0  0  0  0  0  0  0  0  0  0  0
  151.2511  140.3049  159.8407 H   0  0  0  0  0  0  0  0  0  0  0  0
  149.6183  139.1443  152.9163 H   0  0  0  0  0  0  0  0  0  0  0  0
  149.2619  137.4644  153.2556 H   0  0  0  0  0  0  0  0  0  0  0  0
  150.6953  142.9603  155.7810 H   0  0  0  0  0  0  0  0  0  0  0  0
  153.1940  145.0272  160.2127 H   0  0  0  0  0  0  0  0  0  0  0  0
  152.1027  145.5670  158.9488 H   0  0  0  0  0  0  0  0  0  0  0  0
  151.5281  145.4150  161.4047 H   0  0  0  0  0  0  0  0  0  0  0  0
  153.8871  142.7083  161.0459 H   0  0  0  0  0  0  0  0  0  0  0  0
  1  2  1  0  0  0  0
  1 25  1  0  0  0  0
  1 26  1  0  0  0  0
  2  8  1  0  0  0  0
  2  3  2  0  0  0  0
  3  4  1  0  0  0  0
  4  5  1  0  0  0  0
  4  6  2  0  0  0  0
  6  7  1  0  0  0  0
  7 11  1  0  0  0  0
  7  8  2  0  0  0  0
  8  9  1  0  0  0  0
  9 10  2  0  0  0  0
 10 11  1  0  0  0  0
 10 27  1  0  0  0  0
 11 12  1  0  0  0  0
 12 21  1  0  0  0  0
 12 19  1  0  0  0  0
 12 13  1  0  0  0  0
 13 14  1  0  0  0  0
 14 22  1  0  0  0  0
 14 15  1  0  0  0  0
 14 17  1  0  0  0  0
 15 16  1  0  0  0  0
 15 28  1  0  0  0  0
 15 29  1  0  0  0  0
 16 30  1  0  0  0  0
 17 23  1  0  0  0  0
 17 18  1  0  0  0  0
 17 19  1  0  0  0  0
 18 31  1  0  0  0  0
 19 24  1  0  0  0  0
 19 20  1  0  0  0  0
M  END
> <s_m_source_file>
AV-unprocessed.smi

> <i_m_source_file_index>
158

> <i_lp_mmshare_version>
43012

> <i_f3d_flags>
0

> <s_epik_input>
Q2xjKG4xKW5jKFtOSDJdKWMoYzEyKW5bY0hdbjJbQ0BASF0zT1tDQEhdKFtDSDJdW09IXSlbQ0BASF0oW09IXSlbQ0BASF0zRg==

> <s_epik_cmdline>
J2VwaWtfcHl0aG9uJywgJy1waCcsICc3LjAnLCAnLXRuJywgJzgnLCAnLW1hJywgJzIwMCcsICctbWV0YWxfYmluZGluZycsICctaW1hZScsICc8aW5maWxlLm1hZT4nLCAnLW9tYWUnLCAnPG91dGZpbGUubWFlPic=

> <r_lp_tautomer_probability>
1

> <r_epik_Ionization_Penalty>
6.51543e-05

> <r_epik_Ionization_Penalty_Charging>
0

> <r_epik_Ionization_Penalty_Neutral>
6.51543e-05

> <r_epik_State_Penalty>
-0

> <r_epik_Charging_Adjusted_Penalty>
0

> <i_epik_Tot_Q>
0

> <i_epik_Tot_abs_Q>
0

> <r_epik_Metal_State_Penalty>
-0

> <b_epik_Metal_Only>
0

> <s_epik_Chemistry_Notes>
This compound contains an acetal/aminal-like group ( X-CH(R)-Y where X, Y are N, S, or O) that may be acid/base labile, releasing an aldehyde.

> <s_lp_Force_Field>
OPLS_2005

> <r_lp_Energy>
35.9636

> <b_lp_Chiralities_Consistent>
1

> <s_lp_Variant>
AV-unprocessed.smi:158-7

> <Gold.Version>
5.8.1

> <Gold.Id.Protein>
6NUR|6NUR_protein|mol2

> <Gold.PLP.Fitness>
41.3472

> <Gold.PLP.PLP>
-31.1579

> <Gold.PLP.part.hbond>
-3.6991

> <Gold.PLP.part.metal>
0.0000

> <Gold.PLP.part.buried>
-5.1474

> <Gold.PLP.part.nonpolar>
-22.6775

> <Gold.PLP.part.repulsive>
0.3416

> <Gold.PLP.ligand.clash>
0.0000

> <Gold.PLP.ligand.torsion>
0.1654

> <Gold.PLP.Chemscore.Hbond>
2.6080

> <Gold.PLP.Chemscore.CHOScore>
0.8972

> <Gold.PLP.Chemscore.Metal>
0.0000

> <Gold.Chemscore.Hbonds>
donor molecule, donor type, donor heavy atom, donor atom, acceptor molecule, acceptor atom, score
      L1  H     1    25       P1  7957  1.00
      L1  H     1    26       P1  7948  1.00
      P1  H  7989  7998       L1     9  0.61
      L1  C    10    27       P1  8028  0.85

> <Gold.PLP.Chemscore.Internal.Correction>
0.0044

> <Gold.Rescore>
     Score         DG    S(hbond)    S(metal)    S(lipo)     H(rot)  DE(clash)    DE(int)     intcor
     11.00     -11.31       2.43        0.00      48.84       3.12       0.22       0.08       ----

> <Gold.Chemscore.Fitness>
10.9961

> <Gold.Chemscore.DG>
-11.3052

> <Gold.Chemscore.ZeroCoef>
-5.4800

> <Gold.Chemscore.Hbond>
2.4271

> <Gold.Chemscore.Metal>
0.0000

> <Gold.Chemscore.Lipo>
48.8358

> <Gold.Chemscore.Internal_Hbond>
0.0000

> <Gold.Chemscore.DEClash>
0.2242

> <Gold.Chemscore.DEInternal>
0.0849

> <Gold.Chemscore.Rot>
3.1230

> <Gold.Chemscore.Internal.Correction>
   9.000000E+99

> <Gold.Chemscore.Hbonds>
donor molecule, donor type, donor heavy atom, donor atom, acceptor molecule, acceptor atom, score
      L1  H     1    25       P1  7957  0.96
      L1  H     1    26       P1  7948  0.93
      P1  H  7989  7998       L1     9  0.34

> <Gold.Chemscore.Hbond.Weighted>
-8.1064

> <Gold.Chemscore.Metal.Weighted>
-0.0000

> <Gold.Chemscore.Lipo.Weighted>
-5.7138

> <Gold.Chemscore.Internal_Hbond.Weighted>
0.0000

> <Gold.Chemscore.DEClash.Weighted>
0.2242

> <Gold.Chemscore.DEInternal.Weighted>
0.0849

> <Gold.Chemscore.Rot.Weighted>
7.9950

> <Gold.Chemscore.Internal.Correction.Weighted>
   9.000000E+99

> <Gold.Protein.RotatedTorsions>
[ 6907 6896 6895 6894 ] final   35.80 input  -60.11 | X-H torsion
[ 7974 7965 7964 7962 ] final  -43.06 input  175.53 | X-H torsion
[ 8008 7997 7996 7995 ] final   91.61 input   59.86 | X-H torsion
[ 10167 10162 10161 10158 ] final  -65.25 input  -65.29 | X-H torsion
[ 10718 10713 10712 10709 ] final  -55.17 input   66.30 | X-H torsion
[ 10763 10752 10751 10750 ] final  -92.26 input  -60.55 | X-H torsion
[ 11005 11000 10999 10996 ] final  -91.54 input  -57.11 | X-H torsion

> <Gold.Protein.ActiveResidues>
 VAL166  LYS551  ARG553  GLY616  TRP617  ASP618  TYR619  PRO620  LYS621  CYS622 
 ASP623  PHE694  ASN695  SER759  ASP760  ASP761  ALA762  ILE779  LEU786  VAL792 
 PHE793  MET794  SER795  GLU796  ALA797  LYS798  CYS799  TRP800  GLU811  SER814 

> <Gold.Protein.RotatedAtoms>
  152.1210  134.9205  160.0562 H   0  0  0  0  0  0  0  0  0  0  0  0  # atno 6907 bound_to 6896
  152.0346  133.3947  159.4319 H   0  0  0  0  0  0  0  0  0  0  0  0  # atno 6908 bound_to 6896
  150.6849  134.3404  159.4909 H   0  0  0  0  0  0  0  0  0  0  0  0  # atno 6909 bound_to 6896
  146.0055  140.7025  142.9249 H   0  0  0  0  0  0  0  0  0  0  0  0  # atno 7974 bound_to 7965
  156.0258  140.3335  155.7087 H   0  0  0  0  0  0  0  0  0  0  0  0  # atno 8008 bound_to 7997
  155.5956  140.0650  157.2764 H   0  0  0  0  0  0  0  0  0  0  0  0  # atno 8009 bound_to 7997
  154.4333  140.1819  156.1108 H   0  0  0  0  0  0  0  0  0  0  0  0  # atno 8010 bound_to 7997
  140.5743  143.2320  151.6474 H   0  0  0  0  0  0  0  0  0  0  0  0  # atno 10167 bound_to 10162
  156.1390  130.4155  150.0136 H   0  0  0  0  0  0  0  0  0  0  0  0  # atno 10718 bound_to 10713
  154.6843  135.5238  153.8305 H   0  0  0  0  0  0  0  0  0  0  0  0  # atno 10763 bound_to 10752
  153.0586  135.6560  154.0526 H   0  0  0  0  0  0  0  0  0  0  0  0  # atno 10764 bound_to 10752
  154.0409  135.2977  155.3335 H   0  0  0  0  0  0  0  0  0  0  0  0  # atno 10765 bound_to 10752
  141.1542  133.7762  156.9894 H   0  0  0  0  0  0  0  0  0  0  0  0  # atno 11005 bound_to 11000
  144.6934  140.3308  143.7216 LP  0  0  0  0  0  0  0  0  0  0  0  0  # atno 17320 bound_to 7965
  145.7422  139.1767  143.2369 LP  0  0  0  0  0  0  0  0  0  0  0  0  # atno 17321 bound_to 7965
  139.5134  144.3443  152.0711 LP  0  0  0  0  0  0  0  0  0  0  0  0  # atno 17342 bound_to 10162
  140.2585  144.4093  150.6194 LP  0  0  0  0  0  0  0  0  0  0  0  0  # atno 17343 bound_to 10162
  156.8027  130.9296  151.3645 LP  0  0  0  0  0  0  0  0  0  0  0  0  # atno 17370 bound_to 10713
  157.6558  130.8923  149.9727 LP  0  0  0  0  0  0  0  0  0  0  0  0  # atno 17371 bound_to 10713
  140.1013  134.9534  157.1927 LP  0  0  0  0  0  0  0  0  0  0  0  0  # atno 17394 bound_to 11000
  140.3315  134.2805  155.7227 LP  0  0  0  0  0  0  0  0  0  0  0  0  # atno 17395 bound_to 11000

$$$$
