AV-unprocessed.smi:1264|AV-procd|sdf|5313|dock9
  -GOLD-   22720 4443D 1   1.00000     0.00000
 Structure written by MMmdl.
 43 43  0  0  0  0  0  0  0  0  1 V2000
  148.9631  133.3106  154.1051 C   0  0  0  0  0  0  0  0  0  0  0  0
  147.9865  134.0265  153.2988 N   0  0  0  0  0  0  0  0  0  0  0  0
  146.6631  133.9892  153.5092 C   0  0  0  0  0  0  0  0  0  0  0  0
  146.1462  133.3423  154.4223 O   0  0  0  0  0  0  0  0  0  0  0  0
  145.7976  134.8281  152.5534 C   0  0  2  0  0  0  0  0  0  0  0  0
  145.7738  134.1074  151.1843 C   0  0  0  0  0  0  0  0  0  0  0  0
  145.3982  132.6085  151.2338 C   0  0  0  0  0  0  0  0  0  0  0  0
  145.8354  131.8483  149.9703 C   0  0  0  0  0  0  0  0  0  0  0  0
  143.8886  132.4395  151.4644 C   0  0  0  0  0  0  0  0  0  0  0  0
  146.3980  136.1500  152.3798 N   0  0  0  0  0  0  0  0  0  0  0  0
  145.8087  137.3162  152.6851 C   0  0  0  0  0  0  0  0  0  0  0  0
  144.6580  137.4052  153.1133 O   0  0  0  0  0  0  0  0  0  0  0  0
  146.6535  138.5747  152.4941 C   0  0  0  0  0  0  0  0  0  0  0  0
  147.1098  139.0776  153.8395 C   0  0  0  0  0  0  0  0  0  0  0  0
  147.1393  140.4193  154.3204 C   0  0  0  0  0  0  0  0  0  0  0  0
  146.7286  141.6831  153.6204 C   0  0  0  0  0  0  0  0  0  0  0  0
  147.6078  140.4903  155.5549 N   0  0  0  0  0  0  0  0  0  0  0  0
  147.9079  139.1770  155.9282 O   0  0  0  0  0  0  0  0  0  0  0  0
  147.6067  138.3567  154.8901 C   0  0  0  0  0  0  0  0  0  0  0  0
  147.8661  136.9019  155.0900 C   0  0  0  0  0  0  0  0  0  0  0  0
  149.9647  133.4749  153.7083 H   0  0  0  0  0  0  0  0  0  0  0  0
  148.7644  132.2382  154.0959 H   0  0  0  0  0  0  0  0  0  0  0  0
  148.9431  133.6598  155.1381 H   0  0  0  0  0  0  0  0  0  0  0  0
  148.3364  134.5814  152.5311 H   0  0  0  0  0  0  0  0  0  0  0  0
  144.7878  134.9147  152.9578 H   0  0  0  0  0  0  0  0  0  0  0  0
  145.0711  134.6198  150.5243 H   0  0  0  0  0  0  0  0  0  0  0  0
  146.7507  134.2040  150.7070 H   0  0  0  0  0  0  0  0  0  0  0  0
  145.9004  132.1506  152.0867 H   0  0  0  0  0  0  0  0  0  0  0  0
  145.4032  132.2897  149.0719 H   0  0  0  0  0  0  0  0  0  0  0  0
  145.5194  130.8056  150.0123 H   0  0  0  0  0  0  0  0  0  0  0  0
  146.9192  131.8473  149.8559 H   0  0  0  0  0  0  0  0  0  0  0  0
  143.3116  132.8698  150.6451 H   0  0  0  0  0  0  0  0  0  0  0  0
  143.5734  132.9286  152.3864 H   0  0  0  0  0  0  0  0  0  0  0  0
  143.6176  131.3863  151.5446 H   0  0  0  0  0  0  0  0  0  0  0  0
  147.3489  136.1741  152.0415 H   0  0  0  0  0  0  0  0  0  0  0  0
  147.4993  138.3596  151.8399 H   0  0  0  0  0  0  0  0  0  0  0  0
  146.0536  139.3212  151.9724 H   0  0  0  0  0  0  0  0  0  0  0  0
  146.1743  141.4724  152.7062 H   0  0  0  0  0  0  0  0  0  0  0  0
  147.6000  142.2790  153.3482 H   0  0  0  0  0  0  0  0  0  0  0  0
  146.0913  142.2972  154.2573 H   0  0  0  0  0  0  0  0  0  0  0  0
  148.1671  136.4289  154.1549 H   0  0  0  0  0  0  0  0  0  0  0  0
  146.9700  136.3976  155.4517 H   0  0  0  0  0  0  0  0  0  0  0  0
  148.6624  136.7430  155.8175 H   0  0  0  0  0  0  0  0  0  0  0  0
  1  2  1  0  0  0  0
  1 21  1  0  0  0  0
  1 22  1  0  0  0  0
  1 23  1  0  0  0  0
  2  3  1  0  0  0  0
  2 24  1  0  0  0  0
  3  4  2  0  0  0  0
  3  5  1  0  0  0  0
  5  6  1  0  0  0  0
  5 10  1  0  0  0  0
  5 25  1  0  0  0  0
  6  7  1  0  0  0  0
  6 26  1  0  0  0  0
  6 27  1  0  0  0  0
  7  8  1  0  0  0  0
  7  9  1  0  0  0  0
  7 28  1  0  0  0  0
  8 29  1  0  0  0  0
  8 30  1  0  0  0  0
  8 31  1  0  0  0  0
  9 32  1  0  0  0  0
  9 33  1  0  0  0  0
  9 34  1  0  0  0  0
 10 11  1  0  0  0  0
 10 35  1  0  0  0  0
 11 12  2  0  0  0  0
 11 13  1  0  0  0  0
 13 14  1  0  0  0  0
 13 36  1  0  0  0  0
 13 37  1  0  0  0  0
 14 19  2  0  0  0  0
 14 15  1  0  0  0  0
 15 16  1  0  0  0  0
 15 17  2  0  0  0  0
 16 38  1  0  0  0  0
 16 39  1  0  0  0  0
 16 40  1  0  0  0  0
 17 18  1  0  0  0  0
 18 19  1  0  0  0  0
 19 20  1  0  0  0  0
 20 41  1  0  0  0  0
 20 42  1  0  0  0  0
 20 43  1  0  0  0  0
M  END
> <s_m_source_file>
AV-unprocessed.smi

> <i_m_source_file_index>
1264

> <i_lp_mmshare_version>
43012

> <i_f3d_flags>
0

> <s_epik_input>
W0NIM11bTkhdQyg9TylbQ0BIXShbQ0gyXVtDSF0oW0NIM10pW0NIM10pW05IXUMoPU8pW0NIMl1jMWMoW0NIM10pbm9jMVtDSDNd

> <s_epik_cmdline>
J2VwaWtfcHl0aG9uJywgJy1waCcsICc3LjAnLCAnLXRuJywgJzgnLCAnLW1hJywgJzIwMCcsICctbWV0YWxfYmluZGluZycsICctaW1hZScsICc8aW5maWxlLm1hZT4nLCAnLW9tYWUnLCAnPG91dGZpbGUubWFlPic=

> <r_lp_tautomer_probability>
1

> <r_epik_Ionization_Penalty>
6.00781e-08

> <r_epik_Ionization_Penalty_Charging>
0

> <r_epik_Ionization_Penalty_Neutral>
6.00781e-08

> <r_epik_State_Penalty>
-0

> <r_epik_Charging_Adjusted_Penalty>
0

> <i_epik_Tot_Q>
0

> <i_epik_Tot_abs_Q>
0

> <r_epik_Metal_State_Penalty>
-0

> <b_epik_Metal_Only>
0

> <s_lp_Force_Field>
OPLS_2005

> <r_lp_Energy>
-0.565017

> <b_lp_Chiralities_Consistent>
1

> <s_lp_Variant>
AV-unprocessed.smi:1264-1

> <Gold.Version>
5.8.1

> <Gold.Id.Protein>
6NUR|6NUR_protein|mol2

> <Gold.PLP.Fitness>
34.8599

> <Gold.PLP.PLP>
-30.7897

> <Gold.PLP.part.hbond>
-2.0000

> <Gold.PLP.part.metal>
0.0000

> <Gold.PLP.part.buried>
-5.6611

> <Gold.PLP.part.nonpolar>
-24.3791

> <Gold.PLP.part.repulsive>
0.5457

> <Gold.PLP.ligand.clash>
0.0000

> <Gold.PLP.ligand.torsion>
0.9211

> <Gold.PLP.Chemscore.Hbond>
1.9424

> <Gold.PLP.Chemscore.CHOScore>
0.0000

> <Gold.PLP.Chemscore.Metal>
0.0000

> <Gold.Chemscore.Hbonds>
donor molecule, donor type, donor heavy atom, donor atom, acceptor molecule, acceptor atom, score
      L1  H     2    24       P1  7948  0.95
      L1  H    10    35       P1  7948  1.00

> <Gold.PLP.Chemscore.Internal.Correction>
0.0853

> <Gold.Rescore>
     Score         DG    S(hbond)    S(metal)    S(lipo)     H(rot)  DE(clash)    DE(int)     intcor
     12.32     -13.41       1.59        0.00      68.05       2.09       0.02       1.06       ----

> <Gold.Chemscore.Fitness>
12.3201

> <Gold.Chemscore.DG>
-13.4050

> <Gold.Chemscore.ZeroCoef>
-5.4800

> <Gold.Chemscore.Hbond>
1.5932

> <Gold.Chemscore.Metal>
0.0000

> <Gold.Chemscore.Lipo>
68.0515

> <Gold.Chemscore.Internal_Hbond>
0.0000

> <Gold.Chemscore.DEClash>
0.0203

> <Gold.Chemscore.DEInternal>
1.0646

> <Gold.Chemscore.Rot>
2.0931

> <Gold.Chemscore.Internal.Correction>
   9.000000E+99

> <Gold.Chemscore.Hbonds>
donor molecule, donor type, donor heavy atom, donor atom, acceptor molecule, acceptor atom, score
      L1  H     2    24       P1  7948  0.21
      L1  H    10    35       P1  7948  0.98

> <Gold.Chemscore.Hbond.Weighted>
-5.3214

> <Gold.Chemscore.Metal.Weighted>
-0.0000

> <Gold.Chemscore.Lipo.Weighted>
-7.9620

> <Gold.Chemscore.Internal_Hbond.Weighted>
0.0000

> <Gold.Chemscore.DEClash.Weighted>
0.0203

> <Gold.Chemscore.DEInternal.Weighted>
1.0646

> <Gold.Chemscore.Rot.Weighted>
5.3584

> <Gold.Chemscore.Internal.Correction.Weighted>
   9.000000E+99

> <Gold.Protein.RotatedTorsions>
[ 6907 6896 6895 6894 ] final -176.80 input  -60.11 | X-H torsion
[ 7974 7965 7964 7962 ] final   33.37 input  175.53 | X-H torsion
[ 8008 7997 7996 7995 ] final   -0.97 input   59.86 | X-H torsion
[ 10167 10162 10161 10158 ] final  -38.78 input  -65.29 | X-H torsion
[ 10718 10713 10712 10709 ] final -159.90 input   66.30 | X-H torsion
[ 10763 10752 10751 10750 ] final  141.86 input  -60.55 | X-H torsion
[ 11005 11000 10999 10996 ] final   -4.13 input  -57.11 | X-H torsion

> <Gold.Protein.ActiveResidues>
 VAL166  LYS551  ARG553  GLY616  TRP617  ASP618  TYR619  PRO620  LYS621  CYS622 
 ASP623  PHE694  ASN695  SER759  ASP760  ASP761  ALA762  ILE779  LEU786  VAL792 
 PHE793  MET794  SER795  GLU796  ALA797  LYS798  CYS799  TRP800  GLU811  SER814 

> <Gold.Protein.RotatedAtoms>
  151.6107  133.3347  159.3066 H   0  0  0  0  0  0  0  0  0  0  0  0  # atno 6907 bound_to 6896
  150.8158  134.7343  159.6740 H   0  0  0  0  0  0  0  0  0  0  0  0  # atno 6908 bound_to 6896
  152.4254  134.5883  160.0018 H   0  0  0  0  0  0  0  0  0  0  0  0  # atno 6909 bound_to 6896
  146.1425  139.6405  142.9154 H   0  0  0  0  0  0  0  0  0  0  0  0  # atno 7974 bound_to 7965
  154.6520  140.2571  155.7203 H   0  0  0  0  0  0  0  0  0  0  0  0  # atno 8008 bound_to 7997
  156.2579  140.2866  156.0879 H   0  0  0  0  0  0  0  0  0  0  0  0  # atno 8009 bound_to 7997
  155.1437  140.0381  157.2795 H   0  0  0  0  0  0  0  0  0  0  0  0  # atno 8010 bound_to 7997
  140.7082  143.3255  151.2690 H   0  0  0  0  0  0  0  0  0  0  0  0  # atno 10167 bound_to 10162
  156.5745  130.8703  151.2847 H   0  0  0  0  0  0  0  0  0  0  0  0  # atno 10718 bound_to 10713
  153.9462  135.2974  155.3440 H   0  0  0  0  0  0  0  0  0  0  0  0  # atno 10763 bound_to 10752
  154.7450  135.5007  153.9192 H   0  0  0  0  0  0  0  0  0  0  0  0  # atno 10764 bound_to 10752
  153.1017  135.6736  153.9768 H   0  0  0  0  0  0  0  0  0  0  0  0  # atno 10765 bound_to 10752
  140.6769  133.9187  155.8530 H   0  0  0  0  0  0  0  0  0  0  0  0  # atno 11005 bound_to 11000
  145.5015  141.0437  143.2538 LP  0  0  0  0  0  0  0  0  0  0  0  0  # atno 17320 bound_to 7965
  144.7808  139.6530  143.7155 LP  0  0  0  0  0  0  0  0  0  0  0  0  # atno 17321 bound_to 7965
  139.6722  144.0000  152.2760 LP  0  0  0  0  0  0  0  0  0  0  0  0  # atno 17342 bound_to 10162
  139.9602  144.6562  150.8087 LP  0  0  0  0  0  0  0  0  0  0  0  0  # atno 17343 bound_to 10162
  157.7340  130.9740  150.2009 LP  0  0  0  0  0  0  0  0  0  0  0  0  # atno 17370 bound_to 10713
  156.2685  130.3719  149.8056 LP  0  0  0  0  0  0  0  0  0  0  0  0  # atno 17371 bound_to 10713
  141.0348  134.0705  157.3972 LP  0  0  0  0  0  0  0  0  0  0  0  0  # atno 17394 bound_to 11000
  139.8964  135.0145  156.7048 LP  0  0  0  0  0  0  0  0  0  0  0  0  # atno 17395 bound_to 11000

$$$$
