AV-unprocessed.smi:3303|AV-procd|sdf|12657|dock7
  -GOLD-   2272018593D 1   1.00000     0.00000
 Structure written by MMmdl.
 45 46  0  0  0  0  0  0  0  0  3 V2000
  147.1932  142.6680  154.4238 C   0  0  0  0  0  0  0  0  0  0  0  0
  148.1228  141.4906  154.0791 C   0  0  2  0  0  0  0  0  0  0  0  0
  147.2926  140.2842  153.5949 C   0  0  0  0  0  0  0  0  0  0  0  0
  148.1441  139.1205  153.2348 N   0  3  2  0  0  0  0  0  0  0  0  0
  147.3298  138.0346  152.6365 C   0  0  0  0  0  0  0  0  0  0  0  0
  148.9990  138.6811  154.3779 C   0  0  1  0  0  0  0  0  0  0  0  0
  149.9107  137.4923  154.0159 C   0  0  0  0  0  0  0  0  0  0  0  0
  149.8599  139.8586  154.8799 C   0  0  0  0  0  0  0  0  0  0  0  0
  149.0121  141.0789  155.2715 C   0  0  1  0  0  0  0  0  0  0  0  0
  149.9030  142.1898  155.6787 N   0  3  0  0  0  0  0  0  0  0  0  0
  150.5764  141.9987  156.9788 C   0  0  0  0  0  0  0  0  0  0  0  0
  151.6335  143.0857  157.2151 C   0  0  0  0  0  0  0  0  0  0  0  0
  152.1964  143.0404  158.6223 C   0  0  0  0  0  0  0  0  0  0  0  0
  152.0154  144.1247  159.5069 C   0  0  0  0  0  0  0  0  0  0  0  0
  152.5505  144.0261  160.8060 C   0  0  0  0  0  0  0  0  0  0  0  0
  153.2417  142.8538  161.1674 C   0  0  0  0  0  0  0  0  0  0  0  0
  153.3669  141.8268  160.2106 C   0  0  0  0  0  0  0  0  0  0  0  0
  152.8547  141.9101  158.9632 N   0  0  0  0  0  0  0  0  0  0  0  0
  146.5372  142.4251  155.2604 H   0  0  0  0  0  0  0  0  0  0  0  0
  146.5621  142.9306  153.5742 H   0  0  0  0  0  0  0  0  0  0  0  0
  147.7568  143.5617  154.6926 H   0  0  0  0  0  0  0  0  0  0  0  0
  148.7683  141.8053  153.2570 H   0  0  0  0  0  0  0  0  0  0  0  0
  146.5793  139.9835  154.3644 H   0  0  0  0  0  0  0  0  0  0  0  0
  146.7060  140.5810  152.7241 H   0  0  0  0  0  0  0  0  0  0  0  0
  146.7001  137.5571  153.3882 H   0  0  0  0  0  0  0  0  0  0  0  0
  147.9557  137.2729  152.1727 H   0  0  0  0  0  0  0  0  0  0  0  0
  146.6816  138.4242  151.8507 H   0  0  0  0  0  0  0  0  0  0  0  0
  148.3409  138.3649  155.1894 H   0  0  0  0  0  0  0  0  0  0  0  0
  150.5903  137.2594  154.8362 H   0  0  0  0  0  0  0  0  0  0  0  0
  150.5188  137.7079  153.1368 H   0  0  0  0  0  0  0  0  0  0  0  0
  149.3414  136.5838  153.8200 H   0  0  0  0  0  0  0  0  0  0  0  0
  150.4522  139.5395  155.7388 H   0  0  0  0  0  0  0  0  0  0  0  0
  150.5740  140.1414  154.1043 H   0  0  0  0  0  0  0  0  0  0  0  0
  148.3703  140.7957  156.1083 H   0  0  0  0  0  0  0  0  0  0  0  0
  150.6122  142.3107  154.9694 H   0  0  0  0  0  0  0  0  0  0  0  0
  149.8339  142.0255  157.7774 H   0  0  0  0  0  0  0  0  0  0  0  0
  151.0395  141.0112  156.9986 H   0  0  0  0  0  0  0  0  0  0  0  0
  152.4532  142.9737  156.5036 H   0  0  0  0  0  0  0  0  0  0  0  0
  151.2028  144.0716  157.0343 H   0  0  0  0  0  0  0  0  0  0  0  0
  151.4793  145.0115  159.2016 H   0  0  0  0  0  0  0  0  0  0  0  0
  152.4317  144.8342  161.5127 H   0  0  0  0  0  0  0  0  0  0  0  0
  153.6653  142.7436  162.1546 H   0  0  0  0  0  0  0  0  0  0  0  0
  153.8901  140.9140  160.4539 H   0  0  0  0  0  0  0  0  0  0  0  0
  149.3536  143.0361  155.7281 H   0  0  0  0  0  0  0  0  0  0  0  0
  148.7698  139.4370  152.5074 H   0  0  0  0  0  0  0  0  0  0  0  0
  1  2  1  0  0  0  0
  1 19  1  0  0  0  0
  1 20  1  0  0  0  0
  1 21  1  0  0  0  0
  2  9  1  0  0  0  0
  2  3  1  0  0  0  0
  2 22  1  0  0  0  0
  3  4  1  0  0  0  0
  3 23  1  0  0  0  0
  3 24  1  0  0  0  0
  4  5  1  0  0  0  0
  4  6  1  0  0  0  0
  4 45  1  0  0  0  0
  5 25  1  0  0  0  0
  5 26  1  0  0  0  0
  5 27  1  0  0  0  0
  6  7  1  0  0  0  0
  6  8  1  0  0  0  0
  6 28  1  0  0  0  0
  7 29  1  0  0  0  0
  7 30  1  0  0  0  0
  7 31  1  0  0  0  0
  8  9  1  0  0  0  0
  8 32  1  0  0  0  0
  8 33  1  0  0  0  0
  9 10  1  0  0  0  0
  9 34  1  0  0  0  0
 10 11  1  0  0  0  0
 10 35  1  0  0  0  0
 10 44  1  0  0  0  0
 11 12  1  0  0  0  0
 11 36  1  0  0  0  0
 11 37  1  0  0  0  0
 12 13  1  0  0  0  0
 12 38  1  0  0  0  0
 12 39  1  0  0  0  0
 13 18  1  0  0  0  0
 13 14  2  0  0  0  0
 14 15  1  0  0  0  0
 14 40  1  0  0  0  0
 15 16  2  0  0  0  0
 15 41  1  0  0  0  0
 16 17  1  0  0  0  0
 16 42  1  0  0  0  0
 17 18  2  0  0  0  0
 17 43  1  0  0  0  0
M  CHG  1   4   1
M  CHG  1  10   1
M  END
> <s_m_source_file>
AV-unprocessed.smi

> <i_m_source_file_index>
3303

> <i_lp_mmshare_version>
43012

> <i_f3d_flags>
0

> <s_epik_input>
W0NIM11bQ0BASF0xW0NIMl1OKFtDSDNdKVtDQEBIXShbQ0gzXSlbQ0gyXVtDQEhdMVtOSF1bQ0gyXVtDSDJdYzJbY0hdW2NIXVtjSF1bY0hdbjI=

> <s_epik_cmdline>
J2VwaWtfcHl0aG9uJywgJy1waCcsICc3LjAnLCAnLXRuJywgJzgnLCAnLW1hJywgJzIwMCcsICctbWV0YWxfYmluZGluZycsICctaW1hZScsICc8aW5maWxlLm1hZT4nLCAnLW9tYWUnLCAnPG91dGZpbGUubWFlPic=

> <r_epik_Ionization_Penalty>
0.0769462

> <r_epik_Ionization_Penalty_Charging>
0.0759813

> <r_epik_Ionization_Penalty_Neutral>
0.000964829

> <r_epik_State_Penalty>
0.0654373

> <r_epik_Charging_Adjusted_Penalty>
0.141419

> <i_epik_Tot_Q>
2

> <i_epik_Tot_abs_Q>
2

> <r_epik_Metal_State_Penalty>
0.0656439

> <b_epik_Metal_Only>
0

> <s_lp_Force_Field>
OPLS_2005

> <r_lp_Energy>
29.1913

> <b_lp_Chiralities_Consistent>
1

> <s_lp_Variant>
AV-unprocessed.smi:3303-1

> <Gold.Version>
5.8.1

> <Gold.Id.Protein>
6NUR|6NUR_protein|mol2

> <Gold.PLP.Fitness>
45.9918

> <Gold.PLP.PLP>
-37.2240

> <Gold.PLP.part.hbond>
-2.2568

> <Gold.PLP.part.metal>
0.0000

> <Gold.PLP.part.buried>
3.0757

> <Gold.PLP.part.nonpolar>
-39.6110

> <Gold.PLP.part.repulsive>
0.2178

> <Gold.PLP.ligand.clash>
0.0000

> <Gold.PLP.ligand.torsion>
0.1193

> <Gold.PLP.Chemscore.Hbond>
3.0000

> <Gold.PLP.Chemscore.CHOScore>
0.0000

> <Gold.PLP.Chemscore.Metal>
0.0000

> <Gold.Chemscore.Hbonds>
donor molecule, donor type, donor heavy atom, donor atom, acceptor molecule, acceptor atom, score
      L1  H     4    45       P1  7957  1.00
      L1  H    10    44       P1  8028  2.00

> <Gold.PLP.Chemscore.Internal.Correction>
0.0065

> <Gold.Rescore>
     Score         DG    S(hbond)    S(metal)    S(lipo)     H(rot)  DE(clash)    DE(int)     intcor
     20.34     -22.98       1.95        0.00     123.84       1.37       2.50       0.14       ----

> <Gold.Chemscore.Fitness>
20.3414

> <Gold.Chemscore.DG>
-22.9779

> <Gold.Chemscore.ZeroCoef>
-5.4800

> <Gold.Chemscore.Hbond>
1.9544

> <Gold.Chemscore.Metal>
0.0000

> <Gold.Chemscore.Lipo>
123.8353

> <Gold.Chemscore.Internal_Hbond>
0.0000

> <Gold.Chemscore.DEClash>
2.4953

> <Gold.Chemscore.DEInternal>
0.1413

> <Gold.Chemscore.Rot>
1.3744

> <Gold.Chemscore.Internal.Correction>
   9.000000E+99

> <Gold.Chemscore.Hbonds>
donor molecule, donor type, donor heavy atom, donor atom, acceptor molecule, acceptor atom, score
      L1  H     4    45       P1  7957  1.00
      L1  H    10    44       P1  8028  1.00

> <Gold.Chemscore.Hbond.Weighted>
-6.5276

> <Gold.Chemscore.Metal.Weighted>
-0.0000

> <Gold.Chemscore.Lipo.Weighted>
-14.4887

> <Gold.Chemscore.Internal_Hbond.Weighted>
0.0000

> <Gold.Chemscore.DEClash.Weighted>
2.4953

> <Gold.Chemscore.DEInternal.Weighted>
0.1413

> <Gold.Chemscore.Rot.Weighted>
3.5185

> <Gold.Chemscore.Internal.Correction.Weighted>
   9.000000E+99

> <Gold.Protein.RotatedTorsions>
[ 6907 6896 6895 6894 ] final   84.05 input  -60.11 | X-H torsion
[ 7974 7965 7964 7962 ] final   -6.79 input  175.53 | X-H torsion
[ 8008 7997 7996 7995 ] final   74.44 input   59.86 | X-H torsion
[ 10167 10162 10161 10158 ] final   59.74 input  -65.29 | X-H torsion
[ 10718 10713 10712 10709 ] final   -7.22 input   66.30 | X-H torsion
[ 10763 10752 10751 10750 ] final -174.15 input  -60.55 | X-H torsion
[ 11005 11000 10999 10996 ] final   -0.10 input  -57.11 | X-H torsion

> <Gold.Protein.ActiveResidues>
 VAL166  LYS551  ARG553  GLY616  TRP617  ASP618  TYR619  PRO620  LYS621  CYS622 
 ASP623  PHE694  ASN695  SER759  ASP760  ASP761  ALA762  ILE779  LEU786  VAL792 
 PHE793  MET794  SER795  GLU796  ALA797  LYS798  CYS799  TRP800  GLU811  SER814 

> <Gold.Protein.RotatedAtoms>
  152.5343  134.2801  159.9003 H   0  0  0  0  0  0  0  0  0  0  0  0  # atno 6907 bound_to 6896
  151.2756  133.4228  159.2631 H   0  0  0  0  0  0  0  0  0  0  0  0  # atno 6908 bound_to 6896
  151.0329  134.9567  159.8177 H   0  0  0  0  0  0  0  0  0  0  0  0  # atno 6909 bound_to 6896
  146.2322  140.2224  142.8338 H   0  0  0  0  0  0  0  0  0  0  0  0  # atno 7974 bound_to 7965
  155.7984  140.3477  155.5389 H   0  0  0  0  0  0  0  0  0  0  0  0  # atno 8008 bound_to 7997
  155.8563  140.0964  157.1663 H   0  0  0  0  0  0  0  0  0  0  0  0  # atno 8009 bound_to 7997
  154.4010  140.1367  156.3893 H   0  0  0  0  0  0  0  0  0  0  0  0  # atno 8010 bound_to 7997
  140.1732  144.4256  150.6651 H   0  0  0  0  0  0  0  0  0  0  0  0  # atno 10167 bound_to 10162
  156.7204  130.5149  149.5869 H   0  0  0  0  0  0  0  0  0  0  0  0  # atno 10718 bound_to 10713
  154.5996  135.2853  155.0550 H   0  0  0  0  0  0  0  0  0  0  0  0  # atno 10763 bound_to 10752
  154.1820  135.6455  153.5040 H   0  0  0  0  0  0  0  0  0  0  0  0  # atno 10764 bound_to 10752
  153.0152  135.5426  154.6710 H   0  0  0  0  0  0  0  0  0  0  0  0  # atno 10765 bound_to 10752
  140.6325  133.9562  155.8282 H   0  0  0  0  0  0  0  0  0  0  0  0  # atno 11005 bound_to 11000
  144.9622  140.8286  143.5506 LP  0  0  0  0  0  0  0  0  0  0  0  0  # atno 17320 bound_to 7965
  145.2196  139.2165  143.5100 LP  0  0  0  0  0  0  0  0  0  0  0  0  # atno 17321 bound_to 7965
  140.6569  143.2240  151.5948 LP  0  0  0  0  0  0  0  0  0  0  0  0  # atno 17342 bound_to 10162
  139.5329  144.2865  152.1187 LP  0  0  0  0  0  0  0  0  0  0  0  0  # atno 17343 bound_to 10162
  156.1598  130.6366  151.0704 LP  0  0  0  0  0  0  0  0  0  0  0  0  # atno 17370 bound_to 10713
  157.6900  131.0813  150.7134 LP  0  0  0  0  0  0  0  0  0  0  0  0  # atno 17371 bound_to 10713
  141.0665  134.0269  157.3587 LP  0  0  0  0  0  0  0  0  0  0  0  0  # atno 17394 bound_to 11000
  139.9110  135.0190  156.7692 LP  0  0  0  0  0  0  0  0  0  0  0  0  # atno 17395 bound_to 11000

$$$$
