#       Name:                AV-unprocessed.smi:2184
#       Creating user name   scv26
#       Creation time:       Fri Mar 27 12:06:56 2020


#       File generated by GOLD software.
#

@<TRIPOS>MOLECULE
AV-unprocessed.smi:2184
    53    54     1
SMALL
NO_CHARGES


@<TRIPOS>ATOM
      1 ****        -4.0865  -1.3039   0.6427 C.3            1 S1                 0.0000
      2 ****        -4.9503  -0.2378   1.8285 S.3            1 S1                 0.0000
      3 ****        -4.2090  -0.7856   3.3961 C.3            1 S1                 0.0000
      4 ****        -5.0290  -0.2556   4.5828 C.3            1 S1                 0.0000
      5 ****        -2.7391  -0.3649   3.5143 C.2            1 S1                 0.0000
      6 ****        -2.4422   0.8208   3.6652 O.2            1 S1                 0.0000
      7 ****        -1.8260  -1.3452   3.4294 N.am           1 S1                 0.0000
      8 ****        -0.3822  -1.1451   3.4827 C.3            1 S1                 0.0000
      9 ****         0.2009  -0.6371   2.1746 C.ar           1 S1                 0.0000
     10 ****         1.0611   0.4777   2.1527 C.ar           1 S1                 0.0000
     11 ****         1.5739   0.9194   0.9181 C.ar           1 S1                 0.0000
     12 ****         1.2150   0.2312  -0.2655 C.ar           1 S1                 0.0000
     13 ****         1.7159   0.6593  -1.5137 N.3            1 S1                 0.0000
     14 ****         1.1170   0.0971  -2.7221 C.3            1 S1                 0.0000
     15 ****         1.5691   0.8872  -3.9640 C.3            1 S1                 0.0000
     16 ****         1.0571   0.2579  -5.2638 C.3            1 S1                 0.0000
     17 ****         2.9931   0.9116  -4.0087 O.3            1 S1                 0.0000
     18 ****         3.5624   1.5606  -2.8748 C.3            1 S1                 0.0000
     19 ****         5.0818   1.6158  -3.0653 C.3            1 S1                 0.0000
     20 ****         3.1674   0.7935  -1.5986 C.3            1 S1                 0.0000
     21 ****         0.3861  -0.8420  -0.2387 N.ar           1 S1                 0.0000
     22 ****        -0.1003  -1.2622   0.9475 C.ar           1 S1                 0.0000
     23 ****        -4.4808  -1.1426  -0.3604 H              1 S1                 0.0000
     24 ****        -4.2209  -2.3540   0.9023 H              1 S1                 0.0000
     25 ****        -3.0206  -1.0795   0.6293 H              1 S1                 0.0000
     26 ****        -4.2654  -1.8751   3.4154 H              1 S1                 0.0000
     27 ****        -4.5964  -0.5650   5.5351 H              1 S1                 0.0000
     28 ****        -6.0501  -0.6362   4.5494 H              1 S1                 0.0000
     29 ****        -5.0836   0.8339   4.5785 H              1 S1                 0.0000
     30 ****        -2.1535  -2.2926   3.3071 H              1 S1                 0.0000
     31 ****        -0.1294  -0.4672   4.3000 H              1 S1                 0.0000
     32 ****         0.0865  -2.1007   3.7190 H              1 S1                 0.0000
     33 ****         1.3199   0.9949   3.0649 H              1 S1                 0.0000
     34 ****         2.2181   1.7856   0.8916 H              1 S1                 0.0000
     35 ****         1.4096  -0.9499  -2.8145 H              1 S1                 0.0000
     36 ****         0.0289   0.1274  -2.6501 H              1 S1                 0.0000
     37 ****         1.1955   1.9111  -3.9039 H              1 S1                 0.0000
     38 ****        -0.0326   0.2258  -5.2815 H              1 S1                 0.0000
     39 ****         1.4246  -0.7621  -5.3796 H              1 S1                 0.0000
     40 ****         1.3870   0.8313  -6.1304 H              1 S1                 0.0000
     41 ****         3.1834   2.5828  -2.8202 H              1 S1                 0.0000
     42 ****         5.5645   2.1154  -2.2251 H              1 S1                 0.0000
     43 ****         5.3410   2.1637  -3.9715 H              1 S1                 0.0000
     44 ****         5.5059   0.6146  -3.1485 H              1 S1                 0.0000
     45 ****         3.5743   1.3123  -0.7318 H              1 S1                 0.0000
     46 ****         3.6097  -0.2036  -1.6072 H              1 S1                 0.0000
     47 ****        -0.7518  -2.1229   0.9134 H              1 S1                 0.0000
     48 ****        -3.1612   1.5143   3.7112 LP             1 S1                 0.0000
     49 ****        -1.4822   1.0900   3.7417 LP             1 S1                 0.0000
     50 ****         1.3569   1.5926  -1.5124 LP             1 S1                 0.0000
     51 ****         3.2800   1.3976  -4.8343 LP             1 S1                 0.0000
     52 ****         3.3293  -0.0296  -4.0422 LP             1 S1                 0.0000
     53 ****         0.1394  -1.3144  -1.0849 LP             1 S1                 0.0000
@<TRIPOS>BOND
    1    1    2 1     
    2    1   23 1     
    3    1   24 1     
    4    1   25 1     
    5    2    3 1     
    6    3    4 1     
    7    3    5 1     
    8    3   26 1     
    9    4   27 1     
   10    4   28 1     
   11    4   29 1     
   12    5    6 2     
   13    5    7 am    
   14    7    8 1     
   15    7   30 1     
   16    8    9 1     
   17    8   31 1     
   18    8   32 1     
   19    9   22 ar    
   20    9   10 ar    
   21   10   11 ar    
   22   10   33 1     
   23   11   12 ar    
   24   11   34 1     
   25   12   13 1     
   26   12   21 ar    
   27   13   20 1     
   28   13   14 1     
   29   14   15 1     
   30   14   35 1     
   31   14   36 1     
   32   15   16 1     
   33   15   17 1     
   34   15   37 1     
   35   16   38 1     
   36   16   39 1     
   37   16   40 1     
   38   17   18 1     
   39   18   19 1     
   40   18   20 1     
   41   18   41 1     
   42   19   42 1     
   43   19   43 1     
   44   19   44 1     
   45   20   45 1     
   46   20   46 1     
   47   21   22 ar    
   48   22   47 1     
   49    6   48 1     
   50    6   49 1     
   51   13   50 1     
   52   17   51 1     
   53   17   52 1     
   54   21   53 1     
@<TRIPOS>SUBSTRUCTURE
      1 S1             1
@<TRIPOS>SET
LONE_PAIRS      STATIC     ATOMS    <user>   **** ""
6 48 49 50 51 52 53
DONOR_HYDROGENS      STATIC     ATOMS    <user>   **** ""
1 30
ATOM$BLUE        STATIC     ATOMS    COLORGROUP SYSTEM
6 48 49 50 51 52 53
ATOM$RED        STATIC     ATOMS    COLORGROUP SYSTEM
1 30
