#       Name:                AV-unprocessed.smi:2772
#       Creating user name   scv26
#       Creation time:       Fri Mar 27 15:11:51 2020


#       File generated by GOLD software.
#

@<TRIPOS>MOLECULE
AV-unprocessed.smi:2772
    58    60     1
SMALL
NO_CHARGES


@<TRIPOS>ATOM
      1 ****        -8.7786   4.3452   0.7069 C.3            1 S1                 0.0000
      2 ****        -7.4893   3.6071   0.4134 C.ar           1 S1                 0.0000
      3 ****        -6.2745   4.3061   0.2614 C.ar           1 S1                 0.0000
      4 ****        -5.1032   3.5715  -0.0060 C.ar           1 S1                 0.0000
      5 ****        -5.1870   2.1614  -0.1029 C.ar           1 S1                 0.0000
      6 ****        -4.0854   1.3077  -0.3835 N.am           1 S1                 0.0000
      7 ****        -2.7715   1.5598  -0.2538 C.2            1 S1                 0.0000
      8 ****        -2.2827   2.6089   0.1647 O.2            1 S1                 0.0000
      9 ****        -2.0360   0.5015  -0.6239 N.am           1 S1                 0.0000
     10 ****        -0.5770   0.4449  -0.6016 C.3            1 S1                 0.0000
     11 ****        -0.0793  -0.6518  -1.5512 C.3            1 S1                 0.0000
     12 ****         1.4520  -0.7944  -1.4973 C.3            1 S1                 0.0000
     13 ****         1.9393  -1.0578  -0.1111 N.4            1 S1                 1.0000
     14 ****         3.4129  -1.3102   0.0091 C.3            1 S1                 0.0000
     15 ****         4.0152  -2.1226  -1.1633 C.3            1 S1                 0.0000
     16 ****         5.5038  -2.4394  -0.9375 C.3            1 S1                 0.0000
     17 ****         5.6745  -3.1986   0.2985 N.3            1 S1                 0.0000
     18 ****         7.0797  -3.5437   0.4625 C.3            1 S1                 0.0000
     19 ****         5.2398  -2.3904   1.4348 C.3            1 S1                 0.0000
     20 ****         3.7397  -2.0726   1.3142 C.3            1 S1                 0.0000
     21 ****         1.4734   0.0111   0.8190 C.3            1 S1                 0.0000
     22 ****        -0.0568   0.1506   0.8138 C.3            1 S1                 0.0000
     23 ****        -6.4571   1.5673   0.0546 C.ar           1 S1                 0.0000
     24 ****        -7.5845   2.2641   0.3110 N.ar           1 S1                 0.0000
     25 ****        -8.6743   5.4123   0.5088 H              1 S1                 0.0000
     26 ****        -9.0557   4.2170   1.7535 H              1 S1                 0.0000
     27 ****        -9.5904   3.9642   0.0866 H              1 S1                 0.0000
     28 ****        -6.2376   5.3822   0.3437 H              1 S1                 0.0000
     29 ****        -4.1757   4.1048  -0.1421 H              1 S1                 0.0000
     30 ****        -4.3310   0.3718  -0.6713 H              1 S1                 0.0000
     31 ****        -2.5204  -0.3220  -0.9506 H              1 S1                 0.0000
     32 ****        -0.1772   1.4027  -0.9410 H              1 S1                 0.0000
     33 ****        -0.5394  -1.6060  -1.2895 H              1 S1                 0.0000
     34 ****        -0.3902  -0.4299  -2.5728 H              1 S1                 0.0000
     35 ****         1.7113  -1.6156  -2.1639 H              1 S1                 0.0000
     36 ****         1.9306   0.1046  -1.8886 H              1 S1                 0.0000
     37 ****         3.9195  -0.3436   0.0283 H              1 S1                 0.0000
     38 ****         3.4637  -3.0544  -1.2992 H              1 S1                 0.0000
     39 ****         3.9383  -1.5672  -2.0981 H              1 S1                 0.0000
     40 ****         5.8811  -3.0241  -1.7776 H              1 S1                 0.0000
     41 ****         6.0875  -1.5180  -0.9008 H              1 S1                 0.0000
     42 ****         7.2275  -4.1200   1.3766 H              1 S1                 0.0000
     43 ****         7.7067  -2.6524   0.5151 H              1 S1                 0.0000
     44 ****         7.4241  -4.1547  -0.3726 H              1 S1                 0.0000
     45 ****         5.4203  -2.9384   2.3604 H              1 S1                 0.0000
     46 ****         5.8209  -1.4682   1.4902 H              1 S1                 0.0000
     47 ****         3.4509  -1.4994   2.1932 H              1 S1                 0.0000
     48 ****         3.1683  -3.0014   1.3535 H              1 S1                 0.0000
     49 ****         1.7862  -0.1945   1.8405 H              1 S1                 0.0000
     50 ****         1.9325   0.9606   0.5389 H              1 S1                 0.0000
     51 ****        -0.3506   0.9482   1.4974 H              1 S1                 0.0000
     52 ****        -0.5085  -0.7659   1.1963 H              1 S1                 0.0000
     53 ****        -6.5739   0.4962  -0.0231 H              1 S1                 0.0000
     54 ****         1.4879  -1.9136   0.1784 H              1 S1                 0.0000
     55 ****        -2.8787   3.3624   0.4422 LP             1 S1                 0.0000
     56 ****        -1.2896   2.7078   0.2272 LP             1 S1                 0.0000
     57 ****         5.1252  -4.0330   0.2542 LP             1 S1                 0.0000
     58 ****        -8.4633   1.7998   0.4217 LP             1 S1                 0.0000
@<TRIPOS>BOND
    1    1    2 1     
    2    1   25 1     
    3    1   26 1     
    4    1   27 1     
    5    2   24 ar    
    6    2    3 ar    
    7    3    4 ar    
    8    3   28 1     
    9    4    5 ar    
   10    4   29 1     
   11    5    6 1     
   12    5   23 ar    
   13    6    7 am    
   14    6   30 1     
   15    7    8 2     
   16    7    9 am    
   17    9   10 1     
   18    9   31 1     
   19   10   22 1     
   20   10   11 1     
   21   10   32 1     
   22   11   12 1     
   23   11   33 1     
   24   11   34 1     
   25   12   13 1     
   26   12   35 1     
   27   12   36 1     
   28   13   14 1     
   29   13   21 1     
   30   13   54 1     
   31   14   20 1     
   32   14   15 1     
   33   14   37 1     
   34   15   16 1     
   35   15   38 1     
   36   15   39 1     
   37   16   17 1     
   38   16   40 1     
   39   16   41 1     
   40   17   18 1     
   41   17   19 1     
   42   18   42 1     
   43   18   43 1     
   44   18   44 1     
   45   19   20 1     
   46   19   45 1     
   47   19   46 1     
   48   20   47 1     
   49   20   48 1     
   50   21   22 1     
   51   21   49 1     
   52   21   50 1     
   53   22   51 1     
   54   22   52 1     
   55   23   24 ar    
   56   23   53 1     
   57    8   55 1     
   58    8   56 1     
   59   17   57 1     
   60   24   58 1     
@<TRIPOS>SUBSTRUCTURE
      1 S1             1
@<TRIPOS>SET
LONE_PAIRS      STATIC     ATOMS    <user>   **** ""
4 55 56 57 58
DONOR_HYDROGENS      STATIC     ATOMS    <user>   **** ""
3 30 31 54
ATOM$BLUE        STATIC     ATOMS    COLORGROUP SYSTEM
4 55 56 57 58
ATOM$RED        STATIC     ATOMS    COLORGROUP SYSTEM
3 30 31 54
