AV-unprocessed.smi:1046|AV-procd|sdf|4556|dock7
  -GOLD-   22720 2593D 1   1.00000     0.00000
 Structure written by MMmdl.
 54 56  0  0  0  0  0  0  0  0  3 V2000
  153.0737  142.7752  161.8553 C   0  0  0  0  0  0  0  0  0  0  0  0
  152.4984  142.4514  160.4878 C   0  0  0  0  0  0  0  0  0  0  0  0
  152.5980  141.1303  159.9963 C   0  0  0  0  0  0  0  0  0  0  0  0
  152.0740  140.7869  158.7311 C   0  0  0  0  0  0  0  0  0  0  0  0
  152.0528  139.5732  158.0658 N   0  0  0  0  0  0  0  0  0  0  0  0
  151.4246  139.8948  156.9391 C   0  0  0  0  0  0  0  0  0  0  0  0
  151.0256  141.1736  156.7994 N   0  0  0  0  0  0  0  0  0  0  0  0
  150.3140  141.7460  155.6714 C   0  0  0  0  0  0  0  0  0  0  0  0
  149.4280  140.7132  154.9471 C   0  0  2  0  0  0  0  0  0  0  0  0
  150.2543  139.9756  154.0695 O   0  0  0  0  0  0  0  0  0  0  0  0
  148.2776  141.3472  154.1336 C   0  0  0  0  0  0  0  0  0  0  0  0
  147.3194  142.0997  154.9842 N   0  3  2  0  0  0  0  0  0  0  0  0
  146.8953  141.3212  156.1746 C   0  0  0  0  0  0  0  0  0  0  0  0
  145.9794  142.1568  157.0883 C   0  0  0  0  0  0  0  0  0  0  0  0
  144.7956  142.6731  156.3574 N   0  3  2  0  0  0  0  0  0  0  0  0
  143.7473  141.6440  156.1202 C   0  0  0  0  0  0  0  0  0  0  0  0
  142.5043  142.2218  155.4227 C   0  0  0  0  0  0  0  0  0  0  0  0
  141.9731  141.2736  154.5216 O   0  0  0  0  0  0  0  0  0  0  0  0
  145.2065  143.4349  155.1490 C   0  0  0  0  0  0  0  0  0  0  0  0
  146.1461  142.6211  154.2346 C   0  0  0  0  0  0  0  0  0  0  0  0
  151.4429  141.8097  157.9642 C   0  0  0  0  0  0  0  0  0  0  0  0
  151.3410  143.1288  158.4406 C   0  0  0  0  0  0  0  0  0  0  0  0
  151.8694  143.4544  159.7073 C   0  0  0  0  0  0  0  0  0  0  0  0
  151.7532  144.8809  160.2146 C   0  0  0  0  0  0  0  0  0  0  0  0
  153.4813  141.8862  162.3370 H   0  0  0  0  0  0  0  0  0  0  0  0
  152.3025  143.1842  162.5082 H   0  0  0  0  0  0  0  0  0  0  0  0
  153.8770  143.5069  161.7673 H   0  0  0  0  0  0  0  0  0  0  0  0
  153.0791  140.3670  160.5901 H   0  0  0  0  0  0  0  0  0  0  0  0
  151.2364  139.1561  156.1735 H   0  0  0  0  0  0  0  0  0  0  0  0
  149.7140  142.5841  156.0285 H   0  0  0  0  0  0  0  0  0  0  0  0
  151.0498  142.1629  154.9819 H   0  0  0  0  0  0  0  0  0  0  0  0
  149.0313  140.0230  155.6910 H   0  0  0  0  0  0  0  0  0  0  0  0
  149.8144  139.8906  153.2368 H   0  0  0  0  0  0  0  0  0  0  0  0
  148.6613  142.0207  153.3666 H   0  0  0  0  0  0  0  0  0  0  0  0
  147.7539  140.5510  153.6020 H   0  0  0  0  0  0  0  0  0  0  0  0
  146.3870  140.4103  155.8548 H   0  0  0  0  0  0  0  0  0  0  0  0
  147.7743  141.0098  156.7404 H   0  0  0  0  0  0  0  0  0  0  0  0
  145.6683  141.5761  157.9575 H   0  0  0  0  0  0  0  0  0  0  0  0
  146.5389  143.0080  157.4789 H   0  0  0  0  0  0  0  0  0  0  0  0
  144.1533  140.8176  155.5370 H   0  0  0  0  0  0  0  0  0  0  0  0
  143.4326  141.2121  157.0714 H   0  0  0  0  0  0  0  0  0  0  0  0
  141.7358  142.5260  156.1323 H   0  0  0  0  0  0  0  0  0  0  0  0
  142.7805  143.1121  154.8570 H   0  0  0  0  0  0  0  0  0  0  0  0
  142.0927  141.5938  153.6395 H   0  0  0  0  0  0  0  0  0  0  0  0
  144.3371  143.7791  154.5899 H   0  0  0  0  0  0  0  0  0  0  0  0
  145.7242  144.3362  155.4803 H   0  0  0  0  0  0  0  0  0  0  0  0
  146.4763  143.2605  153.4167 H   0  0  0  0  0  0  0  0  0  0  0  0
  145.6069  141.7907  153.7773 H   0  0  0  0  0  0  0  0  0  0  0  0
  150.8600  143.8843  157.8374 H   0  0  0  0  0  0  0  0  0  0  0  0
  151.2831  145.5297  159.4750 H   0  0  0  0  0  0  0  0  0  0  0  0
  152.7389  145.2895  160.4383 H   0  0  0  0  0  0  0  0  0  0  0  0
  151.1504  144.9142  161.1223 H   0  0  0  0  0  0  0  0  0  0  0  0
  147.8268  142.8999  155.3359 H   0  0  0  0  0  0  0  0  0  0  0  0
  144.3588  143.3379  156.9817 H   0  0  0  0  0  0  0  0  0  0  0  0
  1  2  1  0  0  0  0
  1 25  1  0  0  0  0
  1 26  1  0  0  0  0
  1 27  1  0  0  0  0
  2 23  1  0  0  0  0
  2  3  2  0  0  0  0
  3  4  1  0  0  0  0
  3 28  1  0  0  0  0
  4 21  2  0  0  0  0
  4  5  1  0  0  0  0
  5  6  2  0  0  0  0
  6  7  1  0  0  0  0
  6 29  1  0  0  0  0
  7  8  1  0  0  0  0
  7 21  1  0  0  0  0
  8  9  1  0  0  0  0
  8 30  1  0  0  0  0
  8 31  1  0  0  0  0
  9 10  1  0  0  0  0
  9 11  1  0  0  0  0
  9 32  1  0  0  0  0
 10 33  1  0  0  0  0
 11 12  1  0  0  0  0
 11 34  1  0  0  0  0
 11 35  1  0  0  0  0
 12 20  1  0  0  0  0
 12 13  1  0  0  0  0
 12 53  1  0  0  0  0
 13 14  1  0  0  0  0
 13 36  1  0  0  0  0
 13 37  1  0  0  0  0
 14 15  1  0  0  0  0
 14 38  1  0  0  0  0
 14 39  1  0  0  0  0
 15 16  1  0  0  0  0
 15 19  1  0  0  0  0
 15 54  1  0  0  0  0
 16 17  1  0  0  0  0
 16 40  1  0  0  0  0
 16 41  1  0  0  0  0
 17 18  1  0  0  0  0
 17 42  1  0  0  0  0
 17 43  1  0  0  0  0
 18 44  1  0  0  0  0
 19 20  1  0  0  0  0
 19 45  1  0  0  0  0
 19 46  1  0  0  0  0
 20 47  1  0  0  0  0
 20 48  1  0  0  0  0
 21 22  1  0  0  0  0
 22 23  2  0  0  0  0
 22 49  1  0  0  0  0
 23 24  1  0  0  0  0
 24 50  1  0  0  0  0
 24 51  1  0  0  0  0
 24 52  1  0  0  0  0
M  CHG  1  12   1
M  CHG  1  15   1
M  END
> <s_m_source_file>
AV-unprocessed.smi

> <i_m_source_file_index>
1046

> <i_lp_mmshare_version>
43012

> <i_f3d_flags>
0

> <s_epik_input>
W0NIM11jKFtjSF0xKWMoW0NIM10pW2NIXWMoYzEyKW4oW2NIXW4yKVtDSDJdW0NASF0oW09IXSlbQ0gyXU4zW0NIMl1bQ0gyXU4oW0NIMl1bQ0gyXTMpW0NIMl1bQ0gyXVtPSF0=

> <s_epik_cmdline>
J2VwaWtfcHl0aG9uJywgJy1waCcsICc3LjAnLCAnLXRuJywgJzgnLCAnLW1hJywgJzIwMCcsICctbWV0YWxfYmluZGluZycsICctaW1hZScsICc8aW5maWxlLm1hZT4nLCAnLW9tYWUnLCAnPG91dGZpbGUubWFlPic=

> <r_epik_Ionization_Penalty>
3.17398

> <r_epik_Ionization_Penalty_Charging>
3.09061

> <r_epik_Ionization_Penalty_Neutral>
0.0833726

> <r_epik_State_Penalty>
2.17606

> <r_epik_Charging_Adjusted_Penalty>
5.26667

> <i_epik_Tot_Q>
2

> <i_epik_Tot_abs_Q>
2

> <r_epik_Metal_State_Penalty>
2.08587

> <b_epik_Metal_Only>
0

> <s_lp_Force_Field>
OPLS_2005

> <r_lp_Energy>
31.2877

> <b_lp_Chiralities_Consistent>
1

> <s_lp_Variant>
AV-unprocessed.smi:1046-9

> <Gold.Version>
5.8.1

> <Gold.Id.Protein>
6NUR|6NUR_protein|mol2

> <Gold.PLP.Fitness>
63.8064

> <Gold.PLP.PLP>
-50.4091

> <Gold.PLP.part.hbond>
-5.0000

> <Gold.PLP.part.metal>
0.0000

> <Gold.PLP.part.buried>
-6.9813

> <Gold.PLP.part.nonpolar>
-38.0678

> <Gold.PLP.part.repulsive>
0.0947

> <Gold.PLP.ligand.clash>
0.0000

> <Gold.PLP.ligand.torsion>
0.8989

> <Gold.PLP.Chemscore.Hbond>
4.9760

> <Gold.PLP.Chemscore.CHOScore>
0.0000

> <Gold.PLP.Chemscore.Metal>
0.0000

> <Gold.Chemscore.Hbonds>
donor molecule, donor type, donor heavy atom, donor atom, acceptor molecule, acceptor atom, score
      L1  H    10    33       P1  7957  0.86
      L1  H    12    53       P1  8028  1.62
      L1  H    18    44       P1 10174  0.60
      P1  H  7989  7998       L1    10  0.80

> <Gold.PLP.Chemscore.Internal.Correction>
0.2670

> <Gold.Rescore>
     Score         DG    S(hbond)    S(metal)    S(lipo)     H(rot)  DE(clash)    DE(int)     intcor
     20.23     -21.39       3.08        0.00     119.91       3.28       0.24       0.92       ----

> <Gold.Chemscore.Fitness>
20.2295

> <Gold.Chemscore.DG>
-21.3948

> <Gold.Chemscore.ZeroCoef>
-5.4800

> <Gold.Chemscore.Hbond>
3.0806

> <Gold.Chemscore.Metal>
0.0000

> <Gold.Chemscore.Lipo>
119.9119

> <Gold.Chemscore.Internal_Hbond>
0.0000

> <Gold.Chemscore.DEClash>
0.2431

> <Gold.Chemscore.DEInternal>
0.9223

> <Gold.Chemscore.Rot>
3.2828

> <Gold.Chemscore.Internal.Correction>
   9.000000E+99

> <Gold.Chemscore.Hbonds>
donor molecule, donor type, donor heavy atom, donor atom, acceptor molecule, acceptor atom, score
      L1  H    10    33       P1  7957  0.83
      L1  H    12    53       P1  8028  0.60
      L1  H    18    44       P1 10174  0.04
      P1  H  7989  7998       L1    10  0.10

> <Gold.Chemscore.Hbond.Weighted>
-10.2891

> <Gold.Chemscore.Metal.Weighted>
-0.0000

> <Gold.Chemscore.Lipo.Weighted>
-14.0297

> <Gold.Chemscore.Internal_Hbond.Weighted>
0.0000

> <Gold.Chemscore.DEClash.Weighted>
0.2431

> <Gold.Chemscore.DEInternal.Weighted>
0.9223

> <Gold.Chemscore.Rot.Weighted>
8.4039

> <Gold.Chemscore.Internal.Correction.Weighted>
   9.000000E+99

> <Gold.Protein.RotatedTorsions>
[ 6907 6896 6895 6894 ] final  162.73 input  -60.11 | X-H torsion
[ 7974 7965 7964 7962 ] final   67.52 input  175.53 | X-H torsion
[ 8008 7997 7996 7995 ] final  -92.75 input   59.86 | X-H torsion
[ 10167 10162 10161 10158 ] final -134.11 input  -65.29 | X-H torsion
[ 10718 10713 10712 10709 ] final  -38.08 input   66.30 | X-H torsion
[ 10763 10752 10751 10750 ] final  -86.23 input  -60.55 | X-H torsion
[ 11005 11000 10999 10996 ] final  105.39 input  -57.11 | X-H torsion

> <Gold.Protein.ActiveResidues>
 VAL166  LYS551  ARG553  GLY616  TRP617  ASP618  TYR619  PRO620  LYS621  CYS622 
 ASP623  PHE694  ASN695  SER759  ASP760  ASP761  ALA762  ILE779  LEU786  VAL792 
 PHE793  MET794  SER795  GLU796  ALA797  LYS798  CYS799  TRP800  GLU811  SER814 

> <Gold.Protein.RotatedAtoms>
  151.9360  133.3624  159.3947 H   0  0  0  0  0  0  0  0  0  0  0  0  # atno 6907 bound_to 6896
  150.7007  134.4488  159.5336 H   0  0  0  0  0  0  0  0  0  0  0  0  # atno 6908 bound_to 6896
  152.2137  134.8478  160.0545 H   0  0  0  0  0  0  0  0  0  0  0  0  # atno 6909 bound_to 6896
  145.8137  139.3046  143.1084 H   0  0  0  0  0  0  0  0  0  0  0  0  # atno 7974 bound_to 7965
  154.7271  140.0506  157.0692 H   0  0  0  0  0  0  0  0  0  0  0  0  # atno 8008 bound_to 7997
  155.0351  140.3162  155.4725 H   0  0  0  0  0  0  0  0  0  0  0  0  # atno 8009 bound_to 7997
  156.2832  140.2143  156.5473 H   0  0  0  0  0  0  0  0  0  0  0  0  # atno 8010 bound_to 7997
  139.8914  143.6718  152.2611 H   0  0  0  0  0  0  0  0  0  0  0  0  # atno 10167 bound_to 10162
  156.3078  130.4248  149.8080 H   0  0  0  0  0  0  0  0  0  0  0  0  # atno 10718 bound_to 10713
  154.6201  135.5456  153.7566 H   0  0  0  0  0  0  0  0  0  0  0  0  # atno 10763 bound_to 10752
  153.0234  135.6410  154.1453 H   0  0  0  0  0  0  0  0  0  0  0  0  # atno 10764 bound_to 10752
  154.1387  135.2909  155.3146 H   0  0  0  0  0  0  0  0  0  0  0  0  # atno 10765 bound_to 10752
  139.8801  134.9334  156.5506 H   0  0  0  0  0  0  0  0  0  0  0  0  # atno 11005 bound_to 11000
  145.9750  140.8729  143.0143 LP  0  0  0  0  0  0  0  0  0  0  0  0  # atno 17320 bound_to 7965
  144.6754  140.1999  143.7388 LP  0  0  0  0  0  0  0  0  0  0  0  0  # atno 17321 bound_to 7965
  139.7107  144.7621  151.1118 LP  0  0  0  0  0  0  0  0  0  0  0  0  # atno 17342 bound_to 10162
  140.7726  143.5335  150.9395 LP  0  0  0  0  0  0  0  0  0  0  0  0  # atno 17343 bound_to 10162
  156.5434  130.8310  151.3276 LP  0  0  0  0  0  0  0  0  0  0  0  0  # atno 17370 bound_to 10713
  157.7384  130.9812  150.2248 LP  0  0  0  0  0  0  0  0  0  0  0  0  # atno 17371 bound_to 10713
  140.8243  133.8329  155.8924 LP  0  0  0  0  0  0  0  0  0  0  0  0  # atno 17394 bound_to 11000
  140.9389  134.1926  157.4812 LP  0  0  0  0  0  0  0  0  0  0  0  0  # atno 17395 bound_to 11000

$$$$
