AV-unprocessed.smi:373|AV-procd|sdf|2449|dock10
  -GOLD-   2262022383D 1   1.00000     0.00000
 Structure written by MMmdl.
 40 41  0  0  0  0  0  0  0  0  1 V2000
  152.8864  143.6417  162.4864 C   0  0  0  0  0  0  0  0  0  0  0  0
  153.2137  142.3072  161.8078 C   0  0  0  0  0  0  0  0  0  0  0  0
  153.0238  142.3570  160.2879 C   0  0  0  0  0  0  0  0  0  0  0  0
  152.3699  141.1674  159.8719 O   0  0  0  0  0  0  0  0  0  0  0  0
  152.1519  141.0767  158.4704 C   0  0  2  0  0  0  0  0  0  0  0  0
  151.3536  142.2926  157.9565 C   0  0  0  0  0  0  0  0  0  0  0  0
  150.9853  142.1024  156.4764 C   0  0  0  0  0  0  0  0  0  0  0  0
  150.2460  140.7723  156.2573 C   0  0  0  0  0  0  0  0  0  0  0  0
  151.0199  139.6548  156.7930 N   0  0  0  0  0  0  0  0  0  0  0  0
  150.5409  138.3998  156.3738 C   0  0  0  0  0  0  0  0  0  0  0  0
  149.4778  137.8784  157.0327 N   0  0  0  0  0  0  0  0  0  0  0  0
  148.9870  136.6855  156.6359 C   0  0  0  0  0  0  0  0  0  0  0  0
  149.5149  135.9464  155.5558 C   0  0  0  0  0  0  0  0  0  0  0  0
  148.9306  134.6146  155.1830 C   0  0  0  0  0  0  0  0  0  0  0  0
  148.5880  134.4583  153.9005 N   0  0  0  0  0  0  0  0  0  0  0  0
  148.7329  133.7446  156.0288 O   0  0  0  0  0  0  0  0  0  0  0  0
  150.6325  136.4835  154.8795 C   0  0  0  0  0  0  0  0  0  0  0  0
  151.1533  137.7272  155.2871 C   0  0  0  0  0  0  0  0  0  0  0  0
  152.5338  138.3759  154.4708 Cl  0  0  0  0  0  0  0  0  0  0  0  0
  151.3687  139.7783  158.2081 C   0  0  0  0  0  0  0  0  0  0  0  0
  153.0231  143.5722  163.5658 H   0  0  0  0  0  0  0  0  0  0  0  0
  151.8533  143.9359  162.2999 H   0  0  0  0  0  0  0  0  0  0  0  0
  153.5341  144.4384  162.1196 H   0  0  0  0  0  0  0  0  0  0  0  0
  154.2429  142.0287  162.0372 H   0  0  0  0  0  0  0  0  0  0  0  0
  152.5812  141.5240  162.2269 H   0  0  0  0  0  0  0  0  0  0  0  0
  152.4380  143.2358  160.0173 H   0  0  0  0  0  0  0  0  0  0  0  0
  153.9929  142.4405  159.7938 H   0  0  0  0  0  0  0  0  0  0  0  0
  153.1071  141.0112  157.9453 H   0  0  0  0  0  0  0  0  0  0  0  0
  150.4439  142.4102  158.5466 H   0  0  0  0  0  0  0  0  0  0  0  0
  151.9241  143.2133  158.0749 H   0  0  0  0  0  0  0  0  0  0  0  0
  150.3674  142.9327  156.1337 H   0  0  0  0  0  0  0  0  0  0  0  0
  151.8919  142.1189  155.8700 H   0  0  0  0  0  0  0  0  0  0  0  0
  149.2754  140.7996  156.7546 H   0  0  0  0  0  0  0  0  0  0  0  0
  150.0500  140.6312  155.1940 H   0  0  0  0  0  0  0  0  0  0  0  0
  148.1414  136.3184  157.1994 H   0  0  0  0  0  0  0  0  0  0  0  0
  148.1952  133.5841  153.5838 H   0  0  0  0  0  0  0  0  0  0  0  0
  148.7301  135.2174  153.2497 H   0  0  0  0  0  0  0  0  0  0  0  0
  151.0967  135.9528  154.0608 H   0  0  0  0  0  0  0  0  0  0  0  0
  151.9652  138.9185  158.5162 H   0  0  0  0  0  0  0  0  0  0  0  0
  150.4576  139.7697  158.8086 H   0  0  0  0  0  0  0  0  0  0  0  0
  1  2  1  0  0  0  0
  1 21  1  0  0  0  0
  1 22  1  0  0  0  0
  1 23  1  0  0  0  0
  2  3  1  0  0  0  0
  2 24  1  0  0  0  0
  2 25  1  0  0  0  0
  3  4  1  0  0  0  0
  3 26  1  0  0  0  0
  3 27  1  0  0  0  0
  4  5  1  0  0  0  0
  5 20  1  0  0  0  0
  5  6  1  0  0  0  0
  5 28  1  0  0  0  0
  6  7  1  0  0  0  0
  6 29  1  0  0  0  0
  6 30  1  0  0  0  0
  7  8  1  0  0  0  0
  7 31  1  0  0  0  0
  7 32  1  0  0  0  0
  8  9  1  0  0  0  0
  8 33  1  0  0  0  0
  8 34  1  0  0  0  0
  9 10  1  0  0  0  0
  9 20  1  0  0  0  0
 10 18  1  0  0  0  0
 10 11  2  0  0  0  0
 11 12  1  0  0  0  0
 12 13  2  0  0  0  0
 12 35  1  0  0  0  0
 13 14  1  0  0  0  0
 13 17  1  0  0  0  0
 14 15  1  0  0  0  0
 14 16  2  0  0  0  0
 15 36  1  0  0  0  0
 15 37  1  0  0  0  0
 17 18  2  0  0  0  0
 17 38  1  0  0  0  0
 18 19  1  0  0  0  0
 20 39  1  0  0  0  0
 20 40  1  0  0  0  0
M  END
> <s_m_source_file>
AV-unprocessed.smi

> <i_m_source_file_index>
373

> <i_lp_mmshare_version>
43012

> <i_f3d_flags>
0

> <s_epik_input>
W0NIM11bQ0gyXVtDSDJdT1tDQEBIXTFbQ0gyXVtDSDJdW0NIMl1OKFtDSDJdMSljMm5bY0hdYyhDKD1PKVtOSDJdKVtjSF1jMkNs

> <s_epik_cmdline>
J2VwaWtfcHl0aG9uJywgJy1waCcsICc3LjAnLCAnLXRuJywgJzgnLCAnLW1hJywgJzIwMCcsICctbWV0YWxfYmluZGluZycsICctaW1hZScsICc8aW5maWxlLm1hZT4nLCAnLW9tYWUnLCAnPG91dGZpbGUubWFlPic=

> <r_lp_tautomer_probability>
1

> <r_epik_Ionization_Penalty>
3.23666e-05

> <r_epik_Ionization_Penalty_Charging>
0

> <r_epik_Ionization_Penalty_Neutral>
3.23666e-05

> <r_epik_State_Penalty>
-0

> <r_epik_Charging_Adjusted_Penalty>
0

> <i_epik_Tot_Q>
0

> <i_epik_Tot_abs_Q>
0

> <r_epik_Metal_State_Penalty>
-0

> <b_epik_Metal_Only>
0

> <s_lp_Force_Field>
OPLS_2005

> <r_lp_Energy>
19.8682

> <b_lp_Chiralities_Consistent>
1

> <s_lp_Variant>
AV-unprocessed.smi:373-1

> <Gold.Version>
5.8.1

> <Gold.Id.Protein>
6NUR|6NUR_protein|mol2

> <Gold.PLP.Fitness>
34.0357

> <Gold.PLP.PLP>
-33.9164

> <Gold.PLP.part.hbond>
-1.0000

> <Gold.PLP.part.metal>
0.0000

> <Gold.PLP.part.buried>
-4.5095

> <Gold.PLP.part.nonpolar>
-27.6771

> <Gold.PLP.part.repulsive>
0.0080

> <Gold.PLP.ligand.clash>
0.0000

> <Gold.PLP.ligand.torsion>
1.5778

> <Gold.PLP.Chemscore.Hbond>
1.0000

> <Gold.PLP.Chemscore.CHOScore>
0.0000

> <Gold.PLP.Chemscore.Metal>
0.0000

> <Gold.Chemscore.Hbonds>
donor molecule, donor type, donor heavy atom, donor atom, acceptor molecule, acceptor atom, score
      L1  H    15    37       P1  7948  1.00

> <Gold.PLP.Chemscore.Internal.Correction>
0.2750

> <Gold.Rescore>
     Score         DG    S(hbond)    S(metal)    S(lipo)     H(rot)  DE(clash)    DE(int)     intcor
     13.90     -15.92       0.95        0.00      96.50       1.57       0.25       1.76       ----

> <Gold.Chemscore.Fitness>
13.9048

> <Gold.Chemscore.DG>
-15.9160

> <Gold.Chemscore.ZeroCoef>
-5.4800

> <Gold.Chemscore.Hbond>
0.9466

> <Gold.Chemscore.Metal>
0.0000

> <Gold.Chemscore.Lipo>
96.4975

> <Gold.Chemscore.Internal_Hbond>
0.0000

> <Gold.Chemscore.DEClash>
0.2518

> <Gold.Chemscore.DEInternal>
1.7593

> <Gold.Chemscore.Rot>
1.5687

> <Gold.Chemscore.Internal.Correction>
   9.000000E+99

> <Gold.Chemscore.Hbonds>
donor molecule, donor type, donor heavy atom, donor atom, acceptor molecule, acceptor atom, score
      L1  H    15    37       P1  7948  0.70

> <Gold.Chemscore.Hbond.Weighted>
-3.1615

> <Gold.Chemscore.Metal.Weighted>
-0.0000

> <Gold.Chemscore.Lipo.Weighted>
-11.2902

> <Gold.Chemscore.Internal_Hbond.Weighted>
0.0000

> <Gold.Chemscore.DEClash.Weighted>
0.2518

> <Gold.Chemscore.DEInternal.Weighted>
1.7593

> <Gold.Chemscore.Rot.Weighted>
4.0158

> <Gold.Chemscore.Internal.Correction.Weighted>
   9.000000E+99

> <Gold.Protein.RotatedTorsions>
[ 6907 6896 6895 6894 ] final  -78.26 input  -60.11 | X-H torsion
[ 7974 7965 7964 7962 ] final  175.03 input  175.53 | X-H torsion
[ 8008 7997 7996 7995 ] final   62.74 input   59.86 | X-H torsion
[ 10167 10162 10161 10158 ] final -178.67 input  -65.29 | X-H torsion
[ 10718 10713 10712 10709 ] final  -98.67 input   66.30 | X-H torsion
[ 10763 10752 10751 10750 ] final -153.26 input  -60.55 | X-H torsion
[ 11005 11000 10999 10996 ] final   80.78 input  -57.11 | X-H torsion

> <Gold.Protein.ActiveResidues>
 VAL166  LYS551  ARG553  GLY616  TRP617  ASP618  TYR619  PRO620  LYS621  CYS622 
 ASP623  PHE694  ASN695  SER759  ASP760  ASP761  ALA762  ILE779  LEU786  VAL792 
 PHE793  MET794  SER795  GLU796  ALA797  LYS798  CYS799  TRP800  GLU811  SER814 

> <Gold.Protein.RotatedAtoms>
  150.6977  134.4299  159.5243 H   0  0  0  0  0  0  0  0  0  0  0  0  # atno 6907 bound_to 6896
  152.2027  134.8570  160.0515 H   0  0  0  0  0  0  0  0  0  0  0  0  # atno 6908 bound_to 6896
  151.9484  133.3624  159.4028 H   0  0  0  0  0  0  0  0  0  0  0  0  # atno 6909 bound_to 6896
  144.7209  139.9886  143.6439 H   0  0  0  0  0  0  0  0  0  0  0  0  # atno 7974 bound_to 7965
  155.6191  140.3495  155.4646 H   0  0  0  0  0  0  0  0  0  0  0  0  # atno 8008 bound_to 7997
  156.0093  140.1230  157.0493 H   0  0  0  0  0  0  0  0  0  0  0  0  # atno 8009 bound_to 7997
  154.4275  140.1084  156.5793 H   0  0  0  0  0  0  0  0  0  0  0  0  # atno 8010 bound_to 7997
  139.5421  144.2334  152.0916 H   0  0  0  0  0  0  0  0  0  0  0  0  # atno 10167 bound_to 10162
  156.0113  130.5248  150.6556 H   0  0  0  0  0  0  0  0  0  0  0  0  # atno 10718 bound_to 10713
  154.7939  135.3217  154.7712 H   0  0  0  0  0  0  0  0  0  0  0  0  # atno 10763 bound_to 10752
  153.8395  135.6872  153.4809 H   0  0  0  0  0  0  0  0  0  0  0  0  # atno 10764 bound_to 10752
  153.1622  135.4656  154.9729 H   0  0  0  0  0  0  0  0  0  0  0  0  # atno 10765 bound_to 10752
  139.9122  134.7946  156.1954 H   0  0  0  0  0  0  0  0  0  0  0  0  # atno 11005 bound_to 11000
  146.0430  139.3439  143.0686 LP  0  0  0  0  0  0  0  0  0  0  0  0  # atno 17320 bound_to 7965
  145.8311  140.9630  143.0849 LP  0  0  0  0  0  0  0  0  0  0  0  0  # atno 17321 bound_to 7965
  140.1814  144.4841  150.6526 LP  0  0  0  0  0  0  0  0  0  0  0  0  # atno 17342 bound_to 10162
  140.6655  143.2266  151.5752 LP  0  0  0  0  0  0  0  0  0  0  0  0  # atno 17343 bound_to 10162
  157.4309  131.0849  151.1039 LP  0  0  0  0  0  0  0  0  0  0  0  0  # atno 17370 bound_to 10713
  157.1613  130.6227  149.5611 LP  0  0  0  0  0  0  0  0  0  0  0  0  # atno 17371 bound_to 10713
  141.0558  133.6866  156.1857 LP  0  0  0  0  0  0  0  0  0  0  0  0  # atno 17394 bound_to 11000
  140.6739  134.4838  157.5588 LP  0  0  0  0  0  0  0  0  0  0  0  0  # atno 17395 bound_to 11000

$$$$
