AV-unprocessed.smi:561|AV-procd|sdf|2937|dock9
  -GOLD-   2262023433D 1   1.00000     0.00000
 Structure written by MMmdl.
 37 38  0  0  0  0  0  0  0  0  2 V2000
  151.3779  137.5190  154.4667 C   0  0  0  0  0  0  0  0  0  0  0  0
  150.5238  138.7926  154.5218 C   0  0  1  0  0  0  0  0  0  0  0  0
  149.0182  138.4596  154.4545 C   0  0  0  0  0  0  0  0  0  0  0  0
  148.1879  139.6316  154.1577 N   0  0  0  0  0  0  0  0  0  0  0  0
  148.5394  140.9506  154.2867 C   0  0  0  0  0  0  0  0  0  0  0  0
  147.4456  141.6854  153.9084 C   0  0  0  0  0  0  0  0  0  0  0  0
  146.4752  140.7847  153.5595 N   0  3  0  0  0  0  0  0  0  0  0  0
  146.9300  139.5363  153.7074 C   0  0  0  0  0  0  0  0  0  0  0  0
  150.8462  139.5234  155.7464 N   0  0  0  0  0  0  0  0  0  0  0  0
  152.0745  139.9147  156.1345 C   0  0  0  0  0  0  0  0  0  0  0  0
  153.0888  139.6988  155.4706 O   0  0  0  0  0  0  0  0  0  0  0  0
  152.1447  140.6499  157.4251 C   0  0  0  0  0  0  0  0  0  0  0  0
  153.0592  140.3490  158.2930 N   0  0  0  0  0  0  0  0  0  0  0  0
  153.1535  140.9922  159.5101 N   0  0  0  0  0  0  0  0  0  0  0  0
  154.0541  140.3583  160.4709 C   0  0  0  0  0  0  0  0  0  0  0  0
  152.5078  142.1421  159.8269 C   0  0  0  0  0  0  0  0  0  0  0  0
  152.5934  142.6951  160.9232 O   0  0  0  0  0  0  0  0  0  0  0  0
  151.6579  142.7743  158.7208 C   0  0  0  0  0  0  0  0  0  0  0  0
  151.1201  141.7255  157.7269 C   0  0  0  0  0  0  0  0  0  0  0  0
  151.1893  136.9594  153.5500 H   0  0  0  0  0  0  0  0  0  0  0  0
  151.1644  136.8596  155.3085 H   0  0  0  0  0  0  0  0  0  0  0  0
  152.4417  137.7579  154.4912 H   0  0  0  0  0  0  0  0  0  0  0  0
  150.7914  139.3958  153.6521 H   0  0  0  0  0  0  0  0  0  0  0  0
  148.8279  137.7292  153.6672 H   0  0  0  0  0  0  0  0  0  0  0  0
  148.6743  138.0122  155.3886 H   0  0  0  0  0  0  0  0  0  0  0  0
  149.5139  141.2596  154.6360 H   0  0  0  0  0  0  0  0  0  0  0  0
  147.2891  142.7533  153.8633 H   0  0  0  0  0  0  0  0  0  0  0  0
  146.3841  138.6304  153.5125 H   0  0  0  0  0  0  0  0  0  0  0  0
  150.0730  139.7437  156.3583 H   0  0  0  0  0  0  0  0  0  0  0  0
  153.5183  140.0943  161.3838 H   0  0  0  0  0  0  0  0  0  0  0  0
  154.8692  141.0333  160.7364 H   0  0  0  0  0  0  0  0  0  0  0  0
  154.4990  139.4441  160.0747 H   0  0  0  0  0  0  0  0  0  0  0  0
  150.8350  143.3412  159.1572 H   0  0  0  0  0  0  0  0  0  0  0  0
  152.2882  143.4909  158.1928 H   0  0  0  0  0  0  0  0  0  0  0  0
  150.8200  142.2389  156.8125 H   0  0  0  0  0  0  0  0  0  0  0  0
  150.2189  141.2608  158.1283 H   0  0  0  0  0  0  0  0  0  0  0  0
  145.5464  141.0262  153.2375 H   0  0  0  0  0  0  0  0  0  0  0  0
  1  2  1  0  0  0  0
  1 20  1  0  0  0  0
  1 21  1  0  0  0  0
  1 22  1  0  0  0  0
  2  3  1  0  0  0  0
  2  9  1  0  0  0  0
  2 23  1  0  0  0  0
  3  4  1  0  0  0  0
  3 24  1  0  0  0  0
  3 25  1  0  0  0  0
  4  8  1  0  0  0  0
  4  5  1  0  0  0  0
  5  6  2  0  0  0  0
  5 26  1  0  0  0  0
  6  7  1  0  0  0  0
  6 27  1  0  0  0  0
  7  8  2  0  0  0  0
  7 37  1  0  0  0  0
  8 28  1  0  0  0  0
  9 10  1  0  0  0  0
  9 29  1  0  0  0  0
 10 11  2  0  0  0  0
 10 12  1  0  0  0  0
 12 19  1  0  0  0  0
 12 13  2  0  0  0  0
 13 14  1  0  0  0  0
 14 15  1  0  0  0  0
 14 16  1  0  0  0  0
 15 30  1  0  0  0  0
 15 31  1  0  0  0  0
 15 32  1  0  0  0  0
 16 17  2  0  0  0  0
 16 18  1  0  0  0  0
 18 19  1  0  0  0  0
 18 33  1  0  0  0  0
 18 34  1  0  0  0  0
 19 35  1  0  0  0  0
 19 36  1  0  0  0  0
M  CHG  1   7   1
M  END
> <s_m_source_file>
AV-unprocessed.smi

> <i_m_source_file_index>
561

> <i_lp_mmshare_version>
43012

> <i_f3d_flags>
0

> <s_epik_input>
W2NIXTFuW2NIXVtjSF1uMVtDSDJdW0NAQEhdKFtDSDNdKVtOSF1DKD1PKUMyPU5OKFtDSDNdKUMoPU8pW0NIMl1bQ0gyXTI=

> <s_epik_cmdline>
J2VwaWtfcHl0aG9uJywgJy1waCcsICc3LjAnLCAnLXRuJywgJzgnLCAnLW1hJywgJzIwMCcsICctbWV0YWxfYmluZGluZycsICctaW1hZScsICc8aW5maWxlLm1hZT4nLCAnLW9tYWUnLCAnPG91dGZpbGUubWFlPic=

> <r_lp_tautomer_probability>
1

> <r_epik_Ionization_Penalty>
0.358595

> <r_epik_Ionization_Penalty_Charging>
0

> <r_epik_Ionization_Penalty_Neutral>
0.358595

> <r_epik_State_Penalty>
0.355181

> <r_epik_Charging_Adjusted_Penalty>
0.355181

> <i_epik_Tot_Q>
1

> <i_epik_Tot_abs_Q>
1

> <r_epik_Metal_State_Penalty>
0.718565

> <b_epik_Metal_Only>
0

> <s_epik_Chemistry_Notes>
This compound has an imine and may undergo hydrolysis.

> <s_lp_Force_Field>
OPLS_2005

> <r_lp_Energy>
19.4288

> <b_lp_Chiralities_Consistent>
1

> <s_lp_Variant>
AV-unprocessed.smi:561-2

> <Gold.Version>
5.8.1

> <Gold.Id.Protein>
6NUR|6NUR_protein|mol2

> <Gold.PLP.Fitness>
44.1789

> <Gold.PLP.PLP>
-37.2031

> <Gold.PLP.part.hbond>
-3.1557

> <Gold.PLP.part.metal>
0.0000

> <Gold.PLP.part.buried>
-4.3540

> <Gold.PLP.part.nonpolar>
-29.5213

> <Gold.PLP.part.repulsive>
0.1362

> <Gold.PLP.ligand.clash>
0.0000

> <Gold.PLP.ligand.torsion>
1.1089

> <Gold.PLP.Chemscore.Hbond>
3.0591

> <Gold.PLP.Chemscore.CHOScore>
0.0000

> <Gold.PLP.Chemscore.Metal>
0.0000

> <Gold.Chemscore.Hbonds>
donor molecule, donor type, donor heavy atom, donor atom, acceptor molecule, acceptor atom, score
      L1  H     7    37       P1 10175  1.79
      P1  H  7997  8009       L1    13  0.85
      P1  H  7997  8010       L1    11  0.18

> <Gold.PLP.Chemscore.Internal.Correction>
0.0163

> <Gold.Rescore>
     Score         DG    S(hbond)    S(metal)    S(lipo)     H(rot)  DE(clash)    DE(int)     intcor
     11.95     -14.73       1.82        0.00      65.47       1.76       0.20       2.58       ----

> <Gold.Chemscore.Fitness>
11.9514

> <Gold.Chemscore.DG>
-14.7290

> <Gold.Chemscore.ZeroCoef>
-5.4800

> <Gold.Chemscore.Hbond>
1.8239

> <Gold.Chemscore.Metal>
0.0000

> <Gold.Chemscore.Lipo>
65.4699

> <Gold.Chemscore.Internal_Hbond>
0.0000

> <Gold.Chemscore.DEClash>
0.1963

> <Gold.Chemscore.DEInternal>
2.5813

> <Gold.Chemscore.Rot>
1.7589

> <Gold.Chemscore.Internal.Correction>
   9.000000E+99

> <Gold.Chemscore.Hbonds>
donor molecule, donor type, donor heavy atom, donor atom, acceptor molecule, acceptor atom, score
      L1  H     7    37       P1 10175  0.37
      P1  H  7997  8009       L1    13  0.27
      P1  H  7997  8010       L1    11  0.18

> <Gold.Chemscore.Hbond.Weighted>
-6.0919

> <Gold.Chemscore.Metal.Weighted>
-0.0000

> <Gold.Chemscore.Lipo.Weighted>
-7.6600

> <Gold.Chemscore.Internal_Hbond.Weighted>
0.0000

> <Gold.Chemscore.DEClash.Weighted>
0.1963

> <Gold.Chemscore.DEInternal.Weighted>
2.5813

> <Gold.Chemscore.Rot.Weighted>
4.5028

> <Gold.Chemscore.Internal.Correction.Weighted>
   9.000000E+99

> <Gold.Protein.RotatedTorsions>
[ 6907 6896 6895 6894 ] final  145.66 input  -60.11 | X-H torsion
[ 7974 7965 7964 7962 ] final -169.70 input  175.53 | X-H torsion
[ 8008 7997 7996 7995 ] final  148.17 input   59.86 | X-H torsion
[ 10167 10162 10161 10158 ] final -107.38 input  -65.29 | X-H torsion
[ 10718 10713 10712 10709 ] final -124.87 input   66.30 | X-H torsion
[ 10763 10752 10751 10750 ] final   43.62 input  -60.55 | X-H torsion
[ 11005 11000 10999 10996 ] final  -78.92 input  -57.11 | X-H torsion

> <Gold.Protein.ActiveResidues>
 VAL166  LYS551  ARG553  GLY616  TRP617  ASP618  TYR619  PRO620  LYS621  CYS622 
 ASP623  PHE694  ASN695  SER759  ASP760  ASP761  ALA762  ILE779  LEU786  VAL792 
 PHE793  MET794  SER795  GLU796  ALA797  LYS798  CYS799  TRP800  GLU811  SER814 

> <Gold.Protein.RotatedAtoms>
  152.1780  133.4688  159.4942 H   0  0  0  0  0  0  0  0  0  0  0  0  # atno 6907 bound_to 6896
  150.6930  134.1869  159.4279 H   0  0  0  0  0  0  0  0  0  0  0  0  # atno 6908 bound_to 6896
  151.9779  135.0043  160.0606 H   0  0  0  0  0  0  0  0  0  0  0  0  # atno 6909 bound_to 6896
  144.7181  140.2182  143.6319 H   0  0  0  0  0  0  0  0  0  0  0  0  # atno 7974 bound_to 7965
  156.2800  140.2136  156.5656 H   0  0  0  0  0  0  0  0  0  0  0  0  # atno 8008 bound_to 7997
  154.7177  140.0506  157.0633 H   0  0  0  0  0  0  0  0  0  0  0  0  # atno 8009 bound_to 7997
  155.0520  140.3157  155.4692 H   0  0  0  0  0  0  0  0  0  0  0  0  # atno 8010 bound_to 7997
  140.1776  143.3993  152.1307 H   0  0  0  0  0  0  0  0  0  0  0  0  # atno 10167 bound_to 10162
  156.1625  130.6612  151.0069 H   0  0  0  0  0  0  0  0  0  0  0  0  # atno 10718 bound_to 10713
  152.9857  135.6096  154.3140 H   0  0  0  0  0  0  0  0  0  0  0  0  # atno 10763 bound_to 10752
  154.2854  135.2776  155.2680 H   0  0  0  0  0  0  0  0  0  0  0  0  # atno 10764 bound_to 10752
  154.5000  135.5869  153.6580 H   0  0  0  0  0  0  0  0  0  0  0  0  # atno 10765 bound_to 10752
  141.1666  133.7083  156.8044 H   0  0  0  0  0  0  0  0  0  0  0  0  # atno 11005 bound_to 11000
  145.8526  139.2183  143.1763 LP  0  0  0  0  0  0  0  0  0  0  0  0  # atno 17320 bound_to 7965
  146.0246  140.8315  142.9906 LP  0  0  0  0  0  0  0  0  0  0  0  0  # atno 17321 bound_to 7965
  139.5310  144.7159  151.5055 LP  0  0  0  0  0  0  0  0  0  0  0  0  # atno 17342 bound_to 10162
  140.6541  143.8635  150.6816 LP  0  0  0  0  0  0  0  0  0  0  0  0  # atno 17343 bound_to 10162
  157.6743  131.0854  150.7533 LP  0  0  0  0  0  0  0  0  0  0  0  0  # atno 17370 bound_to 10713
  156.7596  130.4794  149.5440 LP  0  0  0  0  0  0  0  0  0  0  0  0  # atno 17371 bound_to 10713
  140.2233  134.8741  157.3400 LP  0  0  0  0  0  0  0  0  0  0  0  0  # atno 17394 bound_to 11000
  140.1966  134.4306  155.7686 LP  0  0  0  0  0  0  0  0  0  0  0  0  # atno 17395 bound_to 11000

$$$$
