AV-unprocessed.smi:2446|AV-procd|sdf|9648|dock5
  -GOLD-   2272013283D 1   1.00000     0.00000
 Structure written by MMmdl.
 40 41  0  0  0  0  0  0  0  0  2 V2000
  150.1865  138.7994  154.4644 C   0  0  0  0  0  0  0  0  0  0  0  0
  149.1638  139.9168  154.3485 C   0  0  0  0  0  0  0  0  0  0  0  0
  149.5057  141.2182  154.7762 C   0  0  0  0  0  0  0  0  0  0  0  0
  148.6067  142.2204  154.6835 N   0  3  0  0  0  0  0  0  0  0  0  0
  147.3616  142.0407  154.1960 C   0  0  0  0  0  0  0  0  0  0  0  0
  146.9576  140.7660  153.7521 C   0  0  0  0  0  0  0  0  0  0  0  0
  147.8712  139.6824  153.8127 C   0  0  0  0  0  0  0  0  0  0  0  0
  147.5397  138.3613  153.4000 N   0  0  0  0  0  0  0  0  0  0  0  0
  146.3441  137.7401  153.4180 C   0  0  0  0  0  0  0  0  0  0  0  0
  145.3054  138.2326  153.8523 O   0  0  0  0  0  0  0  0  0  0  0  0
  146.3599  136.4991  152.8978 N   0  0  0  0  0  0  0  0  0  0  0  0
  145.2513  135.5483  152.7584 C   0  0  1  0  0  0  0  0  0  0  0  0
  144.9660  135.2831  151.2678 C   0  0  0  0  0  0  0  0  0  0  0  0
  146.0776  134.4546  150.6018 C   0  0  0  0  0  0  0  0  0  0  0  0
  146.3291  133.1417  151.3594 C   0  0  0  0  0  0  0  0  0  0  0  0
  146.6617  133.3955  152.8445 C   0  0  2  0  0  0  0  0  0  0  0  0
  146.9351  132.0843  153.6097 C   0  0  0  0  0  0  0  0  0  0  0  0
  146.8677  132.2805  154.9268 F   0  0  0  0  0  0  0  0  0  0  0  0
  146.0401  131.1588  153.2649 F   0  0  0  0  0  0  0  0  0  0  0  0
  148.1482  131.6235  153.3039 F   0  0  0  0  0  0  0  0  0  0  0  0
  145.5371  134.2252  153.5047 C   0  0  0  0  0  0  0  0  0  0  0  0
  151.1050  139.1505  154.9357 H   0  0  0  0  0  0  0  0  0  0  0  0
  150.4410  138.4129  153.4772 H   0  0  0  0  0  0  0  0  0  0  0  0
  149.7919  137.9798  155.0660 H   0  0  0  0  0  0  0  0  0  0  0  0
  150.4667  141.4877  155.1899 H   0  0  0  0  0  0  0  0  0  0  0  0
  146.7271  142.9149  154.1806 H   0  0  0  0  0  0  0  0  0  0  0  0
  145.9499  140.6443  153.3862 H   0  0  0  0  0  0  0  0  0  0  0  0
  148.2873  137.8509  152.9530 H   0  0  0  0  0  0  0  0  0  0  0  0
  147.2563  136.1669  152.5715 H   0  0  0  0  0  0  0  0  0  0  0  0
  144.3528  136.0014  153.1807 H   0  0  0  0  0  0  0  0  0  0  0  0
  144.0210  134.7462  151.1756 H   0  0  0  0  0  0  0  0  0  0  0  0
  144.8307  136.2250  150.7345 H   0  0  0  0  0  0  0  0  0  0  0  0
  145.8068  134.2387  149.5678 H   0  0  0  0  0  0  0  0  0  0  0  0
  146.9996  135.0358  150.5613 H   0  0  0  0  0  0  0  0  0  0  0  0
  145.4484  132.5028  151.2808 H   0  0  0  0  0  0  0  0  0  0  0  0
  147.1449  132.6004  150.8796 H   0  0  0  0  0  0  0  0  0  0  0  0
  147.5792  133.9848  152.8815 H   0  0  0  0  0  0  0  0  0  0  0  0
  145.7849  134.4272  154.5466 H   0  0  0  0  0  0  0  0  0  0  0  0
  144.6224  133.6317  153.5277 H   0  0  0  0  0  0  0  0  0  0  0  0
  148.8779  143.1517  155.0003 H   0  0  0  0  0  0  0  0  0  0  0  0
  1  2  1  0  0  0  0
  1 22  1  0  0  0  0
  1 23  1  0  0  0  0
  1 24  1  0  0  0  0
  2  7  1  0  0  0  0
  2  3  2  0  0  0  0
  3  4  1  0  0  0  0
  3 25  1  0  0  0  0
  4  5  2  0  0  0  0
  4 40  1  0  0  0  0
  5  6  1  0  0  0  0
  5 26  1  0  0  0  0
  6  7  2  0  0  0  0
  6 27  1  0  0  0  0
  7  8  1  0  0  0  0
  8  9  1  0  0  0  0
  8 28  1  0  0  0  0
  9 10  2  0  0  0  0
  9 11  1  0  0  0  0
 11 12  1  0  0  0  0
 11 29  1  0  0  0  0
 12 21  1  0  0  0  0
 12 13  1  0  0  0  0
 12 30  1  0  0  0  0
 13 14  1  0  0  0  0
 13 31  1  0  0  0  0
 13 32  1  0  0  0  0
 14 15  1  0  0  0  0
 14 33  1  0  0  0  0
 14 34  1  0  0  0  0
 15 16  1  0  0  0  0
 15 35  1  0  0  0  0
 15 36  1  0  0  0  0
 16 17  1  0  0  0  0
 16 21  1  0  0  0  0
 16 37  1  0  0  0  0
 17 18  1  0  0  0  0
 17 19  1  0  0  0  0
 17 20  1  0  0  0  0
 21 38  1  0  0  0  0
 21 39  1  0  0  0  0
M  CHG  1   4   1
M  END
> <s_m_source_file>
AV-unprocessed.smi

> <i_m_source_file_index>
2446

> <i_lp_mmshare_version>
43012

> <i_f3d_flags>
0

> <s_epik_input>
W0NIM11jMVtjSF1uW2NIXVtjSF1jMVtOSF1DKD1PKVtOSF1bQ0BASF0yW0NIMl1bQ0gyXVtDSDJdW0NAQEhdKEMoRikoRilGKVtDSDJdMg==

> <s_epik_cmdline>
J2VwaWtfcHl0aG9uJywgJy1waCcsICc3LjAnLCAnLXRuJywgJzgnLCAnLW1hJywgJzIwMCcsICctbWV0YWxfYmluZGluZycsICctaW1hZScsICc8aW5maWxlLm1hZT4nLCAnLW9tYWUnLCAnPG91dGZpbGUubWFlPic=

> <r_epik_Ionization_Penalty>
0.736582

> <r_epik_Ionization_Penalty_Charging>
0.736562

> <r_epik_Ionization_Penalty_Neutral>
1.98379e-05

> <r_epik_State_Penalty>
0.762314

> <r_epik_Charging_Adjusted_Penalty>
1.49888

> <i_epik_Tot_Q>
1

> <i_epik_Tot_abs_Q>
1

> <r_epik_Metal_State_Penalty>
0.914579

> <b_epik_Metal_Only>
0

> <s_lp_Force_Field>
OPLS_2005

> <r_lp_Energy>
31.0639

> <b_lp_Chiralities_Consistent>
1

> <s_lp_Variant>
AV-unprocessed.smi:2446-8

> <Gold.Version>
5.8.1

> <Gold.Id.Protein>
6NUR|6NUR_protein|mol2

> <Gold.PLP.Fitness>
44.0067

> <Gold.PLP.PLP>
-33.4192

> <Gold.PLP.part.hbond>
-3.0000

> <Gold.PLP.part.metal>
0.0000

> <Gold.PLP.part.buried>
-4.2659

> <Gold.PLP.part.nonpolar>
-26.6012

> <Gold.PLP.part.repulsive>
0.5584

> <Gold.PLP.ligand.clash>
0.0000

> <Gold.PLP.ligand.torsion>
0.7053

> <Gold.PLP.Chemscore.Hbond>
3.9920

> <Gold.PLP.Chemscore.CHOScore>
0.0000

> <Gold.PLP.Chemscore.Metal>
0.0000

> <Gold.Chemscore.Hbonds>
donor molecule, donor type, donor heavy atom, donor atom, acceptor molecule, acceptor atom, score
      L1  H     4    40       P1  8028  2.00
      L1  H     8    28       P1  7948  0.96
      L1  H    11    29       P1  7948  1.00

> <Gold.PLP.Chemscore.Internal.Correction>
0.0220

> <Gold.Rescore>
     Score         DG    S(hbond)    S(metal)    S(lipo)     H(rot)  DE(clash)    DE(int)     intcor
     19.28     -20.98       2.92        0.00      71.01       1.00       0.10       1.60       ----

> <Gold.Chemscore.Fitness>
19.2790

> <Gold.Chemscore.DG>
-20.9807

> <Gold.Chemscore.ZeroCoef>
-5.4800

> <Gold.Chemscore.Hbond>
2.9197

> <Gold.Chemscore.Metal>
0.0000

> <Gold.Chemscore.Lipo>
71.0147

> <Gold.Chemscore.Internal_Hbond>
0.0000

> <Gold.Chemscore.DEClash>
0.1044

> <Gold.Chemscore.DEInternal>
1.5973

> <Gold.Chemscore.Rot>
1.0000

> <Gold.Chemscore.Internal.Correction>
   9.000000E+99

> <Gold.Chemscore.Hbonds>
donor molecule, donor type, donor heavy atom, donor atom, acceptor molecule, acceptor atom, score
      L1  H     4    40       P1  8028  1.00
      L1  H     8    28       P1  7948  0.87
      L1  H    11    29       P1  7948  0.99

> <Gold.Chemscore.Hbond.Weighted>
-9.7519

> <Gold.Chemscore.Metal.Weighted>
-0.0000

> <Gold.Chemscore.Lipo.Weighted>
-8.3087

> <Gold.Chemscore.Internal_Hbond.Weighted>
0.0000

> <Gold.Chemscore.DEClash.Weighted>
0.1044

> <Gold.Chemscore.DEInternal.Weighted>
1.5973

> <Gold.Chemscore.Rot.Weighted>
2.5600

> <Gold.Chemscore.Internal.Correction.Weighted>
   9.000000E+99

> <Gold.Protein.RotatedTorsions>
[ 6907 6896 6895 6894 ] final   61.87 input  -60.11 | X-H torsion
[ 7974 7965 7964 7962 ] final  -92.97 input  175.53 | X-H torsion
[ 8008 7997 7996 7995 ] final   -6.26 input   59.86 | X-H torsion
[ 10167 10162 10161 10158 ] final    8.54 input  -65.29 | X-H torsion
[ 10718 10713 10712 10709 ] final  -70.70 input   66.30 | X-H torsion
[ 10763 10752 10751 10750 ] final -127.08 input  -60.55 | X-H torsion
[ 11005 11000 10999 10996 ] final  -99.96 input  -57.11 | X-H torsion

> <Gold.Protein.ActiveResidues>
 VAL166  LYS551  ARG553  GLY616  TRP617  ASP618  TYR619  PRO620  LYS621  CYS622 
 ASP623  PHE694  ASN695  SER759  ASP760  ASP761  ALA762  ILE779  LEU786  VAL792 
 PHE793  MET794  SER795  GLU796  ALA797  LYS798  CYS799  TRP800  GLU811  SER814 

> <Gold.Protein.RotatedAtoms>
  152.4125  134.6100  160.0022 H   0  0  0  0  0  0  0  0  0  0  0  0  # atno 6907 bound_to 6896
  151.6273  133.3329  159.3109 H   0  0  0  0  0  0  0  0  0  0  0  0  # atno 6908 bound_to 6896
  150.8015  134.7151  159.6671 H   0  0  0  0  0  0  0  0  0  0  0  0  # atno 6909 bound_to 6896
  145.3928  140.9530  143.2331 H   0  0  0  0  0  0  0  0  0  0  0  0  # atno 7974 bound_to 7965
  154.5955  140.2437  155.7863 H   0  0  0  0  0  0  0  0  0  0  0  0  # atno 8008 bound_to 7997
  156.2276  140.2977  156.0060 H   0  0  0  0  0  0  0  0  0  0  0  0  # atno 8009 bound_to 7997
  155.2300  140.0403  157.2951 H   0  0  0  0  0  0  0  0  0  0  0  0  # atno 8010 bound_to 7997
  140.6308  143.7997  150.7293 H   0  0  0  0  0  0  0  0  0  0  0  0  # atno 10167 bound_to 10162
  156.0396  130.4336  150.2334 H   0  0  0  0  0  0  0  0  0  0  0  0  # atno 10718 bound_to 10713
  154.8750  135.3974  154.3536 H   0  0  0  0  0  0  0  0  0  0  0  0  # atno 10763 bound_to 10752
  153.4318  135.7025  153.6231 H   0  0  0  0  0  0  0  0  0  0  0  0  # atno 10764 bound_to 10752
  153.4849  135.3761  155.2431 H   0  0  0  0  0  0  0  0  0  0  0  0  # atno 10765 bound_to 10752
  141.1289  133.8362  157.1040 H   0  0  0  0  0  0  0  0  0  0  0  0  # atno 11005 bound_to 11000
  144.8428  139.5444  143.6892 LP  0  0  0  0  0  0  0  0  0  0  0  0  # atno 17320 bound_to 7965
  146.2789  139.6826  142.9243 LP  0  0  0  0  0  0  0  0  0  0  0  0  # atno 17321 bound_to 7965
  140.1608  143.4277  152.2068 LP  0  0  0  0  0  0  0  0  0  0  0  0  # atno 17342 bound_to 10162
  139.5523  144.7346  151.4399 LP  0  0  0  0  0  0  0  0  0  0  0  0  # atno 17343 bound_to 10162
  157.0430  131.0041  151.3277 LP  0  0  0  0  0  0  0  0  0  0  0  0  # atno 17370 bound_to 10713
  157.5195  130.7989  149.7794 LP  0  0  0  0  0  0  0  0  0  0  0  0  # atno 17371 bound_to 10713
  140.0315  134.9898  157.0790 LP  0  0  0  0  0  0  0  0  0  0  0  0  # atno 17394 bound_to 11000
  140.4277  134.1813  155.7167 LP  0  0  0  0  0  0  0  0  0  0  0  0  # atno 17395 bound_to 11000

$$$$
