AV-unprocessed.smi:1578|AV-procd|sdf|6353|dock5
  -GOLD-   22720 6573D 1   1.00000     0.00000
 Structure written by MMmdl.
 45 46  0  0  0  0  0  0  0  0  2 V2000
  146.6057  142.2084  156.6024 C   0  0  0  0  0  0  0  0  0  0  0  0
  147.4437  141.2715  155.7222 C   0  0  1  0  0  0  0  0  0  0  0  0
  147.0354  141.3791  154.2338 C   0  0  0  0  0  0  0  0  0  0  0  0
  146.2411  140.2173  153.7570 N   0  3  0  0  0  0  0  0  0  0  0  0
  146.9598  139.3721  152.7734 C   0  0  0  0  0  0  0  0  0  0  0  0
  146.0383  138.2496  152.2698 C   0  0  0  0  0  0  0  0  0  0  0  0
  145.5970  137.4713  153.3755 O   0  0  0  0  0  0  0  0  0  0  0  0
  144.8417  138.2417  154.3024 C   0  0  0  0  0  0  0  0  0  0  0  0
  145.7076  139.3852  154.8612 C   0  0  0  0  0  0  0  0  0  0  0  0
  148.8615  141.5865  155.8963 N   0  0  0  0  0  0  0  0  0  0  0  0
  149.5098  141.6782  157.0681 C   0  0  0  0  0  0  0  0  0  0  0  0
  148.9548  141.5744  158.1618 O   0  0  0  0  0  0  0  0  0  0  0  0
  151.0253  141.8982  156.9894 C   0  0  0  0  0  0  0  0  0  0  0  0
  151.6206  142.1407  158.3146 N   0  0  0  0  0  0  0  0  0  0  0  0
  152.5503  141.1951  158.7891 C   0  0  0  0  0  0  0  0  0  0  0  0
  153.1620  141.3049  159.9835 C   0  0  0  0  0  0  0  0  0  0  0  0
  154.1715  140.2671  160.4477 C   0  0  0  0  0  0  0  0  0  0  0  0
  153.6723  139.0330  160.3819 F   0  0  0  0  0  0  0  0  0  0  0  0
  155.2637  140.3189  159.6860 F   0  0  0  0  0  0  0  0  0  0  0  0
  154.5366  140.5063  161.7073 F   0  0  0  0  0  0  0  0  0  0  0  0
  152.8259  142.4708  160.7782 C   0  0  0  0  0  0  0  0  0  0  0  0
  151.9425  143.3873  160.3368 C   0  0  0  0  0  0  0  0  0  0  0  0
  151.2794  143.2496  159.0388 C   0  0  0  0  0  0  0  0  0  0  0  0
  150.4721  144.0822  158.6234 O   0  0  0  0  0  0  0  0  0  0  0  0
  145.5428  141.9820  156.5131 H   0  0  0  0  0  0  0  0  0  0  0  0
  146.7478  143.2527  156.3217 H   0  0  0  0  0  0  0  0  0  0  0  0
  146.8759  142.1065  157.6539 H   0  0  0  0  0  0  0  0  0  0  0  0
  147.2510  140.2561  156.0710 H   0  0  0  0  0  0  0  0  0  0  0  0
  146.4852  142.3031  154.0488 H   0  0  0  0  0  0  0  0  0  0  0  0
  147.9479  141.4456  153.6390 H   0  0  0  0  0  0  0  0  0  0  0  0
  147.2976  139.9706  151.9281 H   0  0  0  0  0  0  0  0  0  0  0  0
  147.8507  138.9448  153.2362 H   0  0  0  0  0  0  0  0  0  0  0  0
  145.1833  138.6597  151.7294 H   0  0  0  0  0  0  0  0  0  0  0  0
  146.5763  137.6045  151.5752 H   0  0  0  0  0  0  0  0  0  0  0  0
  143.9444  138.6288  153.8185 H   0  0  0  0  0  0  0  0  0  0  0  0
  144.5091  137.5928  155.1128 H   0  0  0  0  0  0  0  0  0  0  0  0
  146.5344  138.9788  155.4457 H   0  0  0  0  0  0  0  0  0  0  0  0
  145.1082  140.0002  155.5335 H   0  0  0  0  0  0  0  0  0  0  0  0
  149.4042  141.7012  155.0523 H   0  0  0  0  0  0  0  0  0  0  0  0
  151.5078  141.0359  156.5245 H   0  0  0  0  0  0  0  0  0  0  0  0
  151.2116  142.7334  156.3131 H   0  0  0  0  0  0  0  0  0  0  0  0
  152.7427  140.3705  158.1179 H   0  0  0  0  0  0  0  0  0  0  0  0
  153.2875  142.6148  161.7438 H   0  0  0  0  0  0  0  0  0  0  0  0
  151.7158  144.2437  160.9547 H   0  0  0  0  0  0  0  0  0  0  0  0
  145.4358  140.6009  153.2823 H   0  0  0  0  0  0  0  0  0  0  0  0
  1  2  1  0  0  0  0
  1 25  1  0  0  0  0
  1 26  1  0  0  0  0
  1 27  1  0  0  0  0
  2  3  1  0  0  0  0
  2 10  1  0  0  0  0
  2 28  1  0  0  0  0
  3  4  1  0  0  0  0
  3 29  1  0  0  0  0
  3 30  1  0  0  0  0
  4  9  1  0  0  0  0
  4  5  1  0  0  0  0
  4 45  1  0  0  0  0
  5  6  1  0  0  0  0
  5 31  1  0  0  0  0
  5 32  1  0  0  0  0
  6  7  1  0  0  0  0
  6 33  1  0  0  0  0
  6 34  1  0  0  0  0
  7  8  1  0  0  0  0
  8  9  1  0  0  0  0
  8 35  1  0  0  0  0
  8 36  1  0  0  0  0
  9 37  1  0  0  0  0
  9 38  1  0  0  0  0
 10 11  1  0  0  0  0
 10 39  1  0  0  0  0
 11 12  2  0  0  0  0
 11 13  1  0  0  0  0
 13 14  1  0  0  0  0
 13 40  1  0  0  0  0
 13 41  1  0  0  0  0
 14 23  1  0  0  0  0
 14 15  1  0  0  0  0
 15 16  2  0  0  0  0
 15 42  1  0  0  0  0
 16 17  1  0  0  0  0
 16 21  1  0  0  0  0
 17 18  1  0  0  0  0
 17 19  1  0  0  0  0
 17 20  1  0  0  0  0
 21 22  2  0  0  0  0
 21 43  1  0  0  0  0
 22 23  1  0  0  0  0
 22 44  1  0  0  0  0
 23 24  2  0  0  0  0
M  CHG  1   4   1
M  END
> <s_m_source_file>
AV-unprocessed.smi

> <i_m_source_file_index>
1578

> <i_lp_mmshare_version>
43012

> <i_f3d_flags>
0

> <s_epik_input>
W0NIMl0xW0NIMl1PW0NIMl1bQ0gyXU4xW0NIMl1bQ0BASF0oW0NIM10pW05IXUMoPU8pW0NIMl1uMltjSF1jKEMoRikoRilGKVtjSF1bY0hdYzI9Tw==

> <s_epik_cmdline>
J2VwaWtfcHl0aG9uJywgJy1waCcsICc3LjAnLCAnLXRuJywgJzgnLCAnLW1hJywgJzIwMCcsICctbWV0YWxfYmluZGluZycsICctaW1hZScsICc8aW5maWxlLm1hZT4nLCAnLW9tYWUnLCAnPG91dGZpbGUubWFlPic=

> <r_lp_tautomer_probability>
1

> <r_epik_Ionization_Penalty>
0.656654

> <r_epik_Ionization_Penalty_Charging>
0.656653

> <r_epik_Ionization_Penalty_Neutral>
9.12373e-08

> <r_epik_State_Penalty>
0.675641

> <r_epik_Charging_Adjusted_Penalty>
1.33229

> <i_epik_Tot_Q>
1

> <i_epik_Tot_abs_Q>
1

> <r_epik_Metal_State_Penalty>
0.675695

> <b_epik_Metal_Only>
0

> <s_lp_Force_Field>
OPLS_2005

> <r_lp_Energy>
32.4409

> <b_lp_Chiralities_Consistent>
1

> <s_lp_Variant>
AV-unprocessed.smi:1578-4

> <Gold.Version>
5.8.1

> <Gold.Id.Protein>
6NUR|6NUR_protein|mol2

> <Gold.PLP.Fitness>
42.7280

> <Gold.PLP.PLP>
-41.4202

> <Gold.PLP.part.hbond>
-1.6716

> <Gold.PLP.part.metal>
0.0000

> <Gold.PLP.part.buried>
-4.3280

> <Gold.PLP.part.nonpolar>
-36.9821

> <Gold.PLP.part.repulsive>
0.4857

> <Gold.PLP.ligand.clash>
1.6454

> <Gold.PLP.ligand.torsion>
1.6172

> <Gold.PLP.Chemscore.Hbond>
2.0000

> <Gold.PLP.Chemscore.CHOScore>
0.0000

> <Gold.PLP.Chemscore.Metal>
0.0000

> <Gold.Chemscore.Hbonds>
donor molecule, donor type, donor heavy atom, donor atom, acceptor molecule, acceptor atom, score
      L1  H     4    45       P1 10175  2.00

> <Gold.PLP.Chemscore.Internal.Correction>
0.1875

> <Gold.Rescore>
     Score         DG    S(hbond)    S(metal)    S(lipo)     H(rot)  DE(clash)    DE(int)     intcor
     10.18     -12.85       0.99        0.00      82.36       2.17       0.00       2.68       ----

> <Gold.Chemscore.Fitness>
10.1751

> <Gold.Chemscore.DG>
-12.8520

> <Gold.Chemscore.ZeroCoef>
-5.4800

> <Gold.Chemscore.Hbond>
0.9866

> <Gold.Chemscore.Metal>
0.0000

> <Gold.Chemscore.Lipo>
82.3580

> <Gold.Chemscore.Internal_Hbond>
0.0000

> <Gold.Chemscore.DEClash>
0.0011

> <Gold.Chemscore.DEInternal>
2.6758

> <Gold.Chemscore.Rot>
2.1716

> <Gold.Chemscore.Internal.Correction>
   9.000000E+99

> <Gold.Chemscore.Hbonds>
donor molecule, donor type, donor heavy atom, donor atom, acceptor molecule, acceptor atom, score
      L1  H     4    45       P1 10175  0.88

> <Gold.Chemscore.Hbond.Weighted>
-3.2953

> <Gold.Chemscore.Metal.Weighted>
-0.0000

> <Gold.Chemscore.Lipo.Weighted>
-9.6359

> <Gold.Chemscore.Internal_Hbond.Weighted>
0.0000

> <Gold.Chemscore.DEClash.Weighted>
0.0011

> <Gold.Chemscore.DEInternal.Weighted>
2.6758

> <Gold.Chemscore.Rot.Weighted>
5.5592

> <Gold.Chemscore.Internal.Correction.Weighted>
   9.000000E+99

> <Gold.Protein.RotatedTorsions>
[ 6907 6896 6895 6894 ] final -134.05 input  -60.11 | X-H torsion
[ 7974 7965 7964 7962 ] final   87.44 input  175.53 | X-H torsion
[ 8008 7997 7996 7995 ] final  108.09 input   59.86 | X-H torsion
[ 10167 10162 10161 10158 ] final -126.66 input  -65.29 | X-H torsion
[ 10718 10713 10712 10709 ] final -150.51 input   66.30 | X-H torsion
[ 10763 10752 10751 10750 ] final   86.60 input  -60.55 | X-H torsion
[ 11005 11000 10999 10996 ] final   66.63 input  -57.11 | X-H torsion

> <Gold.Protein.ActiveResidues>
 VAL166  LYS551  ARG553  GLY616  TRP617  ASP618  TYR619  PRO620  LYS621  CYS622 
 ASP623  PHE694  ASN695  SER759  ASP760  ASP761  ALA762  ILE779  LEU786  VAL792 
 PHE793  MET794  SER795  GLU796  ALA797  LYS798  CYS799  TRP800  GLU811  SER814 

> <Gold.Protein.RotatedAtoms>
  150.9813  133.6243  159.2722 H   0  0  0  0  0  0  0  0  0  0  0  0  # atno 6907 bound_to 6896
  151.3497  135.0880  159.9408 H   0  0  0  0  0  0  0  0  0  0  0  0  # atno 6908 bound_to 6896
  152.5216  133.9408  159.7680 H   0  0  0  0  0  0  0  0  0  0  0  0  # atno 6909 bound_to 6896
  145.5590  139.2302  143.2470 H   0  0  0  0  0  0  0  0  0  0  0  0  # atno 7974 bound_to 7965
  156.1876  140.3083  155.9269 H   0  0  0  0  0  0  0  0  0  0  0  0  # atno 8008 bound_to 7997
  155.3246  140.0457  157.3057 H   0  0  0  0  0  0  0  0  0  0  0  0  # atno 8009 bound_to 7997
  154.5414  140.2262  155.8644 H   0  0  0  0  0  0  0  0  0  0  0  0  # atno 8010 bound_to 7997
  139.9691  143.5865  152.2419 H   0  0  0  0  0  0  0  0  0  0  0  0  # atno 10167 bound_to 10162
  156.4471  130.8150  151.2380 H   0  0  0  0  0  0  0  0  0  0  0  0  # atno 10718 bound_to 10713
  153.1586  135.4574  154.9740 H   0  0  0  0  0  0  0  0  0  0  0  0  # atno 10763 bound_to 10752
  154.7880  135.3211  154.7844 H   0  0  0  0  0  0  0  0  0  0  0  0  # atno 10764 bound_to 10752
  153.8337  135.6936  153.4866 H   0  0  0  0  0  0  0  0  0  0  0  0  # atno 10765 bound_to 10752
  139.9820  134.6729  156.0246 H   0  0  0  0  0  0  0  0  0  0  0  0  # atno 11005 bound_to 11000
  146.1864  140.6414  142.9165 LP  0  0  0  0  0  0  0  0  0  0  0  0  # atno 17320 bound_to 7965
  144.7492  140.5147  143.6814 LP  0  0  0  0  0  0  0  0  0  0  0  0  # atno 17321 bound_to 7965
  139.6495  144.7660  151.2177 LP  0  0  0  0  0  0  0  0  0  0  0  0  # atno 17342 bound_to 10162
  140.7528  143.6184  150.8537 LP  0  0  0  0  0  0  0  0  0  0  0  0  # atno 17343 bound_to 10162
  157.7504  131.0150  150.3485 LP  0  0  0  0  0  0  0  0  0  0  0  0  # atno 17370 bound_to 10713
  156.3855  130.3888  149.7069 LP  0  0  0  0  0  0  0  0  0  0  0  0  # atno 17371 bound_to 10713
  141.1490  133.6551  156.3956 LP  0  0  0  0  0  0  0  0  0  0  0  0  # atno 17394 bound_to 11000
  140.5078  134.6424  157.5273 LP  0  0  0  0  0  0  0  0  0  0  0  0  # atno 17395 bound_to 11000

$$$$
