AV-unprocessed.smi:3119|AV-procd|sdf|11891|dock1
  -GOLD-   2272017283D 1   1.00000     0.00000
 Structure written by MMmdl.
 32 33  0  0  0  0  0  0  0  0  2 V2000
  150.5175  140.4226  155.0020 O   0  0  0  0  0  0  0  0  0  0  0  0
  149.8560  141.4385  155.2190 C   0  0  0  0  0  0  0  0  0  0  0  0
  150.1958  142.3463  156.1449 N   0  0  0  0  0  0  0  0  0  0  0  0
  151.3650  142.2387  157.0068 C   0  0  0  0  0  0  0  0  0  0  0  0
  151.5075  143.4850  157.8905 C   0  0  0  0  0  0  0  0  0  0  0  0
  152.0347  143.1483  159.2721 C   0  0  0  0  0  0  0  0  0  0  0  0
  151.9006  144.0345  160.3630 C   0  0  0  0  0  0  0  0  0  0  0  0
  152.4042  143.6552  161.6249 C   0  0  0  0  0  0  0  0  0  0  0  0
  153.0291  142.3992  161.7697 C   0  0  0  0  0  0  0  0  0  0  0  0
  153.1349  141.5527  160.6472 C   0  0  0  0  0  0  0  0  0  0  0  0
  152.6396  141.9521  159.4548 N   0  3  0  0  0  0  0  0  0  0  0  0
  148.5784  141.7325  154.4211 C   0  0  0  0  0  0  0  0  0  0  0  0
  147.3175  141.8944  155.2875 C   0  0  0  0  0  0  0  0  0  0  0  0
  146.5587  141.0335  154.2735 C   0  0  0  0  0  0  0  0  0  0  0  0
  147.9089  140.4999  153.7861 C   0  0  0  0  0  0  0  0  0  0  0  0
  149.6047  143.1569  156.2608 H   0  0  0  0  0  0  0  0  0  0  0  0
  151.2751  141.3496  157.6335 H   0  0  0  0  0  0  0  0  0  0  0  0
  152.2543  142.1093  156.3878 H   0  0  0  0  0  0  0  0  0  0  0  0
  152.1798  144.2043  157.4202 H   0  0  0  0  0  0  0  0  0  0  0  0
  150.5425  143.9844  157.9898 H   0  0  0  0  0  0  0  0  0  0  0  0
  151.4159  144.9919  160.2375 H   0  0  0  0  0  0  0  0  0  0  0  0
  152.3109  144.3194  162.4717 H   0  0  0  0  0  0  0  0  0  0  0  0
  153.4207  142.0896  162.7279 H   0  0  0  0  0  0  0  0  0  0  0  0
  153.5955  140.5757  160.6668 H   0  0  0  0  0  0  0  0  0  0  0  0
  148.6898  142.5492  153.7050 H   0  0  0  0  0  0  0  0  0  0  0  0
  147.3871  141.4246  156.2704 H   0  0  0  0  0  0  0  0  0  0  0  0
  146.9509  142.9186  155.3620 H   0  0  0  0  0  0  0  0  0  0  0  0
  145.9039  140.2815  154.7144 H   0  0  0  0  0  0  0  0  0  0  0  0
  146.0428  141.6283  153.5182 H   0  0  0  0  0  0  0  0  0  0  0  0
  147.9979  140.4491  152.7008 H   0  0  0  0  0  0  0  0  0  0  0  0
  148.1753  139.5486  154.2501 H   0  0  0  0  0  0  0  0  0  0  0  0
  152.7251  141.3224  158.6564 H   0  0  0  0  0  0  0  0  0  0  0  0
  1  2  2  0  0  0  0
  2  3  1  0  0  0  0
  2 12  1  0  0  0  0
  3  4  1  0  0  0  0
  3 16  1  0  0  0  0
  4  5  1  0  0  0  0
  4 17  1  0  0  0  0
  4 18  1  0  0  0  0
  5  6  1  0  0  0  0
  5 19  1  0  0  0  0
  5 20  1  0  0  0  0
  6 11  1  0  0  0  0
  6  7  2  0  0  0  0
  7  8  1  0  0  0  0
  7 21  1  0  0  0  0
  8  9  2  0  0  0  0
  8 22  1  0  0  0  0
  9 10  1  0  0  0  0
  9 23  1  0  0  0  0
 10 11  2  0  0  0  0
 10 24  1  0  0  0  0
 11 32  1  0  0  0  0
 12 15  1  0  0  0  0
 12 13  1  0  0  0  0
 12 25  1  0  0  0  0
 13 14  1  0  0  0  0
 13 26  1  0  0  0  0
 13 27  1  0  0  0  0
 14 15  1  0  0  0  0
 14 28  1  0  0  0  0
 14 29  1  0  0  0  0
 15 30  1  0  0  0  0
 15 31  1  0  0  0  0
M  CHG  1  11   1
M  END
> <s_m_source_file>
AV-unprocessed.smi

> <i_m_source_file_index>
3119

> <i_lp_mmshare_version>
43012

> <i_f3d_flags>
0

> <s_epik_input>
W0NIMl0xW0NIMl1bQ0gyXVtDSF0xQyg9TylbTkhdW0NIMl1bQ0gyXWMyW2NIXVtjSF1bY0hdW2NIXW4y

> <s_epik_cmdline>
J2VwaWtfcHl0aG9uJywgJy1waCcsICc3LjAnLCAnLXRuJywgJzgnLCAnLW1hJywgJzIwMCcsICctbWV0YWxfYmluZGluZycsICctaW1hZScsICc8aW5maWxlLm1hZT4nLCAnLW9tYWUnLCAnPG91dGZpbGUubWFlPic=

> <r_epik_Ionization_Penalty>
1.82741

> <r_epik_Ionization_Penalty_Charging>
1.82741

> <r_epik_Ionization_Penalty_Neutral>
1.62845e-08

> <r_epik_State_Penalty>
1.94311

> <r_epik_Charging_Adjusted_Penalty>
3.77052

> <i_epik_Tot_Q>
1

> <i_epik_Tot_abs_Q>
1

> <r_epik_Metal_State_Penalty>
1.96982

> <b_epik_Metal_Only>
0

> <s_lp_Force_Field>
OPLS_2005

> <r_lp_Energy>
15.9357

> <b_lp_Chiralities_Consistent>
1

> <s_lp_Variant>
AV-unprocessed.smi:3119-2

> <Gold.Version>
5.8.1

> <Gold.Id.Protein>
6NUR|6NUR_protein|mol2

> <Gold.PLP.Fitness>
44.0844

> <Gold.PLP.PLP>
-39.3046

> <Gold.PLP.part.hbond>
-2.0000

> <Gold.PLP.part.metal>
0.0000

> <Gold.PLP.part.buried>
-3.6281

> <Gold.PLP.part.nonpolar>
-33.2485

> <Gold.PLP.part.repulsive>
0.2551

> <Gold.PLP.ligand.clash>
0.0000

> <Gold.PLP.ligand.torsion>
0.8201

> <Gold.PLP.Chemscore.Hbond>
2.0000

> <Gold.PLP.Chemscore.CHOScore>
0.0000

> <Gold.PLP.Chemscore.Metal>
0.0000

> <Gold.Chemscore.Hbonds>
donor molecule, donor type, donor heavy atom, donor atom, acceptor molecule, acceptor atom, score
      L1  H     3    16       P1  8028  1.00
      P1  H  7989  7998       L1     1  1.00

> <Gold.PLP.Chemscore.Internal.Correction>
0.4199

> <Gold.Rescore>
     Score         DG    S(hbond)    S(metal)    S(lipo)     H(rot)  DE(clash)    DE(int)     intcor
     18.47     -19.39       1.70        0.00     103.67       1.53       0.25       0.67       ----

> <Gold.Chemscore.Fitness>
18.4704

> <Gold.Chemscore.DG>
-19.3900

> <Gold.Chemscore.ZeroCoef>
-5.4800

> <Gold.Chemscore.Hbond>
1.7042

> <Gold.Chemscore.Metal>
0.0000

> <Gold.Chemscore.Lipo>
103.6665

> <Gold.Chemscore.Internal_Hbond>
0.0000

> <Gold.Chemscore.DEClash>
0.2523

> <Gold.Chemscore.DEInternal>
0.6673

> <Gold.Chemscore.Rot>
1.5278

> <Gold.Chemscore.Internal.Correction>
   9.000000E+99

> <Gold.Chemscore.Hbonds>
donor molecule, donor type, donor heavy atom, donor atom, acceptor molecule, acceptor atom, score
      L1  H     3    16       P1  8028  0.96
      P1  H  7989  7998       L1     1  0.43

> <Gold.Chemscore.Hbond.Weighted>
-5.6921

> <Gold.Chemscore.Metal.Weighted>
-0.0000

> <Gold.Chemscore.Lipo.Weighted>
-12.1290

> <Gold.Chemscore.Internal_Hbond.Weighted>
0.0000

> <Gold.Chemscore.DEClash.Weighted>
0.2523

> <Gold.Chemscore.DEInternal.Weighted>
0.6673

> <Gold.Chemscore.Rot.Weighted>
3.9111

> <Gold.Chemscore.Internal.Correction.Weighted>
   9.000000E+99

> <Gold.Protein.RotatedTorsions>
[ 6907 6896 6895 6894 ] final  116.74 input  -60.11 | X-H torsion
[ 7974 7965 7964 7962 ] final  140.20 input  175.53 | X-H torsion
[ 8008 7997 7996 7995 ] final -127.71 input   59.86 | X-H torsion
[ 10167 10162 10161 10158 ] final  -25.55 input  -65.29 | X-H torsion
[ 10718 10713 10712 10709 ] final  -19.76 input   66.30 | X-H torsion
[ 10763 10752 10751 10750 ] final  166.68 input  -60.55 | X-H torsion
[ 11005 11000 10999 10996 ] final  145.74 input  -57.11 | X-H torsion

> <Gold.Protein.ActiveResidues>
 VAL166  LYS551  ARG553  GLY616  TRP617  ASP618  TYR619  PRO620  LYS621  CYS622 
 ASP623  PHE694  ASN695  SER759  ASP760  ASP761  ALA762  ILE779  LEU786  VAL792 
 PHE793  MET794  SER795  GLU796  ALA797  LYS798  CYS799  TRP800  GLU811  SER814 

> <Gold.Protein.RotatedAtoms>
  152.4658  133.7919  159.6906 H   0  0  0  0  0  0  0  0  0  0  0  0  # atno 6907 bound_to 6896
  150.8622  133.7618  159.2995 H   0  0  0  0  0  0  0  0  0  0  0  0  # atno 6908 bound_to 6896
  151.5179  135.1069  159.9923 H   0  0  0  0  0  0  0  0  0  0  0  0  # atno 6909 bound_to 6896
  144.9208  139.5170  143.5664 H   0  0  0  0  0  0  0  0  0  0  0  0  # atno 7974 bound_to 7965
  155.2507  140.0432  157.2986 H   0  0  0  0  0  0  0  0  0  0  0  0  # atno 8008 bound_to 7997
  154.5770  140.2390  155.8077 H   0  0  0  0  0  0  0  0  0  0  0  0  # atno 8009 bound_to 7997
  156.2165  140.2983  155.9861 H   0  0  0  0  0  0  0  0  0  0  0  0  # atno 8010 bound_to 7997
  140.7286  143.4255  151.0884 H   0  0  0  0  0  0  0  0  0  0  0  0  # atno 10167 bound_to 10162
  156.5412  130.4679  149.6498 H   0  0  0  0  0  0  0  0  0  0  0  0  # atno 10718 bound_to 10713
  154.3426  135.2754  155.2414 H   0  0  0  0  0  0  0  0  0  0  0  0  # atno 10763 bound_to 10752
  154.4678  135.5891  153.6304 H   0  0  0  0  0  0  0  0  0  0  0  0  # atno 10764 bound_to 10752
  152.9856  135.6081  154.3629 H   0  0  0  0  0  0  0  0  0  0  0  0  # atno 10765 bound_to 10752
  140.0737  134.9137  157.1387 H   0  0  0  0  0  0  0  0  0  0  0  0  # atno 11005 bound_to 11000
  146.3204  139.8086  142.8950 LP  0  0  0  0  0  0  0  0  0  0  0  0  # atno 17320 bound_to 7965
  145.3299  141.0264  143.3452 LP  0  0  0  0  0  0  0  0  0  0  0  0  # atno 17321 bound_to 7965
  139.7906  143.8224  152.3151 LP  0  0  0  0  0  0  0  0  0  0  0  0  # atno 17342 bound_to 10162
  139.8207  144.7297  150.9577 LP  0  0  0  0  0  0  0  0  0  0  0  0  # atno 17343 bound_to 10162
  156.2969  130.7155  151.2018 LP  0  0  0  0  0  0  0  0  0  0  0  0  # atno 17370 bound_to 10713
  157.7405  131.0516  150.5163 LP  0  0  0  0  0  0  0  0  0  0  0  0  # atno 17371 bound_to 10713
  140.3590  134.2515  155.7189 LP  0  0  0  0  0  0  0  0  0  0  0  0  # atno 17394 bound_to 11000
  141.2021  133.7945  157.0406 LP  0  0  0  0  0  0  0  0  0  0  0  0  # atno 17395 bound_to 11000

$$$$
