AV-unprocessed.smi:1718|AV-procd|sdf|6929|dock2
  -GOLD-   22720 8143D 1   1.00000     0.00000
 Structure written by MMmdl.
 39 40  0  0  0  0  0  0  0  0  2 V2000
  154.4328  139.0946  159.9915 C   0  0  0  0  0  0  0  0  0  0  0  0
  153.2007  139.9512  159.6639 C   0  0  1  0  0  0  0  0  0  0  0  0
  153.6421  141.2961  159.5022 O   0  0  0  0  0  0  0  0  0  0  0  0
  153.2866  142.1844  160.5556 C   0  0  0  0  0  0  0  0  0  0  0  0
  151.9656  142.8730  160.1946 C   0  0  1  0  0  0  0  0  0  0  0  0
  151.5937  144.0308  161.1207 C   0  0  0  0  0  0  0  0  0  0  0  0
  150.7230  144.8747  160.2188 C   0  0  0  0  0  0  0  0  0  0  0  0
  151.4411  144.7358  158.8801 C   0  0  0  0  0  0  0  0  0  0  0  0
  152.0404  143.4426  158.8898 O   0  0  0  0  0  0  0  0  0  0  0  0
  152.5049  139.4655  158.3819 C   0  0  0  0  0  0  0  0  0  0  0  0
  152.8807  138.4218  157.8481 O   0  0  0  0  0  0  0  0  0  0  0  0
  151.5064  140.2519  157.9350 N   0  0  0  0  0  0  0  0  0  0  0  0
  150.7191  140.1230  156.7786 C   0  0  0  0  0  0  0  0  0  0  0  0
  149.3690  140.2961  156.7362 C   0  0  0  0  0  0  0  0  0  0  0  0
  148.5998  140.1323  155.5092 C   0  0  0  0  0  0  0  0  0  0  0  0
  147.1125  140.4189  155.4018 C   0  0  0  0  0  0  0  0  0  0  0  0
  146.8628  141.2998  154.4326 F   0  0  0  0  0  0  0  0  0  0  0  0
  146.4530  139.2957  155.1222 F   0  0  0  0  0  0  0  0  0  0  0  0
  146.6358  140.9070  156.5470 F   0  0  0  0  0  0  0  0  0  0  0  0
  149.3966  139.7942  154.4325 C   0  0  0  0  0  0  0  0  0  0  0  0
  150.7292  139.5747  154.3957 N   0  5  0  0  0  0  0  0  0  0  0  0
  151.4387  139.7320  155.5489 C   0  0  0  0  0  0  0  0  0  0  0  0
  152.6569  139.5552  155.5852 O   0  0  0  0  0  0  0  0  0  0  0  0
  154.1654  138.0437  160.1066 H   0  0  0  0  0  0  0  0  0  0  0  0
  154.8925  139.4208  160.9246 H   0  0  0  0  0  0  0  0  0  0  0  0
  155.1905  139.1649  159.2102 H   0  0  0  0  0  0  0  0  0  0  0  0
  152.5106  139.8947  160.5082 H   0  0  0  0  0  0  0  0  0  0  0  0
  153.1844  141.6657  161.5094 H   0  0  0  0  0  0  0  0  0  0  0  0
  154.0716  142.9325  160.6756 H   0  0  0  0  0  0  0  0  0  0  0  0
  151.1550  142.1427  160.1824 H   0  0  0  0  0  0  0  0  0  0  0  0
  151.0834  143.7031  162.0269 H   0  0  0  0  0  0  0  0  0  0  0  0
  152.4814  144.5935  161.4135 H   0  0  0  0  0  0  0  0  0  0  0  0
  149.7215  144.4464  160.1565 H   0  0  0  0  0  0  0  0  0  0  0  0
  150.6343  145.9095  160.5506 H   0  0  0  0  0  0  0  0  0  0  0  0
  150.7673  144.8573  158.0318 H   0  0  0  0  0  0  0  0  0  0  0  0
  152.2320  145.4821  158.7947 H   0  0  0  0  0  0  0  0  0  0  0  0
  151.2572  141.0349  158.5220 H   0  0  0  0  0  0  0  0  0  0  0  0
  148.8151  140.5407  157.6278 H   0  0  0  0  0  0  0  0  0  0  0  0
  148.8869  139.6899  153.4509 H   0  0  0  0  0  0  0  0  0  0  0  0
  1  2  1  0  0  0  0
  1 24  1  0  0  0  0
  1 25  1  0  0  0  0
  1 26  1  0  0  0  0
  2  3  1  0  0  0  0
  2 10  1  0  0  0  0
  2 27  1  0  0  0  0
  3  4  1  0  0  0  0
  4  5  1  0  0  0  0
  4 28  1  0  0  0  0
  4 29  1  0  0  0  0
  5  9  1  0  0  0  0
  5  6  1  0  0  0  0
  5 30  1  0  0  0  0
  6  7  1  0  0  0  0
  6 31  1  0  0  0  0
  6 32  1  0  0  0  0
  7  8  1  0  0  0  0
  7 33  1  0  0  0  0
  7 34  1  0  0  0  0
  8  9  1  0  0  0  0
  8 35  1  0  0  0  0
  8 36  1  0  0  0  0
 10 11  2  0  0  0  0
 10 12  1  0  0  0  0
 12 13  1  0  0  0  0
 12 37  1  0  0  0  0
 13 22  1  0  0  0  0
 13 14  2  0  0  0  0
 14 15  1  0  0  0  0
 14 38  1  0  0  0  0
 15 16  1  0  0  0  0
 15 20  2  0  0  0  0
 16 17  1  0  0  0  0
 16 18  1  0  0  0  0
 16 19  1  0  0  0  0
 20 21  1  0  0  0  0
 20 39  1  0  0  0  0
 21 22  1  0  0  0  0
 22 23  2  0  0  0  0
M  CHG  1  21  -1
M  END
> <s_m_source_file>
AV-unprocessed.smi

> <i_m_source_file_index>
1718

> <i_lp_mmshare_version>
43012

> <i_f3d_flags>
0

> <s_epik_input>
TzFbQ0gyXVtDSDJdW0NIMl1bQ0BIXTFbQ0gyXU9bQ0BASF0oW0NIM10pQyg9TylbTkhdYzJbY0hdYyhDKEYpKEYpRilbY0hdW25IXWMyPU8=

> <s_epik_cmdline>
J2VwaWtfcHl0aG9uJywgJy1waCcsICc3LjAnLCAnLXRuJywgJzgnLCAnLW1hJywgJzIwMCcsICctbWV0YWxfYmluZGluZycsICctaW1hZScsICc8aW5maWxlLm1hZT4nLCAnLW9tYWUnLCAnPG91dGZpbGUubWFlPic=

> <r_epik_Ionization_Penalty>
2.5466

> <r_epik_Ionization_Penalty_Charging>
0.0575837

> <r_epik_Ionization_Penalty_Neutral>
2.48901

> <r_epik_State_Penalty>
2.6532

> <r_epik_Charging_Adjusted_Penalty>
2.71078

> <i_epik_Tot_Q>
-1

> <i_epik_Tot_abs_Q>
1

> <r_epik_Metal_State_Penalty>
0.516196

> <b_epik_Metal_Only>
0

> <s_lp_Force_Field>
OPLS_2005

> <r_lp_Energy>
35.9934

> <b_lp_Chiralities_Consistent>
1

> <s_lp_Variant>
AV-unprocessed.smi:1718-8

> <Gold.Version>
5.8.1

> <Gold.Id.Protein>
6NUR|6NUR_protein|mol2

> <Gold.PLP.Fitness>
50.8862

> <Gold.PLP.PLP>
-47.8321

> <Gold.PLP.part.hbond>
-2.0000

> <Gold.PLP.part.metal>
0.0000

> <Gold.PLP.part.buried>
-7.0714

> <Gold.PLP.part.nonpolar>
-38.9154

> <Gold.PLP.part.repulsive>
0.1961

> <Gold.PLP.ligand.clash>
0.0000

> <Gold.PLP.ligand.torsion>
1.5384

> <Gold.PLP.Chemscore.Hbond>
2.0000

> <Gold.PLP.Chemscore.CHOScore>
0.0000

> <Gold.PLP.Chemscore.Metal>
0.0000

> <Gold.Chemscore.Hbonds>
donor molecule, donor type, donor heavy atom, donor atom, acceptor molecule, acceptor atom, score
      P1  H  7989  7998       L1    21  0.75
      P1  H  7997  8010       L1    23  1.00

> <Gold.PLP.Chemscore.Internal.Correction>
0.1310

> <Gold.Rescore>
     Score         DG    S(hbond)    S(metal)    S(lipo)     H(rot)  DE(clash)    DE(int)     intcor
     12.99     -16.94       1.66        0.00      90.87       1.85       0.01       3.94       ----

> <Gold.Chemscore.Fitness>
12.9874

> <Gold.Chemscore.DG>
-16.9407

> <Gold.Chemscore.ZeroCoef>
-5.4800

> <Gold.Chemscore.Hbond>
1.6626

> <Gold.Chemscore.Metal>
0.0000

> <Gold.Chemscore.Lipo>
90.8717

> <Gold.Chemscore.Internal_Hbond>
0.0000

> <Gold.Chemscore.DEClash>
0.0127

> <Gold.Chemscore.DEInternal>
3.9406

> <Gold.Chemscore.Rot>
1.8455

> <Gold.Chemscore.Internal.Correction>
   9.000000E+99

> <Gold.Chemscore.Hbonds>
donor molecule, donor type, donor heavy atom, donor atom, acceptor molecule, acceptor atom, score
      P1  H  7989  7998       L1    21  0.08
      P1  H  7997  8010       L1    23  1.00

> <Gold.Chemscore.Hbond.Weighted>
-5.5532

> <Gold.Chemscore.Metal.Weighted>
-0.0000

> <Gold.Chemscore.Lipo.Weighted>
-10.6320

> <Gold.Chemscore.Internal_Hbond.Weighted>
0.0000

> <Gold.Chemscore.DEClash.Weighted>
0.0127

> <Gold.Chemscore.DEInternal.Weighted>
3.9406

> <Gold.Chemscore.Rot.Weighted>
4.7245

> <Gold.Chemscore.Internal.Correction.Weighted>
   9.000000E+99

> <Gold.Protein.RotatedTorsions>
[ 6907 6896 6895 6894 ] final  136.23 input  -60.11 | X-H torsion
[ 7974 7965 7964 7962 ] final -168.83 input  175.53 | X-H torsion
[ 8008 7997 7996 7995 ] final   94.38 input   59.86 | X-H torsion
[ 10167 10162 10161 10158 ] final   55.34 input  -65.29 | X-H torsion
[ 10718 10713 10712 10709 ] final  121.57 input   66.30 | X-H torsion
[ 10763 10752 10751 10750 ] final  150.56 input  -60.55 | X-H torsion
[ 11005 11000 10999 10996 ] final  -84.97 input  -57.11 | X-H torsion

> <Gold.Protein.ActiveResidues>
 VAL166  LYS551  ARG553  GLY616  TRP617  ASP618  TYR619  PRO620  LYS621  CYS622 
 ASP623  PHE694  ASN695  SER759  ASP760  ASP761  ALA762  ILE779  LEU786  VAL792 
 PHE793  MET794  SER795  GLU796  ALA797  LYS798  CYS799  TRP800  GLU811  SER814 

> <Gold.Protein.RotatedAtoms>
  152.2916  133.5567  159.5561 H   0  0  0  0  0  0  0  0  0  0  0  0  # atno 6907 bound_to 6896
  150.7238  134.0420  159.3778 H   0  0  0  0  0  0  0  0  0  0  0  0  # atno 6908 bound_to 6896
  151.8325  135.0617  160.0489 H   0  0  0  0  0  0  0  0  0  0  0  0  # atno 6909 bound_to 6896
  144.7196  140.2312  143.6304 H   0  0  0  0  0  0  0  0  0  0  0  0  # atno 7974 bound_to 7965
  156.0573  140.3300  155.7420 H   0  0  0  0  0  0  0  0  0  0  0  0  # atno 8008 bound_to 7997
  155.5510  140.0610  157.2867 H   0  0  0  0  0  0  0  0  0  0  0  0  # atno 8009 bound_to 7997
  154.4464  140.1894  156.0674 H   0  0  0  0  0  0  0  0  0  0  0  0  # atno 8010 bound_to 7997
  140.2205  144.3794  150.6453 H   0  0  0  0  0  0  0  0  0  0  0  0  # atno 10167 bound_to 10162
  157.5808  131.1075  150.8192 H   0  0  0  0  0  0  0  0  0  0  0  0  # atno 10718 bound_to 10713
  154.0895  135.2853  155.3274 H   0  0  0  0  0  0  0  0  0  0  0  0  # atno 10763 bound_to 10752
  154.6630  135.5327  153.8045 H   0  0  0  0  0  0  0  0  0  0  0  0  # atno 10764 bound_to 10752
  153.0419  135.6538  154.1064 H   0  0  0  0  0  0  0  0  0  0  0  0  # atno 10765 bound_to 10752
  141.1646  133.7374  156.8946 H   0  0  0  0  0  0  0  0  0  0  0  0  # atno 11005 bound_to 11000
  145.8408  139.2129  143.1828 LP  0  0  0  0  0  0  0  0  0  0  0  0  # atno 17320 bound_to 7965
  146.0348  140.8223  142.9858 LP  0  0  0  0  0  0  0  0  0  0  0  0  # atno 17321 bound_to 7965
  140.6259  143.2181  151.6598 LP  0  0  0  0  0  0  0  0  0  0  0  0  # atno 17342 bound_to 10162
  139.5146  144.3405  152.0744 LP  0  0  0  0  0  0  0  0  0  0  0  0  # atno 17343 bound_to 10162
  156.8638  130.5122  149.5301 LP  0  0  0  0  0  0  0  0  0  0  0  0  # atno 17370 bound_to 10713
  156.0853  130.5853  150.9637 LP  0  0  0  0  0  0  0  0  0  0  0  0  # atno 17371 bound_to 10713
  140.1625  134.9156  157.2732 LP  0  0  0  0  0  0  0  0  0  0  0  0  # atno 17394 bound_to 11000
  140.2595  134.3588  155.7412 LP  0  0  0  0  0  0  0  0  0  0  0  0  # atno 17395 bound_to 11000

$$$$
