AV-unprocessed.smi:1696|AV-procd|sdf|6801|dock10
  -GOLD-   22720 7573D 1   1.00000     0.00000
 Structure written by MMmdl.
 38 39  0  0  0  0  0  0  0  0  3 V2000
  151.9817  138.9133  154.9782 C   0  0  0  0  0  0  0  0  0  0  0  0
  151.2617  137.7192  154.3314 C   0  0  0  0  0  0  0  0  0  0  0  0
  150.0170  137.2098  155.1081 C   0  0  2  0  0  0  0  0  0  0  0  0
  150.2969  137.0429  156.6267 C   0  0  0  0  0  0  0  0  0  0  0  0
  149.0766  137.0178  157.4264 N   0  0  0  0  0  0  0  0  0  0  0  0
  149.0108  136.7630  158.7406 C   0  0  0  0  0  0  0  0  0  0  0  0
  150.0443  136.5390  159.3751 O   0  0  0  0  0  0  0  0  0  0  0  0
  147.7529  136.7765  159.2343 N   0  5  0  0  0  0  0  0  0  0  0  0
  147.5151  136.3280  160.4776 C   0  0  0  0  0  0  0  0  0  0  0  0
  147.4283  137.1355  161.5407 N   0  0  0  0  0  0  0  0  0  0  0  0
  147.1706  136.4571  162.7334 C   0  0  0  0  0  0  0  0  0  0  0  0
  147.0493  135.1022  162.5729 C   0  0  0  0  0  0  0  0  0  0  0  0
  147.2575  134.6351  160.9092 S   0  0  0  0  0  0  0  0  0  0  0  0
  149.4639  135.9541  154.5219 N   0  3  0  0  0  0  0  0  0  0  0  0
  150.3123  134.7473  154.6948 C   0  0  0  0  0  0  0  0  0  0  0  0
  149.3712  133.5520  154.9031 C   0  0  0  0  0  0  0  0  0  0  0  0
  147.9747  134.0981  154.6277 C   0  0  0  0  0  0  0  0  0  0  0  0
  148.1063  135.5767  154.9720 C   0  0  0  0  0  0  0  0  0  0  0  0
  152.8638  139.1872  154.3988 H   0  0  0  0  0  0  0  0  0  0  0  0
  152.3125  138.6838  155.9910 H   0  0  0  0  0  0  0  0  0  0  0  0
  151.3394  139.7927  155.0238 H   0  0  0  0  0  0  0  0  0  0  0  0
  150.9702  137.9992  153.3189 H   0  0  0  0  0  0  0  0  0  0  0  0
  151.9752  136.9076  154.1905 H   0  0  0  0  0  0  0  0  0  0  0  0
  149.2422  137.9695  154.9927 H   0  0  0  0  0  0  0  0  0  0  0  0
  150.8554  136.1295  156.8334 H   0  0  0  0  0  0  0  0  0  0  0  0
  150.9216  137.8590  156.9892 H   0  0  0  0  0  0  0  0  0  0  0  0
  148.2079  137.2014  156.9458 H   0  0  0  0  0  0  0  0  0  0  0  0
  147.0872  137.0198  163.6512 H   0  0  0  0  0  0  0  0  0  0  0  0
  146.8509  134.3548  163.3261 H   0  0  0  0  0  0  0  0  0  0  0  0
  150.9380  134.6139  153.8117 H   0  0  0  0  0  0  0  0  0  0  0  0
  150.9719  134.8430  155.5589 H   0  0  0  0  0  0  0  0  0  0  0  0
  149.6188  132.7073  154.2592 H   0  0  0  0  0  0  0  0  0  0  0  0
  149.4359  133.2096  155.9369 H   0  0  0  0  0  0  0  0  0  0  0  0
  147.7341  133.9851  153.5696 H   0  0  0  0  0  0  0  0  0  0  0  0
  147.1991  133.5947  155.2059 H   0  0  0  0  0  0  0  0  0  0  0  0
  148.0248  135.7127  156.0519 H   0  0  0  0  0  0  0  0  0  0  0  0
  147.3317  136.1750  154.4918 H   0  0  0  0  0  0  0  0  0  0  0  0
  149.3913  136.1029  153.5257 H   0  0  0  0  0  0  0  0  0  0  0  0
  1  2  1  0  0  0  0
  1 19  1  0  0  0  0
  1 20  1  0  0  0  0
  1 21  1  0  0  0  0
  2  3  1  0  0  0  0
  2 22  1  0  0  0  0
  2 23  1  0  0  0  0
  3  4  1  0  0  0  0
  3 14  1  0  0  0  0
  3 24  1  0  0  0  0
  4  5  1  0  0  0  0
  4 25  1  0  0  0  0
  4 26  1  0  0  0  0
  5  6  1  0  0  0  0
  5 27  1  0  0  0  0
  6  7  2  0  0  0  0
  6  8  1  0  0  0  0
  8  9  1  0  0  0  0
  9 13  1  0  0  0  0
  9 10  2  0  0  0  0
 10 11  1  0  0  0  0
 11 12  2  0  0  0  0
 11 28  1  0  0  0  0
 12 13  1  0  0  0  0
 12 29  1  0  0  0  0
 14 18  1  0  0  0  0
 14 15  1  0  0  0  0
 14 38  1  0  0  0  0
 15 16  1  0  0  0  0
 15 30  1  0  0  0  0
 15 31  1  0  0  0  0
 16 17  1  0  0  0  0
 16 32  1  0  0  0  0
 16 33  1  0  0  0  0
 17 18  1  0  0  0  0
 17 34  1  0  0  0  0
 17 35  1  0  0  0  0
 18 36  1  0  0  0  0
 18 37  1  0  0  0  0
M  CHG  1   8  -1
M  CHG  1  14   1
M  END
> <s_m_source_file>
AV-unprocessed.smi

> <i_m_source_file_index>
1696

> <i_lp_mmshare_version>
43012

> <i_f3d_flags>
0

> <s_epik_input>
W0NIMl0xW0NIMl1bQ0gyXVtDSDJdTjFbQ0BIXShbQ0gyXVtDSDNdKVtDSDJdW05IXUMoPU8pW05IXWMybltjSF1bY0hdczI=

> <s_epik_cmdline>
J2VwaWtfcHl0aG9uJywgJy1waCcsICc3LjAnLCAnLXRuJywgJzgnLCAnLW1hJywgJzIwMCcsICctbWV0YWxfYmluZGluZycsICctaW1hZScsICc8aW5maWxlLm1hZT4nLCAnLW9tYWUnLCAnPG91dGZpbGUubWFlPic=

> <r_lp_tautomer_probability>
1

> <r_epik_Ionization_Penalty>
7.71903

> <r_epik_Ionization_Penalty_Charging>
6.3282

> <r_epik_Ionization_Penalty_Neutral>
1.39083

> <r_epik_State_Penalty>
6.32705

> <r_epik_Charging_Adjusted_Penalty>
12.6552

> <i_epik_Tot_Q>
0

> <i_epik_Tot_abs_Q>
2

> <r_epik_Metal_State_Penalty>
2.26116

> <b_epik_Metal_Only>
1

> <s_lp_Force_Field>
OPLS_2005

> <r_lp_Energy>
21.91

> <b_lp_Chiralities_Consistent>
1

> <s_lp_Variant>
AV-unprocessed.smi:1696-3

> <Gold.Version>
5.8.1

> <Gold.Id.Protein>
6NUR|6NUR_protein|mol2

> <Gold.PLP.Fitness>
46.0278

> <Gold.PLP.PLP>
-33.8076

> <Gold.PLP.part.hbond>
-4.0000

> <Gold.PLP.part.metal>
0.0000

> <Gold.PLP.part.buried>
-4.2898

> <Gold.PLP.part.nonpolar>
-25.4205

> <Gold.PLP.part.repulsive>
0.0600

> <Gold.PLP.ligand.clash>
0.0000

> <Gold.PLP.ligand.torsion>
1.0690

> <Gold.PLP.Chemscore.Hbond>
4.7360

> <Gold.PLP.Chemscore.CHOScore>
0.0000

> <Gold.PLP.Chemscore.Metal>
0.0000

> <Gold.Chemscore.Hbonds>
donor molecule, donor type, donor heavy atom, donor atom, acceptor molecule, acceptor atom, score
      L1  H    14    38       P1  7948  2.00
      P1  H  6896  6907       L1     7  1.00
      P1  H  6931  6943       L1    10  0.94
      P1  H  6934  6947       L1    10  0.88

> <Gold.PLP.Chemscore.Internal.Correction>
0.1503

> <Gold.Rescore>
     Score         DG    S(hbond)    S(metal)    S(lipo)     H(rot)  DE(clash)    DE(int)     intcor
     17.24     -18.47       2.88        0.00      66.65       1.73       0.02       1.22       ----

> <Gold.Chemscore.Fitness>
17.2353

> <Gold.Chemscore.DG>
-18.4728

> <Gold.Chemscore.ZeroCoef>
-5.4800

> <Gold.Chemscore.Hbond>
2.8789

> <Gold.Chemscore.Metal>
0.0000

> <Gold.Chemscore.Lipo>
66.6535

> <Gold.Chemscore.Internal_Hbond>
0.0000

> <Gold.Chemscore.DEClash>
0.0202

> <Gold.Chemscore.DEInternal>
1.2173

> <Gold.Chemscore.Rot>
1.7270

> <Gold.Chemscore.Internal.Correction>
   9.000000E+99

> <Gold.Chemscore.Hbonds>
donor molecule, donor type, donor heavy atom, donor atom, acceptor molecule, acceptor atom, score
      L1  H    14    38       P1  7948  0.65
      P1  H  6896  6907       L1     7  0.96
      P1  H  6931  6943       L1    10  0.41
      P1  H  6934  6947       L1    10  0.62

> <Gold.Chemscore.Hbond.Weighted>
-9.6155

> <Gold.Chemscore.Metal.Weighted>
-0.0000

> <Gold.Chemscore.Lipo.Weighted>
-7.7985

> <Gold.Chemscore.Internal_Hbond.Weighted>
0.0000

> <Gold.Chemscore.DEClash.Weighted>
0.0202

> <Gold.Chemscore.DEInternal.Weighted>
1.2173

> <Gold.Chemscore.Rot.Weighted>
4.4212

> <Gold.Chemscore.Internal.Correction.Weighted>
   9.000000E+99

> <Gold.Protein.RotatedTorsions>
[ 6907 6896 6895 6894 ] final  -17.86 input  -60.11 | X-H torsion
[ 7974 7965 7964 7962 ] final -107.49 input  175.53 | X-H torsion
[ 8008 7997 7996 7995 ] final   31.46 input   59.86 | X-H torsion
[ 10167 10162 10161 10158 ] final  -71.10 input  -65.29 | X-H torsion
[ 10718 10713 10712 10709 ] final -114.46 input   66.30 | X-H torsion
[ 10763 10752 10751 10750 ] final  -63.49 input  -60.55 | X-H torsion
[ 11005 11000 10999 10996 ] final -161.57 input  -57.11 | X-H torsion

> <Gold.Protein.ActiveResidues>
 VAL166  LYS551  ARG553  GLY616  TRP617  ASP618  TYR619  PRO620  LYS621  CYS622 
 ASP623  PHE694  ASN695  SER759  ASP760  ASP761  ALA762  ILE779  LEU786  VAL792 
 PHE793  MET794  SER795  GLU796  ALA797  LYS798  CYS799  TRP800  GLU811  SER814 

> <Gold.Protein.RotatedAtoms>
  151.2869  135.0730  159.9189 H   0  0  0  0  0  0  0  0  0  0  0  0  # atno 6907 bound_to 6896
  152.5324  133.9973  159.7888 H   0  0  0  0  0  0  0  0  0  0  0  0  # atno 6908 bound_to 6896
  151.0236  133.5803  159.2699 H   0  0  0  0  0  0  0  0  0  0  0  0  # atno 6909 bound_to 6896
  145.2047  140.9071  143.3349 H   0  0  0  0  0  0  0  0  0  0  0  0  # atno 7974 bound_to 7965
  155.1068  140.3235  155.4532 H   0  0  0  0  0  0  0  0  0  0  0  0  # atno 8008 bound_to 7997
  156.2702  140.2051  156.6140 H   0  0  0  0  0  0  0  0  0  0  0  0  # atno 8009 bound_to 7997
  154.6787  140.0528  157.0230 H   0  0  0  0  0  0  0  0  0  0  0  0  # atno 8010 bound_to 7997
  140.5300  143.2322  151.7280 H   0  0  0  0  0  0  0  0  0  0  0  0  # atno 10167 bound_to 10162
  156.0832  130.6028  150.8778 H   0  0  0  0  0  0  0  0  0  0  0  0  # atno 10718 bound_to 10713
  154.3159  135.6206  153.5486 H   0  0  0  0  0  0  0  0  0  0  0  0  # atno 10763 bound_to 10752
  152.9825  135.5712  154.5125 H   0  0  0  0  0  0  0  0  0  0  0  0  # atno 10764 bound_to 10752
  154.4784  135.2862  155.1566 H   0  0  0  0  0  0  0  0  0  0  0  0  # atno 10765 bound_to 10752
  140.6189  134.4771  157.5222 H   0  0  0  0  0  0  0  0  0  0  0  0  # atno 11005 bound_to 11000
  144.9914  139.3686  143.6213 LP  0  0  0  0  0  0  0  0  0  0  0  0  # atno 17320 bound_to 7965
  146.3410  139.9098  142.8782 LP  0  0  0  0  0  0  0  0  0  0  0  0  # atno 17321 bound_to 7965
  139.4951  144.4129  152.0061 LP  0  0  0  0  0  0  0  0  0  0  0  0  # atno 17342 bound_to 10162
  140.3230  144.3405  150.6005 LP  0  0  0  0  0  0  0  0  0  0  0  0  # atno 17343 bound_to 10162
  157.5956  131.0943  150.9046 LP  0  0  0  0  0  0  0  0  0  0  0  0  # atno 17370 bound_to 10713
  156.9213  130.5316  149.5279 LP  0  0  0  0  0  0  0  0  0  0  0  0  # atno 17371 bound_to 10713
  139.9161  134.8243  156.1361 LP  0  0  0  0  0  0  0  0  0  0  0  0  # atno 17394 bound_to 11000
  141.0756  133.6777  156.2230 LP  0  0  0  0  0  0  0  0  0  0  0  0  # atno 17395 bound_to 11000

$$$$
