AV-unprocessed.smi:263|AV-procd|sdf|2004|dock6
  -GOLD-   2262021203D 1   1.00000     0.00000
 Structure written by MMmdl.
 57 61  0  0  0  0  0  0  0  0  1 V2000
  144.0615  134.7677  149.6380 O   0  0  0  0  0  0  0  0  0  0  0  0
  144.2745  134.2357  150.9338 C   0  0  0  0  0  0  0  0  0  0  0  0
  143.6858  135.2338  151.9619 C   0  0  0  0  0  0  0  0  0  0  0  0
  144.6531  136.1842  152.4884 N   0  0  0  0  0  0  0  0  0  0  0  0
  145.3777  137.1060  151.7669 C   0  0  0  0  0  0  0  0  0  0  0  0
  146.1860  137.8515  152.4694 N   0  0  0  0  0  0  0  0  0  0  0  0
  146.0179  137.3999  153.7732 C   0  0  0  0  0  0  0  0  0  0  0  0
  146.5827  137.7633  155.0283 C   0  0  0  0  0  0  0  0  0  0  0  0
  147.5241  138.7327  155.1543 N   0  0  0  0  0  0  0  0  0  0  0  0
  147.0357  140.0876  154.9072 C   0  0  0  0  0  0  0  0  0  0  0  0
  148.0106  141.1356  155.4710 C   0  0  0  0  0  0  0  0  0  0  0  0
  149.4568  140.9213  154.9640 C   0  0  1  0  0  0  0  0  0  0  0  0
  149.4643  141.1968  153.5745 O   0  0  0  0  0  0  0  0  0  0  0  0
  150.4603  141.9133  155.5981 C   0  0  0  0  0  0  0  0  0  0  0  0
  150.7693  141.5959  157.0702 C   0  0  0  0  0  0  0  0  0  0  0  0
  151.2565  140.1497  157.2297 C   0  0  0  0  0  0  0  0  0  0  0  0
  150.2321  139.1565  156.6628 C   0  0  0  0  0  0  0  0  0  0  0  0
  149.9068  139.4490  155.1809 C   0  0  1  0  0  0  0  0  0  0  0  0
  148.8629  138.4525  154.6320 C   0  0  0  0  0  0  0  0  0  0  0  0
  146.1471  137.0912  156.1277 N   0  0  0  0  0  0  0  0  0  0  0  0
  145.2343  136.1225  156.0097 C   0  0  0  0  0  0  0  0  0  0  0  0
  144.6323  135.6730  154.9070 N   0  0  0  0  0  0  0  0  0  0  0  0
  145.0544  136.3522  153.8022 C   0  0  0  0  0  0  0  0  0  0  0  0
  143.5480  132.8790  151.0300 C   0  0  0  0  0  0  0  0  0  0  0  0
  144.2074  131.8031  150.1493 C   0  0  0  0  0  0  0  0  0  0  0  0
  145.5830  131.6765  150.4875 O   0  0  0  0  0  0  0  0  0  0  0  0
  146.3196  132.8672  150.2373 C   0  0  0  0  0  0  0  0  0  0  0  0
  145.7913  134.0127  151.1194 C   0  0  0  0  0  0  0  0  0  0  0  0
  144.8902  134.7988  149.1848 H   0  0  0  0  0  0  0  0  0  0  0  0
  142.8605  135.7935  151.5197 H   0  0  0  0  0  0  0  0  0  0  0  0
  143.2615  134.6891  152.8064 H   0  0  0  0  0  0  0  0  0  0  0  0
  145.2823  137.2133  150.6960 H   0  0  0  0  0  0  0  0  0  0  0  0
  146.9195  140.2254  153.8315 H   0  0  0  0  0  0  0  0  0  0  0  0
  146.0506  140.2440  155.3452 H   0  0  0  0  0  0  0  0  0  0  0  0
  147.6623  142.1374  155.2161 H   0  0  0  0  0  0  0  0  0  0  0  0
  147.9816  141.0773  156.5586 H   0  0  0  0  0  0  0  0  0  0  0  0
  149.3438  140.3845  153.1070 H   0  0  0  0  0  0  0  0  0  0  0  0
  151.3986  141.8844  155.0418 H   0  0  0  0  0  0  0  0  0  0  0  0
  150.0900  142.9355  155.5097 H   0  0  0  0  0  0  0  0  0  0  0  0
  151.5285  142.2838  157.4432 H   0  0  0  0  0  0  0  0  0  0  0  0
  149.8840  141.7579  157.6852 H   0  0  0  0  0  0  0  0  0  0  0  0
  152.2106  140.0254  156.7157 H   0  0  0  0  0  0  0  0  0  0  0  0
  151.4405  139.9334  158.2823 H   0  0  0  0  0  0  0  0  0  0  0  0
  150.6184  138.1417  156.7624 H   0  0  0  0  0  0  0  0  0  0  0  0
  149.3235  139.1934  157.2648 H   0  0  0  0  0  0  0  0  0  0  0  0
  150.8323  139.2910  154.6246 H   0  0  0  0  0  0  0  0  0  0  0  0
  149.1617  137.4343  154.8854 H   0  0  0  0  0  0  0  0  0  0  0  0
  148.8336  138.5109  153.5430 H   0  0  0  0  0  0  0  0  0  0  0  0
  144.9476  135.6361  156.9303 H   0  0  0  0  0  0  0  0  0  0  0  0
  143.5676  132.5332  152.0645 H   0  0  0  0  0  0  0  0  0  0  0  0
  142.4957  132.9874  150.7642 H   0  0  0  0  0  0  0  0  0  0  0  0
  143.7187  130.8417  150.3081 H   0  0  0  0  0  0  0  0  0  0  0  0
  144.0999  132.0398  149.0896 H   0  0  0  0  0  0  0  0  0  0  0  0
  147.3706  132.6822  150.4591 H   0  0  0  0  0  0  0  0  0  0  0  0
  146.2631  133.1268  149.1792 H   0  0  0  0  0  0  0  0  0  0  0  0
  146.3484  134.9250  150.9028 H   0  0  0  0  0  0  0  0  0  0  0  0
  145.9940  133.7696  152.1631 H   0  0  0  0  0  0  0  0  0  0  0  0
  1  2  1  0  0  0  0
  1 29  1  0  0  0  0
  2 28  1  0  0  0  0
  2  3  1  0  0  0  0
  2 24  1  0  0  0  0
  3  4  1  0  0  0  0
  3 30  1  0  0  0  0
  3 31  1  0  0  0  0
  4 23  1  0  0  0  0
  4  5  1  0  0  0  0
  5  6  2  0  0  0  0
  5 32  1  0  0  0  0
  6  7  1  0  0  0  0
  7 23  2  0  0  0  0
  7  8  1  0  0  0  0
  8  9  1  0  0  0  0
  8 20  2  0  0  0  0
  9 19  1  0  0  0  0
  9 10  1  0  0  0  0
 10 11  1  0  0  0  0
 10 33  1  0  0  0  0
 10 34  1  0  0  0  0
 11 12  1  0  0  0  0
 11 35  1  0  0  0  0
 11 36  1  0  0  0  0
 12 18  1  0  0  0  0
 12 13  1  0  0  0  0
 12 14  1  0  0  0  0
 13 37  1  0  0  0  0
 14 15  1  0  0  0  0
 14 38  1  0  0  0  0
 14 39  1  0  0  0  0
 15 16  1  0  0  0  0
 15 40  1  0  0  0  0
 15 41  1  0  0  0  0
 16 17  1  0  0  0  0
 16 42  1  0  0  0  0
 16 43  1  0  0  0  0
 17 18  1  0  0  0  0
 17 44  1  0  0  0  0
 17 45  1  0  0  0  0
 18 19  1  0  0  0  0
 18 46  1  0  0  0  0
 19 47  1  0  0  0  0
 19 48  1  0  0  0  0
 20 21  1  0  0  0  0
 21 22  2  0  0  0  0
 21 49  1  0  0  0  0
 22 23  1  0  0  0  0
 24 25  1  0  0  0  0
 24 50  1  0  0  0  0
 24 51  1  0  0  0  0
 25 26  1  0  0  0  0
 25 52  1  0  0  0  0
 25 53  1  0  0  0  0
 26 27  1  0  0  0  0
 27 28  1  0  0  0  0
 27 54  1  0  0  0  0
 27 55  1  0  0  0  0
 28 56  1  0  0  0  0
 28 57  1  0  0  0  0
M  END
> <s_m_source_file>
AV-unprocessed.smi

> <i_m_source_file_index>
263

> <i_lp_mmshare_version>
43012

> <i_f3d_flags>
0

> <s_epik_input>
W0NIMl0xW0NIMl1PW0NIMl1bQ0gyXUMxKFtPSF0pW0NIMl1uKFtjSF1uMiljKGMyMyluW2NIXW5jM04oW0NIMl1bQ0gyXTQpW0NIMl1bQ0BASF0oW0NAXTQ1W09IXSlbQ0gyXVtDSDJdW0NIMl1bQ0gyXTU=

> <s_epik_cmdline>
J2VwaWtfcHl0aG9uJywgJy1waCcsICc3LjAnLCAnLXRuJywgJzgnLCAnLW1hJywgJzIwMCcsICctbWV0YWxfYmluZGluZycsICctaW1hZScsICc8aW5maWxlLm1hZT4nLCAnLW9tYWUnLCAnPG91dGZpbGUubWFlPic=

> <r_lp_tautomer_probability>
1

> <r_epik_Ionization_Penalty>
0.00747493

> <r_epik_Ionization_Penalty_Charging>
0

> <r_epik_Ionization_Penalty_Neutral>
0.00747493

> <r_epik_State_Penalty>
0.00549307

> <r_epik_Charging_Adjusted_Penalty>
0.00549307

> <i_epik_Tot_Q>
0

> <i_epik_Tot_abs_Q>
0

> <r_epik_Metal_State_Penalty>
-0

> <b_epik_Metal_Only>
0

> <s_lp_Force_Field>
OPLS_2005

> <r_lp_Energy>
40.0531

> <b_lp_Chiralities_Consistent>
1

> <s_lp_Variant>
AV-unprocessed.smi:263-2

> <Gold.Version>
5.8.1

> <Gold.Id.Protein>
6NUR|6NUR_protein|mol2

> <Gold.PLP.Fitness>
45.5708

> <Gold.PLP.PLP>
-36.7655

> <Gold.PLP.part.hbond>
-4.7945

> <Gold.PLP.part.metal>
0.0000

> <Gold.PLP.part.buried>
-3.4449

> <Gold.PLP.part.nonpolar>
-29.0875

> <Gold.PLP.part.repulsive>
0.4678

> <Gold.PLP.ligand.clash>
0.0000

> <Gold.PLP.ligand.torsion>
0.8508

> <Gold.PLP.Chemscore.Hbond>
2.5824

> <Gold.PLP.Chemscore.CHOScore>
0.7957

> <Gold.PLP.Chemscore.Metal>
0.0000

> <Gold.Chemscore.Hbonds>
donor molecule, donor type, donor heavy atom, donor atom, acceptor molecule, acceptor atom, score
      L1  H     1    29       P1  7921  1.00
      L1  H    13    37       P1  7957  0.54
      P1  H  7989  7998       L1    13  0.04
      P1  H  8011  8017       L1    13  0.98
      L1  C     5    32       P1 10171  0.85

> <Gold.PLP.Chemscore.Internal.Correction>
0.3726

> <Gold.Rescore>
     Score         DG    S(hbond)    S(metal)    S(lipo)     H(rot)  DE(clash)    DE(int)     intcor
     14.68     -17.93       2.37        0.00      96.19       2.62       2.31       0.93       ----

> <Gold.Chemscore.Fitness>
14.6819

> <Gold.Chemscore.DG>
-17.9251

> <Gold.Chemscore.ZeroCoef>
-5.4800

> <Gold.Chemscore.Hbond>
2.3672

> <Gold.Chemscore.Metal>
0.0000

> <Gold.Chemscore.Lipo>
96.1908

> <Gold.Chemscore.Internal_Hbond>
0.0000

> <Gold.Chemscore.DEClash>
2.3133

> <Gold.Chemscore.DEInternal>
0.9299

> <Gold.Chemscore.Rot>
2.6232

> <Gold.Chemscore.Internal.Correction>
   9.000000E+99

> <Gold.Chemscore.Hbonds>
donor molecule, donor type, donor heavy atom, donor atom, acceptor molecule, acceptor atom, score
      L1  H     1    29       P1  7921  0.96
      L1  H    13    37       P1  7957  0.54
      P1  H  8011  8017       L1    13  0.52

> <Gold.Chemscore.Hbond.Weighted>
-7.9063

> <Gold.Chemscore.Metal.Weighted>
-0.0000

> <Gold.Chemscore.Lipo.Weighted>
-11.2543

> <Gold.Chemscore.Internal_Hbond.Weighted>
0.0000

> <Gold.Chemscore.DEClash.Weighted>
2.3133

> <Gold.Chemscore.DEInternal.Weighted>
0.9299

> <Gold.Chemscore.Rot.Weighted>
6.7155

> <Gold.Chemscore.Internal.Correction.Weighted>
   9.000000E+99

> <Gold.Protein.RotatedTorsions>
[ 6907 6896 6895 6894 ] final   31.48 input  -60.11 | X-H torsion
[ 7974 7965 7964 7962 ] final -143.48 input  175.53 | X-H torsion
[ 8008 7997 7996 7995 ] final  170.19 input   59.86 | X-H torsion
[ 10167 10162 10161 10158 ] final   76.26 input  -65.29 | X-H torsion
[ 10718 10713 10712 10709 ] final  -17.31 input   66.30 | X-H torsion
[ 10763 10752 10751 10750 ] final   96.30 input  -60.55 | X-H torsion
[ 11005 11000 10999 10996 ] final   24.67 input  -57.11 | X-H torsion

> <Gold.Protein.ActiveResidues>
 VAL166  LYS551  ARG553  GLY616  TRP617  ASP618  TYR619  PRO620  LYS621  CYS622 
 ASP623  PHE694  ASN695  SER759  ASP760  ASP761  ALA762  ILE779  LEU786  VAL792 
 PHE793  MET794  SER795  GLU796  ALA797  LYS798  CYS799  TRP800  GLU811  SER814 

> <Gold.Protein.RotatedAtoms>
  152.0608  134.9595  160.0574 H   0  0  0  0  0  0  0  0  0  0  0  0  # atno 6907 bound_to 6896
  152.0959  133.4220  159.4573 H   0  0  0  0  0  0  0  0  0  0  0  0  # atno 6908 bound_to 6896
  150.6838  134.2736  159.4642 H   0  0  0  0  0  0  0  0  0  0  0  0  # atno 6909 bound_to 6896
  144.8366  140.5829  143.5480 H   0  0  0  0  0  0  0  0  0  0  0  0  # atno 7974 bound_to 7965
  156.1388  140.1544  156.8952 H   0  0  0  0  0  0  0  0  0  0  0  0  # atno 8008 bound_to 7997
  154.4970  140.0835  156.7756 H   0  0  0  0  0  0  0  0  0  0  0  0  # atno 8009 bound_to 7997
  155.4117  140.3419  155.4266 H   0  0  0  0  0  0  0  0  0  0  0  0  # atno 8010 bound_to 7997
  139.9941  144.5735  150.7792 H   0  0  0  0  0  0  0  0  0  0  0  0  # atno 10167 bound_to 10162
  156.5753  130.4760  149.6344 H   0  0  0  0  0  0  0  0  0  0  0  0  # atno 10718 bound_to 10713
  153.2633  135.4223  155.0916 H   0  0  0  0  0  0  0  0  0  0  0  0  # atno 10763 bound_to 10752
  154.8428  135.3454  154.6347 H   0  0  0  0  0  0  0  0  0  0  0  0  # atno 10764 bound_to 10752
  153.6767  135.7041  153.5188 H   0  0  0  0  0  0  0  0  0  0  0  0  # atno 10765 bound_to 10752
  140.3562  134.2175  155.7676 H   0  0  0  0  0  0  0  0  0  0  0  0  # atno 11005 bound_to 11000
  145.4781  139.1497  143.3777 LP  0  0  0  0  0  0  0  0  0  0  0  0  # atno 17320 bound_to 7965
  146.2664  140.4917  142.8832 LP  0  0  0  0  0  0  0  0  0  0  0  0  # atno 17321 bound_to 7965
  140.7443  143.2859  151.3464 LP  0  0  0  0  0  0  0  0  0  0  0  0  # atno 17342 bound_to 10162
  139.6318  144.0706  152.2483 LP  0  0  0  0  0  0  0  0  0  0  0  0  # atno 17343 bound_to 10162
  156.2678  130.7000  151.1788 LP  0  0  0  0  0  0  0  0  0  0  0  0  # atno 17370 bound_to 10713
  157.7339  131.0587  150.5553 LP  0  0  0  0  0  0  0  0  0  0  0  0  # atno 17371 bound_to 10713
  141.1998  133.8003  157.0521 LP  0  0  0  0  0  0  0  0  0  0  0  0  # atno 17394 bound_to 11000
  140.0663  134.9727  157.1392 LP  0  0  0  0  0  0  0  0  0  0  0  0  # atno 17395 bound_to 11000

$$$$
