AV-unprocessed.smi:1211|AV-procd|sdf|5079|dock7
  -GOLD-   22720 4133D 1   1.00000     0.00000
 Structure written by MMmdl.
 47 49  0  0  0  0  0  0  0  0  1 V2000
  151.9185  144.9546  158.3772 C   0  0  0  0  0  0  0  0  0  0  0  0
  152.2667  143.5584  158.8670 C   0  0  0  0  0  0  0  0  0  0  0  0
  153.2515  143.4025  159.8655 C   0  0  0  0  0  0  0  0  0  0  0  0
  153.5733  142.1109  160.3160 C   0  0  0  0  0  0  0  0  0  0  0  0
  152.8912  141.0228  159.7455 C   0  0  0  0  0  0  0  0  0  0  0  0
  151.9483  141.1626  158.7914 N   0  0  0  0  0  0  0  0  0  0  0  0
  151.6266  142.4025  158.3444 C   0  0  0  0  0  0  0  0  0  0  0  0
  150.6415  142.6256  157.3416 N   0  0  0  0  0  0  0  0  0  0  0  0
  150.2456  141.7985  156.3582 C   0  0  0  0  0  0  0  0  0  0  0  0
  150.6906  140.6686  156.1541 O   0  0  0  0  0  0  0  0  0  0  0  0
  149.2864  142.3633  155.6110 N   0  0  0  0  0  0  0  0  0  0  0  0
  148.6259  141.7491  154.4595 C   0  0  0  0  0  0  0  0  0  0  0  0
  147.2115  141.1740  154.8046 C   0  0  2  0  0  0  0  0  0  0  0  0
  146.2262  142.2858  154.9798 N   0  0  0  0  0  0  0  0  0  0  0  0
  144.9851  141.9440  155.6901 C   0  0  0  0  0  0  0  0  0  0  0  0
  144.0696  143.1637  155.8932 C   0  0  0  0  0  0  0  0  0  0  0  0
  143.7756  143.7609  154.6378 O   0  0  0  0  0  0  0  0  0  0  0  0
  144.9500  144.1785  153.9557 C   0  0  0  0  0  0  0  0  0  0  0  0
  145.8729  142.9698  153.7282 C   0  0  0  0  0  0  0  0  0  0  0  0
  147.3526  140.2694  156.0635 C   0  0  0  0  0  0  0  0  0  0  0  0
  148.1196  138.9970  155.6883 C   0  0  0  0  0  0  0  0  0  0  0  0
  147.6981  138.6020  153.9746 S   0  0  0  0  0  0  0  0  0  0  0  0
  146.8183  140.1644  153.6958 C   0  0  0  0  0  0  0  0  0  0  0  0
  152.5168  145.7133  158.8823 H   0  0  0  0  0  0  0  0  0  0  0  0
  150.8673  145.1745  158.5669 H   0  0  0  0  0  0  0  0  0  0  0  0
  152.1034  145.0405  157.3061 H   0  0  0  0  0  0  0  0  0  0  0  0
  153.7567  144.2608  160.2835 H   0  0  0  0  0  0  0  0  0  0  0  0
  154.3230  141.9584  161.0782 H   0  0  0  0  0  0  0  0  0  0  0  0
  153.1073  140.0135  160.0627 H   0  0  0  0  0  0  0  0  0  0  0  0
  150.1881  143.5265  157.3762 H   0  0  0  0  0  0  0  0  0  0  0  0
  148.9768  143.2906  155.8619 H   0  0  0  0  0  0  0  0  0  0  0  0
  148.5585  142.5069  153.6804 H   0  0  0  0  0  0  0  0  0  0  0  0
  149.2734  140.9938  154.0150 H   0  0  0  0  0  0  0  0  0  0  0  0
  144.4306  141.1778  155.1495 H   0  0  0  0  0  0  0  0  0  0  0  0
  145.1964  141.5501  156.6813 H   0  0  0  0  0  0  0  0  0  0  0  0
  143.1369  142.8608  156.3692 H   0  0  0  0  0  0  0  0  0  0  0  0
  144.5414  143.8948  156.5513 H   0  0  0  0  0  0  0  0  0  0  0  0
  144.6673  144.6233  153.0015 H   0  0  0  0  0  0  0  0  0  0  0  0
  145.4605  144.9522  154.5315 H   0  0  0  0  0  0  0  0  0  0  0  0
  146.7602  143.3352  153.2162 H   0  0  0  0  0  0  0  0  0  0  0  0
  145.3819  142.2724  153.0487 H   0  0  0  0  0  0  0  0  0  0  0  0
  147.8104  140.7832  156.9086 H   0  0  0  0  0  0  0  0  0  0  0  0
  146.3819  139.9214  156.4090 H   0  0  0  0  0  0  0  0  0  0  0  0
  149.1956  139.1558  155.7597 H   0  0  0  0  0  0  0  0  0  0  0  0
  147.8716  138.1653  156.3479 H   0  0  0  0  0  0  0  0  0  0  0  0
  145.7568  139.9258  153.7305 H   0  0  0  0  0  0  0  0  0  0  0  0
  147.0249  140.5402  152.6933 H   0  0  0  0  0  0  0  0  0  0  0  0
  1  2  1  0  0  0  0
  1 24  1  0  0  0  0
  1 25  1  0  0  0  0
  1 26  1  0  0  0  0
  2  7  1  0  0  0  0
  2  3  2  0  0  0  0
  3  4  1  0  0  0  0
  3 27  1  0  0  0  0
  4  5  2  0  0  0  0
  4 28  1  0  0  0  0
  5  6  1  0  0  0  0
  5 29  1  0  0  0  0
  6  7  2  0  0  0  0
  7  8  1  0  0  0  0
  8  9  1  0  0  0  0
  8 30  1  0  0  0  0
  9 10  2  0  0  0  0
  9 11  1  0  0  0  0
 11 12  1  0  0  0  0
 11 31  1  0  0  0  0
 12 13  1  0  0  0  0
 12 32  1  0  0  0  0
 12 33  1  0  0  0  0
 13 23  1  0  0  0  0
 13 14  1  0  0  0  0
 13 20  1  0  0  0  0
 14 19  1  0  0  0  0
 14 15  1  0  0  0  0
 15 16  1  0  0  0  0
 15 34  1  0  0  0  0
 15 35  1  0  0  0  0
 16 17  1  0  0  0  0
 16 36  1  0  0  0  0
 16 37  1  0  0  0  0
 17 18  1  0  0  0  0
 18 19  1  0  0  0  0
 18 38  1  0  0  0  0
 18 39  1  0  0  0  0
 19 40  1  0  0  0  0
 19 41  1  0  0  0  0
 20 21  1  0  0  0  0
 20 42  1  0  0  0  0
 20 43  1  0  0  0  0
 21 22  1  0  0  0  0
 21 44  1  0  0  0  0
 21 45  1  0  0  0  0
 22 23  1  0  0  0  0
 23 46  1  0  0  0  0
 23 47  1  0  0  0  0
M  END
> <s_m_source_file>
AV-unprocessed.smi

> <i_m_source_file_index>
1211

> <i_lp_mmshare_version>
43012

> <i_f3d_flags>
0

> <s_epik_input>
W0NIM11jMVtjSF1bY0hdW2NIXW5jMVtOSF1DKD1PKVtOSF1bQ0gyXVtDQF0yKFtDSDJdW0NIMl1TW0NIMl0yKU4zW0NIMl1bQ0gyXU9bQ0gyXVtDSDJdMw==

> <s_epik_cmdline>
J2VwaWtfcHl0aG9uJywgJy1waCcsICc3LjAnLCAnLXRuJywgJzgnLCAnLW1hJywgJzIwMCcsICctbWV0YWxfYmluZGluZycsICctaW1hZScsICc8aW5maWxlLm1hZT4nLCAnLW9tYWUnLCAnPG91dGZpbGUubWFlPic=

> <r_epik_Ionization_Penalty>
0.0195636

> <r_epik_Ionization_Penalty_Charging>
0

> <r_epik_Ionization_Penalty_Neutral>
0.0195636

> <r_epik_State_Penalty>
0.0155843

> <r_epik_Charging_Adjusted_Penalty>
0.0155843

> <i_epik_Tot_Q>
0

> <i_epik_Tot_abs_Q>
0

> <r_epik_Metal_State_Penalty>
0.0155842

> <b_epik_Metal_Only>
0

> <s_lp_Force_Field>
OPLS_2005

> <r_lp_Energy>
55.6776

> <b_lp_Chiralities_Consistent>
1

> <s_lp_Variant>
AV-unprocessed.smi:1211-2

> <Gold.Version>
5.8.1

> <Gold.Id.Protein>
6NUR|6NUR_protein|mol2

> <Gold.PLP.Fitness>
43.8600

> <Gold.PLP.PLP>
-42.2720

> <Gold.PLP.part.hbond>
-0.8672

> <Gold.PLP.part.metal>
0.0000

> <Gold.PLP.part.buried>
-7.6866

> <Gold.PLP.part.nonpolar>
-34.6930

> <Gold.PLP.part.repulsive>
0.5331

> <Gold.PLP.ligand.clash>
0.0000

> <Gold.PLP.ligand.torsion>
0.7460

> <Gold.PLP.Chemscore.Hbond>
1.0000

> <Gold.PLP.Chemscore.CHOScore>
0.0000

> <Gold.PLP.Chemscore.Metal>
0.0000

> <Gold.Chemscore.Hbonds>
donor molecule, donor type, donor heavy atom, donor atom, acceptor molecule, acceptor atom, score
      L1  H    11    31       P1  8028  0.78

> <Gold.PLP.Chemscore.Internal.Correction>
0.0800

> <Gold.Rescore>
     Score         DG    S(hbond)    S(metal)    S(lipo)     H(rot)  DE(clash)    DE(int)     intcor
     15.39     -17.30       1.10        0.00     101.06       1.44       0.16       1.75       ----

> <Gold.Chemscore.Fitness>
15.3935

> <Gold.Chemscore.DG>
-17.2994

> <Gold.Chemscore.ZeroCoef>
-5.4800

> <Gold.Chemscore.Hbond>
1.1026

> <Gold.Chemscore.Metal>
0.0000

> <Gold.Chemscore.Lipo>
101.0618

> <Gold.Chemscore.Internal_Hbond>
0.0000

> <Gold.Chemscore.DEClash>
0.1571

> <Gold.Chemscore.DEInternal>
1.7488

> <Gold.Chemscore.Rot>
1.4405

> <Gold.Chemscore.Internal.Correction>
   9.000000E+99

> <Gold.Chemscore.Hbonds>
donor molecule, donor type, donor heavy atom, donor atom, acceptor molecule, acceptor atom, score
      L1  H     8    30       P1  8028  0.03
      L1  H    11    31       P1  8028  0.74

> <Gold.Chemscore.Hbond.Weighted>
-3.6828

> <Gold.Chemscore.Metal.Weighted>
-0.0000

> <Gold.Chemscore.Lipo.Weighted>
-11.8242

> <Gold.Chemscore.Internal_Hbond.Weighted>
0.0000

> <Gold.Chemscore.DEClash.Weighted>
0.1571

> <Gold.Chemscore.DEInternal.Weighted>
1.7488

> <Gold.Chemscore.Rot.Weighted>
3.6876

> <Gold.Chemscore.Internal.Correction.Weighted>
   9.000000E+99

> <Gold.Protein.RotatedTorsions>
[ 6907 6896 6895 6894 ] final  111.86 input  -60.11 | X-H torsion
[ 7974 7965 7964 7962 ] final  -87.22 input  175.53 | X-H torsion
[ 8008 7997 7996 7995 ] final -100.12 input   59.86 | X-H torsion
[ 10167 10162 10161 10158 ] final -100.32 input  -65.29 | X-H torsion
[ 10718 10713 10712 10709 ] final -109.99 input   66.30 | X-H torsion
[ 10763 10752 10751 10750 ] final  100.99 input  -60.55 | X-H torsion
[ 11005 11000 10999 10996 ] final -103.08 input  -57.11 | X-H torsion

> <Gold.Protein.ActiveResidues>
 VAL166  LYS551  ARG553  GLY616  TRP617  ASP618  TYR619  PRO620  LYS621  CYS622 
 ASP623  PHE694  ASN695  SER759  ASP760  ASP761  ALA762  ILE779  LEU786  VAL792 
 PHE793  MET794  SER795  GLU796  ALA797  LYS798  CYS799  TRP800  GLU811  SER814 

> <Gold.Protein.RotatedAtoms>
  152.4947  133.8597  159.7243 H   0  0  0  0  0  0  0  0  0  0  0  0  # atno 6907 bound_to 6896
  150.9112  133.6986  159.2861 H   0  0  0  0  0  0  0  0  0  0  0  0  # atno 6908 bound_to 6896
  151.4395  135.1023  159.9718 H   0  0  0  0  0  0  0  0  0  0  0  0  # atno 6909 bound_to 6896
  145.4694  140.9560  143.1925 H   0  0  0  0  0  0  0  0  0  0  0  0  # atno 7974 bound_to 7965
  154.8242  140.0443  157.1432 H   0  0  0  0  0  0  0  0  0  0  0  0  # atno 8008 bound_to 7997
  154.9225  140.3029  155.5189 H   0  0  0  0  0  0  0  0  0  0  0  0  # atno 8009 bound_to 7997
  156.2982  140.2338  156.4276 H   0  0  0  0  0  0  0  0  0  0  0  0  # atno 8010 bound_to 7997
  140.2532  143.3458  152.0695 H   0  0  0  0  0  0  0  0  0  0  0  0  # atno 10167 bound_to 10162
  156.0566  130.5792  150.8176 H   0  0  0  0  0  0  0  0  0  0  0  0  # atno 10718 bound_to 10713
  153.3209  135.4060  155.1416 H   0  0  0  0  0  0  0  0  0  0  0  0  # atno 10763 bound_to 10752
  154.8600  135.3587  154.5597 H   0  0  0  0  0  0  0  0  0  0  0  0  # atno 10764 bound_to 10752
  153.6031  135.7070  153.5435 H   0  0  0  0  0  0  0  0  0  0  0  0  # atno 10765 bound_to 10752
  141.1161  133.8611  157.1441 H   0  0  0  0  0  0  0  0  0  0  0  0  # atno 11005 bound_to 11000
  144.7954  139.6244  143.7095 LP  0  0  0  0  0  0  0  0  0  0  0  0  # atno 17320 bound_to 7965
  146.2405  139.5992  142.9494 LP  0  0  0  0  0  0  0  0  0  0  0  0  # atno 17321 bound_to 7965
  139.5040  144.6766  151.6113 LP  0  0  0  0  0  0  0  0  0  0  0  0  # atno 17342 bound_to 10162
  140.6024  143.9585  150.6395 LP  0  0  0  0  0  0  0  0  0  0  0  0  # atno 17343 bound_to 10162
  157.5541  131.0944  150.9653 LP  0  0  0  0  0  0  0  0  0  0  0  0  # atno 17370 bound_to 10713
  156.9906  130.5561  149.5303 LP  0  0  0  0  0  0  0  0  0  0  0  0  # atno 17371 bound_to 10713
  140.0085  134.9998  157.0344 LP  0  0  0  0  0  0  0  0  0  0  0  0  # atno 17394 bound_to 11000
  140.4640  134.1454  155.7195 LP  0  0  0  0  0  0  0  0  0  0  0  0  # atno 17395 bound_to 11000

$$$$
