AV-unprocessed.smi:1652|AV-procd|sdf|6640|dock2
  -GOLD-   22720 7343D 1   1.00000     0.00000
 Structure written by MMmdl.
 38 40  0  0  0  0  0  0  0  0  1 V2000
  153.3214  138.7471  159.1161 O   0  0  0  0  0  0  0  0  0  0  0  0
  153.0961  139.9478  159.2740 C   0  0  0  0  0  0  0  0  0  0  0  0
  153.8226  140.7911  160.2355 C   0  0  0  0  0  0  0  0  0  0  0  0
  154.8996  140.1333  161.0939 C   0  0  0  0  0  0  0  0  0  0  0  0
  154.6812  138.8259  161.2437 F   0  0  0  0  0  0  0  0  0  0  0  0
  156.1022  140.2843  160.5374 F   0  0  0  0  0  0  0  0  0  0  0  0
  154.9299  140.6840  162.3080 F   0  0  0  0  0  0  0  0  0  0  0  0
  153.5221  142.1083  160.3460 C   0  0  0  0  0  0  0  0  0  0  0  0
  152.4898  142.6955  159.5153 C   0  0  0  0  0  0  0  0  0  0  0  0
  152.1187  144.1498  159.5735 C   0  0  0  0  0  0  0  0  0  0  0  0
  150.7602  144.6028  160.0548 C   0  0  0  0  0  0  0  0  0  0  0  0
  151.1411  144.7713  158.6021 C   0  0  0  0  0  0  0  0  0  0  0  0
  151.8485  141.9515  158.6783 N   0  0  0  0  0  0  0  0  0  0  0  0
  152.1355  140.6062  158.5601 N   0  0  0  0  0  0  0  0  0  0  0  0
  151.3097  139.9081  157.5661 C   0  0  0  0  0  0  0  0  0  0  0  0
  151.5119  140.4620  156.1385 C   0  0  1  0  0  0  0  0  0  0  0  0
  152.7492  139.9920  155.6393 O   0  0  0  0  0  0  0  0  0  0  0  0
  150.3564  140.0638  155.2319 C   0  0  0  0  0  0  0  0  0  0  0  0
  150.2034  138.7278  154.7981 C   0  0  0  0  0  0  0  0  0  0  0  0
  149.1255  138.3707  153.9642 C   0  0  0  0  0  0  0  0  0  0  0  0
  148.1921  139.3453  153.5626 C   0  0  0  0  0  0  0  0  0  0  0  0
  147.1563  139.0023  152.7608 F   0  0  0  0  0  0  0  0  0  0  0  0
  148.3358  140.6769  153.9970 C   0  0  0  0  0  0  0  0  0  0  0  0
  149.4136  141.0346  154.8303 C   0  0  0  0  0  0  0  0  0  0  0  0
  154.0406  142.7425  161.0494 H   0  0  0  0  0  0  0  0  0  0  0  0
  152.9755  144.7547  159.8648 H   0  0  0  0  0  0  0  0  0  0  0  0
  150.0222  143.8388  160.2933 H   0  0  0  0  0  0  0  0  0  0  0  0
  150.7193  145.4986  160.6712 H   0  0  0  0  0  0  0  0  0  0  0  0
  151.3536  145.7793  158.2525 H   0  0  0  0  0  0  0  0  0  0  0  0
  150.6454  144.1237  157.8812 H   0  0  0  0  0  0  0  0  0  0  0  0
  151.4913  138.8314  157.5857 H   0  0  0  0  0  0  0  0  0  0  0  0
  150.2629  140.0210  157.8552 H   0  0  0  0  0  0  0  0  0  0  0  0
  151.5633  141.5512  156.1593 H   0  0  0  0  0  0  0  0  0  0  0  0
  152.8187  139.0698  155.8338 H   0  0  0  0  0  0  0  0  0  0  0  0
  150.9112  137.9714  155.1045 H   0  0  0  0  0  0  0  0  0  0  0  0
  149.0145  137.3484  153.6339 H   0  0  0  0  0  0  0  0  0  0  0  0
  147.6186  141.4246  153.6918 H   0  0  0  0  0  0  0  0  0  0  0  0
  149.5129  142.0581  155.1611 H   0  0  0  0  0  0  0  0  0  0  0  0
  1  2  2  0  0  0  0
  2 14  1  0  0  0  0
  2  3  1  0  0  0  0
  3  4  1  0  0  0  0
  3  8  2  0  0  0  0
  4  5  1  0  0  0  0
  4  6  1  0  0  0  0
  4  7  1  0  0  0  0
  8  9  1  0  0  0  0
  8 25  1  0  0  0  0
  9 10  1  0  0  0  0
  9 13  2  0  0  0  0
 10 12  1  0  0  0  0
 10 11  1  0  0  0  0
 10 26  1  0  0  0  0
 11 12  1  0  0  0  0
 11 27  1  0  0  0  0
 11 28  1  0  0  0  0
 12 29  1  0  0  0  0
 12 30  1  0  0  0  0
 13 14  1  0  0  0  0
 14 15  1  0  0  0  0
 15 16  1  0  0  0  0
 15 31  1  0  0  0  0
 15 32  1  0  0  0  0
 16 17  1  0  0  0  0
 16 18  1  0  0  0  0
 16 33  1  0  0  0  0
 17 34  1  0  0  0  0
 18 24  1  0  0  0  0
 18 19  2  0  0  0  0
 19 20  1  0  0  0  0
 19 35  1  0  0  0  0
 20 21  2  0  0  0  0
 20 36  1  0  0  0  0
 21 22  1  0  0  0  0
 21 23  1  0  0  0  0
 23 24  2  0  0  0  0
 23 37  1  0  0  0  0
 24 38  1  0  0  0  0
M  END
> <s_m_source_file>
AV-unprocessed.smi

> <i_m_source_file_index>
1652

> <i_lp_mmshare_version>
43012

> <i_f3d_flags>
0

> <s_epik_input>
Tz1jMWMoQyhGKShGKUYpW2NIXWMoW0NIXTJbQ0gyXVtDSDJdMilubjFbQ0gyXVtDQEhdKFtPSF0pYzNbY0hdW2NIXWMoRilbY0hdW2NIXTM=

> <s_epik_cmdline>
J2VwaWtfcHl0aG9uJywgJy1waCcsICc3LjAnLCAnLXRuJywgJzgnLCAnLW1hJywgJzIwMCcsICctbWV0YWxfYmluZGluZycsICctaW1hZScsICc8aW5maWxlLm1hZT4nLCAnLW9tYWUnLCAnPG91dGZpbGUubWFlPic=

> <r_lp_tautomer_probability>
1

> <r_epik_Ionization_Penalty>
9.17026e-08

> <r_epik_Ionization_Penalty_Charging>
9.677e-10

> <r_epik_Ionization_Penalty_Neutral>
9.07349e-08

> <r_epik_State_Penalty>
-0

> <r_epik_Charging_Adjusted_Penalty>
9.677e-10

> <i_epik_Tot_Q>
0

> <i_epik_Tot_abs_Q>
0

> <r_epik_Metal_State_Penalty>
-0

> <b_epik_Metal_Only>
0

> <s_lp_Force_Field>
OPLS_2005

> <r_lp_Energy>
33.8456

> <b_lp_Chiralities_Consistent>
1

> <s_lp_Variant>
AV-unprocessed.smi:1652-2

> <Gold.Version>
5.8.1

> <Gold.Id.Protein>
6NUR|6NUR_protein|mol2

> <Gold.PLP.Fitness>
55.8309

> <Gold.PLP.PLP>
-55.1544

> <Gold.PLP.part.hbond>
-1.0579

> <Gold.PLP.part.metal>
0.0000

> <Gold.PLP.part.buried>
-3.1679

> <Gold.PLP.part.nonpolar>
-50.7771

> <Gold.PLP.part.repulsive>
0.0000

> <Gold.PLP.ligand.clash>
0.0000

> <Gold.PLP.ligand.torsion>
1.5155

> <Gold.PLP.Chemscore.Hbond>
1.0000

> <Gold.PLP.Chemscore.CHOScore>
0.0000

> <Gold.PLP.Chemscore.Metal>
0.0000

> <Gold.Chemscore.Hbonds>
donor molecule, donor type, donor heavy atom, donor atom, acceptor molecule, acceptor atom, score
      P1  H  7997  8008       L1    17  0.40

> <Gold.PLP.Chemscore.Internal.Correction>
0.7075

> <Gold.Rescore>
     Score         DG    S(hbond)    S(metal)    S(lipo)     H(rot)  DE(clash)    DE(int)     intcor
     14.32     -17.50       0.91        0.00     124.95       2.20       0.18       3.00       ----

> <Gold.Chemscore.Fitness>
14.3153

> <Gold.Chemscore.DG>
-17.4973

> <Gold.Chemscore.ZeroCoef>
-5.4800

> <Gold.Chemscore.Hbond>
0.9076

> <Gold.Chemscore.Metal>
0.0000

> <Gold.Chemscore.Lipo>
124.9461

> <Gold.Chemscore.Internal_Hbond>
0.0000

> <Gold.Chemscore.DEClash>
0.1807

> <Gold.Chemscore.DEInternal>
3.0014

> <Gold.Chemscore.Rot>
2.2003

> <Gold.Chemscore.Internal.Correction>
   9.000000E+99

> <Gold.Chemscore.Hbonds>
donor molecule, donor type, donor heavy atom, donor atom, acceptor molecule, acceptor atom, score
      P1  H  7997  8008       L1    17  0.01

> <Gold.Chemscore.Hbond.Weighted>
-3.0315

> <Gold.Chemscore.Metal.Weighted>
-0.0000

> <Gold.Chemscore.Lipo.Weighted>
-14.6187

> <Gold.Chemscore.Internal_Hbond.Weighted>
0.0000

> <Gold.Chemscore.DEClash.Weighted>
0.1807

> <Gold.Chemscore.DEInternal.Weighted>
3.0014

> <Gold.Chemscore.Rot.Weighted>
5.6328

> <Gold.Chemscore.Internal.Correction.Weighted>
   9.000000E+99

> <Gold.Protein.RotatedTorsions>
[ 6907 6896 6895 6894 ] final  -36.74 input  -60.11 | X-H torsion
[ 7974 7965 7964 7962 ] final  169.56 input  175.53 | X-H torsion
[ 8008 7997 7996 7995 ] final  -31.59 input   59.86 | X-H torsion
[ 10167 10162 10161 10158 ] final   58.01 input  -65.29 | X-H torsion
[ 10718 10713 10712 10709 ] final   50.88 input   66.30 | X-H torsion
[ 10763 10752 10751 10750 ] final -106.68 input  -60.55 | X-H torsion
[ 11005 11000 10999 10996 ] final -165.86 input  -57.11 | X-H torsion

> <Gold.Protein.ActiveResidues>
 VAL166  LYS551  ARG553  GLY616  TRP617  ASP618  TYR619  PRO620  LYS621  CYS622 
 ASP623  PHE694  ASN695  SER759  ASP760  ASP761  ALA762  ILE779  LEU786  VAL792 
 PHE793  MET794  SER795  GLU796  ALA797  LYS798  CYS799  TRP800  GLU811  SER814 

> <Gold.Protein.RotatedAtoms>
  151.0234  134.9486  159.8071 H   0  0  0  0  0  0  0  0  0  0  0  0  # atno 6907 bound_to 6896
  152.5330  134.2874  159.9040 H   0  0  0  0  0  0  0  0  0  0  0  0  # atno 6908 bound_to 6896
  151.2882  133.4135  159.2665 H   0  0  0  0  0  0  0  0  0  0  0  0  # atno 6909 bound_to 6896
  144.7351  139.9072  143.6413 H   0  0  0  0  0  0  0  0  0  0  0  0  # atno 7974 bound_to 7965
  154.4209  140.1760  156.1590 H   0  0  0  0  0  0  0  0  0  0  0  0  # atno 8008 bound_to 7997
  155.9853  140.3374  155.6677 H   0  0  0  0  0  0  0  0  0  0  0  0  # atno 8009 bound_to 7997
  155.6445  140.0683  157.2598 H   0  0  0  0  0  0  0  0  0  0  0  0  # atno 8010 bound_to 7997
  140.1918  144.4078  150.6568 H   0  0  0  0  0  0  0  0  0  0  0  0  # atno 10167 bound_to 10162
  157.4927  130.8386  149.8222 H   0  0  0  0  0  0  0  0  0  0  0  0  # atno 10718 bound_to 10713
  154.8028  135.4703  154.0317 H   0  0  0  0  0  0  0  0  0  0  0  0  # atno 10763 bound_to 10752
  153.1809  135.6840  153.8486 H   0  0  0  0  0  0  0  0  0  0  0  0  # atno 10764 bound_to 10752
  153.8036  135.3226  155.3370 H   0  0  0  0  0  0  0  0  0  0  0  0  # atno 10765 bound_to 10752
  140.5709  134.5238  157.5161 H   0  0  0  0  0  0  0  0  0  0  0  0  # atno 11005 bound_to 11000
  146.1028  139.4025  143.0336 LP  0  0  0  0  0  0  0  0  0  0  0  0  # atno 17320 bound_to 7965
  145.7554  140.9956  143.1228 LP  0  0  0  0  0  0  0  0  0  0  0  0  # atno 17321 bound_to 7965
  140.6451  143.2211  151.6205 LP  0  0  0  0  0  0  0  0  0  0  0  0  # atno 17342 bound_to 10162
  139.5253  144.3079  152.1018 LP  0  0  0  0  0  0  0  0  0  0  0  0  # atno 17343 bound_to 10162
  156.0183  130.3805  150.2042 LP  0  0  0  0  0  0  0  0  0  0  0  0  # atno 17370 bound_to 10713
  157.0231  130.9985  151.3334 LP  0  0  0  0  0  0  0  0  0  0  0  0  # atno 17371 bound_to 10713
  139.9362  134.7871  156.0797 LP  0  0  0  0  0  0  0  0  0  0  0  0  # atno 17394 bound_to 11000
  141.1056  133.6661  156.2857 LP  0  0  0  0  0  0  0  0  0  0  0  0  # atno 17395 bound_to 11000

$$$$
