AV-unprocessed.smi:1839|AV-procd|sdf|7485|dock7
  -GOLD-   22720 9183D 1   1.00000     0.00000
 Structure written by MMmdl.
 46 47  0  0  0  0  0  0  0  0  1 V2000
  143.7741  132.7005  150.4839 C   0  0  0  0  0  0  0  0  0  0  0  0
  145.0773  132.7204  151.1484 N   0  0  0  0  0  0  0  0  0  0  0  0
  146.1687  132.1555  150.3455 C   0  0  0  0  0  0  0  0  0  0  0  0
  145.2668  133.4716  152.2620 C   0  0  0  0  0  0  0  0  0  0  0  0
  144.5306  134.4191  152.5440 O   0  0  0  0  0  0  0  0  0  0  0  0
  146.3360  133.1449  153.0267 N   0  0  0  0  0  0  0  0  0  0  0  0
  146.7341  131.7531  153.2827 C   0  0  0  0  0  0  0  0  0  0  0  0
  148.2670  131.6368  153.2247 C   0  0  0  0  0  0  0  0  0  0  0  0
  148.9274  132.6168  154.2093 C   0  0  0  0  0  0  0  0  0  0  0  0
  148.3943  134.0542  154.0166 C   0  0  2  0  0  0  0  0  0  0  0  0
  148.9697  135.0060  155.0736 C   0  0  0  0  0  0  0  0  0  0  0  0
  148.7191  134.8339  156.2670 O   0  0  0  0  0  0  0  0  0  0  0  0
  149.7368  136.0099  154.6213 N   0  0  0  0  0  0  0  0  0  0  0  0
  150.3684  137.0239  155.4576 C   0  0  0  0  0  0  0  0  0  0  0  0
  150.8669  138.2177  154.6256 C   0  0  0  0  0  0  0  0  0  0  0  0
  150.8095  139.5197  155.4017 C   0  0  0  0  0  0  0  0  0  0  0  0
  151.4151  139.6274  156.6719 C   0  0  0  0  0  0  0  0  0  0  0  0
  151.3431  140.8609  157.3475 C   0  0  0  0  0  0  0  0  0  0  0  0
  150.6724  141.9342  156.7299 C   0  0  0  0  0  0  0  0  0  0  0  0
  150.1029  141.7255  155.4579 C   0  0  0  0  0  0  0  0  0  0  0  0
  150.1669  140.5471  154.8010 N   0  0  0  0  0  0  0  0  0  0  0  0
  146.8495  134.0601  154.0525 C   0  0  0  0  0  0  0  0  0  0  0  0
  142.9563  132.6737  151.2059 H   0  0  0  0  0  0  0  0  0  0  0  0
  143.6685  131.8199  149.8490 H   0  0  0  0  0  0  0  0  0  0  0  0
  143.6508  133.5865  149.8599 H   0  0  0  0  0  0  0  0  0  0  0  0
  147.1058  132.6973  150.4822 H   0  0  0  0  0  0  0  0  0  0  0  0
  145.9377  132.1992  149.2804 H   0  0  0  0  0  0  0  0  0  0  0  0
  146.3334  131.1095  150.6037 H   0  0  0  0  0  0  0  0  0  0  0  0
  146.3767  131.4585  154.2707 H   0  0  0  0  0  0  0  0  0  0  0  0
  146.2786  131.0506  152.5842 H   0  0  0  0  0  0  0  0  0  0  0  0
  148.5742  130.6158  153.4527 H   0  0  0  0  0  0  0  0  0  0  0  0
  148.6147  131.8453  152.2125 H   0  0  0  0  0  0  0  0  0  0  0  0
  148.7285  132.2785  155.2275 H   0  0  0  0  0  0  0  0  0  0  0  0
  150.0104  132.5931  154.0828 H   0  0  0  0  0  0  0  0  0  0  0  0
  148.7103  134.4019  153.0309 H   0  0  0  0  0  0  0  0  0  0  0  0
  149.8918  136.0781  153.6259 H   0  0  0  0  0  0  0  0  0  0  0  0
  149.6716  137.3592  156.2276 H   0  0  0  0  0  0  0  0  0  0  0  0
  151.2051  136.5571  155.9782 H   0  0  0  0  0  0  0  0  0  0  0  0
  151.8935  138.0439  154.2996 H   0  0  0  0  0  0  0  0  0  0  0  0
  150.2719  138.3211  153.7171 H   0  0  0  0  0  0  0  0  0  0  0  0
  151.9253  138.7858  157.1174 H   0  0  0  0  0  0  0  0  0  0  0  0
  151.7947  140.9819  158.3211 H   0  0  0  0  0  0  0  0  0  0  0  0
  150.5967  142.8942  157.2187 H   0  0  0  0  0  0  0  0  0  0  0  0
  149.5822  142.5269  154.9547 H   0  0  0  0  0  0  0  0  0  0  0  0
  146.4916  135.0789  153.8898 H   0  0  0  0  0  0  0  0  0  0  0  0
  146.4770  133.7518  155.0311 H   0  0  0  0  0  0  0  0  0  0  0  0
  1  2  1  0  0  0  0
  1 23  1  0  0  0  0
  1 24  1  0  0  0  0
  1 25  1  0  0  0  0
  2  3  1  0  0  0  0
  2  4  1  0  0  0  0
  3 26  1  0  0  0  0
  3 27  1  0  0  0  0
  3 28  1  0  0  0  0
  4  5  2  0  0  0  0
  4  6  1  0  0  0  0
  6 22  1  0  0  0  0
  6  7  1  0  0  0  0
  7  8  1  0  0  0  0
  7 29  1  0  0  0  0
  7 30  1  0  0  0  0
  8  9  1  0  0  0  0
  8 31  1  0  0  0  0
  8 32  1  0  0  0  0
  9 10  1  0  0  0  0
  9 33  1  0  0  0  0
  9 34  1  0  0  0  0
 10 11  1  0  0  0  0
 10 22  1  0  0  0  0
 10 35  1  0  0  0  0
 11 12  2  0  0  0  0
 11 13  1  0  0  0  0
 13 14  1  0  0  0  0
 13 36  1  0  0  0  0
 14 15  1  0  0  0  0
 14 37  1  0  0  0  0
 14 38  1  0  0  0  0
 15 16  1  0  0  0  0
 15 39  1  0  0  0  0
 15 40  1  0  0  0  0
 16 21  1  0  0  0  0
 16 17  2  0  0  0  0
 17 18  1  0  0  0  0
 17 41  1  0  0  0  0
 18 19  2  0  0  0  0
 18 42  1  0  0  0  0
 19 20  1  0  0  0  0
 19 43  1  0  0  0  0
 20 21  2  0  0  0  0
 20 44  1  0  0  0  0
 22 45  1  0  0  0  0
 22 46  1  0  0  0  0
M  END
> <s_m_source_file>
AV-unprocessed.smi

> <i_m_source_file_index>
1839

> <i_lp_mmshare_version>
43012

> <i_f3d_flags>
0

> <s_epik_input>
W0NIM11OKFtDSDNdKUMoPU8pTjFbQ0gyXVtDSDJdW0NIMl1bQ0BIXShbQ0gyXTEpQyg9TylbTkhdW0NIMl1bQ0gyXWMyW2NIXVtjSF1bY0hdW2NIXW4y

> <s_epik_cmdline>
J2VwaWtfcHl0aG9uJywgJy1waCcsICc3LjAnLCAnLXRuJywgJzgnLCAnLW1hJywgJzIwMCcsICctbWV0YWxfYmluZGluZycsICctaW1hZScsICc8aW5maWxlLm1hZT4nLCAnLW9tYWUnLCAnPG91dGZpbGUubWFlPic=

> <r_epik_Ionization_Penalty>
0.0268631

> <r_epik_Ionization_Penalty_Charging>
0

> <r_epik_Ionization_Penalty_Neutral>
0.0268631

> <r_epik_State_Penalty>
0.0219025

> <r_epik_Charging_Adjusted_Penalty>
0.0219025

> <i_epik_Tot_Q>
0

> <i_epik_Tot_abs_Q>
0

> <r_epik_Metal_State_Penalty>
0.0209511

> <b_epik_Metal_Only>
0

> <s_lp_Force_Field>
OPLS_2005

> <r_lp_Energy>
47.8256

> <b_lp_Chiralities_Consistent>
1

> <s_lp_Variant>
AV-unprocessed.smi:1839-2

> <Gold.Version>
5.8.1

> <Gold.Id.Protein>
6NUR|6NUR_protein|mol2

> <Gold.PLP.Fitness>
43.4986

> <Gold.PLP.PLP>
-36.6817

> <Gold.PLP.part.hbond>
-2.0000

> <Gold.PLP.part.metal>
0.0000

> <Gold.PLP.part.buried>
-1.8487

> <Gold.PLP.part.nonpolar>
-32.9136

> <Gold.PLP.part.repulsive>
0.2257

> <Gold.PLP.ligand.clash>
0.0000

> <Gold.PLP.ligand.torsion>
1.0290

> <Gold.PLP.Chemscore.Hbond>
1.5184

> <Gold.PLP.Chemscore.CHOScore>
1.0000

> <Gold.PLP.Chemscore.Metal>
0.0000

> <Gold.Chemscore.Hbonds>
donor molecule, donor type, donor heavy atom, donor atom, acceptor molecule, acceptor atom, score
      L1  H    13    36       P1  7948  0.72
      P1  H  7989  7998       L1    21  0.70
      L1  C    20    44       P1  8028  1.00

> <Gold.PLP.Chemscore.Internal.Correction>
1.3197

> <Gold.Rescore>
     Score         DG    S(hbond)    S(metal)    S(lipo)     H(rot)  DE(clash)    DE(int)     intcor
     10.40     -12.11       0.10        0.00      86.98       1.52       0.00       1.71       ----

> <Gold.Chemscore.Fitness>
10.4028

> <Gold.Chemscore.DG>
-12.1142

> <Gold.Chemscore.ZeroCoef>
-5.4800

> <Gold.Chemscore.Hbond>
0.1010

> <Gold.Chemscore.Metal>
0.0000

> <Gold.Chemscore.Lipo>
86.9770

> <Gold.Chemscore.Internal_Hbond>
0.0000

> <Gold.Chemscore.DEClash>
0.0000

> <Gold.Chemscore.DEInternal>
1.7114

> <Gold.Chemscore.Rot>
1.5155

> <Gold.Chemscore.Internal.Correction>
   9.000000E+99

> <Gold.Chemscore.Hbonds>
donor molecule, donor type, donor heavy atom, donor atom, acceptor molecule, acceptor atom, score
      L1  H    13    36       P1  7948  0.10
      P1  H  7989  7998       L1    21  0.03

> <Gold.Chemscore.Hbond.Weighted>
-0.3375

> <Gold.Chemscore.Metal.Weighted>
-0.0000

> <Gold.Chemscore.Lipo.Weighted>
-10.1763

> <Gold.Chemscore.Internal_Hbond.Weighted>
0.0000

> <Gold.Chemscore.DEClash.Weighted>
0.0000

> <Gold.Chemscore.DEInternal.Weighted>
1.7114

> <Gold.Chemscore.Rot.Weighted>
3.8796

> <Gold.Chemscore.Internal.Correction.Weighted>
   9.000000E+99

> <Gold.Protein.RotatedTorsions>
[ 6907 6896 6895 6894 ] final  156.90 input  -60.11 | X-H torsion
[ 7974 7965 7964 7962 ] final   75.22 input  175.53 | X-H torsion
[ 8008 7997 7996 7995 ] final  -12.60 input   59.86 | X-H torsion
[ 10167 10162 10161 10158 ] final  109.54 input  -65.29 | X-H torsion
[ 10718 10713 10712 10709 ] final  -88.97 input   66.30 | X-H torsion
[ 10763 10752 10751 10750 ] final   30.04 input  -60.55 | X-H torsion
[ 11005 11000 10999 10996 ] final -140.75 input  -57.11 | X-H torsion

> <Gold.Protein.ActiveResidues>
 VAL166  LYS551  ARG553  GLY616  TRP617  ASP618  TYR619  PRO620  LYS621  CYS622 
 ASP623  PHE694  ASN695  SER759  ASP760  ASP761  ALA762  ILE779  LEU786  VAL792 
 PHE793  MET794  SER795  GLU796  ALA797  LYS798  CYS799  TRP800  GLU811  SER814 

> <Gold.Protein.RotatedAtoms>
  152.0230  133.3906  159.4265 H   0  0  0  0  0  0  0  0  0  0  0  0  # atno 6907 bound_to 6896
  150.6888  134.3605  159.4957 H   0  0  0  0  0  0  0  0  0  0  0  0  # atno 6908 bound_to 6896
  152.1381  134.9083  160.0606 H   0  0  0  0  0  0  0  0  0  0  0  0  # atno 6909 bound_to 6896
  145.7183  139.2639  143.1610 H   0  0  0  0  0  0  0  0  0  0  0  0  # atno 7974 bound_to 7965
  154.5363  140.2272  155.8717 H   0  0  0  0  0  0  0  0  0  0  0  0  # atno 8008 bound_to 7997
  156.1815  140.3099  155.9120 H   0  0  0  0  0  0  0  0  0  0  0  0  # atno 8009 bound_to 7997
  155.3348  140.0447  157.3034 H   0  0  0  0  0  0  0  0  0  0  0  0  # atno 8010 bound_to 7997
  139.6759  144.7122  151.1603 H   0  0  0  0  0  0  0  0  0  0  0  0  # atno 10167 bound_to 10162
  155.9984  130.4855  150.5100 H   0  0  0  0  0  0  0  0  0  0  0  0  # atno 10718 bound_to 10713
  153.0395  135.6474  154.0983 H   0  0  0  0  0  0  0  0  0  0  0  0  # atno 10763 bound_to 10752
  154.0692  135.2882  155.3312 H   0  0  0  0  0  0  0  0  0  0  0  0  # atno 10764 bound_to 10752
  154.6605  135.5393  153.8077 H   0  0  0  0  0  0  0  0  0  0  0  0  # atno 10765 bound_to 10752
  140.8392  134.2423  157.4819 H   0  0  0  0  0  0  0  0  0  0  0  0  # atno 11005 bound_to 11000
  146.0649  140.7931  142.9716 LP  0  0  0  0  0  0  0  0  0  0  0  0  # atno 17320 bound_to 7965
  144.6923  140.3253  143.7225 LP  0  0  0  0  0  0  0  0  0  0  0  0  # atno 17321 bound_to 7965
  140.7635  143.5773  150.8932 LP  0  0  0  0  0  0  0  0  0  0  0  0  # atno 17342 bound_to 10162
  139.9442  143.6347  152.3046 LP  0  0  0  0  0  0  0  0  0  0  0  0  # atno 17343 bound_to 10162
  157.3074  131.0657  151.2025 LP  0  0  0  0  0  0  0  0  0  0  0  0  # atno 17370 bound_to 10713
  157.2983  130.6830  149.6150 LP  0  0  0  0  0  0  0  0  0  0  0  0  # atno 17371 bound_to 10713
  139.8703  134.9626  156.4435 LP  0  0  0  0  0  0  0  0  0  0  0  0  # atno 17394 bound_to 11000
  140.8914  133.7845  155.9576 LP  0  0  0  0  0  0  0  0  0  0  0  0  # atno 17395 bound_to 11000

$$$$
