AV-unprocessed.smi:3255|AV-procd|sdf|12459|dock3
  -GOLD-   2272018353D 1   1.00000     0.00000
 Structure written by MMmdl.
 39 40  0  0  0  0  0  0  0  0  2 V2000
  151.1491  134.5215  155.7172 C   0  0  0  0  0  0  0  0  0  0  0  0
  150.2860  135.7394  155.3576 C   0  0  2  0  0  0  0  0  0  0  0  0
  149.3561  135.3633  154.2934 N   0  0  0  0  0  0  0  0  0  0  0  0
  148.5585  134.2860  154.3006 C   0  0  0  0  0  0  0  0  0  0  0  0
  148.5197  133.4593  155.2123 O   0  0  0  0  0  0  0  0  0  0  0  0
  147.7847  134.2303  153.2073 N   0  0  0  0  0  0  0  0  0  0  0  0
  146.7824  133.2018  152.9412 C   0  0  0  0  0  0  0  0  0  0  0  0
  146.8085  132.7242  151.4757 C   0  0  0  0  0  0  0  0  0  0  0  0
  145.4737  132.6280  150.8755 N   0  0  0  0  0  0  0  0  0  0  0  0
  144.9246  131.5443  150.2394 C   0  0  0  0  0  0  0  0  0  0  0  0
  143.6719  131.9237  149.8311 C   0  0  0  0  0  0  0  0  0  0  0  0
  143.5057  133.2185  150.2437 N   0  3  0  0  0  0  0  0  0  0  0  0
  144.5995  133.6426  150.8850 C   0  0  0  0  0  0  0  0  0  0  0  0
  151.1484  136.9443  154.9267 C   0  0  1  0  0  0  0  0  0  0  0  0
  150.4862  138.3127  155.0841 C   0  0  0  0  0  0  0  0  0  0  0  0
  151.6760  139.2499  155.0933 C   0  0  0  0  0  0  0  0  0  0  0  0
  152.8031  138.3909  155.6729 C   0  0  0  0  0  0  0  0  0  0  0  0
  152.2884  137.0655  155.7654 O   0  0  0  0  0  0  0  0  0  0  0  0
  151.8327  134.7518  156.5347 H   0  0  0  0  0  0  0  0  0  0  0  0
  151.7476  134.1923  154.8671 H   0  0  0  0  0  0  0  0  0  0  0  0
  150.5305  133.6816  156.0352 H   0  0  0  0  0  0  0  0  0  0  0  0
  149.7264  136.0192  156.2518 H   0  0  0  0  0  0  0  0  0  0  0  0
  149.3109  135.9813  153.4964 H   0  0  0  0  0  0  0  0  0  0  0  0
  147.8906  134.9546  152.5117 H   0  0  0  0  0  0  0  0  0  0  0  0
  147.0004  132.3571  153.5952 H   0  0  0  0  0  0  0  0  0  0  0  0
  145.7849  133.5467  153.2193 H   0  0  0  0  0  0  0  0  0  0  0  0
  147.4112  133.3962  150.8632 H   0  0  0  0  0  0  0  0  0  0  0  0
  147.2692  131.7379  151.4104 H   0  0  0  0  0  0  0  0  0  0  0  0
  145.4554  130.6111  150.1180 H   0  0  0  0  0  0  0  0  0  0  0  0
  142.9076  131.3840  149.2912 H   0  0  0  0  0  0  0  0  0  0  0  0
  144.7520  134.6180  151.3115 H   0  0  0  0  0  0  0  0  0  0  0  0
  151.4855  136.8213  153.8955 H   0  0  0  0  0  0  0  0  0  0  0  0
  149.7789  138.5374  154.2859 H   0  0  0  0  0  0  0  0  0  0  0  0
  149.9585  138.3727  156.0371 H   0  0  0  0  0  0  0  0  0  0  0  0
  151.9244  139.5509  154.0747 H   0  0  0  0  0  0  0  0  0  0  0  0
  151.4905  140.1525  155.6762 H   0  0  0  0  0  0  0  0  0  0  0  0
  153.6800  138.4089  155.0249 H   0  0  0  0  0  0  0  0  0  0  0  0
  153.1059  138.7340  156.6625 H   0  0  0  0  0  0  0  0  0  0  0  0
  142.6773  133.7779  150.0841 H   0  0  0  0  0  0  0  0  0  0  0  0
  1  2  1  0  0  0  0
  1 19  1  0  0  0  0
  1 20  1  0  0  0  0
  1 21  1  0  0  0  0
  2  3  1  0  0  0  0
  2 14  1  0  0  0  0
  2 22  1  0  0  0  0
  3  4  1  0  0  0  0
  3 23  1  0  0  0  0
  4  5  2  0  0  0  0
  4  6  1  0  0  0  0
  6  7  1  0  0  0  0
  6 24  1  0  0  0  0
  7  8  1  0  0  0  0
  7 25  1  0  0  0  0
  7 26  1  0  0  0  0
  8  9  1  0  0  0  0
  8 27  1  0  0  0  0
  8 28  1  0  0  0  0
  9 13  1  0  0  0  0
  9 10  1  0  0  0  0
 10 11  2  0  0  0  0
 10 29  1  0  0  0  0
 11 12  1  0  0  0  0
 11 30  1  0  0  0  0
 12 13  2  0  0  0  0
 12 39  1  0  0  0  0
 13 31  1  0  0  0  0
 14 18  1  0  0  0  0
 14 15  1  0  0  0  0
 14 32  1  0  0  0  0
 15 16  1  0  0  0  0
 15 33  1  0  0  0  0
 15 34  1  0  0  0  0
 16 17  1  0  0  0  0
 16 35  1  0  0  0  0
 16 36  1  0  0  0  0
 17 18  1  0  0  0  0
 17 37  1  0  0  0  0
 17 38  1  0  0  0  0
M  CHG  1  12   1
M  END
> <s_m_source_file>
AV-unprocessed.smi

> <i_m_source_file_index>
3255

> <i_lp_mmshare_version>
43012

> <i_f3d_flags>
0

> <s_epik_input>
TzFbQ0gyXVtDSDJdW0NIMl1bQ0BIXTFbQ0BIXShbQ0gzXSlbTkhdQyg9TylbTkhdW0NIMl1bQ0gyXW4yW2NIXVtjSF1uW2NIXTI=

> <s_epik_cmdline>
J2VwaWtfcHl0aG9uJywgJy1waCcsICc3LjAnLCAnLXRuJywgJzgnLCAnLW1hJywgJzIwMCcsICctbWV0YWxfYmluZGluZycsICctaW1hZScsICc8aW5maWxlLm1hZT4nLCAnLW9tYWUnLCAnPG91dGZpbGUubWFlPic=

> <r_lp_tautomer_probability>
1

> <r_epik_Ionization_Penalty>
0.256241

> <r_epik_Ionization_Penalty_Charging>
0

> <r_epik_Ionization_Penalty_Neutral>
0.256241

> <r_epik_State_Penalty>
0.247735

> <r_epik_Charging_Adjusted_Penalty>
0.247735

> <i_epik_Tot_Q>
1

> <i_epik_Tot_abs_Q>
1

> <r_epik_Metal_State_Penalty>
0.537184

> <b_epik_Metal_Only>
0

> <s_lp_Force_Field>
OPLS_2005

> <r_lp_Energy>
17.3031

> <b_lp_Chiralities_Consistent>
1

> <s_lp_Variant>
AV-unprocessed.smi:3255-3

> <Gold.Version>
5.8.1

> <Gold.Id.Protein>
6NUR|6NUR_protein|mol2

> <Gold.PLP.Fitness>
44.1688

> <Gold.PLP.PLP>
-31.8963

> <Gold.PLP.part.hbond>
-4.0000

> <Gold.PLP.part.metal>
0.0000

> <Gold.PLP.part.buried>
-3.2163

> <Gold.PLP.part.nonpolar>
-26.1609

> <Gold.PLP.part.repulsive>
0.1016

> <Gold.PLP.ligand.clash>
0.0000

> <Gold.PLP.ligand.torsion>
0.9381

> <Gold.PLP.Chemscore.Hbond>
4.6896

> <Gold.PLP.Chemscore.CHOScore>
0.0000

> <Gold.PLP.Chemscore.Metal>
0.0000

> <Gold.Chemscore.Hbonds>
donor molecule, donor type, donor heavy atom, donor atom, acceptor molecule, acceptor atom, score
      L1  H     3    23       P1  7948  0.99
      L1  H     6    24       P1  7948  0.91
      L1  H    12    39       P1 10186  2.00
      P1  H 10752 10764       L1    18  0.62

> <Gold.PLP.Chemscore.Internal.Correction>
0.0800

> <Gold.Rescore>
     Score         DG    S(hbond)    S(metal)    S(lipo)     H(rot)  DE(clash)    DE(int)     intcor
     15.84     -18.44       3.24        0.00      67.77       2.26       0.02       2.58       ----

> <Gold.Chemscore.Fitness>
15.8418

> <Gold.Chemscore.DG>
-18.4377

> <Gold.Chemscore.ZeroCoef>
-5.4800

> <Gold.Chemscore.Hbond>
3.2410

> <Gold.Chemscore.Metal>
0.0000

> <Gold.Chemscore.Lipo>
67.7660

> <Gold.Chemscore.Internal_Hbond>
0.0000

> <Gold.Chemscore.DEClash>
0.0174

> <Gold.Chemscore.DEInternal>
2.5785

> <Gold.Chemscore.Rot>
2.2640

> <Gold.Chemscore.Internal.Correction>
   9.000000E+99

> <Gold.Chemscore.Hbonds>
donor molecule, donor type, donor heavy atom, donor atom, acceptor molecule, acceptor atom, score
      L1  H     3    23       P1  7948  0.61
      L1  H     6    24       P1  7948  0.81
      L1  H    12    39       P1 10186  1.00
      P1  H 10752 10764       L1    18  0.20

> <Gold.Chemscore.Hbond.Weighted>
-10.8249

> <Gold.Chemscore.Metal.Weighted>
-0.0000

> <Gold.Chemscore.Lipo.Weighted>
-7.9286

> <Gold.Chemscore.Internal_Hbond.Weighted>
0.0000

> <Gold.Chemscore.DEClash.Weighted>
0.0174

> <Gold.Chemscore.DEInternal.Weighted>
2.5785

> <Gold.Chemscore.Rot.Weighted>
5.7958

> <Gold.Chemscore.Internal.Correction.Weighted>
   9.000000E+99

> <Gold.Protein.RotatedTorsions>
[ 6907 6896 6895 6894 ] final  115.52 input  -60.11 | X-H torsion
[ 7974 7965 7964 7962 ] final  141.51 input  175.53 | X-H torsion
[ 8008 7997 7996 7995 ] final   -4.88 input   59.86 | X-H torsion
[ 10167 10162 10161 10158 ] final -131.44 input  -65.29 | X-H torsion
[ 10718 10713 10712 10709 ] final  -62.17 input   66.30 | X-H torsion
[ 10763 10752 10751 10750 ] final  -12.01 input  -60.55 | X-H torsion
[ 11005 11000 10999 10996 ] final   10.49 input  -57.11 | X-H torsion

> <Gold.Protein.ActiveResidues>
 VAL166  LYS551  ARG553  GLY616  TRP617  ASP618  TYR619  PRO620  LYS621  CYS622 
 ASP623  PHE694  ASN695  SER759  ASP760  ASP761  ALA762  ILE779  LEU786  VAL792 
 PHE793  MET794  SER795  GLU796  ALA797  LYS798  CYS799  TRP800  GLU811  SER814 

> <Gold.Protein.RotatedAtoms>
  152.4736  133.8087  159.6991 H   0  0  0  0  0  0  0  0  0  0  0  0  # atno 6907 bound_to 6896
  150.8740  133.7456  159.2959 H   0  0  0  0  0  0  0  0  0  0  0  0  # atno 6908 bound_to 6896
  151.4982  135.1064  159.9874 H   0  0  0  0  0  0  0  0  0  0  0  0  # atno 6909 bound_to 6896
  144.9089  139.5319  143.5718 H   0  0  0  0  0  0  0  0  0  0  0  0  # atno 7974 bound_to 7965
  154.6097  140.2473  155.7685 H   0  0  0  0  0  0  0  0  0  0  0  0  # atno 8008 bound_to 7997
  156.2363  140.2949  156.0272 H   0  0  0  0  0  0  0  0  0  0  0  0  # atno 8009 bound_to 7997
  155.2072  140.0396  157.2918 H   0  0  0  0  0  0  0  0  0  0  0  0  # atno 8010 bound_to 7997
  139.9189  143.6406  152.2558 H   0  0  0  0  0  0  0  0  0  0  0  0  # atno 10167 bound_to 10162
  156.0873  130.4206  150.1097 H   0  0  0  0  0  0  0  0  0  0  0  0  # atno 10718 bound_to 10713
  153.4921  135.7017  153.5878 H   0  0  0  0  0  0  0  0  0  0  0  0  # atno 10763 bound_to 10752
  153.4046  135.3863  155.2010 H   0  0  0  0  0  0  0  0  0  0  0  0  # atno 10764 bound_to 10752
  154.8716  135.3890  154.4382 H   0  0  0  0  0  0  0  0  0  0  0  0  # atno 10765 bound_to 10752
  140.5139  134.0625  155.7825 H   0  0  0  0  0  0  0  0  0  0  0  0  # atno 11005 bound_to 11000
  146.3148  139.7880  142.8992 LP  0  0  0  0  0  0  0  0  0  0  0  0  # atno 17320 bound_to 7965
  145.3487  141.0303  143.3351 LP  0  0  0  0  0  0  0  0  0  0  0  0  # atno 17321 bound_to 7965
  139.6878  144.7650  151.1492 LP  0  0  0  0  0  0  0  0  0  0  0  0  # atno 17342 bound_to 10162
  140.7667  143.5631  150.9077 LP  0  0  0  0  0  0  0  0  0  0  0  0  # atno 17343 bound_to 10162
  156.9115  130.9653  151.3562 LP  0  0  0  0  0  0  0  0  0  0  0  0  # atno 17370 bound_to 10713
  157.6011  130.8513  149.8804 LP  0  0  0  0  0  0  0  0  0  0  0  0  # atno 17371 bound_to 10713
  141.1371  133.9203  157.2410 LP  0  0  0  0  0  0  0  0  0  0  0  0  # atno 17394 bound_to 11000
  139.9644  135.0146  156.9346 LP  0  0  0  0  0  0  0  0  0  0  0  0  # atno 17395 bound_to 11000

$$$$
