AV-unprocessed.smi:3245|AV-procd|sdf|12406|dock9
  -GOLD-   2272018283D 1   1.00000     0.00000
 Structure written by MMmdl.
 35 36  0  0  0  0  0  0  0  0  3 V2000
  149.7750  142.1154  158.3726 C   0  0  0  0  0  0  0  0  0  0  0  0
  150.9515  142.7682  157.6346 C   0  0  2  0  0  0  0  0  0  0  0  0
  151.2065  144.1951  158.1685 C   0  0  0  0  0  0  0  0  0  0  0  0
  151.6291  144.2133  159.5576 N   0  0  0  0  0  0  0  0  0  0  0  0
  151.8605  145.3030  160.3704 C   0  0  0  0  0  0  0  0  0  0  0  0
  152.2112  144.8241  161.6002 C   0  0  0  0  0  0  0  0  0  0  0  0
  152.1695  143.4110  161.4386 C   0  0  0  0  0  0  0  0  0  0  0  0
  151.8238  143.0484  160.2136 N   0  0  0  0  0  0  0  0  0  0  0  0
  150.6739  142.7814  156.1801 N   0  3  0  0  0  0  0  0  0  0  0  0
  150.5004  141.4482  155.5695 C   0  0  0  0  0  0  0  0  0  0  0  0
  151.4978  140.4416  156.1580 C   0  0  0  0  0  0  0  0  0  0  0  0
  151.3975  139.1501  155.4748 N   0  0  0  0  0  0  0  0  0  0  0  0
  150.2632  138.4552  155.3472 C   0  0  0  0  0  0  0  0  0  0  0  0
  149.1451  138.7503  155.7705 O   0  0  0  0  0  0  0  0  0  0  0  0
  150.5800  137.2107  154.5514 C   0  0  0  0  0  0  0  0  0  0  0  0
  151.9910  137.3704  154.2792 N   0  5  0  0  0  0  0  0  0  0  0  0
  152.4096  138.5269  154.8429 C   0  0  0  0  0  0  0  0  0  0  0  0
  153.5462  138.9969  154.8044 O   0  0  0  0  0  0  0  0  0  0  0  0
  149.9648  142.0625  159.4451 H   0  0  0  0  0  0  0  0  0  0  0  0
  149.6057  141.0976  158.0195 H   0  0  0  0  0  0  0  0  0  0  0  0
  148.8517  142.6772  158.2260 H   0  0  0  0  0  0  0  0  0  0  0  0
  151.8335  142.1540  157.8247 H   0  0  0  0  0  0  0  0  0  0  0  0
  151.9595  144.7021  157.5624 H   0  0  0  0  0  0  0  0  0  0  0  0
  150.2962  144.7907  158.0897 H   0  0  0  0  0  0  0  0  0  0  0  0
  151.7510  146.3163  160.0129 H   0  0  0  0  0  0  0  0  0  0  0  0
  152.4576  145.3957  162.4827 H   0  0  0  0  0  0  0  0  0  0  0  0
  152.3762  142.6436  162.1703 H   0  0  0  0  0  0  0  0  0  0  0  0
  149.8245  143.3031  156.0180 H   0  0  0  0  0  0  0  0  0  0  0  0
  149.4846  141.0901  155.7347 H   0  0  0  0  0  0  0  0  0  0  0  0
  150.6337  141.5324  154.4902 H   0  0  0  0  0  0  0  0  0  0  0  0
  152.5152  140.8295  156.0835 H   0  0  0  0  0  0  0  0  0  0  0  0
  151.3079  140.3104  157.2250 H   0  0  0  0  0  0  0  0  0  0  0  0
  150.3530  136.3234  155.1434 H   0  0  0  0  0  0  0  0  0  0  0  0
  149.9681  137.1806  153.6494 H   0  0  0  0  0  0  0  0  0  0  0  0
  151.4364  143.2559  155.7174 H   0  0  0  0  0  0  0  0  0  0  0  0
  1  2  1  0  0  0  0
  1 19  1  0  0  0  0
  1 20  1  0  0  0  0
  1 21  1  0  0  0  0
  2  3  1  0  0  0  0
  2  9  1  0  0  0  0
  2 22  1  0  0  0  0
  3  4  1  0  0  0  0
  3 23  1  0  0  0  0
  3 24  1  0  0  0  0
  4  8  1  0  0  0  0
  4  5  1  0  0  0  0
  5  6  2  0  0  0  0
  5 25  1  0  0  0  0
  6  7  1  0  0  0  0
  6 26  1  0  0  0  0
  7  8  2  0  0  0  0
  7 27  1  0  0  0  0
  9 10  1  0  0  0  0
  9 28  1  0  0  0  0
  9 35  1  0  0  0  0
 10 11  1  0  0  0  0
 10 29  1  0  0  0  0
 10 30  1  0  0  0  0
 11 12  1  0  0  0  0
 11 31  1  0  0  0  0
 11 32  1  0  0  0  0
 12 17  1  0  0  0  0
 12 13  1  0  0  0  0
 13 14  2  0  0  0  0
 13 15  1  0  0  0  0
 15 16  1  0  0  0  0
 15 33  1  0  0  0  0
 15 34  1  0  0  0  0
 16 17  1  0  0  0  0
 17 18  2  0  0  0  0
M  CHG  1   9   1
M  CHG  1  16  -1
M  END
> <s_m_source_file>
AV-unprocessed.smi

> <i_m_source_file_index>
3245

> <i_lp_mmshare_version>
43012

> <i_f3d_flags>
0

> <s_epik_input>
bjFbY0hdW2NIXVtjSF1uMVtDSDJdW0NAQEhdKFtDSDNdKVtOSF1bQ0gyXVtDSDJdTjJDKD1PKVtDSDJdW05IXUMyPU8=

> <s_epik_cmdline>
J2VwaWtfcHl0aG9uJywgJy1waCcsICc3LjAnLCAnLXRuJywgJzgnLCAnLW1hJywgJzIwMCcsICctbWV0YWxfYmluZGluZycsICctaW1hZScsICc8aW5maWxlLm1hZT4nLCAnLW9tYWUnLCAnPG91dGZpbGUubWFlPic=

> <r_lp_tautomer_probability>
1

> <r_epik_Ionization_Penalty>
5.1873

> <r_epik_Ionization_Penalty_Charging>
5.18729

> <r_epik_Ionization_Penalty_Neutral>
3.83745e-06

> <r_epik_State_Penalty>
5.18822

> <r_epik_Charging_Adjusted_Penalty>
10.3755

> <i_epik_Tot_Q>
0

> <i_epik_Tot_abs_Q>
2

> <r_epik_Metal_State_Penalty>
1.25934

> <b_epik_Metal_Only>
1

> <s_lp_Force_Field>
OPLS_2005

> <r_lp_Energy>
10.3219

> <b_lp_Chiralities_Consistent>
1

> <s_lp_Variant>
AV-unprocessed.smi:3245-5

> <Gold.Version>
5.8.1

> <Gold.Id.Protein>
6NUR|6NUR_protein|mol2

> <Gold.PLP.Fitness>
53.5729

> <Gold.PLP.PLP>
-39.5317

> <Gold.PLP.part.hbond>
-3.0000

> <Gold.PLP.part.metal>
0.0000

> <Gold.PLP.part.buried>
-2.1276

> <Gold.PLP.part.nonpolar>
-33.3519

> <Gold.PLP.part.repulsive>
0.3571

> <Gold.PLP.ligand.clash>
0.0000

> <Gold.PLP.ligand.torsion>
0.1534

> <Gold.PLP.Chemscore.Hbond>
4.7600

> <Gold.PLP.Chemscore.CHOScore>
0.0000

> <Gold.PLP.Chemscore.Metal>
0.0000

> <Gold.Chemscore.Hbonds>
donor molecule, donor type, donor heavy atom, donor atom, acceptor molecule, acceptor atom, score
      L1  H     9    28       P1  8028  2.00
      P1  H  7997  8010       L1    18  1.00
      P1  H 10752 10765       L1    16  1.86

> <Gold.PLP.Chemscore.Internal.Correction>
0.0680

> <Gold.Rescore>
     Score         DG    S(hbond)    S(metal)    S(lipo)     H(rot)  DE(clash)    DE(int)     intcor
     15.73     -17.37       2.79        0.00      80.15       2.66       0.38       1.26       ----

> <Gold.Chemscore.Fitness>
15.7321

> <Gold.Chemscore.DG>
-17.3697

> <Gold.Chemscore.ZeroCoef>
-5.4800

> <Gold.Chemscore.Hbond>
2.7908

> <Gold.Chemscore.Metal>
0.0000

> <Gold.Chemscore.Lipo>
80.1545

> <Gold.Chemscore.Internal_Hbond>
0.0000

> <Gold.Chemscore.DEClash>
0.3796

> <Gold.Chemscore.DEInternal>
1.2579

> <Gold.Chemscore.Rot>
2.6601

> <Gold.Chemscore.Internal.Correction>
   9.000000E+99

> <Gold.Chemscore.Hbonds>
donor molecule, donor type, donor heavy atom, donor atom, acceptor molecule, acceptor atom, score
      L1  H     9    28       P1  8028  0.98
      P1  H  7997  8010       L1    18  0.98
      P1  H 10752 10765       L1    16  0.82

> <Gold.Chemscore.Hbond.Weighted>
-9.3214

> <Gold.Chemscore.Metal.Weighted>
-0.0000

> <Gold.Chemscore.Lipo.Weighted>
-9.3781

> <Gold.Chemscore.Internal_Hbond.Weighted>
0.0000

> <Gold.Chemscore.DEClash.Weighted>
0.3796

> <Gold.Chemscore.DEInternal.Weighted>
1.2579

> <Gold.Chemscore.Rot.Weighted>
6.8098

> <Gold.Chemscore.Internal.Correction.Weighted>
   9.000000E+99

> <Gold.Protein.RotatedTorsions>
[ 6907 6896 6895 6894 ] final   43.40 input  -60.11 | X-H torsion
[ 7974 7965 7964 7962 ] final -130.28 input  175.53 | X-H torsion
[ 8008 7997 7996 7995 ] final  108.93 input   59.86 | X-H torsion
[ 10167 10162 10161 10158 ] final   21.60 input  -65.29 | X-H torsion
[ 10718 10713 10712 10709 ] final  103.21 input   66.30 | X-H torsion
[ 10763 10752 10751 10750 ] final  153.12 input  -60.55 | X-H torsion
[ 11005 11000 10999 10996 ] final    3.15 input  -57.11 | X-H torsion

> <Gold.Protein.ActiveResidues>
 VAL166  LYS551  ARG553  GLY616  TRP617  ASP618  TYR619  PRO620  LYS621  CYS622 
 ASP623  PHE694  ASN695  SER759  ASP760  ASP761  ALA762  ILE779  LEU786  VAL792 
 PHE793  MET794  SER795  GLU796  ALA797  LYS798  CYS799  TRP800  GLU811  SER814 

> <Gold.Protein.RotatedAtoms>
  152.2198  134.8424  160.0487 H   0  0  0  0  0  0  0  0  0  0  0  0  # atno 6907 bound_to 6896
  151.9211  133.3581  159.3905 H   0  0  0  0  0  0  0  0  0  0  0  0  # atno 6908 bound_to 6896
  150.6997  134.4559  159.5402 H   0  0  0  0  0  0  0  0  0  0  0  0  # atno 6909 bound_to 6896
  144.9490  140.7323  143.4800 H   0  0  0  0  0  0  0  0  0  0  0  0  # atno 7974 bound_to 7965
  156.1941  140.3067  155.9391 H   0  0  0  0  0  0  0  0  0  0  0  0  # atno 8008 bound_to 7997
  155.3106  140.0451  157.3051 H   0  0  0  0  0  0  0  0  0  0  0  0  # atno 8009 bound_to 7997
  154.5488  140.2285  155.8528 H   0  0  0  0  0  0  0  0  0  0  0  0  # atno 8010 bound_to 7997
  140.5414  143.9671  150.6521 H   0  0  0  0  0  0  0  0  0  0  0  0  # atno 10167 bound_to 10162
  157.6779  131.0773  150.5521 H   0  0  0  0  0  0  0  0  0  0  0  0  # atno 10718 bound_to 10713
  154.1310  135.2826  155.3185 H   0  0  0  0  0  0  0  0  0  0  0  0  # atno 10763 bound_to 10752
  154.6355  135.5420  153.7732 H   0  0  0  0  0  0  0  0  0  0  0  0  # atno 10764 bound_to 10752
  153.0281  135.6473  154.1461 H   0  0  0  0  0  0  0  0  0  0  0  0  # atno 10765 bound_to 10752
  140.5963  133.9877  155.8111 H   0  0  0  0  0  0  0  0  0  0  0  0  # atno 11005 bound_to 11000
  145.2873  139.1896  143.4759 LP  0  0  0  0  0  0  0  0  0  0  0  0  # atno 17320 bound_to 7965
  146.3314  140.2845  142.8612 LP  0  0  0  0  0  0  0  0  0  0  0  0  # atno 17321 bound_to 7965
  140.3072  143.3221  152.0914 LP  0  0  0  0  0  0  0  0  0  0  0  0  # atno 17342 bound_to 10162
  139.4990  144.6659  151.6357 LP  0  0  0  0  0  0  0  0  0  0  0  0  # atno 17343 bound_to 10162
  156.5826  130.4308  149.5971 LP  0  0  0  0  0  0  0  0  0  0  0  0  # atno 17370 bound_to 10713
  156.2649  130.6984  151.1764 LP  0  0  0  0  0  0  0  0  0  0  0  0  # atno 17371 bound_to 10713
  141.0901  133.9929  157.3250 LP  0  0  0  0  0  0  0  0  0  0  0  0  # atno 17394 bound_to 11000
  139.9252  135.0201  156.8207 LP  0  0  0  0  0  0  0  0  0  0  0  0  # atno 17395 bound_to 11000

$$$$
