AV-unprocessed.smi:1285|AV-procd|sdf|5370|dock2
  -GOLD-   22720 4513D 1   1.00000     0.00000
 Structure written by MMmdl.
 46 47  0  0  0  0  0  0  0  0  1 V2000
  148.7872  138.7854  154.7882 C   0  0  0  0  0  0  0  0  0  0  0  0
  147.7021  139.7450  155.3110 C   0  0  0  0  0  0  0  0  0  0  0  0
  147.5684  141.0973  154.5407 C   0  0  2  0  0  0  0  0  0  0  0  0
  147.3306  140.7295  153.0511 C   0  0  0  0  0  0  0  0  0  0  0  0
  148.9263  141.8638  154.6579 C   0  0  0  0  0  0  0  0  0  0  0  0
  149.5366  141.7963  155.9857 N   0  0  0  0  0  0  0  0  0  0  0  0
  150.6720  141.1502  156.2966 C   0  0  0  0  0  0  0  0  0  0  0  0
  151.3339  140.5149  155.4750 O   0  0  0  0  0  0  0  0  0  0  0  0
  151.1248  141.2386  157.7616 C   0  0  1  0  0  0  0  0  0  0  0  0
  152.2402  140.2261  158.0930 C   0  0  0  0  0  0  0  0  0  0  0  0
  151.5010  142.6093  158.0864 N   0  0  0  0  0  0  0  0  0  0  0  0
  151.4170  143.7179  157.3473 C   0  0  0  0  0  0  0  0  0  0  0  0
  151.9030  144.7997  157.9395 N   0  0  0  0  0  0  0  0  0  0  0  0
  152.3126  144.2479  159.1201 C   0  0  0  0  0  0  0  0  0  0  0  0
  152.1060  142.9381  159.2553 N   0  0  0  0  0  0  0  0  0  0  0  0
  146.4275  141.9019  155.0633 N   0  0  0  0  0  0  0  0  0  0  0  0
  146.0771  143.0835  154.2654 C   0  0  0  0  0  0  0  0  0  0  0  0
  144.8053  143.7742  154.7859 C   0  0  0  0  0  0  0  0  0  0  0  0
  144.9754  144.1260  156.1537 O   0  0  0  0  0  0  0  0  0  0  0  0
  145.2616  142.9992  156.9733 C   0  0  0  0  0  0  0  0  0  0  0  0
  146.5388  142.3052  156.4705 C   0  0  0  0  0  0  0  0  0  0  0  0
  148.8002  137.8682  155.3772 H   0  0  0  0  0  0  0  0  0  0  0  0
  149.7821  139.2248  154.8538 H   0  0  0  0  0  0  0  0  0  0  0  0
  148.6131  138.5012  153.7504 H   0  0  0  0  0  0  0  0  0  0  0  0
  146.7467  139.2208  155.3229 H   0  0  0  0  0  0  0  0  0  0  0  0
  147.9186  139.9357  156.3627 H   0  0  0  0  0  0  0  0  0  0  0  0
  148.0091  139.9479  152.7081 H   0  0  0  0  0  0  0  0  0  0  0  0
  147.4860  141.5827  152.3905 H   0  0  0  0  0  0  0  0  0  0  0  0
  146.3159  140.3685  152.8816 H   0  0  0  0  0  0  0  0  0  0  0  0
  149.6401  141.5148  153.9118 H   0  0  0  0  0  0  0  0  0  0  0  0
  148.7819  142.9236  154.4508 H   0  0  0  0  0  0  0  0  0  0  0  0
  149.0569  142.2868  156.7265 H   0  0  0  0  0  0  0  0  0  0  0  0
  150.2677  140.9865  158.3887 H   0  0  0  0  0  0  0  0  0  0  0  0
  151.9182  139.2054  157.8828 H   0  0  0  0  0  0  0  0  0  0  0  0
  152.5048  140.2728  159.1496 H   0  0  0  0  0  0  0  0  0  0  0  0
  153.1484  140.4089  157.5172 H   0  0  0  0  0  0  0  0  0  0  0  0
  150.9958  143.7331  156.3527 H   0  0  0  0  0  0  0  0  0  0  0  0
  152.7833  144.8276  159.9004 H   0  0  0  0  0  0  0  0  0  0  0  0
  146.8937  143.8052  154.2766 H   0  0  0  0  0  0  0  0  0  0  0  0
  145.9060  142.8156  153.2244 H   0  0  0  0  0  0  0  0  0  0  0  0
  144.6015  144.6764  154.2091 H   0  0  0  0  0  0  0  0  0  0  0  0
  143.9385  143.1208  154.6753 H   0  0  0  0  0  0  0  0  0  0  0  0
  145.3919  143.3326  158.0029 H   0  0  0  0  0  0  0  0  0  0  0  0
  144.4172  142.3081  156.9645 H   0  0  0  0  0  0  0  0  0  0  0  0
  146.7250  141.4454  157.1112 H   0  0  0  0  0  0  0  0  0  0  0  0
  147.3789  142.9870  156.6030 H   0  0  0  0  0  0  0  0  0  0  0  0
  1  2  1  0  0  0  0
  1 22  1  0  0  0  0
  1 23  1  0  0  0  0
  1 24  1  0  0  0  0
  2  3  1  0  0  0  0
  2 25  1  0  0  0  0
  2 26  1  0  0  0  0
  3  4  1  0  0  0  0
  3  5  1  0  0  0  0
  3 16  1  0  0  0  0
  4 27  1  0  0  0  0
  4 28  1  0  0  0  0
  4 29  1  0  0  0  0
  5  6  1  0  0  0  0
  5 30  1  0  0  0  0
  5 31  1  0  0  0  0
  6  7  1  0  0  0  0
  6 32  1  0  0  0  0
  7  8  2  0  0  0  0
  7  9  1  0  0  0  0
  9 10  1  0  0  0  0
  9 11  1  0  0  0  0
  9 33  1  0  0  0  0
 10 34  1  0  0  0  0
 10 35  1  0  0  0  0
 10 36  1  0  0  0  0
 11 15  1  0  0  0  0
 11 12  1  0  0  0  0
 12 13  2  0  0  0  0
 12 37  1  0  0  0  0
 13 14  1  0  0  0  0
 14 15  2  0  0  0  0
 14 38  1  0  0  0  0
 16 21  1  0  0  0  0
 16 17  1  0  0  0  0
 17 18  1  0  0  0  0
 17 39  1  0  0  0  0
 17 40  1  0  0  0  0
 18 19  1  0  0  0  0
 18 41  1  0  0  0  0
 18 42  1  0  0  0  0
 19 20  1  0  0  0  0
 20 21  1  0  0  0  0
 20 43  1  0  0  0  0
 20 44  1  0  0  0  0
 21 45  1  0  0  0  0
 21 46  1  0  0  0  0
M  END
> <s_m_source_file>
AV-unprocessed.smi

> <i_m_source_file_index>
1285

> <i_lp_mmshare_version>
43012

> <i_f3d_flags>
0

> <s_epik_input>
W0NIMl0xW0NIMl1PW0NIMl1bQ0gyXU4xW0NAQF0oW0NIM10pKFtDSDJdW0NIM10pW0NIMl1bTkhdQyg9TylbQ0BIXShbQ0gzXSluMltjSF1uW2NIXW4y

> <s_epik_cmdline>
J2VwaWtfcHl0aG9uJywgJy1waCcsICc3LjAnLCAnLXRuJywgJzgnLCAnLW1hJywgJzIwMCcsICctbWV0YWxfYmluZGluZycsICctaW1hZScsICc8aW5maWxlLm1hZT4nLCAnLW9tYWUnLCAnPG91dGZpbGUubWFlPic=

> <r_lp_tautomer_probability>
1

> <r_epik_Ionization_Penalty>
0.285697

> <r_epik_Ionization_Penalty_Charging>
0

> <r_epik_Ionization_Penalty_Neutral>
0.285697

> <r_epik_State_Penalty>
0.278478

> <r_epik_Charging_Adjusted_Penalty>
0.278478

> <i_epik_Tot_Q>
0

> <i_epik_Tot_abs_Q>
0

> <r_epik_Metal_State_Penalty>
0.278477

> <b_epik_Metal_Only>
0

> <s_lp_Force_Field>
OPLS_2005

> <r_lp_Energy>
49.308

> <b_lp_Chiralities_Consistent>
1

> <s_lp_Variant>
AV-unprocessed.smi:1285-4

> <Gold.Version>
5.8.1

> <Gold.Id.Protein>
6NUR|6NUR_protein|mol2

> <Gold.PLP.Fitness>
38.2706

> <Gold.PLP.PLP>
-34.0014

> <Gold.PLP.part.hbond>
-1.8538

> <Gold.PLP.part.metal>
0.0000

> <Gold.PLP.part.buried>
-3.4415

> <Gold.PLP.part.nonpolar>
-28.7861

> <Gold.PLP.part.repulsive>
0.4689

> <Gold.PLP.ligand.clash>
0.0000

> <Gold.PLP.ligand.torsion>
0.7944

> <Gold.PLP.Chemscore.Hbond>
0.8800

> <Gold.PLP.Chemscore.CHOScore>
0.9827

> <Gold.PLP.Chemscore.Metal>
0.0000

> <Gold.Chemscore.Hbonds>
donor molecule, donor type, donor heavy atom, donor atom, acceptor molecule, acceptor atom, score
      P1  H  7989  7998       L1     8  0.86
      L1  C    12    37       P1  8028  0.94

> <Gold.PLP.Chemscore.Internal.Correction>
0.2700

> <Gold.Rescore>
     Score         DG    S(hbond)    S(metal)    S(lipo)     H(rot)  DE(clash)    DE(int)     intcor
      5.96      -8.32       0.94        0.00      56.05       2.68       0.36       2.00       ----

> <Gold.Chemscore.Fitness>
5.9593

> <Gold.Chemscore.DG>
-8.3250

> <Gold.Chemscore.ZeroCoef>
-5.4800

> <Gold.Chemscore.Hbond>
0.9442

> <Gold.Chemscore.Metal>
0.0000

> <Gold.Chemscore.Lipo>
56.0459

> <Gold.Chemscore.Internal_Hbond>
0.0000

> <Gold.Chemscore.DEClash>
0.3628

> <Gold.Chemscore.DEInternal>
2.0029

> <Gold.Chemscore.Rot>
2.6821

> <Gold.Chemscore.Internal.Correction>
   9.000000E+99

> <Gold.Chemscore.Hbonds>
donor molecule, donor type, donor heavy atom, donor atom, acceptor molecule, acceptor atom, score
      P1  H  7989  7998       L1     8  0.80

> <Gold.Chemscore.Hbond.Weighted>
-3.1537

> <Gold.Chemscore.Metal.Weighted>
-0.0000

> <Gold.Chemscore.Lipo.Weighted>
-6.5574

> <Gold.Chemscore.Internal_Hbond.Weighted>
0.0000

> <Gold.Chemscore.DEClash.Weighted>
0.3628

> <Gold.Chemscore.DEInternal.Weighted>
2.0029

> <Gold.Chemscore.Rot.Weighted>
6.8661

> <Gold.Chemscore.Internal.Correction.Weighted>
   9.000000E+99

> <Gold.Protein.RotatedTorsions>
[ 6907 6896 6895 6894 ] final   32.69 input  -60.11 | X-H torsion
[ 7974 7965 7964 7962 ] final -148.76 input  175.53 | X-H torsion
[ 8008 7997 7996 7995 ] final  -56.86 input   59.86 | X-H torsion
[ 10167 10162 10161 10158 ] final  162.48 input  -65.29 | X-H torsion
[ 10718 10713 10712 10709 ] final   27.09 input   66.30 | X-H torsion
[ 10763 10752 10751 10750 ] final  -87.73 input  -60.55 | X-H torsion
[ 11005 11000 10999 10996 ] final   93.28 input  -57.11 | X-H torsion

> <Gold.Protein.ActiveResidues>
 VAL166  LYS551  ARG553  GLY616  TRP617  ASP618  TYR619  PRO620  LYS621  CYS622 
 ASP623  PHE694  ASN695  SER759  ASP760  ASP761  ALA762  ILE779  LEU786  VAL792 
 PHE793  MET794  SER795  GLU796  ALA797  LYS798  CYS799  TRP800  GLU811  SER814 

> <Gold.Protein.RotatedAtoms>
  152.0780  134.9490  160.0573 H   0  0  0  0  0  0  0  0  0  0  0  0  # atno 6907 bound_to 6896
  152.0790  133.4138  159.4501 H   0  0  0  0  0  0  0  0  0  0  0  0  # atno 6908 bound_to 6896
  150.6836  134.2924  159.4715 H   0  0  0  0  0  0  0  0  0  0  0  0  # atno 6909 bound_to 6896
  144.8009  140.5154  143.5707 H   0  0  0  0  0  0  0  0  0  0  0  0  # atno 7974 bound_to 7965
  154.4246  140.1120  156.5705 H   0  0  0  0  0  0  0  0  0  0  0  0  # atno 8008 bound_to 7997
  155.6217  140.3495  155.4635 H   0  0  0  0  0  0  0  0  0  0  0  0  # atno 8009 bound_to 7997
  156.0019  140.1201  157.0528 H   0  0  0  0  0  0  0  0  0  0  0  0  # atno 8010 bound_to 7997
  139.4861  144.4433  151.8923 H   0  0  0  0  0  0  0  0  0  0  0  0  # atno 10167 bound_to 10162
  157.2156  130.6954  149.6247 H   0  0  0  0  0  0  0  0  0  0  0  0  # atno 10718 bound_to 10713
  154.6368  135.5402  153.7743 H   0  0  0  0  0  0  0  0  0  0  0  0  # atno 10763 bound_to 10752
  153.0313  135.6449  154.1219 H   0  0  0  0  0  0  0  0  0  0  0  0  # atno 10764 bound_to 10752
  154.1146  135.2924  155.3203 H   0  0  0  0  0  0  0  0  0  0  0  0  # atno 10765 bound_to 10752
  139.8812  134.8781  156.3695 H   0  0  0  0  0  0  0  0  0  0  0  0  # atno 11005 bound_to 11000
  145.5555  139.1478  143.3370 LP  0  0  0  0  0  0  0  0  0  0  0  0  # atno 17320 bound_to 7965
  146.2290  140.5692  142.8983 LP  0  0  0  0  0  0  0  0  0  0  0  0  # atno 17321 bound_to 7965
  140.3886  144.2644  150.5901 LP  0  0  0  0  0  0  0  0  0  0  0  0  # atno 17342 bound_to 10162
  140.5167  143.2276  151.8452 LP  0  0  0  0  0  0  0  0  0  0  0  0  # atno 17343 bound_to 10162
  155.9686  130.4537  150.5821 LP  0  0  0  0  0  0  0  0  0  0  0  0  # atno 17370 bound_to 10713
  157.3628  131.0752  151.1622 LP  0  0  0  0  0  0  0  0  0  0  0  0  # atno 17371 bound_to 10713
  140.9474  133.7474  156.0226 LP  0  0  0  0  0  0  0  0  0  0  0  0  # atno 17394 bound_to 11000
  140.8147  134.3359  157.5401 LP  0  0  0  0  0  0  0  0  0  0  0  0  # atno 17395 bound_to 11000

$$$$
