AV-unprocessed.smi:1120|AV-procd|sdf|4821|dock6
  -GOLD-   22720 3373D 1   1.00000     0.00000
 Structure written by MMmdl.
 49 50  0  0  0  0  0  0  0  0  2 V2000
  153.0125  143.2493  163.4570 C   0  0  0  0  0  0  0  0  0  0  0  0
  153.2987  143.1638  161.9513 C   0  0  2  0  0  0  0  0  0  0  0  0
  152.0782  143.6006  161.1215 C   0  0  0  0  0  0  0  0  0  0  0  0
  152.3614  143.5404  159.6110 C   0  0  0  0  0  0  0  0  0  0  0  0
  152.8893  142.1639  159.1614 C   0  0  2  0  0  0  0  0  0  0  0  0
  151.8055  141.1770  159.1174 N   0  0  0  0  0  0  0  0  0  0  0  0
  151.8806  139.8001  158.0807 S   0  0  0  0  0  0  0  0  0  0  0  0
  153.2909  139.3971  157.9672 O   0  0  0  0  0  0  0  0  0  0  0  0
  150.8781  138.8370  158.5618 O   0  0  0  0  0  0  0  0  0  0  0  0
  151.3171  140.4691  156.4546 C   0  0  0  0  0  0  0  0  0  0  0  0
  151.0598  139.3202  155.4823 C   0  0  0  0  0  0  0  0  0  0  0  0
  150.8830  139.5543  154.2875 O   0  0  0  0  0  0  0  0  0  0  0  0
  151.0431  138.0833  156.0022 N   0  0  0  0  0  0  0  0  0  0  0  0
  150.8163  136.8554  155.2457 C   0  0  0  0  0  0  0  0  0  0  0  0
  150.0019  135.7955  156.0169 C   0  0  0  0  0  0  0  0  0  0  0  0
  149.9814  134.4297  155.3520 C   0  0  0  0  0  0  0  0  0  0  0  0
  150.3006  133.2493  156.0572 C   0  0  0  0  0  0  0  0  0  0  0  0
  150.2817  132.0136  155.3769 C   0  0  0  0  0  0  0  0  0  0  0  0
  149.9447  131.9836  154.0077 C   0  0  0  0  0  0  0  0  0  0  0  0
  149.6329  133.1922  153.3529 C   0  0  0  0  0  0  0  0  0  0  0  0
  149.6636  134.3556  154.0389 N   0  3  0  0  0  0  0  0  0  0  0  0
  154.0491  141.6553  160.0385 C   0  0  0  0  0  0  0  0  0  0  0  0
  153.7380  141.7465  161.5420 C   0  0  0  0  0  0  0  0  0  0  0  0
  152.1972  142.5849  163.7445 H   0  0  0  0  0  0  0  0  0  0  0  0
  152.7340  144.2626  163.7471 H   0  0  0  0  0  0  0  0  0  0  0  0
  153.8909  142.9701  164.0398 H   0  0  0  0  0  0  0  0  0  0  0  0
  154.1193  143.8491  161.7334 H   0  0  0  0  0  0  0  0  0  0  0  0
  151.2251  142.9630  161.3575 H   0  0  0  0  0  0  0  0  0  0  0  0
  151.7863  144.6154  161.3942 H   0  0  0  0  0  0  0  0  0  0  0  0
  151.4659  143.8119  159.0513 H   0  0  0  0  0  0  0  0  0  0  0  0
  153.1082  144.2970  159.3678 H   0  0  0  0  0  0  0  0  0  0  0  0
  153.2741  142.2705  158.1466 H   0  0  0  0  0  0  0  0  0  0  0  0
  150.8675  141.5457  159.2741 H   0  0  0  0  0  0  0  0  0  0  0  0
  150.4145  141.0616  156.6055 H   0  0  0  0  0  0  0  0  0  0  0  0
  152.0925  141.1244  156.0576 H   0  0  0  0  0  0  0  0  0  0  0  0
  151.1979  137.9836  156.9956 H   0  0  0  0  0  0  0  0  0  0  0  0
  150.2776  137.1314  154.3388 H   0  0  0  0  0  0  0  0  0  0  0  0
  151.7696  136.4364  154.9199 H   0  0  0  0  0  0  0  0  0  0  0  0
  150.4035  135.6908  157.0256 H   0  0  0  0  0  0  0  0  0  0  0  0
  148.9744  136.1398  156.1414 H   0  0  0  0  0  0  0  0  0  0  0  0
  150.5603  133.2893  157.1051 H   0  0  0  0  0  0  0  0  0  0  0  0
  150.5252  131.0996  155.8987 H   0  0  0  0  0  0  0  0  0  0  0  0
  149.9268  131.0483  153.4676 H   0  0  0  0  0  0  0  0  0  0  0  0
  149.3683  133.2651  152.3081 H   0  0  0  0  0  0  0  0  0  0  0  0
  154.3106  140.6315  159.7681 H   0  0  0  0  0  0  0  0  0  0  0  0
  154.9350  142.2565  159.8308 H   0  0  0  0  0  0  0  0  0  0  0  0
  154.6194  141.4503  162.1120 H   0  0  0  0  0  0  0  0  0  0  0  0
  152.9548  141.0307  161.7952 H   0  0  0  0  0  0  0  0  0  0  0  0
  149.4408  135.2188  153.5419 H   0  0  0  0  0  0  0  0  0  0  0  0
  1  2  1  0  0  0  0
  1 24  1  0  0  0  0
  1 25  1  0  0  0  0
  1 26  1  0  0  0  0
  2 23  1  0  0  0  0
  2  3  1  0  0  0  0
  2 27  1  0  0  0  0
  3  4  1  0  0  0  0
  3 28  1  0  0  0  0
  3 29  1  0  0  0  0
  4  5  1  0  0  0  0
  4 30  1  0  0  0  0
  4 31  1  0  0  0  0
  5  6  1  0  0  0  0
  5 22  1  0  0  0  0
  5 32  1  0  0  0  0
  6  7  1  0  0  0  0
  6 33  1  0  0  0  0
  7  8  2  0  0  0  0
  7  9  2  0  0  0  0
  7 10  1  0  0  0  0
 10 11  1  0  0  0  0
 10 34  1  0  0  0  0
 10 35  1  0  0  0  0
 11 12  2  0  0  0  0
 11 13  1  0  0  0  0
 13 14  1  0  0  0  0
 13 36  1  0  0  0  0
 14 15  1  0  0  0  0
 14 37  1  0  0  0  0
 14 38  1  0  0  0  0
 15 16  1  0  0  0  0
 15 39  1  0  0  0  0
 15 40  1  0  0  0  0
 16 21  1  0  0  0  0
 16 17  2  0  0  0  0
 17 18  1  0  0  0  0
 17 41  1  0  0  0  0
 18 19  2  0  0  0  0
 18 42  1  0  0  0  0
 19 20  1  0  0  0  0
 19 43  1  0  0  0  0
 20 21  2  0  0  0  0
 20 44  1  0  0  0  0
 21 49  1  0  0  0  0
 22 23  1  0  0  0  0
 22 45  1  0  0  0  0
 22 46  1  0  0  0  0
 23 47  1  0  0  0  0
 23 48  1  0  0  0  0
M  CHG  1  21   1
M  END
> <s_m_source_file>
AV-unprocessed.smi

> <i_m_source_file_index>
1120

> <i_lp_mmshare_version>
43012

> <i_f3d_flags>
0

> <s_epik_input>
W0NIM11bQ0BASF0xW0NIMl1bQ0gyXVtDQEhdKFtDSDJdW0NIMl0xKVtOSF1TKD1PKSg9TylbQ0gyXUMoPU8pW05IXVtDSDJdW0NIMl1jMltjSF1bY0hdW2NIXVtjSF1uMg==

> <s_epik_cmdline>
J2VwaWtfcHl0aG9uJywgJy1waCcsICc3LjAnLCAnLXRuJywgJzgnLCAnLW1hJywgJzIwMCcsICctbWV0YWxfYmluZGluZycsICctaW1hZScsICc8aW5maWxlLm1hZT4nLCAnLW9tYWUnLCAnPG91dGZpbGUubWFlPic=

> <r_epik_Ionization_Penalty>
1.97387

> <r_epik_Ionization_Penalty_Charging>
1.97382

> <r_epik_Ionization_Penalty_Neutral>
4.57635e-05

> <r_epik_State_Penalty>
2.10057

> <r_epik_Charging_Adjusted_Penalty>
4.07439

> <i_epik_Tot_Q>
1

> <i_epik_Tot_abs_Q>
1

> <r_epik_Metal_State_Penalty>
2.15877

> <b_epik_Metal_Only>
0

> <s_lp_Force_Field>
OPLS_2005

> <r_lp_Energy>
8.31708

> <b_lp_Chiralities_Consistent>
1

> <s_lp_Variant>
AV-unprocessed.smi:1120-4

> <Gold.Version>
5.8.1

> <Gold.Id.Protein>
6NUR|6NUR_protein|mol2

> <Gold.PLP.Fitness>
55.6243

> <Gold.PLP.PLP>
-45.6050

> <Gold.PLP.part.hbond>
-3.0000

> <Gold.PLP.part.metal>
0.0000

> <Gold.PLP.part.buried>
-4.5128

> <Gold.PLP.part.nonpolar>
-37.3441

> <Gold.PLP.part.repulsive>
0.3445

> <Gold.PLP.ligand.clash>
0.0000

> <Gold.PLP.ligand.torsion>
1.4112

> <Gold.PLP.Chemscore.Hbond>
3.8880

> <Gold.PLP.Chemscore.CHOScore>
0.0000

> <Gold.PLP.Chemscore.Metal>
0.0000

> <Gold.Chemscore.Hbonds>
donor molecule, donor type, donor heavy atom, donor atom, acceptor molecule, acceptor atom, score
      L1  H    21    49       P1  7948  1.50
      P1  H  7989  7998       L1    12  1.00
      P1  H  7997  8009       L1     8  1.00

> <Gold.PLP.Chemscore.Internal.Correction>
1.1777

> <Gold.Rescore>
     Score         DG    S(hbond)    S(metal)    S(lipo)     H(rot)  DE(clash)    DE(int)     intcor
     19.97     -22.95       2.66        0.00     118.12       2.05       1.50       1.48       ----

> <Gold.Chemscore.Fitness>
19.9680

> <Gold.Chemscore.DG>
-22.9510

> <Gold.Chemscore.ZeroCoef>
-5.4800

> <Gold.Chemscore.Hbond>
2.6615

> <Gold.Chemscore.Metal>
0.0000

> <Gold.Chemscore.Lipo>
118.1215

> <Gold.Chemscore.Internal_Hbond>
0.0000

> <Gold.Chemscore.DEClash>
1.5017

> <Gold.Chemscore.DEInternal>
1.4812

> <Gold.Chemscore.Rot>
2.0463

> <Gold.Chemscore.Internal.Correction>
   9.000000E+99

> <Gold.Chemscore.Hbonds>
donor molecule, donor type, donor heavy atom, donor atom, acceptor molecule, acceptor atom, score
      L1  H    21    49       P1  7948  0.09
      P1  H  7989  7998       L1    12  0.99
      P1  H  7997  8009       L1     8  0.99

> <Gold.Chemscore.Hbond.Weighted>
-8.8893

> <Gold.Chemscore.Metal.Weighted>
-0.0000

> <Gold.Chemscore.Lipo.Weighted>
-13.8202

> <Gold.Chemscore.Internal_Hbond.Weighted>
0.0000

> <Gold.Chemscore.DEClash.Weighted>
1.5017

> <Gold.Chemscore.DEInternal.Weighted>
1.4812

> <Gold.Chemscore.Rot.Weighted>
5.2386

> <Gold.Chemscore.Internal.Correction.Weighted>
   9.000000E+99

> <Gold.Protein.RotatedTorsions>
[ 6907 6896 6895 6894 ] final  -51.97 input  -60.11 | X-H torsion
[ 7974 7965 7964 7962 ] final  -74.03 input  175.53 | X-H torsion
[ 8008 7997 7996 7995 ] final  170.30 input   59.86 | X-H torsion
[ 10167 10162 10161 10158 ] final  -77.07 input  -65.29 | X-H torsion
[ 10718 10713 10712 10709 ] final  137.21 input   66.30 | X-H torsion
[ 10763 10752 10751 10750 ] final  107.16 input  -60.55 | X-H torsion
[ 11005 11000 10999 10996 ] final   -1.89 input  -57.11 | X-H torsion

> <Gold.Protein.ActiveResidues>
 VAL166  LYS551  ARG553  GLY616  TRP617  ASP618  TYR619  PRO620  LYS621  CYS622 
 ASP623  PHE694  ASN695  SER759  ASP760  ASP761  ALA762  ILE779  LEU786  VAL792 
 PHE793  MET794  SER795  GLU796  ALA797  LYS798  CYS799  TRP800  GLU811  SER814 

> <Gold.Protein.RotatedAtoms>
  150.8561  134.7900  159.7046 H   0  0  0  0  0  0  0  0  0  0  0  0  # atno 6907 bound_to 6896
  152.4612  134.5176  159.9782 H   0  0  0  0  0  0  0  0  0  0  0  0  # atno 6908 bound_to 6896
  151.5288  133.3414  159.2950 H   0  0  0  0  0  0  0  0  0  0  0  0  # atno 6909 bound_to 6896
  145.6444  140.9301  143.1018 H   0  0  0  0  0  0  0  0  0  0  0  0  # atno 7974 bound_to 7965
  156.1378  140.1541  156.8967 H   0  0  0  0  0  0  0  0  0  0  0  0  # atno 8008 bound_to 7997
  154.4962  140.0837  156.7740 H   0  0  0  0  0  0  0  0  0  0  0  0  # atno 8009 bound_to 7997
  155.4136  140.3420  155.4268 H   0  0  0  0  0  0  0  0  0  0  0  0  # atno 8010 bound_to 7997
  140.4802  143.2404  151.8069 H   0  0  0  0  0  0  0  0  0  0  0  0  # atno 10167 bound_to 10162
  157.4385  131.1055  151.0170 H   0  0  0  0  0  0  0  0  0  0  0  0  # atno 10718 bound_to 10713
  153.4029  135.3853  155.1999 H   0  0  0  0  0  0  0  0  0  0  0  0  # atno 10763 bound_to 10752
  154.8731  135.3775  154.4597 H   0  0  0  0  0  0  0  0  0  0  0  0  # atno 10764 bound_to 10752
  153.5096  135.7087  153.5850 H   0  0  0  0  0  0  0  0  0  0  0  0  # atno 10765 bound_to 10752
  140.6523  133.9394  155.8387 H   0  0  0  0  0  0  0  0  0  0  0  0  # atno 11005 bound_to 11000
  144.7145  139.8246  143.7403 LP  0  0  0  0  0  0  0  0  0  0  0  0  # atno 17320 bound_to 7965
  146.1255  139.4280  143.0202 LP  0  0  0  0  0  0  0  0  0  0  0  0  # atno 17321 bound_to 7965
  139.4832  144.4782  151.9340 LP  0  0  0  0  0  0  0  0  0  0  0  0  # atno 17342 bound_to 10162
  140.3867  144.2667  150.5903 LP  0  0  0  0  0  0  0  0  0  0  0  0  # atno 17343 bound_to 10162
  157.1041  130.5994  149.5467 LP  0  0  0  0  0  0  0  0  0  0  0  0  # atno 17370 bound_to 10713
  155.9939  130.5002  150.7401 LP  0  0  0  0  0  0  0  0  0  0  0  0  # atno 17371 bound_to 10713
  141.0528  134.0461  157.3762 LP  0  0  0  0  0  0  0  0  0  0  0  0  # atno 17394 bound_to 11000
  139.9041  135.0174  156.7408 LP  0  0  0  0  0  0  0  0  0  0  0  0  # atno 17395 bound_to 11000

$$$$
