AV-unprocessed.smi:21|AV-procd|sdf|148|dock4
  -GOLD-   2262015363D 1   1.00000     0.00000
 Structure written by MMmdl.
 62 65  0  0  0  0  0  0  0  0  2 V2000
  146.4020  138.6473  151.4948 C   0  0  0  0  0  0  0  0  0  0  0  0
  146.1445  137.7900  152.5959 O   0  0  0  0  0  0  0  0  0  0  0  0
  145.1835  136.7777  152.3249 C   0  0  2  0  0  0  0  0  0  0  0  0
  144.9730  135.8577  153.5280 C   0  0  0  0  0  0  0  0  0  0  0  0
  146.1127  134.8255  153.4529 C   0  0  2  0  0  0  0  0  0  0  0  0
  147.2654  135.0982  154.4425 C   0  0  0  0  0  0  0  0  0  0  0  0
  148.0022  133.8890  154.8176 N   0  0  0  0  0  0  0  0  0  0  0  0
  148.7213  133.1509  153.7857 C   0  0  0  0  0  0  0  0  0  0  0  0
  148.0871  133.5085  156.1255 C   0  0  0  0  0  0  0  0  0  0  0  0
  148.4535  132.2271  156.4011 N   0  0  0  0  0  0  0  0  0  0  0  0
  148.5459  131.7941  157.6606 C   0  0  0  0  0  0  0  0  0  0  0  0
  148.3134  132.4630  158.7890 N   0  0  0  0  0  0  0  0  0  0  0  0
  147.9426  133.7489  158.5315 C   0  0  0  0  0  0  0  0  0  0  0  0
  147.8092  134.3522  157.2459 C   0  0  0  0  0  0  0  0  0  0  0  0
  147.4076  135.6759  157.4008 N   0  0  0  0  0  0  0  0  0  0  0  0
  147.3087  135.8423  158.6904 C   0  0  0  0  0  0  0  0  0  0  0  0
  147.5912  134.7279  159.4443 N   0  0  0  0  0  0  0  0  0  0  0  0
  147.5540  134.6300  160.8928 C   0  0  0  0  0  0  0  0  0  0  0  0
  146.9448  135.8666  161.6045 C   0  0  2  0  0  0  0  0  0  0  0  0
  147.6620  136.0340  162.9669 C   0  0  0  0  0  0  0  0  0  0  0  0
  148.0058  137.3805  163.2212 O   0  0  0  0  0  0  0  0  0  0  0  0
  145.3946  135.7777  161.7601 C   0  0  1  0  0  0  0  0  0  0  0  0
  144.8955  134.7998  162.8128 C   0  0  0  0  0  0  0  0  0  0  0  0
  143.4635  135.2625  163.0319 C   0  0  0  0  0  0  0  0  0  0  0  0
  143.5482  136.6774  162.9871 O   0  0  0  0  0  0  0  0  0  0  0  0
  144.6871  137.0636  162.2228 C   0  0  0  0  0  0  0  0  0  0  0  0
  146.6281  134.8902  152.0639 N   0  3  1  0  0  0  0  0  0  0  0  0
  146.8224  133.5750  151.4176 C   0  0  0  0  0  0  0  0  0  0  0  0
  145.7810  135.8242  151.2937 C   0  0  0  0  0  0  0  0  0  0  0  0
  144.2522  137.2158  151.9618 H   0  0  0  0  0  0  0  0  0  0  0  0
  145.6942  133.8357  153.6425 H   0  0  0  0  0  0  0  0  0  0  0  0
  147.1575  139.3808  151.7760 H   0  0  0  0  0  0  0  0  0  0  0  0
  145.5106  139.1925  151.1848 H   0  0  0  0  0  0  0  0  0  0  0  0
  146.7831  138.0868  150.6404 H   0  0  0  0  0  0  0  0  0  0  0  0
  144.9172  136.3864  154.4777 H   0  0  0  0  0  0  0  0  0  0  0  0
  144.0217  135.3378  153.4067 H   0  0  0  0  0  0  0  0  0  0  0  0
  147.9588  135.8264  154.0198 H   0  0  0  0  0  0  0  0  0  0  0  0
  146.8679  135.5742  155.3395 H   0  0  0  0  0  0  0  0  0  0  0  0
  148.5101  132.0834  153.8572 H   0  0  0  0  0  0  0  0  0  0  0  0
  149.7966  133.3039  153.8789 H   0  0  0  0  0  0  0  0  0  0  0  0
  148.4269  133.4763  152.7878 H   0  0  0  0  0  0  0  0  0  0  0  0
  148.8456  130.7635  157.7820 H   0  0  0  0  0  0  0  0  0  0  0  0
  147.0126  136.7840  159.1294 H   0  0  0  0  0  0  0  0  0  0  0  0
  147.0086  133.7290  161.1758 H   0  0  0  0  0  0  0  0  0  0  0  0
  148.5829  134.4766  161.2206 H   0  0  0  0  0  0  0  0  0  0  0  0
  147.1839  136.7433  161.0004 H   0  0  0  0  0  0  0  0  0  0  0  0
  147.0476  135.6496  163.7815 H   0  0  0  0  0  0  0  0  0  0  0  0
  148.5956  135.4713  162.9874 H   0  0  0  0  0  0  0  0  0  0  0  0
  147.6713  137.6211  164.0718 H   0  0  0  0  0  0  0  0  0  0  0  0
  144.9635  135.4769  160.8036 H   0  0  0  0  0  0  0  0  0  0  0  0
  144.9490  133.7587  162.4932 H   0  0  0  0  0  0  0  0  0  0  0  0
  145.4632  134.9078  163.7381 H   0  0  0  0  0  0  0  0  0  0  0  0
  142.8199  134.9170  162.2215 H   0  0  0  0  0  0  0  0  0  0  0  0
  143.0449  134.9137  163.9761 H   0  0  0  0  0  0  0  0  0  0  0  0
  145.3329  137.6659  162.8621 H   0  0  0  0  0  0  0  0  0  0  0  0
  144.3694  137.6796  161.3830 H   0  0  0  0  0  0  0  0  0  0  0  0
  145.8753  133.0441  151.3112 H   0  0  0  0  0  0  0  0  0  0  0  0
  147.4974  132.9562  152.0101 H   0  0  0  0  0  0  0  0  0  0  0  0
  147.2604  133.6992  150.4269 H   0  0  0  0  0  0  0  0  0  0  0  0
  144.9753  135.2694  150.8098 H   0  0  0  0  0  0  0  0  0  0  0  0
  146.3462  136.3375  150.5151 H   0  0  0  0  0  0  0  0  0  0  0  0
  147.5359  135.3287  152.1295 H   0  0  0  0  0  0  0  0  0  0  0  0
  1  2  1  0  0  0  0
  1 32  1  0  0  0  0
  1 33  1  0  0  0  0
  1 34  1  0  0  0  0
  2  3  1  0  0  0  0
  3 30  1  0  0  0  0
  3 29  1  0  0  0  0
  3  4  1  0  0  0  0
  4  5  1  0  0  0  0
  4 35  1  0  0  0  0
  4 36  1  0  0  0  0
  5 31  1  0  0  0  0
  5  6  1  0  0  0  0
  5 27  1  0  0  0  0
  6  7  1  0  0  0  0
  6 37  1  0  0  0  0
  6 38  1  0  0  0  0
  7  8  1  0  0  0  0
  7  9  1  0  0  0  0
  8 39  1  0  0  0  0
  8 40  1  0  0  0  0
  8 41  1  0  0  0  0
  9 14  1  0  0  0  0
  9 10  2  0  0  0  0
 10 11  1  0  0  0  0
 11 12  2  0  0  0  0
 11 42  1  0  0  0  0
 12 13  1  0  0  0  0
 13 17  1  0  0  0  0
 13 14  2  0  0  0  0
 14 15  1  0  0  0  0
 15 16  2  0  0  0  0
 16 17  1  0  0  0  0
 16 43  1  0  0  0  0
 17 18  1  0  0  0  0
 18 19  1  0  0  0  0
 18 44  1  0  0  0  0
 18 45  1  0  0  0  0
 19 20  1  0  0  0  0
 19 22  1  0  0  0  0
 19 46  1  0  0  0  0
 20 21  1  0  0  0  0
 20 47  1  0  0  0  0
 20 48  1  0  0  0  0
 21 49  1  0  0  0  0
 22 26  1  0  0  0  0
 22 23  1  0  0  0  0
 22 50  1  0  0  0  0
 23 24  1  0  0  0  0
 23 51  1  0  0  0  0
 23 52  1  0  0  0  0
 24 25  1  0  0  0  0
 24 53  1  0  0  0  0
 24 54  1  0  0  0  0
 25 26  1  0  0  0  0
 26 55  1  0  0  0  0
 26 56  1  0  0  0  0
 27 28  1  0  0  0  0
 27 29  1  0  0  0  0
 27 62  1  0  0  0  0
 28 57  1  0  0  0  0
 28 58  1  0  0  0  0
 28 59  1  0  0  0  0
 29 60  1  0  0  0  0
 29 61  1  0  0  0  0
M  CHG  1  27   1
M  END
> <s_m_source_file>
AV-unprocessed.smi

> <i_m_source_file_index>
21

> <i_lp_mmshare_version>
43012

> <i_f3d_flags>
0

> <s_epik_input>
W0NIM11PW0NASF0xW0NIMl1bQ0BIXShOKFtDSDNdKVtDSDJdMSlbQ0gyXU4oW0NIM10pYyhuW2NIXW4yKWMoYzIzKW5bY0hdbjNbQ0gyXVtDQEhdKFtDSDJdW09IXSlbQ0BASF00W0NIMl1bQ0gyXU9bQ0gyXTQ=

> <s_epik_cmdline>
J2VwaWtfcHl0aG9uJywgJy1waCcsICc3LjAnLCAnLXRuJywgJzgnLCAnLW1hJywgJzIwMCcsICctbWV0YWxfYmluZGluZycsICctaW1hZScsICc8aW5maWxlLm1hZT4nLCAnLW9tYWUnLCAnPG91dGZpbGUubWFlPic=

> <r_lp_tautomer_probability>
1

> <r_epik_Ionization_Penalty>
0.0157465

> <r_epik_Ionization_Penalty_Charging>
0.015354

> <r_epik_Ionization_Penalty_Neutral>
0.000392529

> <r_epik_State_Penalty>
0.0120612

> <r_epik_Charging_Adjusted_Penalty>
0.0274152

> <i_epik_Tot_Q>
1

> <i_epik_Tot_abs_Q>
1

> <r_epik_Metal_State_Penalty>
0.0121253

> <b_epik_Metal_Only>
0

> <s_lp_Force_Field>
OPLS_2005

> <r_lp_Energy>
58.7805

> <b_lp_Chiralities_Consistent>
1

> <s_lp_Variant>
AV-unprocessed.smi:21-28

> <Gold.Version>
5.8.1

> <Gold.Id.Protein>
6NUR|6NUR_protein|mol2

> <Gold.PLP.Fitness>
43.5851

> <Gold.PLP.PLP>
-38.7957

> <Gold.PLP.part.hbond>
-2.0000

> <Gold.PLP.part.metal>
0.0000

> <Gold.PLP.part.buried>
-5.8080

> <Gold.PLP.part.nonpolar>
-32.4504

> <Gold.PLP.part.repulsive>
0.3821

> <Gold.PLP.ligand.clash>
0.0000

> <Gold.PLP.ligand.torsion>
1.6503

> <Gold.PLP.Chemscore.Hbond>
2.5920

> <Gold.PLP.Chemscore.CHOScore>
0.0000

> <Gold.PLP.Chemscore.Metal>
0.0000

> <Gold.Chemscore.Hbonds>
donor molecule, donor type, donor heavy atom, donor atom, acceptor molecule, acceptor atom, score
      L1  H    27    62       P1  7948  2.00
      P1  H  6931  6943       L1    21  0.53

> <Gold.PLP.Chemscore.Internal.Correction>
0.3140

> <Gold.Rescore>
     Score         DG    S(hbond)    S(metal)    S(lipo)     H(rot)  DE(clash)    DE(int)     intcor
     10.90     -13.62       1.72        0.00      87.71       3.08       0.06       2.67       ----

> <Gold.Chemscore.Fitness>
10.8964

> <Gold.Chemscore.DG>
-13.6239

> <Gold.Chemscore.ZeroCoef>
-5.4800

> <Gold.Chemscore.Hbond>
1.7232

> <Gold.Chemscore.Metal>
0.0000

> <Gold.Chemscore.Lipo>
87.7146

> <Gold.Chemscore.Internal_Hbond>
0.0000

> <Gold.Chemscore.DEClash>
0.0584

> <Gold.Chemscore.DEInternal>
2.6690

> <Gold.Chemscore.Rot>
3.0758

> <Gold.Chemscore.Internal.Correction>
   9.000000E+99

> <Gold.Chemscore.Hbonds>
donor molecule, donor type, donor heavy atom, donor atom, acceptor molecule, acceptor atom, score
      L1  H    27    62       P1  7948  0.99
      P1  H  6931  6943       L1    21  0.50

> <Gold.Chemscore.Hbond.Weighted>
-5.7554

> <Gold.Chemscore.Metal.Weighted>
-0.0000

> <Gold.Chemscore.Lipo.Weighted>
-10.2626

> <Gold.Chemscore.Internal_Hbond.Weighted>
0.0000

> <Gold.Chemscore.DEClash.Weighted>
0.0584

> <Gold.Chemscore.DEInternal.Weighted>
2.6690

> <Gold.Chemscore.Rot.Weighted>
7.8741

> <Gold.Chemscore.Internal.Correction.Weighted>
   9.000000E+99

> <Gold.Protein.RotatedTorsions>
[ 6907 6896 6895 6894 ] final  -52.36 input  -60.11 | X-H torsion
[ 7974 7965 7964 7962 ] final   19.23 input  175.53 | X-H torsion
[ 8008 7997 7996 7995 ] final  122.36 input   59.86 | X-H torsion
[ 10167 10162 10161 10158 ] final -156.52 input  -65.29 | X-H torsion
[ 10718 10713 10712 10709 ] final -169.32 input   66.30 | X-H torsion
[ 10763 10752 10751 10750 ] final  -95.68 input  -60.55 | X-H torsion
[ 11005 11000 10999 10996 ] final  143.94 input  -57.11 | X-H torsion

> <Gold.Protein.ActiveResidues>
 VAL166  LYS551  ARG553  GLY616  TRP617  ASP618  TYR619  PRO620  LYS621  CYS622 
 ASP623  PHE694  ASN695  SER759  ASP760  ASP761  ALA762  ILE779  LEU786  VAL792 
 PHE793  MET794  SER795  GLU796  ALA797  LYS798  CYS799  TRP800  GLU811  SER814 

> <Gold.Protein.RotatedAtoms>
  150.8525  134.7855  159.7019 H   0  0  0  0  0  0  0  0  0  0  0  0  # atno 6907 bound_to 6896
  152.4586  134.5232  159.9798 H   0  0  0  0  0  0  0  0  0  0  0  0  # atno 6908 bound_to 6896
  151.5350  133.3404  159.2961 H   0  0  0  0  0  0  0  0  0  0  0  0  # atno 6909 bound_to 6896
  146.2156  139.8342  142.8654 H   0  0  0  0  0  0  0  0  0  0  0  0  # atno 7974 bound_to 7965
  156.2724  140.2787  156.1455 H   0  0  0  0  0  0  0  0  0  0  0  0  # atno 8008 bound_to 7997
  155.0908  140.0388  157.2685 H   0  0  0  0  0  0  0  0  0  0  0  0  # atno 8009 bound_to 7997
  154.6891  140.2625  155.6836 H   0  0  0  0  0  0  0  0  0  0  0  0  # atno 8010 bound_to 7997
  139.6843  143.9527  152.2353 H   0  0  0  0  0  0  0  0  0  0  0  0  # atno 10167 bound_to 10162
  156.7099  130.9229  151.3088 H   0  0  0  0  0  0  0  0  0  0  0  0  # atno 10718 bound_to 10713
  154.7170  135.5111  153.8754 H   0  0  0  0  0  0  0  0  0  0  0  0  # atno 10763 bound_to 10752
  153.0829  135.6637  154.0016 H   0  0  0  0  0  0  0  0  0  0  0  0  # atno 10764 bound_to 10752
  153.9847  135.3025  155.3396 H   0  0  0  0  0  0  0  0  0  0  0  0  # atno 10765 bound_to 10752
  140.0593  134.9213  157.1156 H   0  0  0  0  0  0  0  0  0  0  0  0  # atno 11005 bound_to 11000
  145.2965  141.0182  143.3633 LP  0  0  0  0  0  0  0  0  0  0  0  0  # atno 17320 bound_to 7965
  144.9038  139.4616  143.6620 LP  0  0  0  0  0  0  0  0  0  0  0  0  # atno 17321 bound_to 7965
  139.9326  144.6732  150.8347 LP  0  0  0  0  0  0  0  0  0  0  0  0  # atno 17342 bound_to 10162
  140.7662  143.3298  151.2435 LP  0  0  0  0  0  0  0  0  0  0  0  0  # atno 17343 bound_to 10162
  157.6940  130.9263  150.0593 LP  0  0  0  0  0  0  0  0  0  0  0  0  # atno 17370 bound_to 10713
  156.1669  130.3645  149.9220 LP  0  0  0  0  0  0  0  0  0  0  0  0  # atno 17371 bound_to 10713
  140.3795  134.2303  155.7172 LP  0  0  0  0  0  0  0  0  0  0  0  0  # atno 17394 bound_to 11000
  141.1966  133.8078  157.0664 LP  0  0  0  0  0  0  0  0  0  0  0  0  # atno 17395 bound_to 11000

$$$$
