AV-unprocessed.smi:798|AV-procd|sdf|3782|dock1
  -GOLD-   22720 1213D 1   1.00000     0.00000
 Structure written by MMmdl.
 33 35  0  0  0  0  0  0  0  0  2 V2000
  149.3837  137.9268  159.3662 O   0  0  0  0  0  0  0  0  0  0  0  0
  148.5018  137.6336  158.5559 C   0  0  0  0  0  0  0  0  0  0  0  0
  147.3571  136.9646  158.8234 N   0  5  0  0  0  0  0  0  0  0  0  0
  147.0335  136.6629  160.0917 C   0  0  0  0  0  0  0  0  0  0  0  0
  147.6744  137.1987  161.1430 N   0  0  0  0  0  0  0  0  0  0  0  0
  147.1935  136.7460  162.3643 N   0  0  0  0  0  0  0  0  0  0  0  0
  146.2019  135.8704  162.2018 C   0  0  0  0  0  0  0  0  0  0  0  0
  145.7668  135.5180  160.5429 S   0  0  0  0  0  0  0  0  0  0  0  0
  148.6294  137.9880  157.2696 N   0  0  0  0  0  0  0  0  0  0  0  0
  149.7471  138.7299  156.6893 C   0  0  1  0  0  0  0  0  0  0  0  0
  151.0280  137.8667  156.6992 C   0  0  2  0  0  0  0  0  0  0  0  0
  152.2447  138.7792  156.4604 C   0  0  0  0  0  0  0  0  0  0  0  0
  152.1095  139.1306  154.9671 C   0  0  0  0  0  0  0  0  0  0  0  0
  150.8193  138.3904  154.5527 C   0  0  1  0  0  0  0  0  0  0  0  0
  150.9420  137.1139  155.3746 C   0  0  0  0  0  0  0  0  0  0  0  0
  149.5534  139.0271  155.1795 C   0  0  2  0  0  0  0  0  0  0  0  0
  149.3112  140.5149  154.8577 C   0  0  0  0  0  0  0  0  0  0  0  0
  149.7604  140.8198  153.5542 O   0  0  0  0  0  0  0  0  0  0  0  0
  145.7264  135.4268  163.0634 H   0  0  0  0  0  0  0  0  0  0  0  0
  147.8833  137.7259  156.6424 H   0  0  0  0  0  0  0  0  0  0  0  0
  149.9074  139.6419  157.2675 H   0  0  0  0  0  0  0  0  0  0  0  0
  151.1320  137.2368  157.5836 H   0  0  0  0  0  0  0  0  0  0  0  0
  152.2368  139.6625  157.1000 H   0  0  0  0  0  0  0  0  0  0  0  0
  153.1761  138.2423  156.6444 H   0  0  0  0  0  0  0  0  0  0  0  0
  152.0725  140.2037  154.7853 H   0  0  0  0  0  0  0  0  0  0  0  0
  152.9635  138.7413  154.4115 H   0  0  0  0  0  0  0  0  0  0  0  0
  150.7367  138.2283  153.4775 H   0  0  0  0  0  0  0  0  0  0  0  0
  151.8380  136.5338  155.1470 H   0  0  0  0  0  0  0  0  0  0  0  0
  150.0689  136.4631  155.3007 H   0  0  0  0  0  0  0  0  0  0  0  0
  148.6901  138.4683  154.8118 H   0  0  0  0  0  0  0  0  0  0  0  0
  148.2455  140.7370  154.9113 H   0  0  0  0  0  0  0  0  0  0  0  0
  149.8002  141.1724  155.5756 H   0  0  0  0  0  0  0  0  0  0  0  0
  149.5118  140.1125  152.9791 H   0  0  0  0  0  0  0  0  0  0  0  0
  1  2  2  0  0  0  0
  2  3  1  0  0  0  0
  2  9  1  0  0  0  0
  3  4  1  0  0  0  0
  4  8  1  0  0  0  0
  4  5  2  0  0  0  0
  5  6  1  0  0  0  0
  6  7  2  0  0  0  0
  7  8  1  0  0  0  0
  7 19  1  0  0  0  0
  9 10  1  0  0  0  0
  9 20  1  0  0  0  0
 10 16  1  0  0  0  0
 10 11  1  0  0  0  0
 10 21  1  0  0  0  0
 11 15  1  0  0  0  0
 11 12  1  0  0  0  0
 11 22  1  0  0  0  0
 12 13  1  0  0  0  0
 12 23  1  0  0  0  0
 12 24  1  0  0  0  0
 13 14  1  0  0  0  0
 13 25  1  0  0  0  0
 13 26  1  0  0  0  0
 14 15  1  0  0  0  0
 14 16  1  0  0  0  0
 14 27  1  0  0  0  0
 15 28  1  0  0  0  0
 15 29  1  0  0  0  0
 16 17  1  0  0  0  0
 16 30  1  0  0  0  0
 17 18  1  0  0  0  0
 17 31  1  0  0  0  0
 17 32  1  0  0  0  0
 18 33  1  0  0  0  0
M  CHG  1   3  -1
M  END
> <s_m_source_file>
AV-unprocessed.smi

> <i_m_source_file_index>
798

> <i_lp_mmshare_version>
43012

> <i_f3d_flags>
0

> <s_epik_input>
W0NIMl0xW0NIMl1bQ0BASF0oW0NIMl0yKVtDQEBIXShbQ0gyXVtPSF0pW0NAQEhdKFtDQEhdMTIpW05IXUMoPU8pW05IXWMzbm5bY0hdczM=

> <s_epik_cmdline>
J2VwaWtfcHl0aG9uJywgJy1waCcsICc3LjAnLCAnLXRuJywgJzgnLCAnLW1hJywgJzIwMCcsICctbWV0YWxfYmluZGluZycsICctaW1hZScsICc8aW5maWxlLm1hZT4nLCAnLW9tYWUnLCAnPG91dGZpbGUubWFlPic=

> <r_lp_tautomer_probability>
1

> <r_epik_Ionization_Penalty>
4.53732

> <r_epik_Ionization_Penalty_Charging>
4.48632

> <r_epik_Ionization_Penalty_Neutral>
0.0510007

> <r_epik_State_Penalty>
4.48602

> <r_epik_Charging_Adjusted_Penalty>
8.97234

> <i_epik_Tot_Q>
-1

> <i_epik_Tot_abs_Q>
1

> <r_epik_Metal_State_Penalty>
0.812492

> <b_epik_Metal_Only>
1

> <s_lp_Force_Field>
OPLS_2005

> <r_lp_Energy>
47.3152

> <b_lp_Chiralities_Consistent>
1

> <s_lp_Variant>
AV-unprocessed.smi:798-14

> <Gold.Version>
5.8.1

> <Gold.Id.Protein>
6NUR|6NUR_protein|mol2

> <Gold.PLP.Fitness>
34.5310

> <Gold.PLP.PLP>
-24.7554

> <Gold.PLP.part.hbond>
-6.1180

> <Gold.PLP.part.metal>
0.0000

> <Gold.PLP.part.buried>
-3.4561

> <Gold.PLP.part.nonpolar>
-15.3374

> <Gold.PLP.part.repulsive>
0.0293

> <Gold.PLP.ligand.clash>
0.0000

> <Gold.PLP.ligand.torsion>
0.3991

> <Gold.PLP.Chemscore.Hbond>
3.5160

> <Gold.PLP.Chemscore.CHOScore>
0.0000

> <Gold.PLP.Chemscore.Metal>
0.0000

> <Gold.Chemscore.Hbonds>
donor molecule, donor type, donor heavy atom, donor atom, acceptor molecule, acceptor atom, score
      L1  H    18    33       P1  7957  0.56
      P1  H  6931  6943       L1     5  0.70
      P1  H  6934  6947       L1     5  0.88
      P1  H  7989  7998       L1    18  0.37
      P1  H  8011  8017       L1    18  1.00

> <Gold.PLP.Chemscore.Internal.Correction>
0.0258

> <Gold.Rescore>
     Score         DG    S(hbond)    S(metal)    S(lipo)     H(rot)  DE(clash)    DE(int)     intcor
     11.61     -13.71       2.02        0.00      54.59       1.92       0.03       2.06       ----

> <Gold.Chemscore.Fitness>
11.6139

> <Gold.Chemscore.DG>
-13.7091

> <Gold.Chemscore.ZeroCoef>
-5.4800

> <Gold.Chemscore.Hbond>
2.0236

> <Gold.Chemscore.Metal>
0.0000

> <Gold.Chemscore.Lipo>
54.5925

> <Gold.Chemscore.Internal_Hbond>
0.0000

> <Gold.Chemscore.DEClash>
0.0310

> <Gold.Chemscore.DEInternal>
2.0642

> <Gold.Chemscore.Rot>
1.9207

> <Gold.Chemscore.Internal.Correction>
   9.000000E+99

> <Gold.Chemscore.Hbonds>
donor molecule, donor type, donor heavy atom, donor atom, acceptor molecule, acceptor atom, score
      L1  H    18    33       P1  7957  0.56
      P1  H  6931  6943       L1     5  0.08
      P1  H  6934  6947       L1     5  0.15
      P1  H  7989  7998       L1    18  0.15
      P1  H  8011  8017       L1    18  0.37

> <Gold.Chemscore.Hbond.Weighted>
-6.7587

> <Gold.Chemscore.Metal.Weighted>
-0.0000

> <Gold.Chemscore.Lipo.Weighted>
-6.3873

> <Gold.Chemscore.Internal_Hbond.Weighted>
0.0000

> <Gold.Chemscore.DEClash.Weighted>
0.0310

> <Gold.Chemscore.DEInternal.Weighted>
2.0642

> <Gold.Chemscore.Rot.Weighted>
4.9169

> <Gold.Chemscore.Internal.Correction.Weighted>
   9.000000E+99

> <Gold.Protein.RotatedTorsions>
[ 6907 6896 6895 6894 ] final  167.95 input  -60.11 | X-H torsion
[ 7974 7965 7964 7962 ] final  -62.07 input  175.53 | X-H torsion
[ 8008 7997 7996 7995 ] final  -88.30 input   59.86 | X-H torsion
[ 10167 10162 10161 10158 ] final   80.10 input  -65.29 | X-H torsion
[ 10718 10713 10712 10709 ] final   10.34 input   66.30 | X-H torsion
[ 10763 10752 10751 10750 ] final   30.58 input  -60.55 | X-H torsion
[ 11005 11000 10999 10996 ] final  146.59 input  -57.11 | X-H torsion

> <Gold.Protein.ActiveResidues>
 VAL166  LYS551  ARG553  GLY616  TRP617  ASP618  TYR619  PRO620  LYS621  CYS622 
 ASP623  PHE694  ASN695  SER759  ASP760  ASP761  ALA762  ILE779  LEU786  VAL792 
 PHE793  MET794  SER795  GLU796  ALA797  LYS798  CYS799  TRP800  GLU811  SER814 

> <Gold.Protein.RotatedAtoms>
  151.8552  133.3447  159.3685 H   0  0  0  0  0  0  0  0  0  0  0  0  # atno 6907 bound_to 6896
  150.7195  134.5260  159.5686 H   0  0  0  0  0  0  0  0  0  0  0  0  # atno 6908 bound_to 6896
  152.2762  134.7880  160.0456 H   0  0  0  0  0  0  0  0  0  0  0  0  # atno 6909 bound_to 6896
  145.7958  140.8683  143.0257 H   0  0  0  0  0  0  0  0  0  0  0  0  # atno 7974 bound_to 7965
  154.6732  140.0555  157.0187 H   0  0  0  0  0  0  0  0  0  0  0  0  # atno 8008 bound_to 7997
  155.1059  140.3233  155.4516 H   0  0  0  0  0  0  0  0  0  0  0  0  # atno 8009 bound_to 7997
  156.2665  140.2023  156.6184 H   0  0  0  0  0  0  0  0  0  0  0  0  # atno 8010 bound_to 7997
  139.9533  144.6011  150.8140 H   0  0  0  0  0  0  0  0  0  0  0  0  # atno 10167 bound_to 10162
  156.9796  130.6000  149.5675 H   0  0  0  0  0  0  0  0  0  0  0  0  # atno 10718 bound_to 10713
  153.0364  135.6460  154.1066 H   0  0  0  0  0  0  0  0  0  0  0  0  # atno 10763 bound_to 10752
  154.0780  135.2875  155.3297 H   0  0  0  0  0  0  0  0  0  0  0  0  # atno 10764 bound_to 10752
  154.6549  135.5412  153.8011 H   0  0  0  0  0  0  0  0  0  0  0  0  # atno 10765 bound_to 10752
  140.0806  134.9099  157.1494 H   0  0  0  0  0  0  0  0  0  0  0  0  # atno 11005 bound_to 11000
  144.6775  140.0189  143.7484 LP  0  0  0  0  0  0  0  0  0  0  0  0  # atno 17320 bound_to 7965
  145.9929  139.3029  143.0974 LP  0  0  0  0  0  0  0  0  0  0  0  0  # atno 17321 bound_to 7965
  140.7576  143.3090  151.2892 LP  0  0  0  0  0  0  0  0  0  0  0  0  # atno 17342 bound_to 10162
  139.6611  144.0187  152.2693 LP  0  0  0  0  0  0  0  0  0  0  0  0  # atno 17343 bound_to 10162
  156.0250  130.5344  150.8380 LP  0  0  0  0  0  0  0  0  0  0  0  0  # atno 17370 bound_to 10713
  157.5535  131.0944  150.9661 LP  0  0  0  0  0  0  0  0  0  0  0  0  # atno 17371 bound_to 10713
  140.3494  134.2616  155.7200 LP  0  0  0  0  0  0  0  0  0  0  0  0  # atno 17394 bound_to 11000
  141.2045  133.7884  157.0283 LP  0  0  0  0  0  0  0  0  0  0  0  0  # atno 17395 bound_to 11000

$$$$
