AV-unprocessed.smi:1264|AV-procd|sdf|5313|dock8
  -GOLD-   22720 4443D 1   1.00000     0.00000
 Structure written by MMmdl.
 43 43  0  0  0  0  0  0  0  0  1 V2000
  150.5594  137.9889  158.6098 C   0  0  0  0  0  0  0  0  0  0  0  0
  150.7068  139.4052  158.3123 N   0  0  0  0  0  0  0  0  0  0  0  0
  151.8251  139.9600  157.8236 C   0  0  0  0  0  0  0  0  0  0  0  0
  152.8419  139.3108  157.5709 O   0  0  0  0  0  0  0  0  0  0  0  0
  151.7757  141.4753  157.5628 C   0  0  2  0  0  0  0  0  0  0  0  0
  151.4644  142.1749  158.9074 C   0  0  0  0  0  0  0  0  0  0  0  0
  152.4967  143.2356  159.3541 C   0  0  0  0  0  0  0  0  0  0  0  0
  152.2325  143.7535  160.7780 C   0  0  0  0  0  0  0  0  0  0  0  0
  152.5326  144.4045  158.3576 C   0  0  0  0  0  0  0  0  0  0  0  0
  150.7030  141.7758  156.6158 N   0  0  0  0  0  0  0  0  0  0  0  0
  150.4620  141.1065  155.4779 C   0  0  0  0  0  0  0  0  0  0  0  0
  151.1584  140.1740  155.0770 O   0  0  0  0  0  0  0  0  0  0  0  0
  149.2366  141.5455  154.6781 C   0  0  0  0  0  0  0  0  0  0  0  0
  148.0179  140.8289  155.1998 C   0  0  0  0  0  0  0  0  0  0  0  0
  147.4441  140.8907  156.5034 C   0  0  0  0  0  0  0  0  0  0  0  0
  147.8975  141.6789  157.6988 C   0  0  0  0  0  0  0  0  0  0  0  0
  146.3735  140.1217  156.6077 N   0  0  0  0  0  0  0  0  0  0  0  0
  146.2097  139.5192  155.3569 O   0  0  0  0  0  0  0  0  0  0  0  0
  147.2018  139.9527  154.5389 C   0  0  0  0  0  0  0  0  0  0  0  0
  147.2066  139.4129  153.1490 C   0  0  0  0  0  0  0  0  0  0  0  0
  149.5720  137.7982  159.0297 H   0  0  0  0  0  0  0  0  0  0  0  0
  151.3068  137.6636  159.3345 H   0  0  0  0  0  0  0  0  0  0  0  0
  150.6677  137.3898  157.7048 H   0  0  0  0  0  0  0  0  0  0  0  0
  149.9123  140.0020  158.4921 H   0  0  0  0  0  0  0  0  0  0  0  0
  152.7383  141.8090  157.1717 H   0  0  0  0  0  0  0  0  0  0  0  0
  150.4838  142.6504  158.8428 H   0  0  0  0  0  0  0  0  0  0  0  0
  151.3767  141.4240  159.6947 H   0  0  0  0  0  0  0  0  0  0  0  0
  153.4889  142.7831  159.3447 H   0  0  0  0  0  0  0  0  0  0  0  0
  151.2318  144.1772  160.8670 H   0  0  0  0  0  0  0  0  0  0  0  0
  152.9470  144.5309  161.0502 H   0  0  0  0  0  0  0  0  0  0  0  0
  152.3284  142.9604  161.5192 H   0  0  0  0  0  0  0  0  0  0  0  0
  151.5711  144.9172  158.3129 H   0  0  0  0  0  0  0  0  0  0  0  0
  152.7723  144.0582  157.3520 H   0  0  0  0  0  0  0  0  0  0  0  0
  153.2881  145.1390  158.6386 H   0  0  0  0  0  0  0  0  0  0  0  0
  150.0724  142.5226  156.8685 H   0  0  0  0  0  0  0  0  0  0  0  0
  149.1205  142.6282  154.7392 H   0  0  0  0  0  0  0  0  0  0  0  0
  149.4098  141.3218  153.6247 H   0  0  0  0  0  0  0  0  0  0  0  0
  148.6502  142.4189  157.4283 H   0  0  0  0  0  0  0  0  0  0  0  0
  148.3337  141.0252  158.4544 H   0  0  0  0  0  0  0  0  0  0  0  0
  147.0643  142.2105  158.1595 H   0  0  0  0  0  0  0  0  0  0  0  0
  148.2260  139.3046  152.7778 H   0  0  0  0  0  0  0  0  0  0  0  0
  146.6698  140.0807  152.4751 H   0  0  0  0  0  0  0  0  0  0  0  0
  146.7293  138.4335  153.1081 H   0  0  0  0  0  0  0  0  0  0  0  0
  1  2  1  0  0  0  0
  1 21  1  0  0  0  0
  1 22  1  0  0  0  0
  1 23  1  0  0  0  0
  2  3  1  0  0  0  0
  2 24  1  0  0  0  0
  3  4  2  0  0  0  0
  3  5  1  0  0  0  0
  5  6  1  0  0  0  0
  5 10  1  0  0  0  0
  5 25  1  0  0  0  0
  6  7  1  0  0  0  0
  6 26  1  0  0  0  0
  6 27  1  0  0  0  0
  7  8  1  0  0  0  0
  7  9  1  0  0  0  0
  7 28  1  0  0  0  0
  8 29  1  0  0  0  0
  8 30  1  0  0  0  0
  8 31  1  0  0  0  0
  9 32  1  0  0  0  0
  9 33  1  0  0  0  0
  9 34  1  0  0  0  0
 10 11  1  0  0  0  0
 10 35  1  0  0  0  0
 11 12  2  0  0  0  0
 11 13  1  0  0  0  0
 13 14  1  0  0  0  0
 13 36  1  0  0  0  0
 13 37  1  0  0  0  0
 14 19  2  0  0  0  0
 14 15  1  0  0  0  0
 15 16  1  0  0  0  0
 15 17  2  0  0  0  0
 16 38  1  0  0  0  0
 16 39  1  0  0  0  0
 16 40  1  0  0  0  0
 17 18  1  0  0  0  0
 18 19  1  0  0  0  0
 19 20  1  0  0  0  0
 20 41  1  0  0  0  0
 20 42  1  0  0  0  0
 20 43  1  0  0  0  0
M  END
> <s_m_source_file>
AV-unprocessed.smi

> <i_m_source_file_index>
1264

> <i_lp_mmshare_version>
43012

> <i_f3d_flags>
0

> <s_epik_input>
W0NIM11bTkhdQyg9TylbQ0BIXShbQ0gyXVtDSF0oW0NIM10pW0NIM10pW05IXUMoPU8pW0NIMl1jMWMoW0NIM10pbm9jMVtDSDNd

> <s_epik_cmdline>
J2VwaWtfcHl0aG9uJywgJy1waCcsICc3LjAnLCAnLXRuJywgJzgnLCAnLW1hJywgJzIwMCcsICctbWV0YWxfYmluZGluZycsICctaW1hZScsICc8aW5maWxlLm1hZT4nLCAnLW9tYWUnLCAnPG91dGZpbGUubWFlPic=

> <r_lp_tautomer_probability>
1

> <r_epik_Ionization_Penalty>
6.00781e-08

> <r_epik_Ionization_Penalty_Charging>
0

> <r_epik_Ionization_Penalty_Neutral>
6.00781e-08

> <r_epik_State_Penalty>
-0

> <r_epik_Charging_Adjusted_Penalty>
0

> <i_epik_Tot_Q>
0

> <i_epik_Tot_abs_Q>
0

> <r_epik_Metal_State_Penalty>
-0

> <b_epik_Metal_Only>
0

> <s_lp_Force_Field>
OPLS_2005

> <r_lp_Energy>
-0.565017

> <b_lp_Chiralities_Consistent>
1

> <s_lp_Variant>
AV-unprocessed.smi:1264-1

> <Gold.Version>
5.8.1

> <Gold.Id.Protein>
6NUR|6NUR_protein|mol2

> <Gold.PLP.Fitness>
37.1337

> <Gold.PLP.PLP>
-33.7061

> <Gold.PLP.part.hbond>
-2.0000

> <Gold.PLP.part.metal>
0.0000

> <Gold.PLP.part.buried>
-4.6394

> <Gold.PLP.part.nonpolar>
-26.9923

> <Gold.PLP.part.repulsive>
0.2986

> <Gold.PLP.ligand.clash>
0.0000

> <Gold.PLP.ligand.torsion>
1.3288

> <Gold.PLP.Chemscore.Hbond>
2.0000

> <Gold.PLP.Chemscore.CHOScore>
0.0000

> <Gold.PLP.Chemscore.Metal>
0.0000

> <Gold.Chemscore.Hbonds>
donor molecule, donor type, donor heavy atom, donor atom, acceptor molecule, acceptor atom, score
      P1  H  7989  7998       L1    12  0.90
      P1  H  7997  8010       L1     4  1.00

> <Gold.PLP.Chemscore.Internal.Correction>
0.0853

> <Gold.Rescore>
     Score         DG    S(hbond)    S(metal)    S(lipo)     H(rot)  DE(clash)    DE(int)     intcor
     13.62     -16.26       1.94        0.00      82.52       2.09       0.11       2.54       ----

> <Gold.Chemscore.Fitness>
13.6164

> <Gold.Chemscore.DG>
-16.2625

> <Gold.Chemscore.ZeroCoef>
-5.4800

> <Gold.Chemscore.Hbond>
1.9418

> <Gold.Chemscore.Metal>
0.0000

> <Gold.Chemscore.Lipo>
82.5245

> <Gold.Chemscore.Internal_Hbond>
0.0000

> <Gold.Chemscore.DEClash>
0.1075

> <Gold.Chemscore.DEInternal>
2.5386

> <Gold.Chemscore.Rot>
2.0931

> <Gold.Chemscore.Internal.Correction>
   9.000000E+99

> <Gold.Chemscore.Hbonds>
donor molecule, donor type, donor heavy atom, donor atom, acceptor molecule, acceptor atom, score
      P1  H  7989  7998       L1    12  0.18
      P1  H  7997  8010       L1     4  0.99

> <Gold.Chemscore.Hbond.Weighted>
-6.4855

> <Gold.Chemscore.Metal.Weighted>
-0.0000

> <Gold.Chemscore.Lipo.Weighted>
-9.6554

> <Gold.Chemscore.Internal_Hbond.Weighted>
0.0000

> <Gold.Chemscore.DEClash.Weighted>
0.1075

> <Gold.Chemscore.DEInternal.Weighted>
2.5386

> <Gold.Chemscore.Rot.Weighted>
5.3584

> <Gold.Chemscore.Internal.Correction.Weighted>
   9.000000E+99

> <Gold.Protein.RotatedTorsions>
[ 6907 6896 6895 6894 ] final  102.46 input  -60.11 | X-H torsion
[ 7974 7965 7964 7962 ] final  165.68 input  175.53 | X-H torsion
[ 8008 7997 7996 7995 ] final   43.30 input   59.86 | X-H torsion
[ 10167 10162 10161 10158 ] final  168.35 input  -65.29 | X-H torsion
[ 10718 10713 10712 10709 ] final -174.25 input   66.30 | X-H torsion
[ 10763 10752 10751 10750 ] final  129.97 input  -60.55 | X-H torsion
[ 11005 11000 10999 10996 ] final   99.57 input  -57.11 | X-H torsion

> <Gold.Protein.ActiveResidues>
 VAL166  LYS551  ARG553  GLY616  TRP617  ASP618  TYR619  PRO620  LYS621  CYS622 
 ASP623  PHE694  ASN695  SER759  ASP760  ASP761  ALA762  ILE779  LEU786  VAL792 
 PHE793  MET794  SER795  GLU796  ALA797  LYS798  CYS799  TRP800  GLU811  SER814 

> <Gold.Protein.RotatedAtoms>
  152.5323  133.9972  159.7877 H   0  0  0  0  0  0  0  0  0  0  0  0  # atno 6907 bound_to 6896
  151.0197  133.5880  159.2680 H   0  0  0  0  0  0  0  0  0  0  0  0  # atno 6908 bound_to 6896
  151.2924  135.0752  159.9262 H   0  0  0  0  0  0  0  0  0  0  0  0  # atno 6909 bound_to 6896
  144.7493  139.8505  143.6371 H   0  0  0  0  0  0  0  0  0  0  0  0  # atno 7974 bound_to 7965
  155.3004  140.3384  155.4248 H   0  0  0  0  0  0  0  0  0  0  0  0  # atno 8008 bound_to 7997
  156.2004  140.1730  156.7950 H   0  0  0  0  0  0  0  0  0  0  0  0  # atno 8009 bound_to 7997
  154.5552  140.0698  156.8715 H   0  0  0  0  0  0  0  0  0  0  0  0  # atno 8010 bound_to 7997
  139.4966  144.3823  151.9608 H   0  0  0  0  0  0  0  0  0  0  0  0  # atno 10167 bound_to 10162
  156.7823  130.9488  151.3120 H   0  0  0  0  0  0  0  0  0  0  0  0  # atno 10718 bound_to 10713
  153.7504  135.3210  155.3320 H   0  0  0  0  0  0  0  0  0  0  0  0  # atno 10763 bound_to 10752
  154.8265  135.4566  154.0937 H   0  0  0  0  0  0  0  0  0  0  0  0  # atno 10764 bound_to 10752
  153.2138  135.6939  153.8164 H   0  0  0  0  0  0  0  0  0  0  0  0  # atno 10765 bound_to 10752
  139.8771  134.9101  156.4625 H   0  0  0  0  0  0  0  0  0  0  0  0  # atno 11005 bound_to 11000
  146.1419  139.4478  143.0103 LP  0  0  0  0  0  0  0  0  0  0  0  0  # atno 17320 bound_to 7965
  145.7005  141.0137  143.1507 LP  0  0  0  0  0  0  0  0  0  0  0  0  # atno 17321 bound_to 7965
  140.3260  144.3372  150.5998 LP  0  0  0  0  0  0  0  0  0  0  0  0  # atno 17342 bound_to 10162
  140.5684  143.2183  151.7643 LP  0  0  0  0  0  0  0  0  0  0  0  0  # atno 17343 bound_to 10162
  157.6640  130.8991  149.9892 LP  0  0  0  0  0  0  0  0  0  0  0  0  # atno 17370 bound_to 10713
  156.1210  130.3646  149.9887 LP  0  0  0  0  0  0  0  0  0  0  0  0  # atno 17371 bound_to 10713
  140.8854  133.7887  155.9512 LP  0  0  0  0  0  0  0  0  0  0  0  0  # atno 17394 bound_to 11000
  140.8810  134.2611  157.5144 LP  0  0  0  0  0  0  0  0  0  0  0  0  # atno 17395 bound_to 11000

$$$$
