AV-unprocessed.smi:1591|AV-procd|sdf|6400|dock6
  -GOLD-   22720 7 33D 1   1.00000     0.00000
 Structure written by MMmdl.
 51 54  0  0  0  0  0  0  0  0  2 V2000
  148.9651  132.3911  153.8099 C   0  0  0  0  0  0  0  0  0  0  0  0
  147.6608  131.7722  154.3373 C   0  0  0  0  0  0  0  0  0  0  0  0
  146.4191  132.6886  154.1878 C   0  0  1  0  0  0  0  0  0  0  0  0
  146.7429  134.0171  154.7149 N   0  0  0  0  0  0  0  0  0  0  0  0
  147.1198  134.3064  155.9704 C   0  0  0  0  0  0  0  0  0  0  0  0
  147.1948  133.4714  156.8714 O   0  0  0  0  0  0  0  0  0  0  0  0
  147.4627  135.7731  156.2456 C   0  0  0  0  0  0  0  0  0  0  0  0
  147.7553  135.9907  157.6702 N   0  0  0  0  0  0  0  0  0  0  0  0
  146.6587  136.1771  158.5306 C   0  0  0  0  0  0  0  0  0  0  0  0
  146.8181  136.4060  159.8477 C   0  0  0  0  0  0  0  0  0  0  0  0
  148.1740  136.4601  160.3788 C   0  0  0  0  0  0  0  0  0  0  0  0
  148.3388  136.6683  161.5792 O   0  0  0  0  0  0  0  0  0  0  0  0
  149.2059  136.2744  159.5045 N   0  5  0  0  0  0  0  0  0  0  0  0
  149.0285  136.0427  158.1663 C   0  0  0  0  0  0  0  0  0  0  0  0
  149.9751  135.8793  157.3965 O   0  0  0  0  0  0  0  0  0  0  0  0
  145.8362  132.7990  152.7392 C   0  0  0  0  0  0  0  0  0  0  0  0
  145.3079  131.4059  152.2803 C   0  0  0  0  0  0  0  0  0  0  0  0
  144.7389  131.4705  150.8481 C   0  0  1  0  0  0  0  0  0  0  0  0
  143.5730  132.4790  150.8048 C   0  0  0  0  0  0  0  0  0  0  0  0
  144.0921  133.8713  151.2179 C   0  0  2  0  0  0  0  0  0  0  0  0
  145.1996  134.3191  150.2419 C   0  0  0  0  0  0  0  0  0  0  0  0
  146.3589  133.3025  150.2891 C   0  0  2  0  0  0  0  0  0  0  0  0
  145.8471  131.9103  149.8718 C   0  0  0  0  0  0  0  0  0  0  0  0
  146.9293  133.2402  151.7222 C   0  0  0  0  0  0  0  0  0  0  0  0
  144.6568  133.8115  152.6542 C   0  0  0  0  0  0  0  0  0  0  0  0
  149.8140  131.7408  154.0218 H   0  0  0  0  0  0  0  0  0  0  0  0
  149.1607  133.3557  154.2793 H   0  0  0  0  0  0  0  0  0  0  0  0
  148.9347  132.5430  152.7306 H   0  0  0  0  0  0  0  0  0  0  0  0
  147.4965  130.8230  153.8277 H   0  0  0  0  0  0  0  0  0  0  0  0
  147.8244  131.5322  155.3864 H   0  0  0  0  0  0  0  0  0  0  0  0
  145.6362  132.2430  154.8042 H   0  0  0  0  0  0  0  0  0  0  0  0
  146.7087  134.7801  154.0549 H   0  0  0  0  0  0  0  0  0  0  0  0
  148.3128  136.0752  155.6314 H   0  0  0  0  0  0  0  0  0  0  0  0
  146.6360  136.4033  155.9136 H   0  0  0  0  0  0  0  0  0  0  0  0
  145.6894  136.1295  158.0560 H   0  0  0  0  0  0  0  0  0  0  0  0
  145.9645  136.5496  160.4937 H   0  0  0  0  0  0  0  0  0  0  0  0
  146.1089  130.6665  152.3258 H   0  0  0  0  0  0  0  0  0  0  0  0
  144.5266  131.0438  152.9491 H   0  0  0  0  0  0  0  0  0  0  0  0
  144.3745  130.4842  150.5590 H   0  0  0  0  0  0  0  0  0  0  0  0
  143.1427  132.5171  149.8034 H   0  0  0  0  0  0  0  0  0  0  0  0
  142.7720  132.1603  151.4730 H   0  0  0  0  0  0  0  0  0  0  0  0
  143.2702  134.5871  151.1839 H   0  0  0  0  0  0  0  0  0  0  0  0
  144.8028  134.3932  149.2286 H   0  0  0  0  0  0  0  0  0  0  0  0
  145.5575  135.3148  150.5065 H   0  0  0  0  0  0  0  0  0  0  0  0
  147.1439  133.6185  149.6014 H   0  0  0  0  0  0  0  0  0  0  0  0
  146.6651  131.1891  149.8769 H   0  0  0  0  0  0  0  0  0  0  0  0
  145.4645  131.9369  148.8507 H   0  0  0  0  0  0  0  0  0  0  0  0
  147.3210  134.2257  151.9714 H   0  0  0  0  0  0  0  0  0  0  0  0
  147.7770  132.5544  151.7561 H   0  0  0  0  0  0  0  0  0  0  0  0
  143.8582  133.5358  153.3437 H   0  0  0  0  0  0  0  0  0  0  0  0
  144.9838  134.8084  152.9504 H   0  0  0  0  0  0  0  0  0  0  0  0
  1  2  1  0  0  0  0
  1 26  1  0  0  0  0
  1 27  1  0  0  0  0
  1 28  1  0  0  0  0
  2  3  1  0  0  0  0
  2 29  1  0  0  0  0
  2 30  1  0  0  0  0
  3  4  1  0  0  0  0
  3 16  1  0  0  0  0
  3 31  1  0  0  0  0
  4  5  1  0  0  0  0
  4 32  1  0  0  0  0
  5  6  2  0  0  0  0
  5  7  1  0  0  0  0
  7  8  1  0  0  0  0
  7 33  1  0  0  0  0
  7 34  1  0  0  0  0
  8 14  1  0  0  0  0
  8  9  1  0  0  0  0
  9 10  2  0  0  0  0
  9 35  1  0  0  0  0
 10 11  1  0  0  0  0
 10 36  1  0  0  0  0
 11 12  2  0  0  0  0
 11 13  1  0  0  0  0
 13 14  1  0  0  0  0
 14 15  2  0  0  0  0
 16 24  1  0  0  0  0
 16 25  1  0  0  0  0
 16 17  1  0  0  0  0
 17 18  1  0  0  0  0
 17 37  1  0  0  0  0
 17 38  1  0  0  0  0
 18 23  1  0  0  0  0
 18 19  1  0  0  0  0
 18 39  1  0  0  0  0
 19 20  1  0  0  0  0
 19 40  1  0  0  0  0
 19 41  1  0  0  0  0
 20 21  1  0  0  0  0
 20 25  1  0  0  0  0
 20 42  1  0  0  0  0
 21 22  1  0  0  0  0
 21 43  1  0  0  0  0
 21 44  1  0  0  0  0
 22 23  1  0  0  0  0
 22 24  1  0  0  0  0
 22 45  1  0  0  0  0
 23 46  1  0  0  0  0
 23 47  1  0  0  0  0
 24 48  1  0  0  0  0
 24 49  1  0  0  0  0
 25 50  1  0  0  0  0
 25 51  1  0  0  0  0
M  CHG  1  13  -1
M  END
> <s_m_source_file>
AV-unprocessed.smi

> <i_m_source_file_index>
1591

> <i_lp_mmshare_version>
43012

> <i_f3d_flags>
0

> <s_epik_input>
W0NIMl0xW0NASF0oW0NIMl0yKVtDSDJdW0NASF0oW0NIMl0zKVtDSDJdW0NAQEhdMVtDSDJdQzIzW0NASF0oW0NIMl1bQ0gzXSlbTkhdQyg9TylbQ0gyXW40W2NIXVtjSF1jKD1PKVtuSF1jND1P

> <s_epik_cmdline>
J2VwaWtfcHl0aG9uJywgJy1waCcsICc3LjAnLCAnLXRuJywgJzgnLCAnLW1hJywgJzIwMCcsICctbWV0YWxfYmluZGluZycsICctaW1hZScsICc8aW5maWxlLm1hZT4nLCAnLW9tYWUnLCAnPG91dGZpbGUubWFlPic=

> <r_lp_tautomer_probability>
0.999537

> <r_epik_Ionization_Penalty>
3.13902

> <r_epik_Ionization_Penalty_Charging>
2.97334e-08

> <r_epik_Ionization_Penalty_Neutral>
3.13902

> <r_epik_State_Penalty>
3.13814

> <r_epik_Charging_Adjusted_Penalty>
3.13814

> <i_epik_Tot_Q>
-1

> <i_epik_Tot_abs_Q>
1

> <r_epik_Metal_State_Penalty>
0.465244

> <b_epik_Metal_Only>
1

> <s_lp_Force_Field>
OPLS_2005

> <r_lp_Energy>
49.2124

> <b_lp_Chiralities_Consistent>
1

> <s_lp_Variant>
AV-unprocessed.smi:1591-4

> <Gold.Version>
5.8.1

> <Gold.Id.Protein>
6NUR|6NUR_protein|mol2

> <Gold.PLP.Fitness>
40.2634

> <Gold.PLP.PLP>
-32.1896

> <Gold.PLP.part.hbond>
-2.0000

> <Gold.PLP.part.metal>
0.0000

> <Gold.PLP.part.buried>
-2.0146

> <Gold.PLP.part.nonpolar>
-28.0530

> <Gold.PLP.part.repulsive>
0.0000

> <Gold.PLP.ligand.clash>
0.0000

> <Gold.PLP.ligand.torsion>
0.5268

> <Gold.PLP.Chemscore.Hbond>
3.0000

> <Gold.PLP.Chemscore.CHOScore>
0.0000

> <Gold.PLP.Chemscore.Metal>
0.0000

> <Gold.Chemscore.Hbonds>
donor molecule, donor type, donor heavy atom, donor atom, acceptor molecule, acceptor atom, score
      P1  H  6896  6908       L1    13  1.07
      P1  H  6931  6943       L1    12  1.00

> <Gold.PLP.Chemscore.Internal.Correction>
0.1274

> <Gold.Rescore>
     Score         DG    S(hbond)    S(metal)    S(lipo)     H(rot)  DE(clash)    DE(int)     intcor
     14.20     -15.85       1.40        0.00      91.96       1.99       0.13       1.52       ----

> <Gold.Chemscore.Fitness>
14.1963

> <Gold.Chemscore.DG>
-15.8473

> <Gold.Chemscore.ZeroCoef>
-5.4800

> <Gold.Chemscore.Hbond>
1.4047

> <Gold.Chemscore.Metal>
0.0000

> <Gold.Chemscore.Lipo>
91.9598

> <Gold.Chemscore.Internal_Hbond>
0.0000

> <Gold.Chemscore.DEClash>
0.1326

> <Gold.Chemscore.DEInternal>
1.5184

> <Gold.Chemscore.Rot>
1.9858

> <Gold.Chemscore.Internal.Correction>
   9.000000E+99

> <Gold.Chemscore.Hbonds>
donor molecule, donor type, donor heavy atom, donor atom, acceptor molecule, acceptor atom, score
      P1  H  6896  6908       L1    13  0.08
      P1  H  6931  6943       L1    12  0.85

> <Gold.Chemscore.Hbond.Weighted>
-4.6917

> <Gold.Chemscore.Metal.Weighted>
-0.0000

> <Gold.Chemscore.Lipo.Weighted>
-10.7593

> <Gold.Chemscore.Internal_Hbond.Weighted>
0.0000

> <Gold.Chemscore.DEClash.Weighted>
0.1326

> <Gold.Chemscore.DEInternal.Weighted>
1.5184

> <Gold.Chemscore.Rot.Weighted>
5.0836

> <Gold.Chemscore.Internal.Correction.Weighted>
   9.000000E+99

> <Gold.Protein.RotatedTorsions>
[ 6907 6896 6895 6894 ] final -165.13 input  -60.11 | X-H torsion
[ 7974 7965 7964 7962 ] final -132.29 input  175.53 | X-H torsion
[ 8008 7997 7996 7995 ] final  168.22 input   59.86 | X-H torsion
[ 10167 10162 10161 10158 ] final  -52.87 input  -65.29 | X-H torsion
[ 10718 10713 10712 10709 ] final -157.41 input   66.30 | X-H torsion
[ 10763 10752 10751 10750 ] final  -22.26 input  -60.55 | X-H torsion
[ 11005 11000 10999 10996 ] final -161.11 input  -57.11 | X-H torsion

> <Gold.Protein.ActiveResidues>
 VAL166  LYS551  ARG553  GLY616  TRP617  ASP618  TYR619  PRO620  LYS621  CYS622 
 ASP623  PHE694  ASN695  SER759  ASP760  ASP761  ALA762  ILE779  LEU786  VAL792 
 PHE793  MET794  SER795  GLU796  ALA797  LYS798  CYS799  TRP800  GLU811  SER814 

> <Gold.Protein.RotatedAtoms>
  151.4228  133.3693  159.2758 H   0  0  0  0  0  0  0  0  0  0  0  0  # atno 6907 bound_to 6896
  150.9281  134.8698  159.7544 H   0  0  0  0  0  0  0  0  0  0  0  0  # atno 6908 bound_to 6896
  152.5015  134.4171  159.9520 H   0  0  0  0  0  0  0  0  0  0  0  0  # atno 6909 bound_to 6896
  144.9299  140.7115  143.4912 H   0  0  0  0  0  0  0  0  0  0  0  0  # atno 7974 bound_to 7965
  156.1565  140.1596  156.8683 H   0  0  0  0  0  0  0  0  0  0  0  0  # atno 8008 bound_to 7997
  154.5120  140.0798  156.8044 H   0  0  0  0  0  0  0  0  0  0  0  0  # atno 8009 bound_to 7997
  155.3792  140.3404  155.4248 H   0  0  0  0  0  0  0  0  0  0  0  0  # atno 8010 bound_to 7997
  140.6515  143.2569  151.4710 H   0  0  0  0  0  0  0  0  0  0  0  0  # atno 10167 bound_to 10162
  156.5399  130.8558  151.2745 H   0  0  0  0  0  0  0  0  0  0  0  0  # atno 10718 bound_to 10713
  153.6492  135.6981  153.5215 H   0  0  0  0  0  0  0  0  0  0  0  0  # atno 10763 bound_to 10752
  153.2720  135.4212  155.0996 H   0  0  0  0  0  0  0  0  0  0  0  0  # atno 10764 bound_to 10752
  154.8480  135.3581  154.6036 H   0  0  0  0  0  0  0  0  0  0  0  0  # atno 10765 bound_to 10752
  140.6240  134.4720  157.5225 H   0  0  0  0  0  0  0  0  0  0  0  0  # atno 11005 bound_to 11000
  145.3159  139.1803  143.4614 LP  0  0  0  0  0  0  0  0  0  0  0  0  # atno 17320 bound_to 7965
  146.3242  140.3170  142.8630 LP  0  0  0  0  0  0  0  0  0  0  0  0  # atno 17321 bound_to 7965
  139.5730  144.1883  152.1864 LP  0  0  0  0  0  0  0  0  0  0  0  0  # atno 17342 bound_to 10162
  140.1185  144.5394  150.6878 LP  0  0  0  0  0  0  0  0  0  0  0  0  # atno 17343 bound_to 10162
  157.7407  130.9855  150.2396 LP  0  0  0  0  0  0  0  0  0  0  0  0  # atno 17370 bound_to 10713
  156.2981  130.3755  149.7776 LP  0  0  0  0  0  0  0  0  0  0  0  0  # atno 17371 bound_to 10713
  139.9142  134.8281  156.1423 LP  0  0  0  0  0  0  0  0  0  0  0  0  # atno 17394 bound_to 11000
  141.0722  133.6791  156.2163 LP  0  0  0  0  0  0  0  0  0  0  0  0  # atno 17395 bound_to 11000

$$$$
