AV-unprocessed.smi:919|AV-procd|sdf|4164|dock7
  -GOLD-   22720 2 73D 1   1.00000     0.00000
 Structure written by MMmdl.
 43 45  0  0  0  0  0  0  0  0  1 V2000
  143.6706  146.2992  155.8560 C   0  0  0  0  0  0  0  0  0  0  0  0
  144.4050  147.2139  156.7934 C   0  0  0  0  0  0  0  0  0  0  0  0
  144.8117  148.3937  156.3561 N   0  0  0  0  0  0  0  0  0  0  0  0
  145.4431  149.0090  157.4414 O   0  0  0  0  0  0  0  0  0  0  0  0
  145.3902  148.1649  158.5029 C   0  0  0  0  0  0  0  0  0  0  0  0
  146.0097  148.6408  159.7732 C   0  0  0  0  0  0  0  0  0  0  0  0
  144.7486  147.0069  158.1608 C   0  0  0  0  0  0  0  0  0  0  0  0
  144.4660  145.8091  159.0264 C   0  0  0  0  0  0  0  0  0  0  0  0
  145.5372  145.6414  160.1152 C   0  0  0  0  0  0  0  0  0  0  0  0
  146.8685  145.4953  159.5399 N   0  0  0  0  0  0  0  0  0  0  0  0
  147.9028  144.8823  160.1404 C   0  0  0  0  0  0  0  0  0  0  0  0
  147.8359  144.3815  161.2616 O   0  0  0  0  0  0  0  0  0  0  0  0
  149.0338  144.8466  159.4139 N   0  0  0  0  0  0  0  0  0  0  0  0
  150.3226  144.2568  159.7829 C   0  0  2  0  0  0  0  0  0  0  0  0
  151.4676  145.2945  159.8651 C   0  0  0  0  0  0  0  0  0  0  0  0
  152.4954  144.7524  158.8550 C   0  0  1  0  0  0  0  0  0  0  0  0
  153.1145  143.4491  159.3965 C   0  0  0  0  0  0  0  0  0  0  0  0
  151.9621  142.4356  159.2502 C   0  0  0  0  0  0  0  0  0  0  0  0
  150.8251  143.3020  158.6776 C   0  0  2  0  0  0  0  0  0  0  0  0
  151.5923  144.2346  157.7444 C   0  0  0  0  0  0  0  0  0  0  0  0
  143.4527  145.3386  156.3225 H   0  0  0  0  0  0  0  0  0  0  0  0
  144.2568  146.1044  154.9575 H   0  0  0  0  0  0  0  0  0  0  0  0
  142.7217  146.7375  155.5465 H   0  0  0  0  0  0  0  0  0  0  0  0
  145.3524  148.4438  160.6205 H   0  0  0  0  0  0  0  0  0  0  0  0
  146.2039  149.7130  159.7397 H   0  0  0  0  0  0  0  0  0  0  0  0
  146.9557  148.1305  159.9545 H   0  0  0  0  0  0  0  0  0  0  0  0
  143.4843  145.8936  159.4935 H   0  0  0  0  0  0  0  0  0  0  0  0
  144.4217  144.9053  158.4177 H   0  0  0  0  0  0  0  0  0  0  0  0
  145.5198  146.4899  160.8017 H   0  0  0  0  0  0  0  0  0  0  0  0
  145.3259  144.7546  160.7133 H   0  0  0  0  0  0  0  0  0  0  0  0
  147.0128  145.8760  158.6161 H   0  0  0  0  0  0  0  0  0  0  0  0
  148.9900  145.2611  158.4940 H   0  0  0  0  0  0  0  0  0  0  0  0
  150.2091  143.7146  160.7234 H   0  0  0  0  0  0  0  0  0  0  0  0
  151.1319  146.2889  159.5660 H   0  0  0  0  0  0  0  0  0  0  0  0
  151.8806  145.3750  160.8713 H   0  0  0  0  0  0  0  0  0  0  0  0
  153.2331  145.4920  158.5425 H   0  0  0  0  0  0  0  0  0  0  0  0
  153.9710  143.1447  158.7934 H   0  0  0  0  0  0  0  0  0  0  0  0
  153.4512  143.5505  160.4289 H   0  0  0  0  0  0  0  0  0  0  0  0
  152.2355  141.6445  158.5506 H   0  0  0  0  0  0  0  0  0  0  0  0
  151.6951  141.9653  160.1973 H   0  0  0  0  0  0  0  0  0  0  0  0
  150.0369  142.7173  158.2013 H   0  0  0  0  0  0  0  0  0  0  0  0
  150.9695  145.0103  157.2955 H   0  0  0  0  0  0  0  0  0  0  0  0
  152.1333  143.7093  156.9551 H   0  0  0  0  0  0  0  0  0  0  0  0
  1  2  1  0  0  0  0
  1 21  1  0  0  0  0
  1 22  1  0  0  0  0
  1 23  1  0  0  0  0
  2  7  1  0  0  0  0
  2  3  2  0  0  0  0
  3  4  1  0  0  0  0
  4  5  1  0  0  0  0
  5  6  1  0  0  0  0
  5  7  2  0  0  0  0
  6 24  1  0  0  0  0
  6 25  1  0  0  0  0
  6 26  1  0  0  0  0
  7  8  1  0  0  0  0
  8  9  1  0  0  0  0
  8 27  1  0  0  0  0
  8 28  1  0  0  0  0
  9 10  1  0  0  0  0
  9 29  1  0  0  0  0
  9 30  1  0  0  0  0
 10 11  1  0  0  0  0
 10 31  1  0  0  0  0
 11 12  2  0  0  0  0
 11 13  1  0  0  0  0
 13 14  1  0  0  0  0
 13 32  1  0  0  0  0
 14 19  1  0  0  0  0
 14 15  1  0  0  0  0
 14 33  1  0  0  0  0
 15 16  1  0  0  0  0
 15 34  1  0  0  0  0
 15 35  1  0  0  0  0
 16 20  1  0  0  0  0
 16 17  1  0  0  0  0
 16 36  1  0  0  0  0
 17 18  1  0  0  0  0
 17 37  1  0  0  0  0
 17 38  1  0  0  0  0
 18 19  1  0  0  0  0
 18 39  1  0  0  0  0
 18 40  1  0  0  0  0
 19 20  1  0  0  0  0
 19 41  1  0  0  0  0
 20 42  1  0  0  0  0
 20 43  1  0  0  0  0
M  END
> <s_m_source_file>
AV-unprocessed.smi

> <i_m_source_file_index>
919

> <i_lp_mmshare_version>
43012

> <i_f3d_flags>
0

> <s_epik_input>
W0NIM11jMW5vYyhbQ0gzXSljMVtDSDJdW0NIMl1bTkhdQyg9TylbTkhdW0NASF0oW0NIMl1bQ0BASF0yMylbQ0BASF0oW0NIMl0zKVtDSDJdW0NIMl0y

> <s_epik_cmdline>
J2VwaWtfcHl0aG9uJywgJy1waCcsICc3LjAnLCAnLXRuJywgJzgnLCAnLW1hJywgJzIwMCcsICctbWV0YWxfYmluZGluZycsICctaW1hZScsICc8aW5maWxlLm1hZT4nLCAnLW9tYWUnLCAnPG91dGZpbGUubWFlPic=

> <r_lp_tautomer_probability>
1

> <r_epik_Ionization_Penalty>
6.40771e-05

> <r_epik_Ionization_Penalty_Charging>
0

> <r_epik_Ionization_Penalty_Neutral>
6.40771e-05

> <r_epik_State_Penalty>
-0

> <r_epik_Charging_Adjusted_Penalty>
0

> <i_epik_Tot_Q>
0

> <i_epik_Tot_abs_Q>
0

> <r_epik_Metal_State_Penalty>
-0

> <b_epik_Metal_Only>
0

> <s_lp_Force_Field>
OPLS_2005

> <r_lp_Energy>
47.5349

> <b_lp_Chiralities_Consistent>
1

> <s_lp_Variant>
AV-unprocessed.smi:919-1

> <Gold.Version>
5.8.1

> <Gold.Id.Protein>
6NUR|6NUR_protein|mol2

> <Gold.PLP.Fitness>
53.3309

> <Gold.PLP.PLP>
-45.7864

> <Gold.PLP.part.hbond>
-3.8599

> <Gold.PLP.part.metal>
0.0000

> <Gold.PLP.part.buried>
-8.7748

> <Gold.PLP.part.nonpolar>
-34.8340

> <Gold.PLP.part.repulsive>
0.7117

> <Gold.PLP.ligand.clash>
0.0000

> <Gold.PLP.ligand.torsion>
0.5864

> <Gold.PLP.Chemscore.Hbond>
2.8960

> <Gold.PLP.Chemscore.CHOScore>
0.0000

> <Gold.PLP.Chemscore.Metal>
0.0000

> <Gold.Chemscore.Hbonds>
donor molecule, donor type, donor heavy atom, donor atom, acceptor molecule, acceptor atom, score
      L1  H    10    31       P1  8029  1.00
      L1  H    13    32       P1  8029  0.90
      P1  H  6933  6944       L1    12  0.76

> <Gold.PLP.Chemscore.Internal.Correction>
0.0293

> <Gold.Rescore>
     Score         DG    S(hbond)    S(metal)    S(lipo)     H(rot)  DE(clash)    DE(int)     intcor
     24.67     -25.21       2.87        0.00     120.04       1.52       0.06       0.49       ----

> <Gold.Chemscore.Fitness>
24.6681

> <Gold.Chemscore.DG>
-25.2143

> <Gold.Chemscore.ZeroCoef>
-5.4800

> <Gold.Chemscore.Hbond>
2.8655

> <Gold.Chemscore.Metal>
0.0000

> <Gold.Chemscore.Lipo>
120.0410

> <Gold.Chemscore.Internal_Hbond>
0.0000

> <Gold.Chemscore.DEClash>
0.0568

> <Gold.Chemscore.DEInternal>
0.4894

> <Gold.Chemscore.Rot>
1.5161

> <Gold.Chemscore.Internal.Correction>
   9.000000E+99

> <Gold.Chemscore.Hbonds>
donor molecule, donor type, donor heavy atom, donor atom, acceptor molecule, acceptor atom, score
      L1  H    10    31       P1  8029  0.92
      L1  H    13    32       P1  8029  0.84
      P1  H  6933  6944       L1    12  0.70

> <Gold.Chemscore.Hbond.Weighted>
-9.5708

> <Gold.Chemscore.Metal.Weighted>
-0.0000

> <Gold.Chemscore.Lipo.Weighted>
-14.0448

> <Gold.Chemscore.Internal_Hbond.Weighted>
0.0000

> <Gold.Chemscore.DEClash.Weighted>
0.0568

> <Gold.Chemscore.DEInternal.Weighted>
0.4894

> <Gold.Chemscore.Rot.Weighted>
3.8813

> <Gold.Chemscore.Internal.Correction.Weighted>
   9.000000E+99

> <Gold.Protein.RotatedTorsions>
[ 6907 6896 6895 6894 ] final -125.91 input  -60.11 | X-H torsion
[ 7974 7965 7964 7962 ] final    8.30 input  175.53 | X-H torsion
[ 8008 7997 7996 7995 ] final -117.67 input   59.86 | X-H torsion
[ 10167 10162 10161 10158 ] final  113.57 input  -65.29 | X-H torsion
[ 10718 10713 10712 10709 ] final   95.10 input   66.30 | X-H torsion
[ 10763 10752 10751 10750 ] final  -63.26 input  -60.55 | X-H torsion
[ 11005 11000 10999 10996 ] final -112.89 input  -57.11 | X-H torsion

> <Gold.Protein.ActiveResidues>
 VAL166  LYS551  ARG553  GLY616  TRP617  ASP618  TYR619  PRO620  LYS621  CYS622 
 ASP623  PHE694  ASN695  SER759  ASP760  ASP761  ALA762  ILE779  LEU786  VAL792 
 PHE793  MET794  SER795  GLU796  ALA797  LYS798  CYS799  TRP800  GLU811  SER814 

> <Gold.Protein.RotatedAtoms>
  150.8915  133.7237  159.2903 H   0  0  0  0  0  0  0  0  0  0  0  0  # atno 6907 bound_to 6896
  151.4786  135.1049  159.9781 H   0  0  0  0  0  0  0  0  0  0  0  0  # atno 6908 bound_to 6896
  152.4823  133.8237  159.7122 H   0  0  0  0  0  0  0  0  0  0  0  0  # atno 6909 bound_to 6896
  146.2417  139.9953  142.8421 H   0  0  0  0  0  0  0  0  0  0  0  0  # atno 7974 bound_to 7965
  155.0875  140.0394  157.2658 H   0  0  0  0  0  0  0  0  0  0  0  0  # atno 8008 bound_to 7997
  154.6858  140.2643  155.6837 H   0  0  0  0  0  0  0  0  0  0  0  0  # atno 8009 bound_to 7997
  156.2711  140.2769  156.1419 H   0  0  0  0  0  0  0  0  0  0  0  0  # atno 8010 bound_to 7997
  139.6452  144.7126  151.2157 H   0  0  0  0  0  0  0  0  0  0  0  0  # atno 10167 bound_to 10162
  157.6942  131.0534  150.4287 H   0  0  0  0  0  0  0  0  0  0  0  0  # atno 10718 bound_to 10713
  154.3124  135.6213  153.5471 H   0  0  0  0  0  0  0  0  0  0  0  0  # atno 10763 bound_to 10752
  152.9828  135.5704  154.5162 H   0  0  0  0  0  0  0  0  0  0  0  0  # atno 10764 bound_to 10752
  154.4814  135.2863  155.1544 H   0  0  0  0  0  0  0  0  0  0  0  0  # atno 10765 bound_to 10752
  141.0648  133.9477  157.2599 H   0  0  0  0  0  0  0  0  0  0  0  0  # atno 11005 bound_to 11000
  145.1465  140.9600  143.4458 LP  0  0  0  0  0  0  0  0  0  0  0  0  # atno 17320 bound_to 7965
  145.0246  139.3394  143.6055 LP  0  0  0  0  0  0  0  0  0  0  0  0  # atno 17321 bound_to 7965
  140.7511  143.6244  150.8483 LP  0  0  0  0  0  0  0  0  0  0  0  0  # atno 17342 bound_to 10162
  139.9885  143.5872  152.2918 LP  0  0  0  0  0  0  0  0  0  0  0  0  # atno 17343 bound_to 10162
  156.4655  130.4041  149.6550 LP  0  0  0  0  0  0  0  0  0  0  0  0  # atno 17370 bound_to 10713
  156.3649  130.7500  151.2477 LP  0  0  0  0  0  0  0  0  0  0  0  0  # atno 17371 bound_to 10713
  139.9466  135.0183  156.8870 LP  0  0  0  0  0  0  0  0  0  0  0  0  # atno 17394 bound_to 11000
  140.5796  134.0365  155.7459 LP  0  0  0  0  0  0  0  0  0  0  0  0  # atno 17395 bound_to 11000

$$$$
