AV-unprocessed.smi:1960|AV-procd|sdf|7917|dock6
  -GOLD-   2272010 83D 1   1.00000     0.00000
 Structure written by MMmdl.
 39 40  0  0  0  0  0  0  0  0  2 V2000
  152.8372  138.5099  155.0321 C   0  0  0  0  0  0  0  0  0  0  0  0
  153.0680  137.8692  156.7408 S   0  0  0  0  0  0  0  0  0  0  0  0
  154.0686  136.7919  156.6956 O   0  0  0  0  0  0  0  0  0  0  0  0
  153.2729  139.0173  157.6372 O   0  0  0  0  0  0  0  0  0  0  0  0
  151.5317  137.1528  157.1362 N   0  0  0  0  0  0  0  0  0  0  0  0
  150.2983  137.9604  157.0526 C   0  0  0  0  0  0  0  0  0  0  0  0
  149.5045  137.6574  155.7694 C   0  0  0  0  0  0  0  0  0  0  0  0
  149.2197  136.1524  155.6275 C   0  0  0  0  0  0  0  0  0  0  0  0
  148.5318  135.8666  154.3712 N   0  0  0  0  0  0  0  0  0  0  0  0
  147.2250  135.5911  154.2517 C   0  0  0  0  0  0  0  0  0  0  0  0
  146.4480  135.5602  155.2056 O   0  0  0  0  0  0  0  0  0  0  0  0
  146.8868  135.3793  152.9677 N   0  0  0  0  0  0  0  0  0  0  0  0
  145.6116  135.0531  152.4299 C   0  0  0  0  0  0  0  0  0  0  0  0
  145.5443  134.7315  151.0559 C   0  0  0  0  0  0  0  0  0  0  0  0
  144.3038  134.3863  150.4819 C   0  0  0  0  0  0  0  0  0  0  0  0
  143.1931  134.3557  151.2490 N   0  3  0  0  0  0  0  0  0  0  0  0
  143.2095  134.6407  152.5688 C   0  0  0  0  0  0  0  0  0  0  0  0
  144.4209  134.9927  153.1985 C   0  0  0  0  0  0  0  0  0  0  0  0
  150.5453  135.3793  155.6830 C   0  0  0  0  0  0  0  0  0  0  0  0
  151.3291  135.6997  156.9679 C   0  0  0  0  0  0  0  0  0  0  0  0
  153.7631  138.9793  154.7011 H   0  0  0  0  0  0  0  0  0  0  0  0
  152.0412  139.2523  155.0185 H   0  0  0  0  0  0  0  0  0  0  0  0
  152.5966  137.6903  154.3574 H   0  0  0  0  0  0  0  0  0  0  0  0
  149.6810  137.7353  157.9231 H   0  0  0  0  0  0  0  0  0  0  0  0
  150.5345  139.0224  157.1105 H   0  0  0  0  0  0  0  0  0  0  0  0
  148.5686  138.2169  155.7866 H   0  0  0  0  0  0  0  0  0  0  0  0
  150.0542  138.0143  154.8991 H   0  0  0  0  0  0  0  0  0  0  0  0
  148.5950  135.8251  156.4610 H   0  0  0  0  0  0  0  0  0  0  0  0
  149.0961  135.8770  153.5342 H   0  0  0  0  0  0  0  0  0  0  0  0
  147.6194  135.5229  152.2883 H   0  0  0  0  0  0  0  0  0  0  0  0
  146.4330  134.7542  150.4418 H   0  0  0  0  0  0  0  0  0  0  0  0
  144.1681  134.1336  149.4404 H   0  0  0  0  0  0  0  0  0  0  0  0
  142.2606  134.5726  153.0806 H   0  0  0  0  0  0  0  0  0  0  0  0
  144.4138  135.1960  154.2584 H   0  0  0  0  0  0  0  0  0  0  0  0
  150.3525  134.3070  155.6348 H   0  0  0  0  0  0  0  0  0  0  0  0
  151.1518  135.6176  154.8097 H   0  0  0  0  0  0  0  0  0  0  0  0
  152.2865  135.1795  156.9681 H   0  0  0  0  0  0  0  0  0  0  0  0
  150.7784  135.3276  157.8325 H   0  0  0  0  0  0  0  0  0  0  0  0
  142.3051  134.1018  150.8150 H   0  0  0  0  0  0  0  0  0  0  0  0
  1  2  1  0  0  0  0
  1 21  1  0  0  0  0
  1 22  1  0  0  0  0
  1 23  1  0  0  0  0
  2  3  2  0  0  0  0
  2  4  2  0  0  0  0
  2  5  1  0  0  0  0
  5 20  1  0  0  0  0
  5  6  1  0  0  0  0
  6  7  1  0  0  0  0
  6 24  1  0  0  0  0
  6 25  1  0  0  0  0
  7  8  1  0  0  0  0
  7 26  1  0  0  0  0
  7 27  1  0  0  0  0
  8  9  1  0  0  0  0
  8 19  1  0  0  0  0
  8 28  1  0  0  0  0
  9 10  1  0  0  0  0
  9 29  1  0  0  0  0
 10 11  2  0  0  0  0
 10 12  1  0  0  0  0
 12 13  1  0  0  0  0
 12 30  1  0  0  0  0
 13 18  1  0  0  0  0
 13 14  2  0  0  0  0
 14 15  1  0  0  0  0
 14 31  1  0  0  0  0
 15 16  2  0  0  0  0
 15 32  1  0  0  0  0
 16 17  1  0  0  0  0
 16 39  1  0  0  0  0
 17 18  2  0  0  0  0
 17 33  1  0  0  0  0
 18 34  1  0  0  0  0
 19 20  1  0  0  0  0
 19 35  1  0  0  0  0
 19 36  1  0  0  0  0
 20 37  1  0  0  0  0
 20 38  1  0  0  0  0
M  CHG  1  16   1
M  END
> <s_m_source_file>
AV-unprocessed.smi

> <i_m_source_file_index>
1960

> <i_lp_mmshare_version>
43012

> <i_f3d_flags>
0

> <s_epik_input>
W0NIM11TKD1PKSg9TylOMVtDSDJdW0NIMl1bQ0hdKFtDSDJdW0NIMl0xKVtOSF1DKD1PKVtOSF1jMltjSF1bY0hdbltjSF1bY0hdMg==

> <s_epik_cmdline>
J2VwaWtfcHl0aG9uJywgJy1waCcsICc3LjAnLCAnLXRuJywgJzgnLCAnLW1hJywgJzIwMCcsICctbWV0YWxfYmluZGluZycsICctaW1hZScsICc8aW5maWxlLm1hZT4nLCAnLW9tYWUnLCAnPG91dGZpbGUubWFlPic=

> <r_epik_Ionization_Penalty>
1.01996

> <r_epik_Ionization_Penalty_Charging>
1.01994

> <r_epik_Ionization_Penalty_Neutral>
1.92463e-05

> <r_epik_State_Penalty>
1.07014

> <r_epik_Charging_Adjusted_Penalty>
2.09007

> <i_epik_Tot_Q>
1

> <i_epik_Tot_abs_Q>
1

> <r_epik_Metal_State_Penalty>
1.16909

> <b_epik_Metal_Only>
0

> <s_lp_Force_Field>
OPLS_2005

> <r_lp_Energy>
12.0857

> <b_lp_Chiralities_Consistent>
1

> <s_lp_Variant>
AV-unprocessed.smi:1960-2

> <Gold.Version>
5.8.1

> <Gold.Id.Protein>
6NUR|6NUR_protein|mol2

> <Gold.PLP.Fitness>
38.1029

> <Gold.PLP.PLP>
-22.4365

> <Gold.PLP.part.hbond>
-4.7416

> <Gold.PLP.part.metal>
0.0000

> <Gold.PLP.part.buried>
-2.7940

> <Gold.PLP.part.nonpolar>
-15.6400

> <Gold.PLP.part.repulsive>
0.0403

> <Gold.PLP.ligand.clash>
0.0000

> <Gold.PLP.ligand.torsion>
1.2567

> <Gold.PLP.Chemscore.Hbond>
5.3760

> <Gold.PLP.Chemscore.CHOScore>
0.0000

> <Gold.PLP.Chemscore.Metal>
0.0000

> <Gold.Chemscore.Hbonds>
donor molecule, donor type, donor heavy atom, donor atom, acceptor molecule, acceptor atom, score
      L1  H     9    29       P1  7948  0.83
      L1  H    12    30       P1  7948  1.00
      L1  H    16    39       P1 10186  1.98
      P1  H  7997  8010       L1     4  1.00
      P1  H 10752 10765       L1     3  0.77

> <Gold.PLP.Chemscore.Internal.Correction>
2.0518

> <Gold.Rescore>
     Score         DG    S(hbond)    S(metal)    S(lipo)     H(rot)  DE(clash)    DE(int)     intcor
     18.65     -21.25       3.79        0.00      48.55       1.00       0.06       2.54       ----

> <Gold.Chemscore.Fitness>
18.6474

> <Gold.Chemscore.DG>
-21.2494

> <Gold.Chemscore.ZeroCoef>
-5.4800

> <Gold.Chemscore.Hbond>
3.7872

> <Gold.Chemscore.Metal>
0.0000

> <Gold.Chemscore.Lipo>
48.5483

> <Gold.Chemscore.Internal_Hbond>
0.0000

> <Gold.Chemscore.DEClash>
0.0605

> <Gold.Chemscore.DEInternal>
2.5415

> <Gold.Chemscore.Rot>
1.0000

> <Gold.Chemscore.Internal.Correction>
   9.000000E+99

> <Gold.Chemscore.Hbonds>
donor molecule, donor type, donor heavy atom, donor atom, acceptor molecule, acceptor atom, score
      L1  H     9    29       P1  7948  0.69
      L1  H    12    30       P1  7948  0.91
      L1  H    16    39       P1 10186  0.37
      P1  H  7997  8010       L1     4  0.70
      P1  H 10752 10765       L1     3  0.71

> <Gold.Chemscore.Hbond.Weighted>
-12.6492

> <Gold.Chemscore.Metal.Weighted>
-0.0000

> <Gold.Chemscore.Lipo.Weighted>
-5.6802

> <Gold.Chemscore.Internal_Hbond.Weighted>
0.0000

> <Gold.Chemscore.DEClash.Weighted>
0.0605

> <Gold.Chemscore.DEInternal.Weighted>
2.5415

> <Gold.Chemscore.Rot.Weighted>
2.5600

> <Gold.Chemscore.Internal.Correction.Weighted>
   9.000000E+99

> <Gold.Protein.RotatedTorsions>
[ 6907 6896 6895 6894 ] final   37.60 input  -60.11 | X-H torsion
[ 7974 7965 7964 7962 ] final  -72.97 input  175.53 | X-H torsion
[ 8008 7997 7996 7995 ] final   34.61 input   59.86 | X-H torsion
[ 10167 10162 10161 10158 ] final   41.54 input  -65.29 | X-H torsion
[ 10718 10713 10712 10709 ] final   19.96 input   66.30 | X-H torsion
[ 10763 10752 10751 10750 ] final -111.36 input  -60.55 | X-H torsion
[ 11005 11000 10999 10996 ] final   19.32 input  -57.11 | X-H torsion

> <Gold.Protein.ActiveResidues>
 VAL166  LYS551  ARG553  GLY616  TRP617  ASP618  TYR619  PRO620  LYS621  CYS622 
 ASP623  PHE694  ASN695  SER759  ASP760  ASP761  ALA762  ILE779  LEU786  VAL792 
 PHE793  MET794  SER795  GLU796  ALA797  LYS798  CYS799  TRP800  GLU811  SER814 

> <Gold.Protein.RotatedAtoms>
  152.1453  134.9031  160.0551 H   0  0  0  0  0  0  0  0  0  0  0  0  # atno 6907 bound_to 6896
  152.0083  133.3846  159.4217 H   0  0  0  0  0  0  0  0  0  0  0  0  # atno 6908 bound_to 6896
  150.6869  134.3680  159.5023 H   0  0  0  0  0  0  0  0  0  0  0  0  # atno 6909 bound_to 6896
  145.6583  140.9261  143.0948 H   0  0  0  0  0  0  0  0  0  0  0  0  # atno 7974 bound_to 7965
  155.1577  140.3280  155.4418 H   0  0  0  0  0  0  0  0  0  0  0  0  # atno 8008 bound_to 7997
  156.2553  140.1966  156.6636 H   0  0  0  0  0  0  0  0  0  0  0  0  # atno 8009 bound_to 7997
  154.6428  140.0568  156.9851 H   0  0  0  0  0  0  0  0  0  0  0  0  # atno 8010 bound_to 7997
  140.3633  144.2200  150.6137 H   0  0  0  0  0  0  0  0  0  0  0  0  # atno 10167 bound_to 10162
  157.1177  130.6536  149.5915 H   0  0  0  0  0  0  0  0  0  0  0  0  # atno 10718 bound_to 10713
  154.8296  135.4530  154.1027 H   0  0  0  0  0  0  0  0  0  0  0  0  # atno 10763 bound_to 10752
  153.2311  135.6905  153.7895 H   0  0  0  0  0  0  0  0  0  0  0  0  # atno 10764 bound_to 10752
  153.7277  135.3332  155.3256 H   0  0  0  0  0  0  0  0  0  0  0  0  # atno 10765 bound_to 10752
  140.4150  134.1579  155.7669 H   0  0  0  0  0  0  0  0  0  0  0  0  # atno 11005 bound_to 11000
  144.7098  139.8415  143.7418 LP  0  0  0  0  0  0  0  0  0  0  0  0  # atno 17320 bound_to 7965
  146.1147  139.4156  143.0266 LP  0  0  0  0  0  0  0  0  0  0  0  0  # atno 17321 bound_to 7965
  140.5105  143.2292  151.8542 LP  0  0  0  0  0  0  0  0  0  0  0  0  # atno 17342 bound_to 10162
  139.4811  144.4955  151.9129 LP  0  0  0  0  0  0  0  0  0  0  0  0  # atno 17343 bound_to 10162
  155.9835  130.4855  150.6938 LP  0  0  0  0  0  0  0  0  0  0  0  0  # atno 17370 bound_to 10713
  157.4503  131.0872  151.0852 LP  0  0  0  0  0  0  0  0  0  0  0  0  # atno 17371 bound_to 10713
  141.1806  133.8421  157.1269 LP  0  0  0  0  0  0  0  0  0  0  0  0  # atno 17394 bound_to 11000
  140.0240  134.9932  157.0650 LP  0  0  0  0  0  0  0  0  0  0  0  0  # atno 17395 bound_to 11000

$$$$
