AV-unprocessed.smi:81|AV-procd|sdf|790|dock8
  -GOLD-   2262017163D 1   1.00000     0.00000
 Structure written by MMmdl.
 64 67  0  0  0  0  0  0  0  0  2 V2000
  141.6320  134.9425  153.0996 C   0  0  0  0  0  0  0  0  0  0  0  0
  142.9632  135.7029  152.9835 C   0  0  0  0  0  0  0  0  0  0  0  0
  142.7154  137.1611  152.5726 C   0  0  0  0  0  0  0  0  0  0  0  0
  143.9302  135.0203  151.9879 C   0  0  0  0  0  0  0  0  0  0  0  0
  145.3275  134.9696  152.4328 N   0  0  0  0  0  0  0  0  0  0  0  0
  145.7951  136.0911  153.0334 C   0  0  0  0  0  0  0  0  0  0  0  0
  145.8570  136.0899  154.3886 N   0  0  0  0  0  0  0  0  0  0  0  0
  146.2766  137.1765  155.0426 C   0  0  0  0  0  0  0  0  0  0  0  0
  146.6673  138.3507  154.5440 N   0  0  0  0  0  0  0  0  0  0  0  0
  146.5893  138.3638  153.1823 C   0  0  0  0  0  0  0  0  0  0  0  0
  146.1658  137.2872  152.3540 C   0  0  0  0  0  0  0  0  0  0  0  0
  146.2214  137.6711  151.0199 N   0  0  0  0  0  0  0  0  0  0  0  0
  146.6481  138.9033  151.0581 C   0  0  0  0  0  0  0  0  0  0  0  0
  146.8886  139.4038  152.3182 N   0  0  0  0  0  0  0  0  0  0  0  0
  147.3549  140.7387  152.6736 C   0  0  0  0  0  0  0  0  0  0  0  0
  148.8073  140.7726  153.2210 C   0  0  1  0  0  0  0  0  0  0  0  0
  149.6383  140.0792  152.3033 O   0  0  0  0  0  0  0  0  0  0  0  0
  149.3557  142.1781  153.3976 C   0  0  0  0  0  0  0  0  0  0  0  0
  150.5284  141.9705  154.3534 C   0  0  0  0  0  0  0  0  0  0  0  0
  150.2379  140.7849  155.0905 O   0  0  0  0  0  0  0  0  0  0  0  0
  149.0421  140.1630  154.6201 C   0  0  1  0  0  0  0  0  0  0  0  0
  147.9759  140.4941  155.6825 C   0  0  0  0  0  0  0  0  0  0  0  0
  146.2564  134.1665  151.6186 C   0  0  2  0  0  0  0  0  0  0  0  0
  145.6017  133.1188  150.6863 C   0  0  0  0  0  0  0  0  0  0  0  0
  145.3795  131.7417  151.3418 C   0  0  0  0  0  0  0  0  0  0  0  0
  146.6273  131.2343  151.9583 N   0  3  2  0  0  0  0  0  0  0  0  0
  146.4807  129.8528  152.4651 C   0  0  0  0  0  0  0  0  0  0  0  0
  147.1419  132.1608  152.9932 C   0  0  0  0  0  0  0  0  0  0  0  0
  147.4408  133.5497  152.4000 C   0  0  0  0  0  0  0  0  0  0  0  0
  141.1236  134.8856  152.1365 H   0  0  0  0  0  0  0  0  0  0  0  0
  140.9591  135.4347  153.8025 H   0  0  0  0  0  0  0  0  0  0  0  0
  141.7838  133.9238  153.4562 H   0  0  0  0  0  0  0  0  0  0  0  0
  143.4209  135.7329  153.9728 H   0  0  0  0  0  0  0  0  0  0  0  0
  142.2438  137.2227  151.5913 H   0  0  0  0  0  0  0  0  0  0  0  0
  143.6505  137.7204  152.5289 H   0  0  0  0  0  0  0  0  0  0  0  0
  142.0649  137.6659  153.2875 H   0  0  0  0  0  0  0  0  0  0  0  0
  143.5833  134.0024  151.8065 H   0  0  0  0  0  0  0  0  0  0  0  0
  143.8771  135.5227  151.0227 H   0  0  0  0  0  0  0  0  0  0  0  0
  146.3003  137.0945  156.1193 H   0  0  0  0  0  0  0  0  0  0  0  0
  146.7942  139.4754  150.1557 H   0  0  0  0  0  0  0  0  0  0  0  0
  147.2994  141.3561  151.7761 H   0  0  0  0  0  0  0  0  0  0  0  0
  146.6490  141.1845  153.3737 H   0  0  0  0  0  0  0  0  0  0  0  0
  149.2942  140.2084  151.4325 H   0  0  0  0  0  0  0  0  0  0  0  0
  149.6488  142.6537  152.4605 H   0  0  0  0  0  0  0  0  0  0  0  0
  148.6071  142.8155  153.8697 H   0  0  0  0  0  0  0  0  0  0  0  0
  151.4535  141.8142  153.7979 H   0  0  0  0  0  0  0  0  0  0  0  0
  150.6736  142.8233  155.0167 H   0  0  0  0  0  0  0  0  0  0  0  0
  149.1713  139.0808  154.5713 H   0  0  0  0  0  0  0  0  0  0  0  0
  147.0079  140.0563  155.4521 H   0  0  0  0  0  0  0  0  0  0  0  0
  147.8339  141.5694  155.7896 H   0  0  0  0  0  0  0  0  0  0  0  0
  148.2761  140.1079  156.6567 H   0  0  0  0  0  0  0  0  0  0  0  0
  146.6950  134.9053  150.9464 H   0  0  0  0  0  0  0  0  0  0  0  0
  144.6712  133.5022  150.2664 H   0  0  0  0  0  0  0  0  0  0  0  0
  146.2642  132.9711  149.8324 H   0  0  0  0  0  0  0  0  0  0  0  0
  144.5963  131.7802  152.0977 H   0  0  0  0  0  0  0  0  0  0  0  0
  145.0382  131.0371  150.5824 H   0  0  0  0  0  0  0  0  0  0  0  0
  145.7383  129.8055  153.2631 H   0  0  0  0  0  0  0  0  0  0  0  0
  147.4287  129.4835  152.8575 H   0  0  0  0  0  0  0  0  0  0  0  0
  146.1681  129.1804  151.6657 H   0  0  0  0  0  0  0  0  0  0  0  0
  146.4234  132.2239  153.8078 H   0  0  0  0  0  0  0  0  0  0  0  0
  148.0582  131.7528  153.4218 H   0  0  0  0  0  0  0  0  0  0  0  0
  148.2771  133.4396  151.7083 H   0  0  0  0  0  0  0  0  0  0  0  0
  147.7959  134.2247  153.1787 H   0  0  0  0  0  0  0  0  0  0  0  0
  147.3218  131.2000  151.2259 H   0  0  0  0  0  0  0  0  0  0  0  0
  1  2  1  0  0  0  0
  1 30  1  0  0  0  0
  1 31  1  0  0  0  0
  1 32  1  0  0  0  0
  2  3  1  0  0  0  0
  2  4  1  0  0  0  0
  2 33  1  0  0  0  0
  3 34  1  0  0  0  0
  3 35  1  0  0  0  0
  3 36  1  0  0  0  0
  4  5  1  0  0  0  0
  4 37  1  0  0  0  0
  4 38  1  0  0  0  0
  5  6  1  0  0  0  0
  5 23  1  0  0  0  0
  6 11  1  0  0  0  0
  6  7  2  0  0  0  0
  7  8  1  0  0  0  0
  8  9  2  0  0  0  0
  8 39  1  0  0  0  0
  9 10  1  0  0  0  0
 10 14  1  0  0  0  0
 10 11  2  0  0  0  0
 11 12  1  0  0  0  0
 12 13  2  0  0  0  0
 13 14  1  0  0  0  0
 13 40  1  0  0  0  0
 14 15  1  0  0  0  0
 15 16  1  0  0  0  0
 15 41  1  0  0  0  0
 15 42  1  0  0  0  0
 16 21  1  0  0  0  0
 16 17  1  0  0  0  0
 16 18  1  0  0  0  0
 17 43  1  0  0  0  0
 18 19  1  0  0  0  0
 18 44  1  0  0  0  0
 18 45  1  0  0  0  0
 19 20  1  0  0  0  0
 19 46  1  0  0  0  0
 19 47  1  0  0  0  0
 20 21  1  0  0  0  0
 21 22  1  0  0  0  0
 21 48  1  0  0  0  0
 22 49  1  0  0  0  0
 22 50  1  0  0  0  0
 22 51  1  0  0  0  0
 23 29  1  0  0  0  0
 23 24  1  0  0  0  0
 23 52  1  0  0  0  0
 24 25  1  0  0  0  0
 24 53  1  0  0  0  0
 24 54  1  0  0  0  0
 25 26  1  0  0  0  0
 25 55  1  0  0  0  0
 25 56  1  0  0  0  0
 26 27  1  0  0  0  0
 26 28  1  0  0  0  0
 26 64  1  0  0  0  0
 27 57  1  0  0  0  0
 27 58  1  0  0  0  0
 27 59  1  0  0  0  0
 28 29  1  0  0  0  0
 28 60  1  0  0  0  0
 28 61  1  0  0  0  0
 29 62  1  0  0  0  0
 29 63  1  0  0  0  0
M  CHG  1  26   1
M  END
> <s_m_source_file>
AV-unprocessed.smi

> <i_m_source_file_index>
81

> <i_lp_mmshare_version>
43012

> <i_f3d_flags>
0

> <s_epik_input>
W0NIMl0xW0NIMl1OKFtDSDNdKVtDSDJdW0NIMl1bQ0hdMU4oW0NIMl1bQ0hdKFtDSDNdKVtDSDNdKWMobltjSF1uMiljKGMyMyluW2NIXW4zW0NIMl1bQ0BAXTQoW09IXSlbQ0gyXVtDSDJdT1tDQEhdNFtDSDNd

> <s_epik_cmdline>
J2VwaWtfcHl0aG9uJywgJy1waCcsICc3LjAnLCAnLXRuJywgJzgnLCAnLW1hJywgJzIwMCcsICctbWV0YWxfYmluZGluZycsICctaW1hZScsICc8aW5maWxlLm1hZT4nLCAnLW9tYWUnLCAnPG91dGZpbGUubWFlPic=

> <r_lp_tautomer_probability>
1

> <r_epik_Ionization_Penalty>
0.00272708

> <r_epik_Ionization_Penalty_Charging>
0.00158983

> <r_epik_Ionization_Penalty_Neutral>
0.00113725

> <r_epik_State_Penalty>
-0

> <r_epik_Charging_Adjusted_Penalty>
0.00158983

> <i_epik_Tot_Q>
1

> <i_epik_Tot_abs_Q>
1

> <r_epik_Metal_State_Penalty>
-0

> <b_epik_Metal_Only>
0

> <s_lp_Force_Field>
OPLS_2005

> <r_lp_Energy>
53.2372

> <b_lp_Chiralities_Consistent>
1

> <s_lp_Variant>
AV-unprocessed.smi:81-5

> <Gold.Version>
5.8.1

> <Gold.Id.Protein>
6NUR|6NUR_protein|mol2

> <Gold.PLP.Fitness>
49.2621

> <Gold.PLP.PLP>
-45.0310

> <Gold.PLP.part.hbond>
-2.5549

> <Gold.PLP.part.metal>
0.0000

> <Gold.PLP.part.buried>
-6.7363

> <Gold.PLP.part.nonpolar>
-37.6623

> <Gold.PLP.part.repulsive>
1.2301

> <Gold.PLP.ligand.clash>
0.0000

> <Gold.PLP.ligand.torsion>
2.6677

> <Gold.PLP.Chemscore.Hbond>
2.2705

> <Gold.PLP.Chemscore.CHOScore>
0.4677

> <Gold.PLP.Chemscore.Metal>
0.0000

> <Gold.Chemscore.Hbonds>
donor molecule, donor type, donor heavy atom, donor atom, acceptor molecule, acceptor atom, score
      L1  H    26    64       P1 10747  1.00

> <Gold.PLP.Chemscore.Internal.Correction>
1.3520

> <Gold.Rescore>
     Score         DG    S(hbond)    S(metal)    S(lipo)     H(rot)  DE(clash)    DE(int)     intcor
     14.05     -17.10       1.85        0.00      97.20       2.32       0.29       2.76       ----

> <Gold.Chemscore.Fitness>
14.0460

> <Gold.Chemscore.DG>
-17.0977

> <Gold.Chemscore.ZeroCoef>
-5.4800

> <Gold.Chemscore.Hbond>
1.8488

> <Gold.Chemscore.Metal>
0.0000

> <Gold.Chemscore.Lipo>
97.2009

> <Gold.Chemscore.Internal_Hbond>
0.0000

> <Gold.Chemscore.DEClash>
0.2890

> <Gold.Chemscore.DEInternal>
2.7627

> <Gold.Chemscore.Rot>
2.3163

> <Gold.Chemscore.Internal.Correction>
   9.000000E+99

> <Gold.Chemscore.Hbonds>
donor molecule, donor type, donor heavy atom, donor atom, acceptor molecule, acceptor atom, score
      L1  H    26    64       P1 10747  0.99

> <Gold.Chemscore.Hbond.Weighted>
-6.1749

> <Gold.Chemscore.Metal.Weighted>
-0.0000

> <Gold.Chemscore.Lipo.Weighted>
-11.3725

> <Gold.Chemscore.Internal_Hbond.Weighted>
0.0000

> <Gold.Chemscore.DEClash.Weighted>
0.2890

> <Gold.Chemscore.DEInternal.Weighted>
2.7627

> <Gold.Chemscore.Rot.Weighted>
5.9297

> <Gold.Chemscore.Internal.Correction.Weighted>
   9.000000E+99

> <Gold.Protein.RotatedTorsions>
[ 6907 6896 6895 6894 ] final  114.78 input  -60.11 | X-H torsion
[ 7974 7965 7964 7962 ] final   -4.97 input  175.53 | X-H torsion
[ 8008 7997 7996 7995 ] final   76.88 input   59.86 | X-H torsion
[ 10167 10162 10161 10158 ] final  145.54 input  -65.29 | X-H torsion
[ 10718 10713 10712 10709 ] final  172.39 input   66.30 | X-H torsion
[ 10763 10752 10751 10750 ] final -100.53 input  -60.55 | X-H torsion
[ 11005 11000 10999 10996 ] final  118.47 input  -57.11 | X-H torsion

> <Gold.Protein.ActiveResidues>
 VAL166  LYS551  ARG553  GLY616  TRP617  ASP618  TYR619  PRO620  LYS621  CYS622 
 ASP623  PHE694  ASN695  SER759  ASP760  ASP761  ALA762  ILE779  LEU786  VAL792 
 PHE793  MET794  SER795  GLU796  ALA797  LYS798  CYS799  TRP800  GLU811  SER814 

> <Gold.Protein.RotatedAtoms>
  152.4782  133.8188  159.7042 H   0  0  0  0  0  0  0  0  0  0  0  0  # atno 6907 bound_to 6896
  150.8812  133.7359  159.2938 H   0  0  0  0  0  0  0  0  0  0  0  0  # atno 6908 bound_to 6896
  151.4863  135.1058  159.9843 H   0  0  0  0  0  0  0  0  0  0  0  0  # atno 6909 bound_to 6896
  146.2362  140.1951  142.8333 H   0  0  0  0  0  0  0  0  0  0  0  0  # atno 7974 bound_to 7965
  155.8336  140.3465  155.5588 H   0  0  0  0  0  0  0  0  0  0  0  0  # atno 8008 bound_to 7997
  155.8216  140.0913  157.1865 H   0  0  0  0  0  0  0  0  0  0  0  0  # atno 8009 bound_to 7997
  154.4004  140.1429  156.3493 H   0  0  0  0  0  0  0  0  0  0  0  0  # atno 8010 bound_to 7997
  139.4924  144.5894  151.6712 H   0  0  0  0  0  0  0  0  0  0  0  0  # atno 10167 bound_to 10162
  156.9797  131.0115  151.2885 H   0  0  0  0  0  0  0  0  0  0  0  0  # atno 10718 bound_to 10713
  154.7586  135.4932  153.9421 H   0  0  0  0  0  0  0  0  0  0  0  0  # atno 10763 bound_to 10752
  153.1225  135.6735  153.9320 H   0  0  0  0  0  0  0  0  0  0  0  0  # atno 10764 bound_to 10752
  153.9048  135.3105  155.3427 H   0  0  0  0  0  0  0  0  0  0  0  0  # atno 10765 bound_to 10752
  139.9111  134.9620  156.7508 H   0  0  0  0  0  0  0  0  0  0  0  0  # atno 11005 bound_to 11000
  144.9826  140.8474  143.5388 LP  0  0  0  0  0  0  0  0  0  0  0  0  # atno 17320 bound_to 7965
  145.1947  139.2283  143.5224 LP  0  0  0  0  0  0  0  0  0  0  0  0  # atno 17321 bound_to 7965
  140.5517  144.0414  150.6130 LP  0  0  0  0  0  0  0  0  0  0  0  0  # atno 17342 bound_to 10162
  140.3470  143.2985  152.0527 LP  0  0  0  0  0  0  0  0  0  0  0  0  # atno 17343 bound_to 10162
  157.5535  130.8198  149.8175 LP  0  0  0  0  0  0  0  0  0  0  0  0  # atno 17370 bound_to 10713
  156.0249  130.3783  150.1851 LP  0  0  0  0  0  0  0  0  0  0  0  0  # atno 17371 bound_to 10713
  140.6775  133.9504  155.7891 LP  0  0  0  0  0  0  0  0  0  0  0  0  # atno 17394 bound_to 11000
  141.0534  134.0452  157.3754 LP  0  0  0  0  0  0  0  0  0  0  0  0  # atno 17395 bound_to 11000

$$$$
