#       Name:                AV-unprocessed.smi:2837
#       Creating user name   scv26
#       Creation time:       Fri Mar 27 15:37:14 2020


#       File generated by GOLD software.
#

@<TRIPOS>MOLECULE
AV-unprocessed.smi:2837
    37    39     1
SMALL
NO_CHARGES


@<TRIPOS>ATOM
      1 ****        -5.6143   2.9500  -0.8106 F              1 S1                 0.0000
      2 ****        -5.5170   1.9710   0.1222 C.3            1 S1                 0.0000
      3 ****        -6.7710   1.5278   0.3807 F              1 S1                 0.0000
      4 ****        -4.7539   0.9460  -0.3422 O.3            1 S1                 0.0000
      5 ****        -3.3952   0.9634  -0.1213 C.ar           1 S1                 0.0000
      6 ****        -2.6379   2.1487   0.0310 C.ar           1 S1                 0.0000
      7 ****        -1.2487   2.0515   0.2379 C.ar           1 S1                 0.0000
      8 ****        -0.6537   0.7740   0.2791 C.ar           1 S1                 0.0000
      9 ****         0.7302   0.6863   0.4870 N.pl3          1 S1                 0.0000
     10 ****         1.4405  -0.5805   0.3487 C.3            1 S1                 0.0000
     11 ****         1.5920  -1.0296  -1.1106 C.3            1 S1                 0.0000
     12 ****         3.1122  -1.1875  -1.2382 C.3            1 S1                 0.0000
     13 ****         3.6448  -2.3749  -0.4247 C.3            1 S1                 0.0000
     14 ****         3.5335  -1.8481   1.0056 C.3            1 S1                 0.0000
     15 ****         2.9109  -0.4626   0.7851 C.3            1 S1                 0.0000
     16 ****         3.5421  -0.1039  -0.4337 O.3            1 S1                 0.0000
     17 ****        -1.3706  -0.3641   0.1263 N.ar           1 S1                 0.0000
     18 ****        -2.7021  -0.2632  -0.0732 C.ar           1 S1                 0.0000
     19 ****        -5.1142   2.3872   1.0458 H              1 S1                 0.0000
     20 ****        -3.1007   3.1232  -0.0140 H              1 S1                 0.0000
     21 ****        -0.6533   2.9448   0.3578 H              1 S1                 0.0000
     22 ****         1.2749   1.5340   0.5530 H              1 S1                 0.0000
     23 ****         0.9383  -1.3395   0.9502 H              1 S1                 0.0000
     24 ****         1.0574  -1.9562  -1.3219 H              1 S1                 0.0000
     25 ****         1.2345  -0.2685  -1.8060 H              1 S1                 0.0000
     26 ****         3.4751  -1.1553  -2.2658 H              1 S1                 0.0000
     27 ****         3.0641  -3.2830  -0.5895 H              1 S1                 0.0000
     28 ****         4.6855  -2.5831  -0.6751 H              1 S1                 0.0000
     29 ****         2.9223  -2.4844   1.6464 H              1 S1                 0.0000
     30 ****         4.5221  -1.7586   1.4571 H              1 S1                 0.0000
     31 ****         3.0856   0.2295   1.6097 H              1 S1                 0.0000
     32 ****        -3.2349  -1.1946  -0.1959 H              1 S1                 0.0000
     33 ****        -4.8879   0.9080  -1.3325 LP             1 S1                 0.0000
     34 ****        -5.1064   0.1080   0.0743 LP             1 S1                 0.0000
     35 ****         3.2131   0.7741  -0.7814 LP             1 S1                 0.0000
     36 ****         4.5378  -0.0753  -0.3453 LP             1 S1                 0.0000
     37 ****        -0.9245  -1.2584   0.1604 LP             1 S1                 0.0000
@<TRIPOS>BOND
    1    1    2 1     
    2    2    3 1     
    3    2    4 1     
    4    2   19 1     
    5    4    5 1     
    6    5   18 ar    
    7    5    6 ar    
    8    6    7 ar    
    9    6   20 1     
   10    7    8 ar    
   11    7   21 1     
   12    8    9 1     
   13    8   17 ar    
   14    9   10 1     
   15    9   22 1     
   16   10   15 1     
   17   10   11 1     
   18   10   23 1     
   19   11   12 1     
   20   11   24 1     
   21   11   25 1     
   22   12   16 1     
   23   12   13 1     
   24   12   26 1     
   25   13   14 1     
   26   13   27 1     
   27   13   28 1     
   28   14   15 1     
   29   14   29 1     
   30   14   30 1     
   31   15   16 1     
   32   15   31 1     
   33   17   18 ar    
   34   18   32 1     
   35    4   33 1     
   36    4   34 1     
   37   16   35 1     
   38   16   36 1     
   39   17   37 1     
@<TRIPOS>SUBSTRUCTURE
      1 S1             1
@<TRIPOS>SET
LONE_PAIRS      STATIC     ATOMS    <user>   **** ""
5 33 34 35 36 37
DONOR_HYDROGENS      STATIC     ATOMS    <user>   **** ""
1 22
ATOM$BLUE        STATIC     ATOMS    COLORGROUP SYSTEM
5 33 34 35 36 37
ATOM$RED        STATIC     ATOMS    COLORGROUP SYSTEM
1 22
