#       Name:                AV-unprocessed.smi:684
#       Creating user name   scv26
#       Creation time:       Fri Mar 27 00:30:14 2020


#       File generated by GOLD software.
#

@<TRIPOS>MOLECULE
AV-unprocessed.smi:684
    43    44     1
SMALL
NO_CHARGES


@<TRIPOS>ATOM
      1 ****        -4.0683  -1.5536   0.7607 C.3            1 S1                 0.0000
      2 ****        -3.7402  -1.1146  -0.6710 C.3            1 S1                 0.0000
      3 ****        -2.6568  -0.1475  -0.7003 N.pl3          1 S1                 0.0000
      4 ****        -1.3829  -0.5959  -0.7134 N.2            1 S1                 0.0000
      5 ****        -0.6520   0.5080  -0.7313 C.2            1 S1                 0.0000
      6 ****         0.7645   0.5729  -0.7536 N.am           1 S1                 0.0000
      7 ****         1.6327  -0.4530  -0.7439 C.2            1 S1                 0.0000
      8 ****         1.3226  -1.6443  -0.7065 O.2            1 S1                 0.0000
      9 ****         2.9002  -0.0154  -0.7734 N.am           1 S1                 0.0000
     10 ****         4.0911  -0.8609  -0.7714 C.3            1 S1                 0.0000
     11 ****         4.7885  -0.8884   0.6051 C.3            1 S1                 0.0000
     12 ****         6.1190  -1.6510   0.5231 C.3            1 S1                 0.0000
     13 ****         3.8996  -1.4786   1.7137 C.3            1 S1                 0.0000
     14 ****        -1.4318   1.6956  -0.7279 C.2            1 S1                 0.0000
     15 ****        -2.7198   1.2367  -0.7016 C.2            1 S1                 0.0000
     16 ****        -4.0137   1.9854  -0.6823 C.3            1 S1                 0.0000
     17 ****        -4.0996   3.3979  -0.1545 C.3            1 S1                 0.0000
     18 ****        -4.7320   2.2607   0.6157 C.3            1 S1                 0.0000
     19 ****        -4.8838  -2.2767   0.7671 H              1 S1                 0.0000
     20 ****        -4.3711  -0.7049   1.3746 H              1 S1                 0.0000
     21 ****        -3.2054  -2.0206   1.2366 H              1 S1                 0.0000
     22 ****        -3.4576  -1.9789  -1.2741 H              1 S1                 0.0000
     23 ****        -4.6206  -0.6798  -1.1447 H              1 S1                 0.0000
     24 ****         1.1596   1.5010  -0.7793 H              1 S1                 0.0000
     25 ****         3.0555   0.9817  -0.7997 H              1 S1                 0.0000
     26 ****         3.8551  -1.8753  -1.0980 H              1 S1                 0.0000
     27 ****         4.7739  -0.4563  -1.5191 H              1 S1                 0.0000
     28 ****         5.0221   0.1404   0.8831 H              1 S1                 0.0000
     29 ****         5.9605  -2.6959   0.2544 H              1 S1                 0.0000
     30 ****         6.6443  -1.6290   1.4784 H              1 S1                 0.0000
     31 ****         6.7803  -1.2114  -0.2241 H              1 S1                 0.0000
     32 ****         3.5888  -2.4954   1.4713 H              1 S1                 0.0000
     33 ****         3.0002  -0.8830   1.8689 H              1 S1                 0.0000
     34 ****         4.4302  -1.5115   2.6657 H              1 S1                 0.0000
     35 ****        -1.1009   2.7234  -0.7396 H              1 S1                 0.0000
     36 ****        -4.6210   1.7466  -1.5533 H              1 S1                 0.0000
     37 ****        -3.2009   3.8449   0.2661 H              1 S1                 0.0000
     38 ****        -4.7650   4.0870  -0.6705 H              1 S1                 0.0000
     39 ****        -5.8176   2.1894   0.6119 H              1 S1                 0.0000
     40 ****        -4.2462   1.9487   1.5384 H              1 S1                 0.0000
     41 ****        -1.0648  -1.5439  -0.7103 LP             1 S1                 0.0000
     42 ****         0.3587  -1.9094  -0.6805 LP             1 S1                 0.0000
     43 ****         2.0346  -2.3464  -0.7022 LP             1 S1                 0.0000
@<TRIPOS>BOND
    1    1    2 1     
    2    1   19 1     
    3    1   20 1     
    4    1   21 1     
    5    2    3 1     
    6    2   22 1     
    7    2   23 1     
    8    3   15 1     
    9    3    4 1     
   10    4    5 2     
   11    5    6 1     
   12    5   14 1     
   13    6    7 am    
   14    6   24 1     
   15    7    8 2     
   16    7    9 am    
   17    9   10 1     
   18    9   25 1     
   19   10   11 1     
   20   10   26 1     
   21   10   27 1     
   22   11   12 1     
   23   11   13 1     
   24   11   28 1     
   25   12   29 1     
   26   12   30 1     
   27   12   31 1     
   28   13   32 1     
   29   13   33 1     
   30   13   34 1     
   31   14   15 2     
   32   14   35 1     
   33   15   16 1     
   34   16   18 1     
   35   16   17 1     
   36   16   36 1     
   37   17   18 1     
   38   17   37 1     
   39   17   38 1     
   40   18   39 1     
   41   18   40 1     
   42    4   41 1     
   43    8   42 1     
   44    8   43 1     
@<TRIPOS>SUBSTRUCTURE
      1 S1             1
@<TRIPOS>SET
LONE_PAIRS      STATIC     ATOMS    <user>   **** ""
3 41 42 43
DONOR_HYDROGENS      STATIC     ATOMS    <user>   **** ""
2 24 25
ATOM$BLUE        STATIC     ATOMS    COLORGROUP SYSTEM
3 41 42 43
ATOM$RED        STATIC     ATOMS    COLORGROUP SYSTEM
2 24 25
