AV-unprocessed.smi:3184|AV-procd|sdf|12164|dock3
  -GOLD-   2272018 03D 1   1.00000     0.00000
 Structure written by MMmdl.
 34 35  0  0  0  0  0  0  0  0  1 V2000
  152.1828  143.8456  158.9088 C   0  0  0  0  0  0  0  0  0  0  0  0
  152.4026  142.3347  158.7489 C   0  0  1  0  0  0  0  0  0  0  0  0
  152.0095  141.5618  160.0223 C   0  0  0  0  0  0  0  0  0  0  0  0
  152.7038  142.0548  161.1980 N   0  0  0  0  0  0  0  0  0  0  0  0
  152.4943  143.2624  161.8503 C   0  0  0  0  0  0  0  0  0  0  0  0
  153.3861  143.3028  162.8982 C   0  0  0  0  0  0  0  0  0  0  0  0
  154.1481  142.1368  162.9109 N   0  0  0  0  0  0  0  0  0  0  0  0
  153.6863  141.4463  161.8766 C   0  0  0  0  0  0  0  0  0  0  0  0
  151.6274  141.8450  157.6108 N   0  0  0  0  0  0  0  0  0  0  0  0
  151.7103  140.6180  157.0686 C   0  0  0  0  0  0  0  0  0  0  0  0
  152.5175  139.7684  157.4471 O   0  0  0  0  0  0  0  0  0  0  0  0
  150.8171  140.3947  156.0803 N   0  0  0  0  0  0  0  0  0  0  0  0
  149.7684  141.3140  155.6275 C   0  0  0  0  0  0  0  0  0  0  0  0
  149.1726  140.6795  154.3707 C   0  0  0  0  0  0  0  0  0  0  0  0
  149.4554  139.1929  154.5334 C   0  0  0  0  0  0  0  0  0  0  0  0
  150.7639  139.1457  155.3225 C   0  0  0  0  0  0  0  0  0  0  0  0
  152.7629  144.2391  159.7440 H   0  0  0  0  0  0  0  0  0  0  0  0
  151.1334  144.0778  159.0936 H   0  0  0  0  0  0  0  0  0  0  0  0
  152.4910  144.3846  158.0122 H   0  0  0  0  0  0  0  0  0  0  0  0
  153.4675  142.1701  158.5747 H   0  0  0  0  0  0  0  0  0  0  0  0
  150.9374  141.6519  160.2017 H   0  0  0  0  0  0  0  0  0  0  0  0
  152.2199  140.4972  159.9088 H   0  0  0  0  0  0  0  0  0  0  0  0
  151.7521  143.9745  161.5213 H   0  0  0  0  0  0  0  0  0  0  0  0
  153.5374  144.0752  163.6377 H   0  0  0  0  0  0  0  0  0  0  0  0
  154.0771  140.4774  161.6017 H   0  0  0  0  0  0  0  0  0  0  0  0
  150.9390  142.4768  157.2281 H   0  0  0  0  0  0  0  0  0  0  0  0
  149.0101  141.4001  156.4075 H   0  0  0  0  0  0  0  0  0  0  0  0
  150.1556  142.3117  155.4153 H   0  0  0  0  0  0  0  0  0  0  0  0
  148.1113  140.8982  154.2485 H   0  0  0  0  0  0  0  0  0  0  0  0
  149.6944  141.0544  153.4891 H   0  0  0  0  0  0  0  0  0  0  0  0
  148.6586  138.7326  155.1191 H   0  0  0  0  0  0  0  0  0  0  0  0
  149.5169  138.6661  153.5806 H   0  0  0  0  0  0  0  0  0  0  0  0
  151.6187  139.1058  154.6459 H   0  0  0  0  0  0  0  0  0  0  0  0
  150.8031  138.2686  155.9705 H   0  0  0  0  0  0  0  0  0  0  0  0
  1  2  1  0  0  0  0
  1 17  1  0  0  0  0
  1 18  1  0  0  0  0
  1 19  1  0  0  0  0
  2  3  1  0  0  0  0
  2  9  1  0  0  0  0
  2 20  1  0  0  0  0
  3  4  1  0  0  0  0
  3 21  1  0  0  0  0
  3 22  1  0  0  0  0
  4  8  1  0  0  0  0
  4  5  1  0  0  0  0
  5  6  2  0  0  0  0
  5 23  1  0  0  0  0
  6  7  1  0  0  0  0
  6 24  1  0  0  0  0
  7  8  2  0  0  0  0
  8 25  1  0  0  0  0
  9 10  1  0  0  0  0
  9 26  1  0  0  0  0
 10 11  2  0  0  0  0
 10 12  1  0  0  0  0
 12 16  1  0  0  0  0
 12 13  1  0  0  0  0
 13 14  1  0  0  0  0
 13 27  1  0  0  0  0
 13 28  1  0  0  0  0
 14 15  1  0  0  0  0
 14 29  1  0  0  0  0
 14 30  1  0  0  0  0
 15 16  1  0  0  0  0
 15 31  1  0  0  0  0
 15 32  1  0  0  0  0
 16 33  1  0  0  0  0
 16 34  1  0  0  0  0
M  END
> <s_m_source_file>
AV-unprocessed.smi

> <i_m_source_file_index>
3184

> <i_lp_mmshare_version>
43012

> <i_f3d_flags>
0

> <s_epik_input>
W2NIXTFuW2NIXVtjSF1uMVtDSDJdW0NAQEhdKFtDSDNdKVtOSF1DKD1PKU4yW0NIMl1bQ0gyXVtDSDJdW0NIMl0y

> <s_epik_cmdline>
J2VwaWtfcHl0aG9uJywgJy1waCcsICc3LjAnLCAnLXRuJywgJzgnLCAnLW1hJywgJzIwMCcsICctbWV0YWxfYmluZGluZycsICctaW1hZScsICc8aW5maWxlLm1hZT4nLCAnLW9tYWUnLCAnPG91dGZpbGUubWFlPic=

> <r_lp_tautomer_probability>
1

> <r_epik_Ionization_Penalty>
0.625774

> <r_epik_Ionization_Penalty_Charging>
0.625709

> <r_epik_Ionization_Penalty_Neutral>
6.46152e-05

> <r_epik_State_Penalty>
0.642123

> <r_epik_Charging_Adjusted_Penalty>
1.26783

> <i_epik_Tot_Q>
0

> <i_epik_Tot_abs_Q>
0

> <r_epik_Metal_State_Penalty>
0.307922

> <b_epik_Metal_Only>
0

> <s_lp_Force_Field>
OPLS_2005

> <r_lp_Energy>
35.7196

> <b_lp_Chiralities_Consistent>
1

> <s_lp_Variant>
AV-unprocessed.smi:3184-4

> <Gold.Version>
5.8.1

> <Gold.Id.Protein>
6NUR|6NUR_protein|mol2

> <Gold.PLP.Fitness>
43.0358

> <Gold.PLP.PLP>
-40.3606

> <Gold.PLP.part.hbond>
-2.0000

> <Gold.PLP.part.metal>
0.0000

> <Gold.PLP.part.buried>
-1.7112

> <Gold.PLP.part.nonpolar>
-35.5526

> <Gold.PLP.part.repulsive>
0.0785

> <Gold.PLP.ligand.clash>
0.0000

> <Gold.PLP.ligand.torsion>
0.1911

> <Gold.PLP.Chemscore.Hbond>
1.0000

> <Gold.PLP.Chemscore.CHOScore>
0.0000

> <Gold.PLP.Chemscore.Metal>
0.0000

> <Gold.Chemscore.Hbonds>
donor molecule, donor type, donor heavy atom, donor atom, acceptor molecule, acceptor atom, score
      P1  H  7997  8009       L1    11  0.89

> <Gold.PLP.Chemscore.Internal.Correction>
0.0574

> <Gold.Rescore>
     Score         DG    S(hbond)    S(metal)    S(lipo)     H(rot)  DE(clash)    DE(int)     intcor
     13.57     -14.27       0.99        0.00      81.80       1.60       0.19       0.51       ----

> <Gold.Chemscore.Fitness>
13.5726

> <Gold.Chemscore.DG>
-14.2650

> <Gold.Chemscore.ZeroCoef>
-5.4800

> <Gold.Chemscore.Hbond>
0.9919

> <Gold.Chemscore.Metal>
0.0000

> <Gold.Chemscore.Lipo>
81.7989

> <Gold.Chemscore.Internal_Hbond>
0.0000

> <Gold.Chemscore.DEClash>
0.1862

> <Gold.Chemscore.DEInternal>
0.5062

> <Gold.Chemscore.Rot>
1.6009

> <Gold.Chemscore.Internal.Correction>
   9.000000E+99

> <Gold.Chemscore.Hbonds>
donor molecule, donor type, donor heavy atom, donor atom, acceptor molecule, acceptor atom, score
      P1  H  7997  8009       L1    11  0.60

> <Gold.Chemscore.Hbond.Weighted>
-3.3129

> <Gold.Chemscore.Metal.Weighted>
-0.0000

> <Gold.Chemscore.Lipo.Weighted>
-9.5705

> <Gold.Chemscore.Internal_Hbond.Weighted>
0.0000

> <Gold.Chemscore.DEClash.Weighted>
0.1862

> <Gold.Chemscore.DEInternal.Weighted>
0.5062

> <Gold.Chemscore.Rot.Weighted>
4.0983

> <Gold.Chemscore.Internal.Correction.Weighted>
   9.000000E+99

> <Gold.Protein.RotatedTorsions>
[ 6907 6896 6895 6894 ] final   72.22 input  -60.11 | X-H torsion
[ 7974 7965 7964 7962 ] final  -92.21 input  175.53 | X-H torsion
[ 8008 7997 7996 7995 ] final -172.57 input   59.86 | X-H torsion
[ 10167 10162 10161 10158 ] final  -99.69 input  -65.29 | X-H torsion
[ 10718 10713 10712 10709 ] final  -99.36 input   66.30 | X-H torsion
[ 10763 10752 10751 10750 ] final  173.89 input  -60.55 | X-H torsion
[ 11005 11000 10999 10996 ] final   -5.16 input  -57.11 | X-H torsion

> <Gold.Protein.ActiveResidues>
 VAL166  LYS551  ARG553  GLY616  TRP617  ASP618  TYR619  PRO620  LYS621  CYS622 
 ASP623  PHE694  ASN695  SER759  ASP760  ASP761  ALA762  ILE779  LEU786  VAL792 
 PHE793  MET794  SER795  GLU796  ALA797  LYS798  CYS799  TRP800  GLU811  SER814 

> <Gold.Protein.RotatedAtoms>
  152.4855  134.4604  159.9602 H   0  0  0  0  0  0  0  0  0  0  0  0  # atno 6907 bound_to 6896
  151.4601  133.3589  159.2815 H   0  0  0  0  0  0  0  0  0  0  0  0  # atno 6908 bound_to 6896
  150.8962  134.8396  159.7389 H   0  0  0  0  0  0  0  0  0  0  0  0  # atno 6909 bound_to 6896
  145.4028  140.9539  143.2277 H   0  0  0  0  0  0  0  0  0  0  0  0  # atno 7974 bound_to 7965
  155.9462  140.1118  157.1014 H   0  0  0  0  0  0  0  0  0  0  0  0  # atno 8008 bound_to 7997
  154.4100  140.1209  156.5059 H   0  0  0  0  0  0  0  0  0  0  0  0  # atno 8009 bound_to 7997
  155.6899  140.3472  155.4892 H   0  0  0  0  0  0  0  0  0  0  0  0  # atno 8010 bound_to 7997
  140.2598  143.3415  152.0637 H   0  0  0  0  0  0  0  0  0  0  0  0  # atno 10167 bound_to 10162
  156.0132  130.5279  150.6659 H   0  0  0  0  0  0  0  0  0  0  0  0  # atno 10718 bound_to 10713
  154.4463  135.2763  155.1812 H   0  0  0  0  0  0  0  0  0  0  0  0  # atno 10763 bound_to 10752
  154.3658  135.6119  153.5717 H   0  0  0  0  0  0  0  0  0  0  0  0  # atno 10764 bound_to 10752
  152.9844  135.5845  154.4800 H   0  0  0  0  0  0  0  0  0  0  0  0  # atno 10765 bound_to 10752
  140.6881  133.9095  155.8600 H   0  0  0  0  0  0  0  0  0  0  0  0  # atno 11005 bound_to 11000
  144.8362  139.5546  143.6921 LP  0  0  0  0  0  0  0  0  0  0  0  0  # atno 17320 bound_to 7965
  146.2743  139.6714  142.9274 LP  0  0  0  0  0  0  0  0  0  0  0  0  # atno 17321 bound_to 7965
  139.5020  144.6726  151.6206 LP  0  0  0  0  0  0  0  0  0  0  0  0  # atno 17342 bound_to 10162
  140.5975  143.9669  150.6364 LP  0  0  0  0  0  0  0  0  0  0  0  0  # atno 17343 bound_to 10162
  157.4392  131.0859  151.0961 LP  0  0  0  0  0  0  0  0  0  0  0  0  # atno 17370 bound_to 10713
  157.1510  130.6184  149.5582 LP  0  0  0  0  0  0  0  0  0  0  0  0  # atno 17371 bound_to 10713
  141.0263  134.0818  157.4064 LP  0  0  0  0  0  0  0  0  0  0  0  0  # atno 17394 bound_to 11000
  139.8931  135.0129  156.6883 LP  0  0  0  0  0  0  0  0  0  0  0  0  # atno 17395 bound_to 11000

$$$$
