AV-unprocessed.smi:247|AV-procd|sdf|1892|dock4
  -GOLD-   2262020553D 1   1.00000     0.00000
 Structure written by MMmdl.
 61 65  0  0  0  0  0  0  0  0  1 V2000
  148.4838  137.0923  160.2487 O   0  0  0  0  0  0  0  0  0  0  0  0
  147.3656  136.5005  159.6169 C   0  0  0  0  0  0  0  0  0  0  0  0
  147.1875  134.9940  159.9566 C   0  0  0  0  0  0  0  0  0  0  0  0
  145.9890  134.4339  159.1254 C   0  0  0  0  0  0  0  0  0  0  0  0
  146.1386  134.5400  157.6813 N   0  0  0  0  0  0  0  0  0  0  0  0
  147.1064  133.9401  156.9065 C   0  0  0  0  0  0  0  0  0  0  0  0
  147.0374  134.1975  155.6294 N   0  0  0  0  0  0  0  0  0  0  0  0
  145.9243  135.0205  155.5116 C   0  0  0  0  0  0  0  0  0  0  0  0
  145.2887  135.6836  154.4241 C   0  0  0  0  0  0  0  0  0  0  0  0
  145.7174  135.6480  153.1439 N   0  0  0  0  0  0  0  0  0  0  0  0
  146.1070  136.9482  152.6034 C   0  0  0  0  0  0  0  0  0  0  0  0
  145.5214  137.0309  151.1907 C   0  0  0  0  0  0  0  0  0  0  0  0
  145.2530  135.5737  150.8344 C   0  0  0  0  0  0  0  0  0  0  0  0
  144.8251  134.9909  152.1877 C   0  0  1  0  0  0  0  0  0  0  0  0
  144.7877  133.4315  152.3433 C   0  0  2  0  0  0  0  0  0  0  0  0
  146.1181  132.7131  152.0131 C   0  0  0  0  0  0  0  0  0  0  0  0
  146.4178  132.8182  150.6233 O   0  0  0  0  0  0  0  0  0  0  0  0
  145.4603  132.1698  149.7925 C   0  0  0  0  0  0  0  0  0  0  0  0
  144.0681  132.7876  149.9984 C   0  0  0  0  0  0  0  0  0  0  0  0
  143.6925  132.7494  151.4868 C   0  0  2  0  0  0  0  0  0  0  0  0
  142.4092  133.3049  151.6868 O   0  0  0  0  0  0  0  0  0  0  0  0
  144.1849  136.4244  154.6861 N   0  0  0  0  0  0  0  0  0  0  0  0
  143.7294  136.5217  155.9389 C   0  0  0  0  0  0  0  0  0  0  0  0
  144.2234  135.9752  157.0522 N   0  0  0  0  0  0  0  0  0  0  0  0
  145.3354  135.2299  156.7892 C   0  0  0  0  0  0  0  0  0  0  0  0
  148.5060  134.2325  159.6622 C   0  0  0  0  0  0  0  0  0  0  0  0
  148.4770  132.7870  160.1896 C   0  0  0  0  0  0  0  0  0  0  0  0
  148.2162  132.7888  161.5878 O   0  0  0  0  0  0  0  0  0  0  0  0
  146.9496  133.3457  161.9192 C   0  0  0  0  0  0  0  0  0  0  0  0
  146.8787  134.8170  161.4658 C   0  0  0  0  0  0  0  0  0  0  0  0
  149.2157  136.4984  160.1814 H   0  0  0  0  0  0  0  0  0  0  0  0
  146.4779  137.0629  159.9083 H   0  0  0  0  0  0  0  0  0  0  0  0
  147.4931  136.6434  158.5439 H   0  0  0  0  0  0  0  0  0  0  0  0
  145.8035  133.3849  159.3506 H   0  0  0  0  0  0  0  0  0  0  0  0
  145.0715  134.9535  159.4049 H   0  0  0  0  0  0  0  0  0  0  0  0
  147.8796  133.3109  157.3224 H   0  0  0  0  0  0  0  0  0  0  0  0
  145.7829  137.7897  153.2170 H   0  0  0  0  0  0  0  0  0  0  0  0
  147.1958  136.9790  152.5588 H   0  0  0  0  0  0  0  0  0  0  0  0
  144.5804  137.5822  151.2142 H   0  0  0  0  0  0  0  0  0  0  0  0
  146.1866  137.5281  150.4844 H   0  0  0  0  0  0  0  0  0  0  0  0
  144.4926  135.4643  150.0608 H   0  0  0  0  0  0  0  0  0  0  0  0
  146.1807  135.1267  150.4773 H   0  0  0  0  0  0  0  0  0  0  0  0
  143.8195  135.3723  152.3640 H   0  0  0  0  0  0  0  0  0  0  0  0
  144.5717  133.2058  153.3888 H   0  0  0  0  0  0  0  0  0  0  0  0
  146.9437  133.1135  152.5996 H   0  0  0  0  0  0  0  0  0  0  0  0
  146.0551  131.6582  152.2862 H   0  0  0  0  0  0  0  0  0  0  0  0
  145.7673  132.2750  148.7520 H   0  0  0  0  0  0  0  0  0  0  0  0
  145.4446  131.1011  150.0118 H   0  0  0  0  0  0  0  0  0  0  0  0
  144.0662  133.8139  149.6299 H   0  0  0  0  0  0  0  0  0  0  0  0
  143.3306  132.2438  149.4069 H   0  0  0  0  0  0  0  0  0  0  0  0
  143.6201  131.7046  151.7923 H   0  0  0  0  0  0  0  0  0  0  0  0
  142.0691  133.5841  150.8503 H   0  0  0  0  0  0  0  0  0  0  0  0
  142.8462  137.1292  156.0686 H   0  0  0  0  0  0  0  0  0  0  0  0
  148.7413  134.2447  158.5987 H   0  0  0  0  0  0  0  0  0  0  0  0
  149.3408  134.7385  160.1483 H   0  0  0  0  0  0  0  0  0  0  0  0
  147.7360  132.1815  159.6675 H   0  0  0  0  0  0  0  0  0  0  0  0
  149.4433  132.3124  160.0185 H   0  0  0  0  0  0  0  0  0  0  0  0
  146.1494  132.7481  161.4826 H   0  0  0  0  0  0  0  0  0  0  0  0
  146.8202  133.2875  162.9998 H   0  0  0  0  0  0  0  0  0  0  0  0
  147.5976  135.3750  162.0660 H   0  0  0  0  0  0  0  0  0  0  0  0
  145.9006  135.2347  161.7064 H   0  0  0  0  0  0  0  0  0  0  0  0
  1  2  1  0  0  0  0
  1 31  1  0  0  0  0
  2  3  1  0  0  0  0
  2 32  1  0  0  0  0
  2 33  1  0  0  0  0
  3 30  1  0  0  0  0
  3  4  1  0  0  0  0
  3 26  1  0  0  0  0
  4  5  1  0  0  0  0
  4 34  1  0  0  0  0
  4 35  1  0  0  0  0
  5 25  1  0  0  0  0
  5  6  1  0  0  0  0
  6  7  2  0  0  0  0
  6 36  1  0  0  0  0
  7  8  1  0  0  0  0
  8 25  2  0  0  0  0
  8  9  1  0  0  0  0
  9 10  1  0  0  0  0
  9 22  2  0  0  0  0
 10 14  1  0  0  0  0
 10 11  1  0  0  0  0
 11 12  1  0  0  0  0
 11 37  1  0  0  0  0
 11 38  1  0  0  0  0
 12 13  1  0  0  0  0
 12 39  1  0  0  0  0
 12 40  1  0  0  0  0
 13 14  1  0  0  0  0
 13 41  1  0  0  0  0
 13 42  1  0  0  0  0
 14 15  1  0  0  0  0
 14 43  1  0  0  0  0
 15 20  1  0  0  0  0
 15 16  1  0  0  0  0
 15 44  1  0  0  0  0
 16 17  1  0  0  0  0
 16 45  1  0  0  0  0
 16 46  1  0  0  0  0
 17 18  1  0  0  0  0
 18 19  1  0  0  0  0
 18 47  1  0  0  0  0
 18 48  1  0  0  0  0
 19 20  1  0  0  0  0
 19 49  1  0  0  0  0
 19 50  1  0  0  0  0
 20 21  1  0  0  0  0
 20 51  1  0  0  0  0
 21 52  1  0  0  0  0
 22 23  1  0  0  0  0
 23 24  2  0  0  0  0
 23 53  1  0  0  0  0
 24 25  1  0  0  0  0
 26 27  1  0  0  0  0
 26 54  1  0  0  0  0
 26 55  1  0  0  0  0
 27 28  1  0  0  0  0
 27 56  1  0  0  0  0
 27 57  1  0  0  0  0
 28 29  1  0  0  0  0
 29 30  1  0  0  0  0
 29 58  1  0  0  0  0
 29 59  1  0  0  0  0
 30 60  1  0  0  0  0
 30 61  1  0  0  0  0
M  END
> <s_m_source_file>
AV-unprocessed.smi

> <i_m_source_file_index>
247

> <i_lp_mmshare_version>
43012

> <i_f3d_flags>
0

> <s_epik_input>
W0NIMl0xW0NIMl1PW0NIMl1bQ0gyXUMxKFtDSDJdW09IXSlbQ0gyXW4oW2NIXW4yKWMoYzIzKW5bY0hdbmMzTjRbQ0gyXVtDSDJdW0NIMl1bQ0BIXTRbQ0BASF01W0NIMl1PW0NIMl1bQ0gyXVtDQEhdNVtPSF0=

> <s_epik_cmdline>
J2VwaWtfcHl0aG9uJywgJy1waCcsICc3LjAnLCAnLXRuJywgJzgnLCAnLW1hJywgJzIwMCcsICctbWV0YWxfYmluZGluZycsICctaW1hZScsICc8aW5maWxlLm1hZT4nLCAnLW9tYWUnLCAnPG91dGZpbGUubWFlPic=

> <r_lp_tautomer_probability>
1

> <r_epik_Ionization_Penalty>
0.00362597

> <r_epik_Ionization_Penalty_Charging>
0

> <r_epik_Ionization_Penalty_Neutral>
0.00362597

> <r_epik_State_Penalty>
0.00241433

> <r_epik_Charging_Adjusted_Penalty>
0.00241433

> <i_epik_Tot_Q>
0

> <i_epik_Tot_abs_Q>
0

> <r_epik_Metal_State_Penalty>
-0

> <b_epik_Metal_Only>
0

> <s_lp_Force_Field>
OPLS_2005

> <r_lp_Energy>
63.5358

> <b_lp_Chiralities_Consistent>
1

> <s_lp_Variant>
AV-unprocessed.smi:247-5

> <Gold.Version>
5.8.1

> <Gold.Id.Protein>
6NUR|6NUR_protein|mol2

> <Gold.PLP.Fitness>
37.7445

> <Gold.PLP.PLP>
-32.0222

> <Gold.PLP.part.hbond>
-3.0000

> <Gold.PLP.part.metal>
0.0000

> <Gold.PLP.part.buried>
-2.5839

> <Gold.PLP.part.nonpolar>
-26.7582

> <Gold.PLP.part.repulsive>
0.3188

> <Gold.PLP.ligand.clash>
0.0000

> <Gold.PLP.ligand.torsion>
0.1074

> <Gold.PLP.Chemscore.Hbond>
1.9456

> <Gold.PLP.Chemscore.CHOScore>
0.0000

> <Gold.PLP.Chemscore.Metal>
0.0000

> <Gold.Chemscore.Hbonds>
donor molecule, donor type, donor heavy atom, donor atom, acceptor molecule, acceptor atom, score
      L1  H    21    52       P1 10186  1.00
      P1  H  6931  6943       L1     1  0.60
      P1  H  6934  6947       L1     1  0.02

> <Gold.PLP.Chemscore.Internal.Correction>
0.1003

> <Gold.Rescore>
     Score         DG    S(hbond)    S(metal)    S(lipo)     H(rot)  DE(clash)    DE(int)     intcor
     11.71     -13.97       1.81        0.00      91.56       3.23       0.94       1.32       ----

> <Gold.Chemscore.Fitness>
11.7130

> <Gold.Chemscore.DG>
-13.9749

> <Gold.Chemscore.ZeroCoef>
-5.4800

> <Gold.Chemscore.Hbond>
1.8100

> <Gold.Chemscore.Metal>
0.0000

> <Gold.Chemscore.Lipo>
91.5621

> <Gold.Chemscore.Internal_Hbond>
0.0000

> <Gold.Chemscore.DEClash>
0.9444

> <Gold.Chemscore.DEInternal>
1.3174

> <Gold.Chemscore.Rot>
3.2278

> <Gold.Chemscore.Internal.Correction>
   9.000000E+99

> <Gold.Chemscore.Hbonds>
donor molecule, donor type, donor heavy atom, donor atom, acceptor molecule, acceptor atom, score
      L1  H    21    52       P1 10186  0.74
      P1  H  6931  6943       L1     1  0.17

> <Gold.Chemscore.Hbond.Weighted>
-6.0454

> <Gold.Chemscore.Metal.Weighted>
-0.0000

> <Gold.Chemscore.Lipo.Weighted>
-10.7128

> <Gold.Chemscore.Internal_Hbond.Weighted>
0.0000

> <Gold.Chemscore.DEClash.Weighted>
0.9444

> <Gold.Chemscore.DEInternal.Weighted>
1.3174

> <Gold.Chemscore.Rot.Weighted>
8.2633

> <Gold.Chemscore.Internal.Correction.Weighted>
   9.000000E+99

> <Gold.Protein.RotatedTorsions>
[ 6907 6896 6895 6894 ] final   56.06 input  -60.11 | X-H torsion
[ 7974 7965 7964 7962 ] final   56.33 input  175.53 | X-H torsion
[ 8008 7997 7996 7995 ] final  -67.55 input   59.86 | X-H torsion
[ 10167 10162 10161 10158 ] final -105.76 input  -65.29 | X-H torsion
[ 10718 10713 10712 10709 ] final -173.43 input   66.30 | X-H torsion
[ 10763 10752 10751 10750 ] final   42.64 input  -60.55 | X-H torsion
[ 11005 11000 10999 10996 ] final  120.03 input  -57.11 | X-H torsion

> <Gold.Protein.ActiveResidues>
 VAL166  LYS551  ARG553  GLY616  TRP617  ASP618  TYR619  PRO620  LYS621  CYS622 
 ASP623  PHE694  ASN695  SER759  ASP760  ASP761  ALA762  ILE779  LEU786  VAL792 
 PHE793  MET794  SER795  GLU796  ALA797  LYS798  CYS799  TRP800  GLU811  SER814 

> <Gold.Protein.RotatedAtoms>
  152.3599  134.6886  160.0209 H   0  0  0  0  0  0  0  0  0  0  0  0  # atno 6907 bound_to 6896
  151.7213  133.3309  159.3324 H   0  0  0  0  0  0  0  0  0  0  0  0  # atno 6908 bound_to 6896
  150.7598  134.6380  159.6266 H   0  0  0  0  0  0  0  0  0  0  0  0  # atno 6909 bound_to 6896
  145.9409  139.3888  143.0364 H   0  0  0  0  0  0  0  0  0  0  0  0  # atno 7974 bound_to 7965
  154.4808  140.0890  156.7371 H   0  0  0  0  0  0  0  0  0  0  0  0  # atno 8008 bound_to 7997
  155.4477  140.3456  155.4279 H   0  0  0  0  0  0  0  0  0  0  0  0  # atno 8009 bound_to 7997
  156.1187  140.1468  156.9223 H   0  0  0  0  0  0  0  0  0  0  0  0  # atno 8010 bound_to 7997
  140.1950  143.3862  152.1175 H   0  0  0  0  0  0  0  0  0  0  0  0  # atno 10167 bound_to 10162
  156.7703  130.9446  151.3120 H   0  0  0  0  0  0  0  0  0  0  0  0  # atno 10718 bound_to 10713
  152.9878  135.6125  154.2982 H   0  0  0  0  0  0  0  0  0  0  0  0  # atno 10763 bound_to 10752
  154.2704  135.2779  155.2742 H   0  0  0  0  0  0  0  0  0  0  0  0  # atno 10764 bound_to 10752
  154.5127  135.5836  153.6674 H   0  0  0  0  0  0  0  0  0  0  0  0  # atno 10765 bound_to 10752
  139.9169  134.9632  156.7746 H   0  0  0  0  0  0  0  0  0  0  0  0  # atno 11005 bound_to 11000
  145.8301  140.9635  143.0854 LP  0  0  0  0  0  0  0  0  0  0  0  0  # atno 17320 bound_to 7965
  144.6779  140.0151  143.7484 LP  0  0  0  0  0  0  0  0  0  0  0  0  # atno 17321 bound_to 7965
  139.5240  144.7078  151.5299 LP  0  0  0  0  0  0  0  0  0  0  0  0  # atno 17342 bound_to 10162
  140.6429  143.8852  150.6709 LP  0  0  0  0  0  0  0  0  0  0  0  0  # atno 17343 bound_to 10162
  157.6694  130.9037  150.0006 LP  0  0  0  0  0  0  0  0  0  0  0  0  # atno 17370 bound_to 10713
  156.1282  130.3644  149.9774 LP  0  0  0  0  0  0  0  0  0  0  0  0  # atno 17371 bound_to 10713
  140.6593  133.9659  155.7796 LP  0  0  0  0  0  0  0  0  0  0  0  0  # atno 17394 bound_to 11000
  141.0654  134.0284  157.3601 LP  0  0  0  0  0  0  0  0  0  0  0  0  # atno 17395 bound_to 11000

$$$$
