AV-unprocessed.smi:2021|AV-procd|sdf|8181|dock4
  -GOLD-   2272010433D 1   1.00000     0.00000
 Structure written by MMmdl.
 41 42  0  0  0  0  0  0  0  0  3 V2000
  146.7962  138.7785  152.5528 C   0  0  0  0  0  0  0  0  0  0  0  0
  147.0270  138.8238  154.0707 C   0  0  0  0  0  0  0  0  0  0  0  0
  146.0812  139.8431  154.7276 C   0  0  0  0  0  0  0  0  0  0  0  0
  148.5078  139.1279  154.3851 C   0  0  0  0  0  0  0  0  0  0  0  0
  149.3833  137.9307  154.3017 N   0  3  1  0  0  0  0  0  0  0  0  0
  150.8138  138.2210  154.5694 C   0  0  0  0  0  0  0  0  0  0  0  0
  151.6544  136.9410  154.4410 C   0  0  0  0  0  0  0  0  0  0  0  0
  151.1424  135.9536  155.3237 O   0  0  0  0  0  0  0  0  0  0  0  0
  149.8051  135.5816  155.0060 C   0  0  1  0  0  0  0  0  0  0  0  0
  149.3697  134.4357  155.9364 C   0  0  0  0  0  0  0  0  0  0  0  0
  149.4780  134.8156  157.3410 N   0  0  0  0  0  0  0  0  0  0  0  0
  148.4668  134.8892  158.2178 C   0  0  0  0  0  0  0  0  0  0  0  0
  147.3227  134.5924  157.8667 O   0  0  0  0  0  0  0  0  0  0  0  0
  148.8449  135.3072  159.4463 N   0  5  0  0  0  0  0  0  0  0  0  0
  147.9658  135.9426  160.2389 C   0  0  0  0  0  0  0  0  0  0  0  0
  147.2902  137.0305  159.8349 N   0  0  0  0  0  0  0  0  0  0  0  0
  146.4361  137.5345  160.8065 N   0  0  0  0  0  0  0  0  0  0  0  0
  146.4964  136.8151  161.9268 C   0  0  0  0  0  0  0  0  0  0  0  0
  147.6024  135.4579  161.8975 S   0  0  0  0  0  0  0  0  0  0  0  0
  148.9090  136.8248  155.1683 C   0  0  0  0  0  0  0  0  0  0  0  0
  147.0249  139.7375  152.0867 H   0  0  0  0  0  0  0  0  0  0  0  0
  145.7593  138.5347  152.3194 H   0  0  0  0  0  0  0  0  0  0  0  0
  147.4238  138.0213  152.0818 H   0  0  0  0  0  0  0  0  0  0  0  0
  146.7736  137.8355  154.4529 H   0  0  0  0  0  0  0  0  0  0  0  0
  146.2887  140.8567  154.3827 H   0  0  0  0  0  0  0  0  0  0  0  0
  146.1757  139.8344  155.8136 H   0  0  0  0  0  0  0  0  0  0  0  0
  145.0403  139.6198  154.4918 H   0  0  0  0  0  0  0  0  0  0  0  0
  148.8932  139.8980  153.7149 H   0  0  0  0  0  0  0  0  0  0  0  0
  148.5635  139.5475  155.3910 H   0  0  0  0  0  0  0  0  0  0  0  0
  151.1921  138.9673  153.8723 H   0  0  0  0  0  0  0  0  0  0  0  0
  150.9220  138.6351  155.5730 H   0  0  0  0  0  0  0  0  0  0  0  0
  151.6513  136.5700  153.4149 H   0  0  0  0  0  0  0  0  0  0  0  0
  152.6928  137.1444  154.7034 H   0  0  0  0  0  0  0  0  0  0  0  0
  149.7584  135.2339  153.9721 H   0  0  0  0  0  0  0  0  0  0  0  0
  148.3584  134.1022  155.6969 H   0  0  0  0  0  0  0  0  0  0  0  0
  150.0204  133.5740  155.7855 H   0  0  0  0  0  0  0  0  0  0  0  0
  150.3975  135.0597  157.6788 H   0  0  0  0  0  0  0  0  0  0  0  0
  145.8881  137.0866  162.7764 H   0  0  0  0  0  0  0  0  0  0  0  0
  148.9034  137.1537  156.2091 H   0  0  0  0  0  0  0  0  0  0  0  0
  147.8811  136.5707  154.9059 H   0  0  0  0  0  0  0  0  0  0  0  0
  149.3212  137.5909  153.3525 H   0  0  0  0  0  0  0  0  0  0  0  0
  1  2  1  0  0  0  0
  1 21  1  0  0  0  0
  1 22  1  0  0  0  0
  1 23  1  0  0  0  0
  2  3  1  0  0  0  0
  2  4  1  0  0  0  0
  2 24  1  0  0  0  0
  3 25  1  0  0  0  0
  3 26  1  0  0  0  0
  3 27  1  0  0  0  0
  4  5  1  0  0  0  0
  4 28  1  0  0  0  0
  4 29  1  0  0  0  0
  5 20  1  0  0  0  0
  5  6  1  0  0  0  0
  5 41  1  0  0  0  0
  6  7  1  0  0  0  0
  6 30  1  0  0  0  0
  6 31  1  0  0  0  0
  7  8  1  0  0  0  0
  7 32  1  0  0  0  0
  7 33  1  0  0  0  0
  8  9  1  0  0  0  0
  9 10  1  0  0  0  0
  9 20  1  0  0  0  0
  9 34  1  0  0  0  0
 10 11  1  0  0  0  0
 10 35  1  0  0  0  0
 10 36  1  0  0  0  0
 11 12  1  0  0  0  0
 11 37  1  0  0  0  0
 12 13  2  0  0  0  0
 12 14  1  0  0  0  0
 14 15  1  0  0  0  0
 15 19  1  0  0  0  0
 15 16  2  0  0  0  0
 16 17  1  0  0  0  0
 17 18  2  0  0  0  0
 18 19  1  0  0  0  0
 18 38  1  0  0  0  0
 20 39  1  0  0  0  0
 20 40  1  0  0  0  0
M  CHG  1   5   1
M  CHG  1  14  -1
M  END
> <s_m_source_file>
AV-unprocessed.smi

> <i_m_source_file_index>
2021

> <i_lp_mmshare_version>
43012

> <i_f3d_flags>
0

> <s_epik_input>
W0NIM11bQ0hdKFtDSDNdKVtDSDJdTjFbQ0gyXVtDSDJdT1tDQEhdKFtDSDJdMSlbQ0gyXVtOSF1DKD1PKVtOSF1jMm5uW2NIXXMy

> <s_epik_cmdline>
J2VwaWtfcHl0aG9uJywgJy1waCcsICc3LjAnLCAnLXRuJywgJzgnLCAnLW1hJywgJzIwMCcsICctbWV0YWxfYmluZGluZycsICctaW1hZScsICc8aW5maWxlLm1hZT4nLCAnLW9tYWUnLCAnPG91dGZpbGUubWFlPic=

> <r_lp_tautomer_probability>
1

> <r_epik_Ionization_Penalty>
3.15762

> <r_epik_Ionization_Penalty_Charging>
3.12229

> <r_epik_Ionization_Penalty_Neutral>
0.0353298

> <r_epik_State_Penalty>
3.11266

> <r_epik_Charging_Adjusted_Penalty>
6.23495

> <i_epik_Tot_Q>
0

> <i_epik_Tot_abs_Q>
2

> <r_epik_Metal_State_Penalty>
0.541462

> <b_epik_Metal_Only>
1

> <s_lp_Force_Field>
OPLS_2005

> <r_lp_Energy>
10.0285

> <b_lp_Chiralities_Consistent>
1

> <s_lp_Variant>
AV-unprocessed.smi:2021-7

> <Gold.Version>
5.8.1

> <Gold.Id.Protein>
6NUR|6NUR_protein|mol2

> <Gold.PLP.Fitness>
37.4047

> <Gold.PLP.PLP>
-24.3561

> <Gold.PLP.part.hbond>
-4.7769

> <Gold.PLP.part.metal>
0.0000

> <Gold.PLP.part.buried>
-0.4406

> <Gold.PLP.part.nonpolar>
-20.8994

> <Gold.PLP.part.repulsive>
0.2149

> <Gold.PLP.ligand.clash>
0.0000

> <Gold.PLP.ligand.torsion>
0.8961

> <Gold.PLP.Chemscore.Hbond>
4.9000

> <Gold.PLP.Chemscore.CHOScore>
0.0000

> <Gold.PLP.Chemscore.Metal>
0.0000

> <Gold.Chemscore.Hbonds>
donor molecule, donor type, donor heavy atom, donor atom, acceptor molecule, acceptor atom, score
      L1  H     5    41       P1  7948  2.00
      P1  H  6896  6908       L1    14  2.00
      P1  H  6934  6947       L1    17  0.80

> <Gold.PLP.Chemscore.Internal.Correction>
0.1409

> <Gold.Rescore>
     Score         DG    S(hbond)    S(metal)    S(lipo)     H(rot)  DE(clash)    DE(int)     intcor
     13.65     -17.11       2.56        0.00      66.88       1.85       2.47       0.99       ----

> <Gold.Chemscore.Fitness>
13.6518

> <Gold.Chemscore.DG>
-17.1130

> <Gold.Chemscore.ZeroCoef>
-5.4800

> <Gold.Chemscore.Hbond>
2.5554

> <Gold.Chemscore.Metal>
0.0000

> <Gold.Chemscore.Lipo>
66.8816

> <Gold.Chemscore.Internal_Hbond>
0.0000

> <Gold.Chemscore.DEClash>
2.4694

> <Gold.Chemscore.DEInternal>
0.9918

> <Gold.Chemscore.Rot>
1.8466

> <Gold.Chemscore.Internal.Correction>
   9.000000E+99

> <Gold.Chemscore.Hbonds>
donor molecule, donor type, donor heavy atom, donor atom, acceptor molecule, acceptor atom, score
      L1  H     5    41       P1  7948  0.90
      P1  H  6896  6908       L1    14  0.29
      P1  H  6934  6947       L1    17  0.10

> <Gold.Chemscore.Hbond.Weighted>
-8.5350

> <Gold.Chemscore.Metal.Weighted>
-0.0000

> <Gold.Chemscore.Lipo.Weighted>
-7.8251

> <Gold.Chemscore.Internal_Hbond.Weighted>
0.0000

> <Gold.Chemscore.DEClash.Weighted>
2.4694

> <Gold.Chemscore.DEInternal.Weighted>
0.9918

> <Gold.Chemscore.Rot.Weighted>
4.7272

> <Gold.Chemscore.Internal.Correction.Weighted>
   9.000000E+99

> <Gold.Protein.RotatedTorsions>
[ 6907 6896 6895 6894 ] final  168.64 input  -60.11 | X-H torsion
[ 7974 7965 7964 7962 ] final  -51.32 input  175.53 | X-H torsion
[ 8008 7997 7996 7995 ] final  166.26 input   59.86 | X-H torsion
[ 10167 10162 10161 10158 ] final  152.31 input  -65.29 | X-H torsion
[ 10718 10713 10712 10709 ] final -118.80 input   66.30 | X-H torsion
[ 10763 10752 10751 10750 ] final -130.79 input  -60.55 | X-H torsion
[ 11005 11000 10999 10996 ] final  116.92 input  -57.11 | X-H torsion

> <Gold.Protein.ActiveResidues>
 VAL166  LYS551  ARG553  GLY616  TRP617  ASP618  TYR619  PRO620  LYS621  CYS622 
 ASP623  PHE694  ASN695  SER759  ASP760  ASP761  ALA762  ILE779  LEU786  VAL792 
 PHE793  MET794  SER795  GLU796  ALA797  LYS798  CYS799  TRP800  GLU811  SER814 

> <Gold.Protein.RotatedAtoms>
  151.8444  133.3429  159.3652 H   0  0  0  0  0  0  0  0  0  0  0  0  # atno 6907 bound_to 6896
  150.7225  134.5360  159.5733 H   0  0  0  0  0  0  0  0  0  0  0  0  # atno 6908 bound_to 6896
  152.2840  134.7797  160.0442 H   0  0  0  0  0  0  0  0  0  0  0  0  # atno 6909 bound_to 6896
  145.9203  140.7839  142.9651 H   0  0  0  0  0  0  0  0  0  0  0  0  # atno 7974 bound_to 7965
  156.1733  140.1648  156.8408 H   0  0  0  0  0  0  0  0  0  0  0  0  # atno 8008 bound_to 7997
  154.5280  140.0763  156.8327 H   0  0  0  0  0  0  0  0  0  0  0  0  # atno 8009 bound_to 7997
  155.3467  140.3387  155.4241 H   0  0  0  0  0  0  0  0  0  0  0  0  # atno 8010 bound_to 7997
  139.4834  144.5369  151.7631 H   0  0  0  0  0  0  0  0  0  0  0  0  # atno 10167 bound_to 10162
  156.1133  130.6266  150.9337 H   0  0  0  0  0  0  0  0  0  0  0  0  # atno 10718 bound_to 10713
  154.8754  135.3851  154.4141 H   0  0  0  0  0  0  0  0  0  0  0  0  # atno 10763 bound_to 10752
  153.4852  135.7030  153.5920 H   0  0  0  0  0  0  0  0  0  0  0  0  # atno 10764 bound_to 10752
  153.4318  135.3877  155.2142 H   0  0  0  0  0  0  0  0  0  0  0  0  # atno 10765 bound_to 10752
  139.9057  134.9604  156.7271 H   0  0  0  0  0  0  0  0  0  0  0  0  # atno 11005 bound_to 11000
  144.6752  140.1965  143.7391 LP  0  0  0  0  0  0  0  0  0  0  0  0  # atno 17320 bound_to 7965
  145.8559  139.2198  143.1745 LP  0  0  0  0  0  0  0  0  0  0  0  0  # atno 17321 bound_to 7965
  140.4902  144.1321  150.5949 LP  0  0  0  0  0  0  0  0  0  0  0  0  # atno 17342 bound_to 10162
  140.4179  143.2625  151.9752 LP  0  0  0  0  0  0  0  0  0  0  0  0  # atno 17343 bound_to 10162
  157.6316  131.0920  150.8430 LP  0  0  0  0  0  0  0  0  0  0  0  0  # atno 17370 bound_to 10713
  156.8538  130.5089  149.5309 LP  0  0  0  0  0  0  0  0  0  0  0  0  # atno 17371 bound_to 10713
  140.6954  133.9353  155.7992 LP  0  0  0  0  0  0  0  0  0  0  0  0  # atno 17394 bound_to 11000
  141.0411  134.0620  157.3901 LP  0  0  0  0  0  0  0  0  0  0  0  0  # atno 17395 bound_to 11000

$$$$
