AV-unprocessed.smi:39|AV-procd|sdf|356|dock6
  -GOLD-   2262016193D 1   1.00000     0.00000
 Structure written by MMmdl.
 32 33  0  0  0  0  0  0  0  0  3 V2000
  152.7145  142.6774  159.5221 C   0  0  0  0  0  0  0  0  0  0  0  0
  151.8594  142.3025  158.3227 C   0  0  0  0  0  0  0  0  0  0  0  0
  152.1274  141.2199  157.5483 C   0  0  0  0  0  0  0  0  0  0  0  0
  151.3615  140.8466  156.4491 N   0  0  0  0  0  0  0  0  0  0  0  0
  151.6988  139.6439  155.5874 C   0  0  2  0  0  0  0  0  0  0  0  0
  150.9691  138.3796  156.0719 C   0  0  0  0  0  0  0  0  0  0  0  0
  152.0486  137.3261  155.9377 C   0  0  2  0  0  0  0  0  0  0  0  0
  151.7924  136.1405  156.7602 N   0  0  0  0  0  0  0  0  0  0  0  0
  151.6457  136.3337  157.9744 N   0  3  0  0  0  0  0  0  0  0  0  0
  151.3906  136.5457  159.0629 N   0  5  0  0  0  0  0  0  0  0  0  0
  153.3137  138.1148  156.3091 C   0  0  2  0  0  0  0  0  0  0  0  0
  153.5376  138.3351  157.8231 C   0  0  0  0  0  0  0  0  0  0  0  0
  154.5871  139.2575  158.0217 O   0  0  0  0  0  0  0  0  0  0  0  0
  153.0710  139.3668  155.6664 O   0  0  0  0  0  0  0  0  0  0  0  0
  150.2725  141.6583  156.0672 C   0  0  0  0  0  0  0  0  0  0  0  0
  149.5824  141.4246  155.0757 O   0  0  0  0  0  0  0  0  0  0  0  0
  149.9937  142.7664  156.8646 N   0  0  0  0  0  0  0  0  0  0  0  0
  150.7137  143.1553  157.9961 C   0  0  0  0  0  0  0  0  0  0  0  0
  150.3650  144.1529  158.6251 O   0  0  0  0  0  0  0  0  0  0  0  0
  151.4458  139.9374  154.5668 H   0  0  0  0  0  0  0  0  0  0  0  0
  152.1121  137.0472  154.8836 H   0  0  0  0  0  0  0  0  0  0  0  0
  154.1911  137.6346  155.8737 H   0  0  0  0  0  0  0  0  0  0  0  0
  149.2081  143.3419  156.5978 H   0  0  0  0  0  0  0  0  0  0  0  0
  153.5322  141.9723  159.6741 H   0  0  0  0  0  0  0  0  0  0  0  0
  152.1121  142.6895  160.4310 H   0  0  0  0  0  0  0  0  0  0  0  0
  153.1487  143.6684  159.3850 H   0  0  0  0  0  0  0  0  0  0  0  0
  152.9896  140.6294  157.8174 H   0  0  0  0  0  0  0  0  0  0  0  0
  150.6665  138.4971  157.1140 H   0  0  0  0  0  0  0  0  0  0  0  0
  150.0864  138.1754  155.4651 H   0  0  0  0  0  0  0  0  0  0  0  0
  152.6355  138.6723  158.3318 H   0  0  0  0  0  0  0  0  0  0  0  0
  153.8450  137.4087  158.3073 H   0  0  0  0  0  0  0  0  0  0  0  0
  154.8466  139.2264  158.9299 H   0  0  0  0  0  0  0  0  0  0  0  0
  1  2  1  0  0  0  0
  1 24  1  0  0  0  0
  1 25  1  0  0  0  0
  1 26  1  0  0  0  0
  2 18  1  0  0  0  0
  2  3  2  0  0  0  0
  3  4  1  0  0  0  0
  3 27  1  0  0  0  0
  4  5  1  0  0  0  0
  4 15  1  0  0  0  0
  5 20  1  0  0  0  0
  5 14  1  0  0  0  0
  5  6  1  0  0  0  0
  6  7  1  0  0  0  0
  6 28  1  0  0  0  0
  6 29  1  0  0  0  0
  7 21  1  0  0  0  0
  7  8  1  0  0  0  0
  7 11  1  0  0  0  0
  8  9  2  0  0  0  0
  9 10  2  0  0  0  0
 11 22  1  0  0  0  0
 11 12  1  0  0  0  0
 11 14  1  0  0  0  0
 12 13  1  0  0  0  0
 12 30  1  0  0  0  0
 12 31  1  0  0  0  0
 13 32  1  0  0  0  0
 15 16  2  0  0  0  0
 15 17  1  0  0  0  0
 17 23  1  0  0  0  0
 17 18  1  0  0  0  0
 18 19  2  0  0  0  0
M  CHG  1   9   1
M  CHG  1  10  -1
M  END
> <s_m_source_file>
AV-unprocessed.smi

> <i_m_source_file_index>
39

> <i_lp_mmshare_version>
43012

> <i_f3d_flags>
0

> <s_epik_input>
Tz1jMVtuSF1jKD1PKW4oW2NIXWMxW0NIM10pW0NASF0yW0NIMl1bQ0BIXShOPVtOK109W04tXSlbQ0BIXShPMilbQ0gyXVtPSF0=

> <s_epik_cmdline>
J2VwaWtfcHl0aG9uJywgJy1waCcsICc3LjAnLCAnLXRuJywgJzgnLCAnLW1hJywgJzIwMCcsICctbWV0YWxfYmluZGluZycsICctaW1hZScsICc8aW5maWxlLm1hZT4nLCAnLW9tYWUnLCAnPG91dGZpbGUubWFlPic=

> <r_lp_tautomer_probability>
0.999537

> <r_epik_Ionization_Penalty>
0.00127512

> <r_epik_Ionization_Penalty_Charging>
0.00127507

> <r_epik_Ionization_Penalty_Neutral>
5.43433e-08

> <r_epik_State_Penalty>
0.000844892

> <r_epik_Charging_Adjusted_Penalty>
0.00211996

> <i_epik_Tot_Q>
0

> <i_epik_Tot_abs_Q>
2

> <r_epik_Metal_State_Penalty>
0.680636

> <b_epik_Metal_Only>
0

> <s_epik_Chemistry_Notes>
This compound contains an acetal/aminal-like group ( X-CH(R)-Y where X, Y are N, S, or O) that may be acid/base labile, releasing an aldehyde.

> <s_lp_Force_Field>
OPLS_2005

> <r_lp_Energy>
27.6629

> <b_lp_Chiralities_Consistent>
1

> <s_lp_Variant>
AV-unprocessed.smi:39-6

> <Gold.Version>
5.8.1

> <Gold.Id.Protein>
6NUR|6NUR_protein|mol2

> <Gold.PLP.Fitness>
37.7558

> <Gold.PLP.PLP>
-27.8838

> <Gold.PLP.part.hbond>
-5.8884

> <Gold.PLP.part.metal>
0.0000

> <Gold.PLP.part.buried>
-4.6596

> <Gold.PLP.part.nonpolar>
-17.8366

> <Gold.PLP.part.repulsive>
0.3671

> <Gold.PLP.ligand.clash>
0.0000

> <Gold.PLP.ligand.torsion>
0.7699

> <Gold.PLP.Chemscore.Hbond>
3.7925

> <Gold.PLP.Chemscore.CHOScore>
0.0000

> <Gold.PLP.Chemscore.Metal>
0.0000

> <Gold.Chemscore.Hbonds>
donor molecule, donor type, donor heavy atom, donor atom, acceptor molecule, acceptor atom, score
      L1  H    17    23       P1  8028  0.78
      P1  H  6896  6907       L1    10  0.69
      P1  H  7997  8008       L1    14  0.90
      P1  H  7997  8010       L1    13  0.11

> <Gold.PLP.Chemscore.Internal.Correction>
0.0344

> <Gold.Rescore>
     Score         DG    S(hbond)    S(metal)    S(lipo)     H(rot)  DE(clash)    DE(int)     intcor
     12.38     -15.06       3.26        0.00      48.99       2.75       0.63       2.05       ----

> <Gold.Chemscore.Fitness>
12.3843

> <Gold.Chemscore.DG>
-15.0630

> <Gold.Chemscore.ZeroCoef>
-5.4800

> <Gold.Chemscore.Hbond>
3.2625

> <Gold.Chemscore.Metal>
0.0000

> <Gold.Chemscore.Lipo>
48.9936

> <Gold.Chemscore.Internal_Hbond>
0.0000

> <Gold.Chemscore.DEClash>
0.6295

> <Gold.Chemscore.DEInternal>
2.0493

> <Gold.Chemscore.Rot>
2.7524

> <Gold.Chemscore.Internal.Correction>
   9.000000E+99

> <Gold.Chemscore.Hbonds>
donor molecule, donor type, donor heavy atom, donor atom, acceptor molecule, acceptor atom, score
      L1  H    17    23       P1  8028  0.79
      P1  H  6896  6907       L1    10  0.39
      P1  H  7997  8008       L1    14  0.44
      P1  H  7997  8010       L1    13  0.12

> <Gold.Chemscore.Hbond.Weighted>
-10.8969

> <Gold.Chemscore.Metal.Weighted>
-0.0000

> <Gold.Chemscore.Lipo.Weighted>
-5.7322

> <Gold.Chemscore.Internal_Hbond.Weighted>
0.0000

> <Gold.Chemscore.DEClash.Weighted>
0.6295

> <Gold.Chemscore.DEInternal.Weighted>
2.0493

> <Gold.Chemscore.Rot.Weighted>
7.0461

> <Gold.Chemscore.Internal.Correction.Weighted>
   9.000000E+99

> <Gold.Protein.RotatedTorsions>
[ 6907 6896 6895 6894 ] final  -37.31 input  -60.11 | X-H torsion
[ 7974 7965 7964 7962 ] final -111.22 input  175.53 | X-H torsion
[ 8008 7997 7996 7995 ] final   -6.42 input   59.86 | X-H torsion
[ 10167 10162 10161 10158 ] final  160.19 input  -65.29 | X-H torsion
[ 10718 10713 10712 10709 ] final -106.83 input   66.30 | X-H torsion
[ 10763 10752 10751 10750 ] final  -36.29 input  -60.55 | X-H torsion
[ 11005 11000 10999 10996 ] final  145.81 input  -57.11 | X-H torsion

> <Gold.Protein.ActiveResidues>
 VAL166  LYS551  ARG553  GLY616  TRP617  ASP618  TYR619  PRO620  LYS621  CYS622 
 ASP623  PHE694  ASN695  SER759  ASP760  ASP761  ALA762  ILE779  LEU786  VAL792 
 PHE793  MET794  SER795  GLU796  ALA797  LYS798  CYS799  TRP800  GLU811  SER814 

> <Gold.Protein.RotatedAtoms>
  151.0162  134.9435  159.8034 H   0  0  0  0  0  0  0  0  0  0  0  0  # atno 6907 bound_to 6896
  152.5314  134.2963  159.9072 H   0  0  0  0  0  0  0  0  0  0  0  0  # atno 6908 bound_to 6896
  151.2969  133.4098  159.2671 H   0  0  0  0  0  0  0  0  0  0  0  0  # atno 6909 bound_to 6896
  145.1587  140.8867  143.3603 H   0  0  0  0  0  0  0  0  0  0  0  0  # atno 7974 bound_to 7965
  154.5940  140.2433  155.7882 H   0  0  0  0  0  0  0  0  0  0  0  0  # atno 8008 bound_to 7997
  156.2266  140.2980  156.0037 H   0  0  0  0  0  0  0  0  0  0  0  0  # atno 8009 bound_to 7997
  155.2325  140.0404  157.2954 H   0  0  0  0  0  0  0  0  0  0  0  0  # atno 8010 bound_to 7997
  139.4838  144.4658  151.8644 H   0  0  0  0  0  0  0  0  0  0  0  0  # atno 10167 bound_to 10162
  156.0408  130.5632  150.7737 H   0  0  0  0  0  0  0  0  0  0  0  0  # atno 10718 bound_to 10713
  153.8773  135.6825  153.4769 H   0  0  0  0  0  0  0  0  0  0  0  0  # atno 10763 bound_to 10752
  153.1254  135.4721  154.9261 H   0  0  0  0  0  0  0  0  0  0  0  0  # atno 10764 bound_to 10752
  154.7686  135.3231  154.8188 H   0  0  0  0  0  0  0  0  0  0  0  0  # atno 10765 bound_to 10752
  140.0742  134.9134  157.1396 H   0  0  0  0  0  0  0  0  0  0  0  0  # atno 11005 bound_to 11000
  145.0354  139.3305  143.6003 LP  0  0  0  0  0  0  0  0  0  0  0  0  # atno 17320 bound_to 7965
  146.3485  139.9707  142.8706 LP  0  0  0  0  0  0  0  0  0  0  0  0  # atno 17321 bound_to 7965
  140.4123  144.2353  150.5888 LP  0  0  0  0  0  0  0  0  0  0  0  0  # atno 17342 bound_to 10162
  140.4954  143.2334  151.8757 LP  0  0  0  0  0  0  0  0  0  0  0  0  # atno 17343 bound_to 10162
  157.5223  131.0932  151.0062 LP  0  0  0  0  0  0  0  0  0  0  0  0  # atno 17370 bound_to 10713
  157.0389  130.5741  149.5353 LP  0  0  0  0  0  0  0  0  0  0  0  0  # atno 17371 bound_to 10713
  140.3582  134.2524  155.7190 LP  0  0  0  0  0  0  0  0  0  0  0  0  # atno 17394 bound_to 11000
  141.2023  133.7940  157.0396 LP  0  0  0  0  0  0  0  0  0  0  0  0  # atno 17395 bound_to 11000

$$$$
