#       Name:                AV-unprocessed.smi:1875
#       Creating user name   scv26
#       Creation time:       Fri Mar 27 09:34:29 2020


#       File generated by GOLD software.
#

@<TRIPOS>MOLECULE
AV-unprocessed.smi:1875
    53    55     1
SMALL
NO_CHARGES


@<TRIPOS>ATOM
      1 ****        -3.0414   6.3115  -3.7828 C.3            1 S1                 0.0000
      2 ****        -3.2274   5.1535  -2.8242 C.ar           1 S1                 0.0000
      3 ****        -3.9753   5.3776  -1.7390 N.ar           1 S1                 0.0000
      4 ****        -4.1385   4.3429  -0.8857 C.ar           1 S1                 0.0000
      5 ****        -3.5505   3.0840  -1.1240 C.ar           1 S1                 0.0000
      6 ****        -2.7836   2.9682  -2.3028 C.ar           1 S1                 0.0000
      7 ****        -2.0946   1.6694  -2.6698 C.3            1 S1                 0.0000
      8 ****        -1.0157   1.3394  -1.7438 N.3            1 S1                 0.0000
      9 ****        -0.2917   0.1262  -2.1130 C.3            1 S1                 0.0000
     10 ****         0.8056  -0.2056  -1.0884 C.3            1 S1                 0.0000
     11 ****         1.8992   0.6641  -1.3071 O.3            1 S1                 0.0000
     12 ****         1.2938  -1.6608  -1.2305 C.3            1 S1                 0.0000
     13 ****         2.3679  -2.0000  -0.2871 N.pl3          1 S1                 0.0000
     14 ****         3.7168  -2.0115  -0.4659 C.2            1 S1                 0.0000
     15 ****         4.2832  -2.3967   0.7111 N.pl3          1 S1                 1.0000
     16 ****         3.2811  -2.6359   1.6540 C.ar           1 S1                 0.0000
     17 ****         3.3565  -3.0469   2.9795 C.ar           1 S1                 0.0000
     18 ****         2.1373  -3.1993   3.6778 C.ar           1 S1                 0.0000
     19 ****         2.1841  -3.6513   5.1277 C.3            1 S1                 0.0000
     20 ****         0.8948  -2.9377   3.0438 C.ar           1 S1                 0.0000
     21 ****        -0.4095  -3.1041   3.8051 C.3            1 S1                 0.0000
     22 ****         0.8392  -2.5196   1.6948 C.ar           1 S1                 0.0000
     23 ****         2.0496  -2.3791   1.0207 C.ar           1 S1                 0.0000
     24 ****        -2.6239   4.0073  -3.1524 N.ar           1 S1                 0.0000
     25 ****        -3.5697   7.2030  -3.4422 H              1 S1                 0.0000
     26 ****        -3.4206   6.0491  -4.7709 H              1 S1                 0.0000
     27 ****        -1.9835   6.5589  -3.8763 H              1 S1                 0.0000
     28 ****        -4.7416   4.5202  -0.0076 H              1 S1                 0.0000
     29 ****        -3.6815   2.2577  -0.4412 H              1 S1                 0.0000
     30 ****        -2.8403   0.8736  -2.6784 H              1 S1                 0.0000
     31 ****        -1.7066   1.7450  -3.6869 H              1 S1                 0.0000
     32 ****        -1.3985   1.2314  -0.8101 H              1 S1                 0.0000
     33 ****        -0.9975  -0.7045  -2.1558 H              1 S1                 0.0000
     34 ****         0.1355   0.2185  -3.1127 H              1 S1                 0.0000
     35 ****         0.4298  -0.0507  -0.0759 H              1 S1                 0.0000
     36 ****         1.5845   1.5543  -1.2572 H              1 S1                 0.0000
     37 ****         0.4738  -2.3658  -1.0890 H              1 S1                 0.0000
     38 ****         1.6780  -1.8341  -2.2369 H              1 S1                 0.0000
     39 ****         4.2424  -1.7580  -1.3755 H              1 S1                 0.0000
     40 ****         4.3061  -3.2429   3.4558 H              1 S1                 0.0000
     41 ****         1.6518  -4.5944   5.2520 H              1 S1                 0.0000
     42 ****         1.7247  -2.9058   5.7767 H              1 S1                 0.0000
     43 ****         3.2096  -3.8006   5.4665 H              1 S1                 0.0000
     44 ****        -1.2699  -2.8612   3.1811 H              1 S1                 0.0000
     45 ****        -0.4330  -2.4469   4.6747 H              1 S1                 0.0000
     46 ****        -0.5252  -4.1335   4.1450 H              1 S1                 0.0000
     47 ****        -0.1056  -2.3201   1.2110 H              1 S1                 0.0000
     48 ****         5.2805  -2.4876   0.8569 H              1 S1                 0.0000
     49 ****        -4.3943   6.2691  -1.5669 LP             1 S1                 0.0000
     50 ****        -0.3586   2.0924  -1.7785 LP             1 S1                 0.0000
     51 ****         2.2911   0.4940  -2.2113 LP             1 S1                 0.0000
     52 ****         2.5973   0.5123  -0.6074 LP             1 S1                 0.0000
     53 ****        -2.0798   3.9223  -3.9871 LP             1 S1                 0.0000
@<TRIPOS>BOND
    1    1    2 1     
    2    1   25 1     
    3    1   26 1     
    4    1   27 1     
    5    2   24 ar    
    6    2    3 ar    
    7    3    4 ar    
    8    4    5 ar    
    9    4   28 1     
   10    5    6 ar    
   11    5   29 1     
   12    6    7 1     
   13    6   24 ar    
   14    7    8 1     
   15    7   30 1     
   16    7   31 1     
   17    8    9 1     
   18    8   32 1     
   19    9   10 1     
   20    9   33 1     
   21    9   34 1     
   22   10   11 1     
   23   10   12 1     
   24   10   35 1     
   25   11   36 1     
   26   12   13 1     
   27   12   37 1     
   28   12   38 1     
   29   13   23 1     
   30   13   14 1     
   31   14   15 2     
   32   14   39 1     
   33   15   16 1     
   34   15   48 1     
   35   16   23 ar    
   36   16   17 ar    
   37   17   18 ar    
   38   17   40 1     
   39   18   19 1     
   40   18   20 ar    
   41   19   41 1     
   42   19   42 1     
   43   19   43 1     
   44   20   21 1     
   45   20   22 ar    
   46   21   44 1     
   47   21   45 1     
   48   21   46 1     
   49   22   23 ar    
   50   22   47 1     
   51    3   49 1     
   52    8   50 1     
   53   11   51 1     
   54   11   52 1     
   55   24   53 1     
@<TRIPOS>SUBSTRUCTURE
      1 S1             1
@<TRIPOS>SET
LONE_PAIRS      STATIC     ATOMS    <user>   **** ""
5 49 50 51 52 53
DONOR_HYDROGENS      STATIC     ATOMS    <user>   **** ""
3 32 36 48
ATOM$BLUE        STATIC     ATOMS    COLORGROUP SYSTEM
5 49 50 51 52 53
ATOM$RED        STATIC     ATOMS    COLORGROUP SYSTEM
3 32 36 48
