AV-unprocessed.smi:218|AV-procd|sdf|1674|dock1
  -GOLD-   2262020 93D 1   1.00000     0.00000
 Structure written by MMmdl.
 54 57  0  0  0  0  0  0  0  0  1 V2000
  152.4012  143.4740  159.6182 C   0  0  0  0  0  0  0  0  0  0  0  0
  151.2242  144.3618  159.1966 C   0  0  0  0  0  0  0  0  0  0  0  0
  151.0065  145.5089  160.1985 C   0  0  0  0  0  0  0  0  0  0  0  0
  150.0685  143.5224  159.1447 O   0  0  0  0  0  0  0  0  0  0  0  0
  149.9083  142.6247  158.1064 C   0  0  0  0  0  0  0  0  0  0  0  0
  148.6966  141.9085  158.0231 C   0  0  0  0  0  0  0  0  0  0  0  0
  148.5211  140.9843  156.9723 C   0  0  0  0  0  0  0  0  0  0  0  0
  147.2330  140.1902  156.8417 C   0  0  0  0  0  0  0  0  0  0  0  0
  146.4321  140.5186  155.6675 N   0  0  0  0  0  0  0  0  0  0  0  0
  146.2893  139.6295  154.6595 C   0  0  0  0  0  0  0  0  0  0  0  0
  146.8715  139.8388  153.4496 N   0  0  0  0  0  0  0  0  0  0  0  0
  146.7181  138.9429  152.4702 C   0  0  0  0  0  0  0  0  0  0  0  0
  146.0417  137.7927  152.4915 N   0  0  0  0  0  0  0  0  0  0  0  0
  145.4589  137.5739  153.7057 C   0  0  0  0  0  0  0  0  0  0  0  0
  145.5381  138.4383  154.8332 C   0  0  0  0  0  0  0  0  0  0  0  0
  144.8293  137.8935  155.8959 N   0  0  0  0  0  0  0  0  0  0  0  0
  144.3590  136.7725  155.4192 C   0  0  0  0  0  0  0  0  0  0  0  0
  144.6826  136.5049  154.1073 N   0  0  0  0  0  0  0  0  0  0  0  0
  144.2762  135.3150  153.2940 C   0  0  2  0  0  0  0  0  0  0  0  0
  145.4248  134.6459  152.8782 O   0  0  0  0  0  0  0  0  0  0  0  0
  145.1989  134.0987  151.5845 C   0  0  2  0  0  0  0  0  0  0  0  0
  146.5274  133.7506  150.8904 C   0  0  0  0  0  0  0  0  0  0  0  0
  147.1986  132.7399  151.6116 O   0  0  0  0  0  0  0  0  0  0  0  0
  144.3496  135.1757  150.8928 C   0  0  2  0  0  0  0  0  0  0  0  0
  145.1671  136.1888  150.3322 O   0  0  0  0  0  0  0  0  0  0  0  0
  143.4703  135.6891  152.0316 C   0  0  2  0  0  0  0  0  0  0  0  0
  143.1163  137.0574  151.9053 O   0  0  0  0  0  0  0  0  0  0  0  0
  149.5686  140.8094  156.0464 C   0  0  0  0  0  0  0  0  0  0  0  0
  150.7413  141.5713  156.2102 C   0  0  0  0  0  0  0  0  0  0  0  0
  150.9159  142.4565  157.2142 N   0  0  0  0  0  0  0  0  0  0  0  0
  143.7075  134.6906  153.9845 H   0  0  0  0  0  0  0  0  0  0  0  0
  144.5858  133.2016  151.6923 H   0  0  0  0  0  0  0  0  0  0  0  0
  143.7476  134.7536  150.0875 H   0  0  0  0  0  0  0  0  0  0  0  0
  142.5505  135.1037  152.0614 H   0  0  0  0  0  0  0  0  0  0  0  0
  153.3253  144.0495  159.6810 H   0  0  0  0  0  0  0  0  0  0  0  0
  152.5600  142.6703  158.8987 H   0  0  0  0  0  0  0  0  0  0  0  0
  152.2233  143.0180  160.5927 H   0  0  0  0  0  0  0  0  0  0  0  0
  151.4629  144.7668  158.2120 H   0  0  0  0  0  0  0  0  0  0  0  0
  151.8954  146.1361  160.2723 H   0  0  0  0  0  0  0  0  0  0  0  0
  150.7871  145.1241  161.1947 H   0  0  0  0  0  0  0  0  0  0  0  0
  150.1779  146.1524  159.9040 H   0  0  0  0  0  0  0  0  0  0  0  0
  147.9167  142.0681  158.7532 H   0  0  0  0  0  0  0  0  0  0  0  0
  147.4506  139.1214  156.8476 H   0  0  0  0  0  0  0  0  0  0  0  0
  146.6264  140.3815  157.7270 H   0  0  0  0  0  0  0  0  0  0  0  0
  146.1287  141.4793  155.5979 H   0  0  0  0  0  0  0  0  0  0  0  0
  147.2069  139.1803  151.5370 H   0  0  0  0  0  0  0  0  0  0  0  0
  143.7515  136.1072  156.0154 H   0  0  0  0  0  0  0  0  0  0  0  0
  146.3383  133.3642  149.8886 H   0  0  0  0  0  0  0  0  0  0  0  0
  147.1657  134.6288  150.7868 H   0  0  0  0  0  0  0  0  0  0  0  0
  147.9186  132.4272  151.0854 H   0  0  0  0  0  0  0  0  0  0  0  0
  144.6059  136.8443  149.9464 H   0  0  0  0  0  0  0  0  0  0  0  0
  143.2229  137.3127  151.0017 H   0  0  0  0  0  0  0  0  0  0  0  0
  149.4757  140.1138  155.2255 H   0  0  0  0  0  0  0  0  0  0  0  0
  151.5622  141.4652  155.5167 H   0  0  0  0  0  0  0  0  0  0  0  0
  1  2  1  0  0  0  0
  1 35  1  0  0  0  0
  1 36  1  0  0  0  0
  1 37  1  0  0  0  0
  2  3  1  0  0  0  0
  2  4  1  0  0  0  0
  2 38  1  0  0  0  0
  3 39  1  0  0  0  0
  3 40  1  0  0  0  0
  3 41  1  0  0  0  0
  4  5  1  0  0  0  0
  5 30  1  0  0  0  0
  5  6  2  0  0  0  0
  6  7  1  0  0  0  0
  6 42  1  0  0  0  0
  7  8  1  0  0  0  0
  7 28  2  0  0  0  0
  8  9  1  0  0  0  0
  8 43  1  0  0  0  0
  8 44  1  0  0  0  0
  9 10  1  0  0  0  0
  9 45  1  0  0  0  0
 10 15  1  0  0  0  0
 10 11  2  0  0  0  0
 11 12  1  0  0  0  0
 12 13  2  0  0  0  0
 12 46  1  0  0  0  0
 13 14  1  0  0  0  0
 14 18  1  0  0  0  0
 14 15  2  0  0  0  0
 15 16  1  0  0  0  0
 16 17  2  0  0  0  0
 17 18  1  0  0  0  0
 17 47  1  0  0  0  0
 18 19  1  0  0  0  0
 19 31  1  0  0  0  0
 19 26  1  0  0  0  0
 19 20  1  0  0  0  0
 20 21  1  0  0  0  0
 21 32  1  0  0  0  0
 21 22  1  0  0  0  0
 21 24  1  0  0  0  0
 22 23  1  0  0  0  0
 22 48  1  0  0  0  0
 22 49  1  0  0  0  0
 23 50  1  0  0  0  0
 24 33  1  0  0  0  0
 24 25  1  0  0  0  0
 24 26  1  0  0  0  0
 25 51  1  0  0  0  0
 26 34  1  0  0  0  0
 26 27  1  0  0  0  0
 27 52  1  0  0  0  0
 28 29  1  0  0  0  0
 28 53  1  0  0  0  0
 29 30  2  0  0  0  0
 29 54  1  0  0  0  0
M  END
> <s_m_source_file>
AV-unprocessed.smi

> <i_m_source_file_index>
218

> <i_lp_mmshare_version>
43012

> <i_f3d_flags>
0

> <s_epik_input>
W0NIM11bQ0hdKFtDSDNdKU9jMVtjSF1jKFtjSF1bY0hdbjEpW0NIMl1bTkhdYyhuW2NIXW4yKWMoYzIzKW5bY0hdbjNbQ0BASF00T1tDQEhdKFtDSDJdW09IXSlbQ0BASF0oW09IXSlbQ0BIXTRbT0hd

> <s_epik_cmdline>
J2VwaWtfcHl0aG9uJywgJy1waCcsICc3LjAnLCAnLXRuJywgJzgnLCAnLW1hJywgJzIwMCcsICctbWV0YWxfYmluZGluZycsICctaW1hZScsICc8aW5maWxlLm1hZT4nLCAnLW9tYWUnLCAnPG91dGZpbGUubWFlPic=

> <r_lp_tautomer_probability>
1

> <r_epik_Ionization_Penalty>
0.00457014

> <r_epik_Ionization_Penalty_Charging>
0

> <r_epik_Ionization_Penalty_Neutral>
0.00457014

> <r_epik_State_Penalty>
-0

> <r_epik_Charging_Adjusted_Penalty>
0

> <i_epik_Tot_Q>
0

> <i_epik_Tot_abs_Q>
0

> <r_epik_Metal_State_Penalty>
-0

> <b_epik_Metal_Only>
0

> <s_epik_Chemistry_Notes>
This compound contains an acetal/aminal-like group ( X-CH(R)-Y where X, Y are N, S, or O) that may be acid/base labile, releasing an aldehyde.

> <s_lp_Force_Field>
OPLS_2005

> <r_lp_Energy>
51.9748

> <b_lp_Chiralities_Consistent>
1

> <s_lp_Variant>
AV-unprocessed.smi:218-13

> <Gold.Version>
5.8.1

> <Gold.Id.Protein>
6NUR|6NUR_protein|mol2

> <Gold.PLP.Fitness>
49.5029

> <Gold.PLP.PLP>
-39.3475

> <Gold.PLP.part.hbond>
-3.5147

> <Gold.PLP.part.metal>
0.0000

> <Gold.PLP.part.buried>
-7.9555

> <Gold.PLP.part.nonpolar>
-28.7875

> <Gold.PLP.part.repulsive>
0.7305

> <Gold.PLP.ligand.clash>
0.0233

> <Gold.PLP.ligand.torsion>
0.8892

> <Gold.PLP.Chemscore.Hbond>
2.9920

> <Gold.PLP.Chemscore.CHOScore>
0.9559

> <Gold.PLP.Chemscore.Metal>
0.0000

> <Gold.Chemscore.Hbonds>
donor molecule, donor type, donor heavy atom, donor atom, acceptor molecule, acceptor atom, score
      L1  H    23    50       P1 10747  0.94
      L1  H    25    51       P1 10171  1.00
      L1  H    27    52       P1 10171  0.96
      L1  C    12    46       P1  7957  0.99

> <Gold.PLP.Chemscore.Internal.Correction>
0.1133

> <Gold.Rescore>
     Score         DG    S(hbond)    S(metal)    S(lipo)     H(rot)  DE(clash)    DE(int)     intcor
      8.89     -11.55       2.92        0.00      75.77       4.90       0.14       2.51       ----

> <Gold.Chemscore.Fitness>
8.8931

> <Gold.Chemscore.DG>
-11.5489

> <Gold.Chemscore.ZeroCoef>
-5.4800

> <Gold.Chemscore.Hbond>
2.9206

> <Gold.Chemscore.Metal>
0.0000

> <Gold.Chemscore.Lipo>
75.7740

> <Gold.Chemscore.Internal_Hbond>
0.0000

> <Gold.Chemscore.DEClash>
0.1434

> <Gold.Chemscore.DEInternal>
2.5123

> <Gold.Chemscore.Rot>
4.9029

> <Gold.Chemscore.Internal.Correction>
   9.000000E+99

> <Gold.Chemscore.Hbonds>
donor molecule, donor type, donor heavy atom, donor atom, acceptor molecule, acceptor atom, score
      L1  H    23    50       P1 10747  0.86
      L1  H    25    51       P1 10171  0.98
      L1  H    27    52       P1 10171  0.76

> <Gold.Chemscore.Hbond.Weighted>
-9.7548

> <Gold.Chemscore.Metal.Weighted>
-0.0000

> <Gold.Chemscore.Lipo.Weighted>
-8.8656

> <Gold.Chemscore.Internal_Hbond.Weighted>
0.0000

> <Gold.Chemscore.DEClash.Weighted>
0.1434

> <Gold.Chemscore.DEInternal.Weighted>
2.5123

> <Gold.Chemscore.Rot.Weighted>
12.5515

> <Gold.Chemscore.Internal.Correction.Weighted>
   9.000000E+99

> <Gold.Protein.RotatedTorsions>
[ 6907 6896 6895 6894 ] final  -20.94 input  -60.11 | X-H torsion
[ 7974 7965 7964 7962 ] final   47.03 input  175.53 | X-H torsion
[ 8008 7997 7996 7995 ] final  -38.94 input   59.86 | X-H torsion
[ 10167 10162 10161 10158 ] final   27.62 input  -65.29 | X-H torsion
[ 10718 10713 10712 10709 ] final  -22.79 input   66.30 | X-H torsion
[ 10763 10752 10751 10750 ] final   44.20 input  -60.55 | X-H torsion
[ 11005 11000 10999 10996 ] final  -21.50 input  -57.11 | X-H torsion

> <Gold.Protein.ActiveResidues>
 VAL166  LYS551  ARG553  GLY616  TRP617  ASP618  TYR619  PRO620  LYS621  CYS622 
 ASP623  PHE694  ASN695  SER759  ASP760  ASP761  ALA762  ILE779  LEU786  VAL792 
 PHE793  MET794  SER795  GLU796  ALA797  LYS798  CYS799  TRP800  GLU811  SER814 

> <Gold.Protein.RotatedAtoms>
  151.2407  135.0588  159.9023 H   0  0  0  0  0  0  0  0  0  0  0  0  # atno 6907 bound_to 6896
  152.5393  134.0437  159.8089 H   0  0  0  0  0  0  0  0  0  0  0  0  # atno 6908 bound_to 6896
  151.0630  133.5479  159.2664 H   0  0  0  0  0  0  0  0  0  0  0  0  # atno 6909 bound_to 6896
  146.0336  139.4793  142.9822 H   0  0  0  0  0  0  0  0  0  0  0  0  # atno 7974 bound_to 7965
  154.4029  140.1564  156.2782 H   0  0  0  0  0  0  0  0  0  0  0  0  # atno 8008 bound_to 7997
  155.8893  140.3439  155.5922 H   0  0  0  0  0  0  0  0  0  0  0  0  # atno 8009 bound_to 7997
  155.7577  140.0813  157.2161 H   0  0  0  0  0  0  0  0  0  0  0  0  # atno 8010 bound_to 7997
  140.4923  144.0447  150.6301 H   0  0  0  0  0  0  0  0  0  0  0  0  # atno 10167 bound_to 10162
  156.4998  130.4585  149.6708 H   0  0  0  0  0  0  0  0  0  0  0  0  # atno 10718 bound_to 10713
  152.9845  135.6078  154.3235 H   0  0  0  0  0  0  0  0  0  0  0  0  # atno 10763 bound_to 10752
  154.2944  135.2774  155.2642 H   0  0  0  0  0  0  0  0  0  0  0  0  # atno 10764 bound_to 10752
  154.4923  135.5889  153.6525 H   0  0  0  0  0  0  0  0  0  0  0  0  # atno 10765 bound_to 10752
  140.8567  133.7817  156.0028 H   0  0  0  0  0  0  0  0  0  0  0  0  # atno 11005 bound_to 11000
  145.7001  141.0138  143.1509 LP  0  0  0  0  0  0  0  0  0  0  0  0  # atno 17320 bound_to 7965
  144.7041  139.8634  143.7435 LP  0  0  0  0  0  0  0  0  0  0  0  0  # atno 17321 bound_to 7965
  140.3720  143.2849  152.0267 LP  0  0  0  0  0  0  0  0  0  0  0  0  # atno 17342 bound_to 10162
  139.4854  144.6222  151.7232 LP  0  0  0  0  0  0  0  0  0  0  0  0  # atno 17343 bound_to 10162
  156.3344  130.7349  151.2284 LP  0  0  0  0  0  0  0  0  0  0  0  0  # atno 17370 bound_to 10713
  157.7464  131.0421  150.4677 LP  0  0  0  0  0  0  0  0  0  0  0  0  # atno 17371 bound_to 10713
  140.8729  134.2705  157.5182 LP  0  0  0  0  0  0  0  0  0  0  0  0  # atno 17394 bound_to 11000
  139.8705  134.9576  156.4274 LP  0  0  0  0  0  0  0  0  0  0  0  0  # atno 17395 bound_to 11000

$$$$
