AV-unprocessed.smi:3265|AV-procd|sdf|12498|dock2
  -GOLD-   2272018403D 1   1.00000     0.00000
 Structure written by MMmdl.
 41 42  0  0  0  0  0  0  0  0  2 V2000
  153.1871  141.8483  161.0208 C   0  0  0  0  0  0  0  0  0  0  0  0
  153.3377  142.1022  159.5120 C   0  0  2  0  0  0  0  0  0  0  0  0
  153.0811  143.5711  159.1246 C   0  0  0  0  0  0  0  0  0  0  0  0
  151.5842  143.9105  159.1741 C   0  0  0  0  0  0  0  0  0  0  0  0
  150.7665  142.9202  158.3308 C   0  0  0  0  0  0  0  0  0  0  0  0
  151.0124  141.5238  158.7697 N   0  3  1  0  0  0  0  0  0  0  0  0
  150.1227  140.5421  158.0986 C   0  0  0  0  0  0  0  0  0  0  0  0
  150.6374  139.0937  158.2339 C   0  0  0  0  0  0  0  0  0  0  0  0
  149.5685  138.1501  158.5498 N   0  0  0  0  0  0  0  0  0  0  0  0
  149.6510  137.1751  159.4686 C   0  0  0  0  0  0  0  0  0  0  0  0
  150.6355  137.0015  160.1858 O   0  0  0  0  0  0  0  0  0  0  0  0
  148.4516  136.2348  159.5763 C   0  0  0  0  0  0  0  0  0  0  0  0
  148.0566  136.0622  160.9634 N   0  0  0  0  0  0  0  0  0  0  0  0
  147.8838  134.8876  161.6662 C   0  0  0  0  0  0  0  0  0  0  0  0
  147.5061  135.2241  162.9345 C   0  0  0  0  0  0  0  0  0  0  0  0
  147.4794  136.6462  162.9130 C   0  0  0  0  0  0  0  0  0  0  0  0
  147.8022  137.1448  161.7302 N   0  0  0  0  0  0  0  0  0  0  0  0
  152.4505  141.1580  158.6752 C   0  0  0  0  0  0  0  0  0  0  0  0
  152.1647  142.0144  161.3554 H   0  0  0  0  0  0  0  0  0  0  0  0
  153.8376  142.5061  161.5978 H   0  0  0  0  0  0  0  0  0  0  0  0
  153.4516  140.8213  161.2739 H   0  0  0  0  0  0  0  0  0  0  0  0
  154.3768  141.8788  159.2661 H   0  0  0  0  0  0  0  0  0  0  0  0
  153.6438  144.2434  159.7732 H   0  0  0  0  0  0  0  0  0  0  0  0
  153.4503  143.7442  158.1127 H   0  0  0  0  0  0  0  0  0  0  0  0
  151.2315  143.8932  160.2057 H   0  0  0  0  0  0  0  0  0  0  0  0
  151.4223  144.9266  158.8136 H   0  0  0  0  0  0  0  0  0  0  0  0
  149.7072  143.1587  158.4334 H   0  0  0  0  0  0  0  0  0  0  0  0
  151.0173  143.0223  157.2736 H   0  0  0  0  0  0  0  0  0  0  0  0
  149.1300  140.5888  158.5480 H   0  0  0  0  0  0  0  0  0  0  0  0
  149.9856  140.8087  157.0496 H   0  0  0  0  0  0  0  0  0  0  0  0
  151.1458  138.7870  157.3185 H   0  0  0  0  0  0  0  0  0  0  0  0
  151.3811  139.0317  159.0282 H   0  0  0  0  0  0  0  0  0  0  0  0
  148.7145  138.2256  158.0151 H   0  0  0  0  0  0  0  0  0  0  0  0
  147.6063  136.6413  159.0195 H   0  0  0  0  0  0  0  0  0  0  0  0
  148.6908  135.2652  159.1357 H   0  0  0  0  0  0  0  0  0  0  0  0
  148.0416  133.9216  161.2093 H   0  0  0  0  0  0  0  0  0  0  0  0
  147.2858  134.5564  163.7542 H   0  0  0  0  0  0  0  0  0  0  0  0
  147.2299  137.3268  163.7137 H   0  0  0  0  0  0  0  0  0  0  0  0
  152.7578  141.1965  157.6288 H   0  0  0  0  0  0  0  0  0  0  0  0
  152.6000  140.1292  159.0042 H   0  0  0  0  0  0  0  0  0  0  0  0
  150.7662  141.4977  159.7492 H   0  0  0  0  0  0  0  0  0  0  0  0
  1  2  1  0  0  0  0
  1 19  1  0  0  0  0
  1 20  1  0  0  0  0
  1 21  1  0  0  0  0
  2 18  1  0  0  0  0
  2  3  1  0  0  0  0
  2 22  1  0  0  0  0
  3  4  1  0  0  0  0
  3 23  1  0  0  0  0
  3 24  1  0  0  0  0
  4  5  1  0  0  0  0
  4 25  1  0  0  0  0
  4 26  1  0  0  0  0
  5  6  1  0  0  0  0
  5 27  1  0  0  0  0
  5 28  1  0  0  0  0
  6  7  1  0  0  0  0
  6 18  1  0  0  0  0
  6 41  1  0  0  0  0
  7  8  1  0  0  0  0
  7 29  1  0  0  0  0
  7 30  1  0  0  0  0
  8  9  1  0  0  0  0
  8 31  1  0  0  0  0
  8 32  1  0  0  0  0
  9 10  1  0  0  0  0
  9 33  1  0  0  0  0
 10 11  2  0  0  0  0
 10 12  1  0  0  0  0
 12 13  1  0  0  0  0
 12 34  1  0  0  0  0
 12 35  1  0  0  0  0
 13 17  1  0  0  0  0
 13 14  1  0  0  0  0
 14 15  2  0  0  0  0
 14 36  1  0  0  0  0
 15 16  1  0  0  0  0
 15 37  1  0  0  0  0
 16 17  2  0  0  0  0
 16 38  1  0  0  0  0
 18 39  1  0  0  0  0
 18 40  1  0  0  0  0
M  CHG  1   6   1
M  END
> <s_m_source_file>
AV-unprocessed.smi

> <i_m_source_file_index>
3265

> <i_lp_mmshare_version>
43012

> <i_f3d_flags>
0

> <s_epik_input>
W0NIM11bQ0BASF0xW0NIMl1bQ0gyXVtDSDJdTihbQ0gyXTEpW0NIMl1bQ0gyXVtOSF1DKD1PKVtDSDJdbjJbY0hdW2NIXVtjSF1uMg==

> <s_epik_cmdline>
J2VwaWtfcHl0aG9uJywgJy1waCcsICc3LjAnLCAnLXRuJywgJzgnLCAnLW1hJywgJzIwMCcsICctbWV0YWxfYmluZGluZycsICctaW1hZScsICc8aW5maWxlLm1hZT4nLCAnLW9tYWUnLCAnPG91dGZpbGUubWFlPic=

> <r_lp_tautomer_probability>
1

> <r_epik_Ionization_Penalty>
0.00231455

> <r_epik_Ionization_Penalty_Charging>
0.00230623

> <r_epik_Ionization_Penalty_Neutral>
8.31727e-06

> <r_epik_State_Penalty>
0.00159065

> <r_epik_Charging_Adjusted_Penalty>
0.00389688

> <i_epik_Tot_Q>
1

> <i_epik_Tot_abs_Q>
1

> <r_epik_Metal_State_Penalty>
-0

> <b_epik_Metal_Only>
0

> <s_lp_Force_Field>
OPLS_2005

> <r_lp_Energy>
23.6627

> <b_lp_Chiralities_Consistent>
1

> <s_lp_Variant>
AV-unprocessed.smi:3265-3

> <Gold.Version>
5.8.1

> <Gold.Id.Protein>
6NUR|6NUR_protein|mol2

> <Gold.PLP.Fitness>
47.5219

> <Gold.PLP.PLP>
-40.5544

> <Gold.PLP.part.hbond>
-3.5585

> <Gold.PLP.part.metal>
0.0000

> <Gold.PLP.part.buried>
-5.3314

> <Gold.PLP.part.nonpolar>
-32.8874

> <Gold.PLP.part.repulsive>
0.2830

> <Gold.PLP.ligand.clash>
0.0000

> <Gold.PLP.ligand.torsion>
0.7831

> <Gold.PLP.Chemscore.Hbond>
2.8320

> <Gold.PLP.Chemscore.CHOScore>
0.0000

> <Gold.PLP.Chemscore.Metal>
0.0000

> <Gold.Chemscore.Hbonds>
donor molecule, donor type, donor heavy atom, donor atom, acceptor molecule, acceptor atom, score
      P1  H  6896  6907       L1    11  1.00
      P1  H  6931  6943       L1    17  1.00
      P1  H  6934  6947       L1    17  0.51

> <Gold.PLP.Chemscore.Internal.Correction>
0.0377

> <Gold.Rescore>
     Score         DG    S(hbond)    S(metal)    S(lipo)     H(rot)  DE(clash)    DE(int)     intcor
     19.25     -20.13       2.31        0.00      99.51       1.84       0.01       0.87       ----

> <Gold.Chemscore.Fitness>
19.2515

> <Gold.Chemscore.DG>
-20.1292

> <Gold.Chemscore.ZeroCoef>
-5.4800

> <Gold.Chemscore.Hbond>
2.3096

> <Gold.Chemscore.Metal>
0.0000

> <Gold.Chemscore.Lipo>
99.5051

> <Gold.Chemscore.Internal_Hbond>
0.0000

> <Gold.Chemscore.DEClash>
0.0073

> <Gold.Chemscore.DEInternal>
0.8704

> <Gold.Chemscore.Rot>
1.8386

> <Gold.Chemscore.Internal.Correction>
   9.000000E+99

> <Gold.Chemscore.Hbonds>
donor molecule, donor type, donor heavy atom, donor atom, acceptor molecule, acceptor atom, score
      P1  H  6896  6907       L1    11  0.32
      P1  H  6931  6943       L1    17  0.65
      P1  H  6934  6947       L1    17  0.52

> <Gold.Chemscore.Hbond.Weighted>
-7.7140

> <Gold.Chemscore.Metal.Weighted>
-0.0000

> <Gold.Chemscore.Lipo.Weighted>
-11.6421

> <Gold.Chemscore.Internal_Hbond.Weighted>
0.0000

> <Gold.Chemscore.DEClash.Weighted>
0.0073

> <Gold.Chemscore.DEInternal.Weighted>
0.8704

> <Gold.Chemscore.Rot.Weighted>
4.7069

> <Gold.Chemscore.Internal.Correction.Weighted>
   9.000000E+99

> <Gold.Protein.RotatedTorsions>
[ 6907 6896 6895 6894 ] final  -32.14 input  -60.11 | X-H torsion
[ 7974 7965 7964 7962 ] final -127.75 input  175.53 | X-H torsion
[ 8008 7997 7996 7995 ] final   55.27 input   59.86 | X-H torsion
[ 10167 10162 10161 10158 ] final  -58.37 input  -65.29 | X-H torsion
[ 10718 10713 10712 10709 ] final   29.83 input   66.30 | X-H torsion
[ 10763 10752 10751 10750 ] final  -44.02 input  -60.55 | X-H torsion
[ 11005 11000 10999 10996 ] final -101.87 input  -57.11 | X-H torsion

> <Gold.Protein.ActiveResidues>
 VAL166  LYS551  ARG553  GLY616  TRP617  ASP618  TYR619  PRO620  LYS621  CYS622 
 ASP623  PHE694  ASN695  SER759  ASP760  ASP761  ALA762  ILE779  LEU786  VAL792 
 PHE793  MET794  SER795  GLU796  ALA797  LYS798  CYS799  TRP800  GLU811  SER814 

> <Gold.Protein.RotatedAtoms>
  151.0827  134.9868  159.8363 H   0  0  0  0  0  0  0  0  0  0  0  0  # atno 6907 bound_to 6896
  152.5421  134.2162  159.8779 H   0  0  0  0  0  0  0  0  0  0  0  0  # atno 6908 bound_to 6896
  151.2193  133.4467  159.2634 H   0  0  0  0  0  0  0  0  0  0  0  0  # atno 6909 bound_to 6896
  144.9740  140.7574  143.4653 H   0  0  0  0  0  0  0  0  0  0  0  0  # atno 7974 bound_to 7965
  155.4984  140.3473  155.4367 H   0  0  0  0  0  0  0  0  0  0  0  0  # atno 8008 bound_to 7997
  156.0930  140.1415  156.9595 H   0  0  0  0  0  0  0  0  0  0  0  0  # atno 8009 bound_to 7997
  154.4646  140.0922  156.6964 H   0  0  0  0  0  0  0  0  0  0  0  0  # atno 8010 bound_to 7997
  140.6201  143.2416  151.5500 H   0  0  0  0  0  0  0  0  0  0  0  0  # atno 10167 bound_to 10162
  157.2517  130.7118  149.6409 H   0  0  0  0  0  0  0  0  0  0  0  0  # atno 10718 bound_to 10713
  154.0052  135.6688  153.4761 H   0  0  0  0  0  0  0  0  0  0  0  0  # atno 10763 bound_to 10752
  153.0645  135.5009  154.8164 H   0  0  0  0  0  0  0  0  0  0  0  0  # atno 10764 bound_to 10752
  154.7029  135.3082  154.9278 H   0  0  0  0  0  0  0  0  0  0  0  0  # atno 10765 bound_to 10752
  141.1213  133.8513  157.1287 H   0  0  0  0  0  0  0  0  0  0  0  0  # atno 11005 bound_to 11000
  145.2517  139.2029  143.4938 LP  0  0  0  0  0  0  0  0  0  0  0  0  # atno 17320 bound_to 7965
  146.3390  140.2432  142.8596 LP  0  0  0  0  0  0  0  0  0  0  0  0  # atno 17321 bound_to 7965
  139.5432  144.2592  152.1391 LP  0  0  0  0  0  0  0  0  0  0  0  0  # atno 17342 bound_to 10162
  140.1810  144.4844  150.6528 LP  0  0  0  0  0  0  0  0  0  0  0  0  # atno 17343 bound_to 10162
  155.9666  130.4425  150.5385 LP  0  0  0  0  0  0  0  0  0  0  0  0  # atno 17370 bound_to 10713
  157.3270  131.0692  151.1889 LP  0  0  0  0  0  0  0  0  0  0  0  0  # atno 17371 bound_to 10713
  140.0172  134.9962  157.0518 LP  0  0  0  0  0  0  0  0  0  0  0  0  # atno 17394 bound_to 11000
  140.4499  134.1593  155.7180 LP  0  0  0  0  0  0  0  0  0  0  0  0  # atno 17395 bound_to 11000

$$$$
