AV-unprocessed.smi:2078|AV-procd|sdf|8471|dock8
  -GOLD-   2272011173D 1   1.00000     0.00000
 Structure written by MMmdl.
 41 42  0  0  0  0  0  0  0  0  3 V2000
  151.9673  139.8225  155.0511 C   0  0  0  0  0  0  0  0  0  0  0  0
  151.4994  138.4079  155.0787 C   0  0  0  0  0  0  0  0  0  0  0  0
  150.4012  137.7814  154.5606 C   0  0  0  0  0  0  0  0  0  0  0  0
  150.5821  136.4311  154.9623 C   0  0  0  0  0  0  0  0  0  0  0  0
  149.6301  135.4384  154.6094 N   0  0  0  0  0  0  0  0  0  0  0  0
  149.2868  134.3223  155.2782 C   0  0  0  0  0  0  0  0  0  0  0  0
  149.8206  134.0540  156.3612 O   0  0  0  0  0  0  0  0  0  0  0  0
  148.3364  133.6022  154.6215 N   0  5  0  0  0  0  0  0  0  0  0  0
  148.1267  132.1659  154.7825 C   0  0  0  0  0  0  0  0  0  0  0  0
  148.5786  131.4315  153.5058 C   0  0  0  0  0  0  0  0  0  0  0  0
  147.4923  131.3537  152.4925 N   0  3  1  0  0  0  0  0  0  0  0  0
  146.4407  130.3677  152.8546 C   0  0  0  0  0  0  0  0  0  0  0  0
  145.4236  130.1991  151.7144 C   0  0  0  0  0  0  0  0  0  0  0  0
  144.8012  131.5465  151.3257 C   0  0  0  0  0  0  0  0  0  0  0  0
  145.9023  132.5639  150.9824 C   0  0  1  0  0  0  0  0  0  0  0  0
  145.3100  133.9307  150.6118 C   0  0  0  0  0  0  0  0  0  0  0  0
  146.9007  132.6786  152.1513 C   0  0  0  0  0  0  0  0  0  0  0  0
  151.6927  136.2505  155.6618 N   0  0  0  0  0  0  0  0  0  0  0  0
  152.2857  137.5162  155.7400 O   0  0  0  0  0  0  0  0  0  0  0  0
  151.2631  140.4548  154.5103 H   0  0  0  0  0  0  0  0  0  0  0  0
  152.9371  139.8986  154.5595 H   0  0  0  0  0  0  0  0  0  0  0  0
  152.0675  140.2158  156.0627 H   0  0  0  0  0  0  0  0  0  0  0  0
  149.5981  138.2199  153.9874 H   0  0  0  0  0  0  0  0  0  0  0  0
  149.1446  135.5917  153.7382 H   0  0  0  0  0  0  0  0  0  0  0  0
  148.6812  131.7671  155.6330 H   0  0  0  0  0  0  0  0  0  0  0  0
  147.0789  131.9306  154.9728 H   0  0  0  0  0  0  0  0  0  0  0  0
  149.4308  131.9736  153.0922 H   0  0  0  0  0  0  0  0  0  0  0  0
  148.9447  130.4299  153.7379 H   0  0  0  0  0  0  0  0  0  0  0  0
  146.8985  129.4005  153.0667 H   0  0  0  0  0  0  0  0  0  0  0  0
  145.9373  130.6893  153.7678 H   0  0  0  0  0  0  0  0  0  0  0  0
  145.9165  129.7588  150.8467 H   0  0  0  0  0  0  0  0  0  0  0  0
  144.6415  129.5007  152.0133 H   0  0  0  0  0  0  0  0  0  0  0  0
  144.1295  131.4137  150.4769 H   0  0  0  0  0  0  0  0  0  0  0  0
  144.1923  131.9200  152.1503 H   0  0  0  0  0  0  0  0  0  0  0  0
  146.4456  132.1949  150.1108 H   0  0  0  0  0  0  0  0  0  0  0  0
  144.7442  134.3567  151.4408 H   0  0  0  0  0  0  0  0  0  0  0  0
  144.6379  133.8486  149.7571 H   0  0  0  0  0  0  0  0  0  0  0  0
  146.0944  134.6399  150.3460 H   0  0  0  0  0  0  0  0  0  0  0  0
  146.4060  133.0922  153.0319 H   0  0  0  0  0  0  0  0  0  0  0  0
  147.6905  133.3798  151.8791 H   0  0  0  0  0  0  0  0  0  0  0  0
  147.9287  131.0005  151.6529 H   0  0  0  0  0  0  0  0  0  0  0  0
  1  2  1  0  0  0  0
  1 20  1  0  0  0  0
  1 21  1  0  0  0  0
  1 22  1  0  0  0  0
  2 19  1  0  0  0  0
  2  3  2  0  0  0  0
  3  4  1  0  0  0  0
  3 23  1  0  0  0  0
  4  5  1  0  0  0  0
  4 18  2  0  0  0  0
  5  6  1  0  0  0  0
  5 24  1  0  0  0  0
  6  7  2  0  0  0  0
  6  8  1  0  0  0  0
  8  9  1  0  0  0  0
  9 10  1  0  0  0  0
  9 25  1  0  0  0  0
  9 26  1  0  0  0  0
 10 11  1  0  0  0  0
 10 27  1  0  0  0  0
 10 28  1  0  0  0  0
 11 17  1  0  0  0  0
 11 12  1  0  0  0  0
 11 41  1  0  0  0  0
 12 13  1  0  0  0  0
 12 29  1  0  0  0  0
 12 30  1  0  0  0  0
 13 14  1  0  0  0  0
 13 31  1  0  0  0  0
 13 32  1  0  0  0  0
 14 15  1  0  0  0  0
 14 33  1  0  0  0  0
 14 34  1  0  0  0  0
 15 16  1  0  0  0  0
 15 17  1  0  0  0  0
 15 35  1  0  0  0  0
 16 36  1  0  0  0  0
 16 37  1  0  0  0  0
 16 38  1  0  0  0  0
 17 39  1  0  0  0  0
 17 40  1  0  0  0  0
 18 19  1  0  0  0  0
M  CHG  1   8  -1
M  CHG  1  11   1
M  END
> <s_m_source_file>
AV-unprocessed.smi

> <i_m_source_file_index>
2078

> <i_lp_mmshare_version>
43012

> <i_f3d_flags>
0

> <s_epik_input>
W0NIM11jMVtjSF1jKG5vMSlbTkhdQyg9TylbTkhdW0NIMl1bQ0gyXU4yW0NIMl1bQ0gyXVtDSDJdW0NAQEhdKFtDSDNdKVtDSDJdMg==

> <s_epik_cmdline>
J2VwaWtfcHl0aG9uJywgJy1waCcsICc3LjAnLCAnLXRuJywgJzgnLCAnLW1hJywgJzIwMCcsICctbWV0YWxfYmluZGluZycsICctaW1hZScsICc8aW5maWxlLm1hZT4nLCAnLW9tYWUnLCAnPG91dGZpbGUubWFlPic=

> <r_epik_Ionization_Penalty>
6.76934

> <r_epik_Ionization_Penalty_Charging>
6.76934

> <r_epik_Ionization_Penalty_Neutral>
5.77849e-06

> <r_epik_State_Penalty>
6.79457

> <r_epik_Charging_Adjusted_Penalty>
13.5639

> <i_epik_Tot_Q>
0

> <i_epik_Tot_abs_Q>
2

> <r_epik_Metal_State_Penalty>
2.72837

> <b_epik_Metal_Only>
1

> <s_lp_Force_Field>
OPLS_2005

> <r_lp_Energy>
13.3019

> <b_lp_Chiralities_Consistent>
1

> <s_lp_Variant>
AV-unprocessed.smi:2078-9

> <Gold.Version>
5.8.1

> <Gold.Id.Protein>
6NUR|6NUR_protein|mol2

> <Gold.PLP.Fitness>
40.1858

> <Gold.PLP.PLP>
-32.3472

> <Gold.PLP.part.hbond>
-3.8805

> <Gold.PLP.part.metal>
0.0000

> <Gold.PLP.part.buried>
-2.2122

> <Gold.PLP.part.nonpolar>
-27.4278

> <Gold.PLP.part.repulsive>
0.2180

> <Gold.PLP.ligand.clash>
0.0000

> <Gold.PLP.ligand.torsion>
0.5946

> <Gold.PLP.Chemscore.Hbond>
3.0000

> <Gold.PLP.Chemscore.CHOScore>
0.0000

> <Gold.PLP.Chemscore.Metal>
0.0000

> <Gold.Chemscore.Hbonds>
donor molecule, donor type, donor heavy atom, donor atom, acceptor molecule, acceptor atom, score
      L1  H     5    24       P1  7948  1.00
      L1  H    11    41       P1 10747  1.00
      P1  H 10752 10765       L1    18  0.70

> <Gold.PLP.Chemscore.Internal.Correction>
0.0278

> <Gold.Rescore>
     Score         DG    S(hbond)    S(metal)    S(lipo)     H(rot)  DE(clash)    DE(int)     intcor
     15.87     -17.63       2.21        0.00      74.36       1.54       0.12       1.64       ----

> <Gold.Chemscore.Fitness>
15.8658

> <Gold.Chemscore.DG>
-17.6290

> <Gold.Chemscore.ZeroCoef>
-5.4800

> <Gold.Chemscore.Hbond>
2.2136

> <Gold.Chemscore.Metal>
0.0000

> <Gold.Chemscore.Lipo>
74.3598

> <Gold.Chemscore.Internal_Hbond>
0.0000

> <Gold.Chemscore.DEClash>
0.1188

> <Gold.Chemscore.DEInternal>
1.6444

> <Gold.Chemscore.Rot>
1.5409

> <Gold.Chemscore.Internal.Correction>
   9.000000E+99

> <Gold.Chemscore.Hbonds>
donor molecule, donor type, donor heavy atom, donor atom, acceptor molecule, acceptor atom, score
      L1  H     5    24       P1  7948  0.67
      L1  H    11    41       P1 10747  1.00
      P1  H 10752 10765       L1    18  0.05

> <Gold.Chemscore.Hbond.Weighted>
-7.3936

> <Gold.Chemscore.Metal.Weighted>
-0.0000

> <Gold.Chemscore.Lipo.Weighted>
-8.7001

> <Gold.Chemscore.Internal_Hbond.Weighted>
0.0000

> <Gold.Chemscore.DEClash.Weighted>
0.1188

> <Gold.Chemscore.DEInternal.Weighted>
1.6444

> <Gold.Chemscore.Rot.Weighted>
3.9446

> <Gold.Chemscore.Internal.Correction.Weighted>
   9.000000E+99

> <Gold.Protein.RotatedTorsions>
[ 6907 6896 6895 6894 ] final -159.96 input  -60.11 | X-H torsion
[ 7974 7965 7964 7962 ] final  -31.73 input  175.53 | X-H torsion
[ 8008 7997 7996 7995 ] final  175.98 input   59.86 | X-H torsion
[ 10167 10162 10161 10158 ] final   55.09 input  -65.29 | X-H torsion
[ 10718 10713 10712 10709 ] final  -25.73 input   66.30 | X-H torsion
[ 10763 10752 10751 10750 ] final  176.47 input  -60.55 | X-H torsion
[ 11005 11000 10999 10996 ] final  -25.46 input  -57.11 | X-H torsion

> <Gold.Protein.ActiveResidues>
 VAL166  LYS551  ARG553  GLY616  TRP617  ASP618  TYR619  PRO620  LYS621  CYS622 
 ASP623  PHE694  ASN695  SER759  ASP760  ASP761  ALA762  ILE779  LEU786  VAL792 
 PHE793  MET794  SER795  GLU796  ALA797  LYS798  CYS799  TRP800  GLU811  SER814 

> <Gold.Protein.RotatedAtoms>
  151.3416  133.3960  159.2671 H   0  0  0  0  0  0  0  0  0  0  0  0  # atno 6907 bound_to 6896
  150.9873  134.9216  159.7889 H   0  0  0  0  0  0  0  0  0  0  0  0  # atno 6908 bound_to 6896
  152.5236  134.3381  159.9259 H   0  0  0  0  0  0  0  0  0  0  0  0  # atno 6909 bound_to 6896
  146.1045  140.5704  142.8806 H   0  0  0  0  0  0  0  0  0  0  0  0  # atno 7974 bound_to 7965
  156.0813  140.1395  156.9708 H   0  0  0  0  0  0  0  0  0  0  0  0  # atno 8008 bound_to 7997
  154.4587  140.0951  156.6880 H   0  0  0  0  0  0  0  0  0  0  0  0  # atno 8009 bound_to 7997
  155.5070  140.3452  155.4383 H   0  0  0  0  0  0  0  0  0  0  0  0  # atno 8010 bound_to 7997
  140.2231  144.3767  150.6443 H   0  0  0  0  0  0  0  0  0  0  0  0  # atno 10167 bound_to 10162
  156.4606  130.4503  149.6931 H   0  0  0  0  0  0  0  0  0  0  0  0  # atno 10718 bound_to 10713
  154.4815  135.2775  155.1567 H   0  0  0  0  0  0  0  0  0  0  0  0  # atno 10763 bound_to 10752
  154.3275  135.6197  153.5539 H   0  0  0  0  0  0  0  0  0  0  0  0  # atno 10764 bound_to 10752
  152.9876  135.5757  154.5217 H   0  0  0  0  0  0  0  0  0  0  0  0  # atno 10765 bound_to 10752
  140.8940  133.7569  156.0457 H   0  0  0  0  0  0  0  0  0  0  0  0  # atno 11005 bound_to 11000
  144.7459  140.5066  143.6836 LP  0  0  0  0  0  0  0  0  0  0  0  0  # atno 17320 bound_to 7965
  145.5789  139.1487  143.3246 LP  0  0  0  0  0  0  0  0  0  0  0  0  # atno 17321 bound_to 7965
  140.6240  143.2179  151.6635 LP  0  0  0  0  0  0  0  0  0  0  0  0  # atno 17342 bound_to 10162
  139.5137  144.3435  152.0718 LP  0  0  0  0  0  0  0  0  0  0  0  0  # atno 17343 bound_to 10162
  156.3721  130.7536  151.2520 LP  0  0  0  0  0  0  0  0  0  0  0  0  # atno 17370 bound_to 10713
  157.7498  131.0320  150.4207 LP  0  0  0  0  0  0  0  0  0  0  0  0  # atno 17371 bound_to 10713
  140.8312  134.3175  157.5348 LP  0  0  0  0  0  0  0  0  0  0  0  0  # atno 17394 bound_to 11000
  139.8733  134.9364  156.3660 LP  0  0  0  0  0  0  0  0  0  0  0  0  # atno 17395 bound_to 11000

$$$$
