AV-unprocessed.smi:2706|AV-procd|sdf|10455|dock8
  -GOLD-   2272014493D 1   1.00000     0.00000
 Structure written by MMmdl.
 43 46  0  0  0  0  0  0  0  0  1 V2000
  151.5488  144.5375  157.2518 C   0  0  0  0  0  0  0  0  0  0  0  0
  152.0820  144.1442  158.5450 N   0  0  0  0  0  0  0  0  0  0  0  0
  152.1243  145.1852  159.5578 C   0  0  0  0  0  0  0  0  0  0  0  0
  152.2502  142.8134  158.8768 C   0  0  0  0  0  0  0  0  0  0  0  0
  152.7476  142.4917  160.0861 C   0  0  0  0  0  0  0  0  0  0  0  0
  152.9254  141.0982  160.4378 C   0  0  0  0  0  0  0  0  0  0  0  0
  152.6007  140.1153  159.5732 C   0  0  0  0  0  0  0  0  0  0  0  0
  152.0613  140.4210  158.2591 C   0  0  0  0  0  0  0  0  0  0  0  0
  151.7562  139.4525  157.4442 N   0  0  0  0  0  0  0  0  0  0  0  0
  151.2362  139.6717  156.1730 C   0  0  0  0  0  0  0  0  0  0  0  0
  151.6330  140.4460  155.2970 O   0  0  0  0  0  0  0  0  0  0  0  0
  150.1673  138.8857  155.9837 N   0  0  0  0  0  0  0  0  0  0  0  0
  149.3605  138.8197  154.8075 C   0  0  2  0  0  0  0  0  0  0  0  0
  148.9021  140.0802  154.0967 C   0  0  2  0  0  0  0  0  0  0  0  0
  148.5938  141.4833  154.6324 C   0  0  2  0  0  0  0  0  0  0  0  0
  149.0068  141.6791  156.1052 C   0  0  0  0  0  0  0  0  0  0  0  0
  147.9860  140.7955  156.8549 C   0  0  0  0  0  0  0  0  0  0  0  0
  147.1367  140.2220  155.7028 C   0  0  1  0  0  0  0  0  0  0  0  0
  147.0768  141.4309  154.7758 C   0  0  0  0  0  0  0  0  0  0  0  0
  147.8930  139.2066  154.8381 C   0  0  2  0  0  0  0  0  0  0  0  0
  151.9160  141.7944  157.9864 N   0  0  0  0  0  0  0  0  0  0  0  0
  151.7838  143.7899  156.4935 H   0  0  0  0  0  0  0  0  0  0  0  0
  151.9722  145.4894  156.9301 H   0  0  0  0  0  0  0  0  0  0  0  0
  150.4650  144.6415  157.3060 H   0  0  0  0  0  0  0  0  0  0  0  0
  152.7570  144.8854  160.3939 H   0  0  0  0  0  0  0  0  0  0  0  0
  151.1223  145.3813  159.9400 H   0  0  0  0  0  0  0  0  0  0  0  0
  152.5253  146.1119  159.1464 H   0  0  0  0  0  0  0  0  0  0  0  0
  153.0145  143.2629  160.7944 H   0  0  0  0  0  0  0  0  0  0  0  0
  153.3246  140.8425  161.4082 H   0  0  0  0  0  0  0  0  0  0  0  0
  152.7558  139.0949  159.8923 H   0  0  0  0  0  0  0  0  0  0  0  0
  149.8989  138.2767  156.7433 H   0  0  0  0  0  0  0  0  0  0  0  0
  149.5874  137.9904  154.1393 H   0  0  0  0  0  0  0  0  0  0  0  0
  148.8699  140.0196  153.0104 H   0  0  0  0  0  0  0  0  0  0  0  0
  148.9590  142.2638  153.9643 H   0  0  0  0  0  0  0  0  0  0  0  0
  150.0468  141.4192  156.2973 H   0  0  0  0  0  0  0  0  0  0  0  0
  148.8833  142.7225  156.3976 H   0  0  0  0  0  0  0  0  0  0  0  0
  148.4372  140.0259  157.4796 H   0  0  0  0  0  0  0  0  0  0  0  0
  147.3688  141.4117  157.5100 H   0  0  0  0  0  0  0  0  0  0  0  0
  146.1637  139.8441  156.0178 H   0  0  0  0  0  0  0  0  0  0  0  0
  146.6449  142.3213  155.2370 H   0  0  0  0  0  0  0  0  0  0  0  0
  146.5604  141.2294  153.8354 H   0  0  0  0  0  0  0  0  0  0  0  0
  147.2374  138.6064  154.2096 H   0  0  0  0  0  0  0  0  0  0  0  0
  151.5481  142.0986  157.0965 H   0  0  0  0  0  0  0  0  0  0  0  0
  1  2  1  0  0  0  0
  1 22  1  0  0  0  0
  1 23  1  0  0  0  0
  1 24  1  0  0  0  0
  2  3  1  0  0  0  0
  2  4  1  0  0  0  0
  3 25  1  0  0  0  0
  3 26  1  0  0  0  0
  3 27  1  0  0  0  0
  4 21  1  0  0  0  0
  4  5  2  0  0  0  0
  5  6  1  0  0  0  0
  5 28  1  0  0  0  0
  6  7  2  0  0  0  0
  6 29  1  0  0  0  0
  7  8  1  0  0  0  0
  7 30  1  0  0  0  0
  8  9  2  0  0  0  0
  8 21  1  0  0  0  0
  9 10  1  0  0  0  0
 10 11  2  0  0  0  0
 10 12  1  0  0  0  0
 12 13  1  0  0  0  0
 12 31  1  0  0  0  0
 13 20  1  0  0  0  0
 13 14  1  0  0  0  0
 13 32  1  0  0  0  0
 14 20  1  0  0  0  0
 14 15  1  0  0  0  0
 14 33  1  0  0  0  0
 15 19  1  0  0  0  0
 15 16  1  0  0  0  0
 15 34  1  0  0  0  0
 16 17  1  0  0  0  0
 16 35  1  0  0  0  0
 16 36  1  0  0  0  0
 17 18  1  0  0  0  0
 17 37  1  0  0  0  0
 17 38  1  0  0  0  0
 18 19  1  0  0  0  0
 18 20  1  0  0  0  0
 18 39  1  0  0  0  0
 19 40  1  0  0  0  0
 19 41  1  0  0  0  0
 20 42  1  0  0  0  0
 21 43  1  0  0  0  0
M  END
> <s_m_source_file>
AV-unprocessed.smi

> <i_m_source_file_index>
2706

> <i_lp_mmshare_version>
43012

> <i_f3d_flags>
0

> <s_epik_input>
W0NIM11OKFtDSDNdKWMxW2NIXVtjSF1bY0hdYyhuMSlbTkhdQyg9TylbTkhdW0NASF0yW0NAQEhdM1tDQEBIXShbQ0gyXTQpW0NIMl1bQ0gyXVtDQEBIXTRbQ0BIXTIz

> <s_epik_cmdline>
J2VwaWtfcHl0aG9uJywgJy1waCcsICc3LjAnLCAnLXRuJywgJzgnLCAnLW1hJywgJzIwMCcsICctbWV0YWxfYmluZGluZycsICctaW1hZScsICc8aW5maWxlLm1hZT4nLCAnLW9tYWUnLCAnPG91dGZpbGUubWFlPic=

> <r_lp_tautomer_probability>
0.999994

> <r_epik_Ionization_Penalty>
2.07242

> <r_epik_Ionization_Penalty_Charging>
2.07242

> <r_epik_Ionization_Penalty_Neutral>
9.73808e-07

> <r_epik_State_Penalty>
3.96009

> <r_epik_Charging_Adjusted_Penalty>
6.03251

> <i_epik_Tot_Q>
0

> <i_epik_Tot_abs_Q>
0

> <r_epik_Metal_State_Penalty>
3.98849

> <b_epik_Metal_Only>
1

> <s_lp_Force_Field>
OPLS_2005

> <r_lp_Energy>
108.692

> <b_lp_Chiralities_Consistent>
1

> <s_lp_Variant>
AV-unprocessed.smi:2706-12

> <Gold.Version>
5.8.1

> <Gold.Id.Protein>
6NUR|6NUR_protein|mol2

> <Gold.PLP.Fitness>
39.6155

> <Gold.PLP.PLP>
-38.0755

> <Gold.PLP.part.hbond>
-1.0000

> <Gold.PLP.part.metal>
0.0000

> <Gold.PLP.part.buried>
-0.8428

> <Gold.PLP.part.nonpolar>
-36.4665

> <Gold.PLP.part.repulsive>
0.1183

> <Gold.PLP.ligand.clash>
0.0000

> <Gold.PLP.ligand.torsion>
0.5624

> <Gold.PLP.Chemscore.Hbond>
0.8320

> <Gold.PLP.Chemscore.CHOScore>
0.0000

> <Gold.PLP.Chemscore.Metal>
0.0000

> <Gold.Chemscore.Hbonds>
donor molecule, donor type, donor heavy atom, donor atom, acceptor molecule, acceptor atom, score
      P1  H  7989  7998       L1    11  0.82

> <Gold.PLP.Chemscore.Internal.Correction>
0.1688

> <Gold.Rescore>
     Score         DG    S(hbond)    S(metal)    S(lipo)     H(rot)  DE(clash)    DE(int)     intcor
     15.18     -15.74       0.86        0.00      84.93       1.00       0.02       0.53       ----

> <Gold.Chemscore.Fitness>
15.1808

> <Gold.Chemscore.DG>
-15.7392

> <Gold.Chemscore.ZeroCoef>
-5.4800

> <Gold.Chemscore.Hbond>
0.8629

> <Gold.Chemscore.Metal>
0.0000

> <Gold.Chemscore.Lipo>
84.9319

> <Gold.Chemscore.Internal_Hbond>
0.0000

> <Gold.Chemscore.DEClash>
0.0249

> <Gold.Chemscore.DEInternal>
0.5335

> <Gold.Chemscore.Rot>
1.0000

> <Gold.Chemscore.Internal.Correction>
   9.000000E+99

> <Gold.Chemscore.Hbonds>
donor molecule, donor type, donor heavy atom, donor atom, acceptor molecule, acceptor atom, score
      P1  H  7989  7998       L1    11  0.81

> <Gold.Chemscore.Hbond.Weighted>
-2.8821

> <Gold.Chemscore.Metal.Weighted>
-0.0000

> <Gold.Chemscore.Lipo.Weighted>
-9.9370

> <Gold.Chemscore.Internal_Hbond.Weighted>
0.0000

> <Gold.Chemscore.DEClash.Weighted>
0.0249

> <Gold.Chemscore.DEInternal.Weighted>
0.5335

> <Gold.Chemscore.Rot.Weighted>
2.5600

> <Gold.Chemscore.Internal.Correction.Weighted>
   9.000000E+99

> <Gold.Protein.RotatedTorsions>
[ 6907 6896 6895 6894 ] final -162.34 input  -60.11 | X-H torsion
[ 7974 7965 7964 7962 ] final  157.45 input  175.53 | X-H torsion
[ 8008 7997 7996 7995 ] final   53.46 input   59.86 | X-H torsion
[ 10167 10162 10161 10158 ] final   83.58 input  -65.29 | X-H torsion
[ 10718 10713 10712 10709 ] final  155.76 input   66.30 | X-H torsion
[ 10763 10752 10751 10750 ] final   30.60 input  -60.55 | X-H torsion
[ 11005 11000 10999 10996 ] final  -64.87 input  -57.11 | X-H torsion

> <Gold.Protein.ActiveResidues>
 VAL166  LYS551  ARG553  GLY616  TRP617  ASP618  TYR619  PRO620  LYS621  CYS622 
 ASP623  PHE694  ASN695  SER759  ASP760  ASP761  ALA762  ILE779  LEU786  VAL792 
 PHE793  MET794  SER795  GLU796  ALA797  LYS798  CYS799  TRP800  GLU811  SER814 

> <Gold.Protein.RotatedAtoms>
  151.3788  133.3828  159.2707 H   0  0  0  0  0  0  0  0  0  0  0  0  # atno 6907 bound_to 6896
  150.9593  134.8984  159.7731 H   0  0  0  0  0  0  0  0  0  0  0  0  # atno 6908 bound_to 6896
  152.5143  134.3747  159.9382 H   0  0  0  0  0  0  0  0  0  0  0  0  # atno 6909 bound_to 6896
  144.7902  139.7342  143.6224 H   0  0  0  0  0  0  0  0  0  0  0  0  # atno 7974 bound_to 7965
  155.4687  140.3464  155.4322 H   0  0  0  0  0  0  0  0  0  0  0  0  # atno 8008 bound_to 7997
  156.1114  140.1462  156.9361 H   0  0  0  0  0  0  0  0  0  0  0  0  # atno 8009 bound_to 7997
  154.4759  140.0885  156.7240 H   0  0  0  0  0  0  0  0  0  0  0  0  # atno 8010 bound_to 7997
  139.9169  144.6237  150.8480 H   0  0  0  0  0  0  0  0  0  0  0  0  # atno 10167 bound_to 10162
  157.2140  131.0704  151.1952 H   0  0  0  0  0  0  0  0  0  0  0  0  # atno 10718 bound_to 10713
  153.0363  135.6460  154.1069 H   0  0  0  0  0  0  0  0  0  0  0  0  # atno 10763 bound_to 10752
  154.0783  135.2875  155.3297 H   0  0  0  0  0  0  0  0  0  0  0  0  # atno 10764 bound_to 10752
  154.6547  135.5413  153.8009 H   0  0  0  0  0  0  0  0  0  0  0  0  # atno 10765 bound_to 10752
  141.1437  133.6672  156.5899 H   0  0  0  0  0  0  0  0  0  0  0  0  # atno 11005 bound_to 11000
  146.2151  139.5536  142.9655 LP  0  0  0  0  0  0  0  0  0  0  0  0  # atno 17320 bound_to 7965
  145.5813  141.0382  143.2120 LP  0  0  0  0  0  0  0  0  0  0  0  0  # atno 17321 bound_to 7965
  140.7672  143.3325  151.2380 LP  0  0  0  0  0  0  0  0  0  0  0  0  # atno 17342 bound_to 10162
  139.6894  143.9717  152.2851 LP  0  0  0  0  0  0  0  0  0  0  0  0  # atno 17343 bound_to 10162
  157.3643  130.7148  149.6522 LP  0  0  0  0  0  0  0  0  0  0  0  0  # atno 17370 bound_to 10713
  155.9688  130.4216  150.4480 LP  0  0  0  0  0  0  0  0  0  0  0  0  # atno 17371 bound_to 10713
  140.3771  134.7555  157.4637 LP  0  0  0  0  0  0  0  0  0  0  0  0  # atno 17394 bound_to 11000
  140.0666  134.5921  155.8689 LP  0  0  0  0  0  0  0  0  0  0  0  0  # atno 17395 bound_to 11000

$$$$
