AV-unprocessed.smi:1381|AV-procd|sdf|5617|dock2
  -GOLD-   22720 5233D 1   1.00000     0.00000
 Structure written by MMmdl.
 42 43  0  0  0  0  0  0  0  0  3 V2000
  149.0371  140.4731  154.9407 C   0  0  0  0  0  0  0  0  0  0  0  0
  149.8045  139.2049  154.7892 C   0  0  0  0  0  0  0  0  0  0  0  0
  149.4292  137.8926  154.7326 C   0  0  0  0  0  0  0  0  0  0  0  0
  150.6659  137.2109  154.5795 C   0  0  0  0  0  0  0  0  0  0  0  0
  150.7022  135.7952  154.4775 N   0  0  0  0  0  0  0  0  0  0  0  0
  149.7362  134.9032  154.7631 C   0  0  0  0  0  0  0  0  0  0  0  0
  148.6315  135.2860  155.1669 O   0  0  0  0  0  0  0  0  0  0  0  0
  150.1433  133.6216  154.5512 N   0  5  0  0  0  0  0  0  0  0  0  0
  149.3459  132.5982  153.8800 C   0  0  0  0  0  0  0  0  0  0  0  0
  148.4041  133.2652  152.8592 C   0  0  0  0  0  0  0  0  0  0  0  0
  147.4782  132.2864  152.2298 N   0  3  1  0  0  0  0  0  0  0  0  0
  146.9222  131.3130  153.2004 C   0  0  0  0  0  0  0  0  0  0  0  0
  146.0365  130.2668  152.4953 C   0  0  2  0  0  0  0  0  0  0  0  0
  146.8360  129.2269  151.6902 C   0  0  0  0  0  0  0  0  0  0  0  0
  145.0403  130.9136  151.7030 O   0  0  0  0  0  0  0  0  0  0  0  0
  145.5468  131.8320  150.7377 C   0  0  1  0  0  0  0  0  0  0  0  0
  144.3538  132.4301  149.9845 C   0  0  0  0  0  0  0  0  0  0  0  0
  146.3802  132.9119  151.4491 C   0  0  0  0  0  0  0  0  0  0  0  0
  151.7029  138.0349  154.5463 N   0  0  0  0  0  0  0  0  0  0  0  0
  151.1562  139.3167  154.6802 O   0  0  0  0  0  0  0  0  0  0  0  0
  147.9661  140.2762  154.9928 H   0  0  0  0  0  0  0  0  0  0  0  0
  149.2179  141.1373  154.0954 H   0  0  0  0  0  0  0  0  0  0  0  0
  149.3298  140.9950  155.8518 H   0  0  0  0  0  0  0  0  0  0  0  0
  148.4302  137.4867  154.7907 H   0  0  0  0  0  0  0  0  0  0  0  0
  151.5728  135.4056  154.1485 H   0  0  0  0  0  0  0  0  0  0  0  0
  149.9709  131.8711  153.3599 H   0  0  0  0  0  0  0  0  0  0  0  0
  148.7486  132.0248  154.5900 H   0  0  0  0  0  0  0  0  0  0  0  0
  147.8265  134.0278  153.3846 H   0  0  0  0  0  0  0  0  0  0  0  0
  148.9696  133.7939  152.0898 H   0  0  0  0  0  0  0  0  0  0  0  0
  147.7297  130.8128  153.7365 H   0  0  0  0  0  0  0  0  0  0  0  0
  146.3346  131.8525  153.9450 H   0  0  0  0  0  0  0  0  0  0  0  0
  145.4965  129.7170  153.2669 H   0  0  0  0  0  0  0  0  0  0  0  0
  147.4944  128.6559  152.3452 H   0  0  0  0  0  0  0  0  0  0  0  0
  147.4613  129.6861  150.9251 H   0  0  0  0  0  0  0  0  0  0  0  0
  146.1683  128.5197  151.1977 H   0  0  0  0  0  0  0  0  0  0  0  0
  146.1696  131.3036  150.0157 H   0  0  0  0  0  0  0  0  0  0  0  0
  144.6855  133.1300  149.2172 H   0  0  0  0  0  0  0  0  0  0  0  0
  143.6871  132.9661  150.6606 H   0  0  0  0  0  0  0  0  0  0  0  0
  143.7727  131.6495  149.4930 H   0  0  0  0  0  0  0  0  0  0  0  0
  145.7475  133.4988  152.1170 H   0  0  0  0  0  0  0  0  0  0  0  0
  146.7876  133.6027  150.7100 H   0  0  0  0  0  0  0  0  0  0  0  0
  148.0396  131.7512  151.5825 H   0  0  0  0  0  0  0  0  0  0  0  0
  1  2  1  0  0  0  0
  1 21  1  0  0  0  0
  1 22  1  0  0  0  0
  1 23  1  0  0  0  0
  2 20  1  0  0  0  0
  2  3  2  0  0  0  0
  3  4  1  0  0  0  0
  3 24  1  0  0  0  0
  4  5  1  0  0  0  0
  4 19  2  0  0  0  0
  5  6  1  0  0  0  0
  5 25  1  0  0  0  0
  6  7  2  0  0  0  0
  6  8  1  0  0  0  0
  8  9  1  0  0  0  0
  9 10  1  0  0  0  0
  9 26  1  0  0  0  0
  9 27  1  0  0  0  0
 10 11  1  0  0  0  0
 10 28  1  0  0  0  0
 10 29  1  0  0  0  0
 11 18  1  0  0  0  0
 11 12  1  0  0  0  0
 11 42  1  0  0  0  0
 12 13  1  0  0  0  0
 12 30  1  0  0  0  0
 12 31  1  0  0  0  0
 13 14  1  0  0  0  0
 13 15  1  0  0  0  0
 13 32  1  0  0  0  0
 14 33  1  0  0  0  0
 14 34  1  0  0  0  0
 14 35  1  0  0  0  0
 15 16  1  0  0  0  0
 16 17  1  0  0  0  0
 16 18  1  0  0  0  0
 16 36  1  0  0  0  0
 17 37  1  0  0  0  0
 17 38  1  0  0  0  0
 17 39  1  0  0  0  0
 18 40  1  0  0  0  0
 18 41  1  0  0  0  0
 19 20  1  0  0  0  0
M  CHG  1   8  -1
M  CHG  1  11   1
M  END
> <s_m_source_file>
AV-unprocessed.smi

> <i_m_source_file_index>
1381

> <i_lp_mmshare_version>
43012

> <i_f3d_flags>
0

> <s_epik_input>
W0NIM11jMVtjSF1jKG5vMSlbTkhdQyg9TylbTkhdW0NIMl1bQ0gyXU4yW0NIMl1bQ0BASF0oW0NIM10pT1tDQEBIXShbQ0gzXSlbQ0gyXTI=

> <s_epik_cmdline>
J2VwaWtfcHl0aG9uJywgJy1waCcsICc3LjAnLCAnLXRuJywgJzgnLCAnLW1hJywgJzIwMCcsICctbWV0YWxfYmluZGluZycsICctaW1hZScsICc8aW5maWxlLm1hZT4nLCAnLW9tYWUnLCAnPG91dGZpbGUubWFlPic=

> <r_epik_Ionization_Penalty>
6.8073

> <r_epik_Ionization_Penalty_Charging>
6.80729

> <r_epik_Ionization_Penalty_Neutral>
5.65391e-06

> <r_epik_State_Penalty>
7.47323

> <r_epik_Charging_Adjusted_Penalty>
14.2805

> <i_epik_Tot_Q>
0

> <i_epik_Tot_abs_Q>
2

> <r_epik_Metal_State_Penalty>
3.40035

> <b_epik_Metal_Only>
1

> <s_lp_Force_Field>
OPLS_2005

> <r_lp_Energy>
15.0618

> <b_lp_Chiralities_Consistent>
1

> <s_lp_Variant>
AV-unprocessed.smi:1381-16

> <Gold.Version>
5.8.1

> <Gold.Id.Protein>
6NUR|6NUR_protein|mol2

> <Gold.PLP.Fitness>
41.2639

> <Gold.PLP.PLP>
-36.5920

> <Gold.PLP.part.hbond>
-3.7149

> <Gold.PLP.part.metal>
0.0000

> <Gold.PLP.part.buried>
-1.3220

> <Gold.PLP.part.nonpolar>
-30.9186

> <Gold.PLP.part.repulsive>
0.7591

> <Gold.PLP.ligand.clash>
0.0000

> <Gold.PLP.ligand.torsion>
0.7194

> <Gold.PLP.Chemscore.Hbond>
2.0000

> <Gold.PLP.Chemscore.CHOScore>
0.0000

> <Gold.PLP.Chemscore.Metal>
0.0000

> <Gold.Chemscore.Hbonds>
donor molecule, donor type, donor heavy atom, donor atom, acceptor molecule, acceptor atom, score
      L1  H    11    42       P1 10747  1.00
      P1  H  7989  7998       L1    20  1.00

> <Gold.PLP.Chemscore.Internal.Correction>
0.1107

> <Gold.Rescore>
     Score         DG    S(hbond)    S(metal)    S(lipo)     H(rot)  DE(clash)    DE(int)     intcor
     15.03     -17.35       1.98        0.00      79.56       1.58       0.12       2.20       ----

> <Gold.Chemscore.Fitness>
15.0327

> <Gold.Chemscore.DG>
-17.3518

> <Gold.Chemscore.ZeroCoef>
-5.4800

> <Gold.Chemscore.Hbond>
1.9780

> <Gold.Chemscore.Metal>
0.0000

> <Gold.Chemscore.Lipo>
79.5563

> <Gold.Chemscore.Internal_Hbond>
0.0000

> <Gold.Chemscore.DEClash>
0.1206

> <Gold.Chemscore.DEInternal>
2.1984

> <Gold.Chemscore.Rot>
1.5792

> <Gold.Chemscore.Internal.Correction>
   9.000000E+99

> <Gold.Chemscore.Hbonds>
donor molecule, donor type, donor heavy atom, donor atom, acceptor molecule, acceptor atom, score
      L1  H    11    42       P1 10747  1.00
      P1  H  7989  7998       L1    20  0.75

> <Gold.Chemscore.Hbond.Weighted>
-6.6065

> <Gold.Chemscore.Metal.Weighted>
-0.0000

> <Gold.Chemscore.Lipo.Weighted>
-9.3081

> <Gold.Chemscore.Internal_Hbond.Weighted>
0.0000

> <Gold.Chemscore.DEClash.Weighted>
0.1206

> <Gold.Chemscore.DEInternal.Weighted>
2.1984

> <Gold.Chemscore.Rot.Weighted>
4.0428

> <Gold.Chemscore.Internal.Correction.Weighted>
   9.000000E+99

> <Gold.Protein.RotatedTorsions>
[ 6907 6896 6895 6894 ] final -153.78 input  -60.11 | X-H torsion
[ 7974 7965 7964 7962 ] final  -41.75 input  175.53 | X-H torsion
[ 8008 7997 7996 7995 ] final  -46.54 input   59.86 | X-H torsion
[ 10167 10162 10161 10158 ] final -135.74 input  -65.29 | X-H torsion
[ 10718 10713 10712 10709 ] final   47.79 input   66.30 | X-H torsion
[ 10763 10752 10751 10750 ] final  -33.77 input  -60.55 | X-H torsion
[ 11005 11000 10999 10996 ] final   28.99 input  -57.11 | X-H torsion

> <Gold.Protein.ActiveResidues>
 VAL166  LYS551  ARG553  GLY616  TRP617  ASP618  TYR619  PRO620  LYS621  CYS622 
 ASP623  PHE694  ASN695  SER759  ASP760  ASP761  ALA762  ILE779  LEU786  VAL792 
 PHE793  MET794  SER795  GLU796  ALA797  LYS798  CYS799  TRP800  GLU811  SER814 

> <Gold.Protein.RotatedAtoms>
  151.2476  133.4366  159.2609 H   0  0  0  0  0  0  0  0  0  0  0  0  # atno 6907 bound_to 6896
  151.0647  134.9760  159.8288 H   0  0  0  0  0  0  0  0  0  0  0  0  # atno 6908 bound_to 6896
  152.5403  134.2425  159.8920 H   0  0  0  0  0  0  0  0  0  0  0  0  # atno 6909 bound_to 6896
  146.0181  140.6883  142.9191 H   0  0  0  0  0  0  0  0  0  0  0  0  # atno 7974 bound_to 7965
  154.4008  140.1369  156.4028 H   0  0  0  0  0  0  0  0  0  0  0  0  # atno 8008 bound_to 7997
  155.7808  140.3481  155.5276 H   0  0  0  0  0  0  0  0  0  0  0  0  # atno 8009 bound_to 7997
  155.8675  140.0966  157.1563 H   0  0  0  0  0  0  0  0  0  0  0  0  # atno 8010 bound_to 7997
  139.8748  143.6912  152.2635 H   0  0  0  0  0  0  0  0  0  0  0  0  # atno 10167 bound_to 10162
  157.4621  130.8203  149.7897 H   0  0  0  0  0  0  0  0  0  0  0  0  # atno 10718 bound_to 10713
  153.8357  135.6862  153.4809 H   0  0  0  0  0  0  0  0  0  0  0  0  # atno 10763 bound_to 10752
  153.1484  135.4628  154.9598 H   0  0  0  0  0  0  0  0  0  0  0  0  # atno 10764 bound_to 10752
  154.7867  135.3287  154.7816 H   0  0  0  0  0  0  0  0  0  0  0  0  # atno 10765 bound_to 10752
  140.3097  134.2663  155.7737 H   0  0  0  0  0  0  0  0  0  0  0  0  # atno 11005 bound_to 11000
  144.6979  140.3518  143.7180 LP  0  0  0  0  0  0  0  0  0  0  0  0  # atno 17320 bound_to 7965
  145.7236  139.1716  143.2470 LP  0  0  0  0  0  0  0  0  0  0  0  0  # atno 17321 bound_to 7965
  139.7250  144.7595  151.0894 LP  0  0  0  0  0  0  0  0  0  0  0  0  # atno 17342 bound_to 10162
  140.7754  143.5160  150.9595 LP  0  0  0  0  0  0  0  0  0  0  0  0  # atno 17343 bound_to 10162
  156.0033  130.3868  150.2523 LP  0  0  0  0  0  0  0  0  0  0  0  0  # atno 17370 bound_to 10713
  157.0701  131.0114  151.3193 LP  0  0  0  0  0  0  0  0  0  0  0  0  # atno 17371 bound_to 10713
  141.2111  133.7700  156.9889 LP  0  0  0  0  0  0  0  0  0  0  0  0  # atno 17394 bound_to 11000
  140.1035  134.9520  157.1959 LP  0  0  0  0  0  0  0  0  0  0  0  0  # atno 17395 bound_to 11000

$$$$
