AV-unprocessed.smi:942|AV-procd|sdf|4226|dock6
  -GOLD-   22720 2133D 1   1.00000     0.00000
 Structure written by MMmdl.
 42 44  0  0  0  0  0  0  0  0  1 V2000
  152.8161  139.7425  156.6732 O   0  0  0  0  0  0  0  0  0  0  0  0
  151.7531  140.3561  156.7724 C   0  0  0  0  0  0  0  0  0  0  0  0
  150.7207  140.1877  155.9327 N   0  0  0  0  0  0  0  0  0  0  0  0
  150.7061  139.3192  154.7537 C   0  0  1  0  0  0  0  0  0  0  0  0
  151.3414  137.9546  155.0914 C   0  0  0  0  0  0  0  0  0  0  0  0
  150.2160  136.9118  155.0231 C   0  0  0  0  0  0  0  0  0  0  0  0
  148.9145  137.7113  155.0584 C   0  0  0  0  0  0  0  0  0  0  0  0
  149.2656  138.9963  154.3017 C   0  0  1  0  0  0  0  0  0  0  0  0
  148.3166  140.0960  154.4549 N   0  0  0  0  0  0  0  0  0  0  0  0
  148.2914  141.3210  153.7943 C   0  0  0  0  0  0  0  0  0  0  0  0
  147.2087  142.0139  154.2860 C   0  0  0  0  0  0  0  0  0  0  0  0
  146.5637  141.2506  155.2547 N   0  0  0  0  0  0  0  0  0  0  0  0
  147.2802  140.1358  155.3054 C   0  0  0  0  0  0  0  0  0  0  0  0
  151.5571  141.3897  157.8890 C   0  0  0  0  0  0  0  0  0  0  0  0
  151.2681  142.7865  157.2985 C   0  0  0  0  0  0  0  0  0  0  0  0
  151.0815  143.8350  158.4077 C   0  0  0  0  0  0  0  0  0  0  0  0
  152.2990  143.8777  159.3450 C   0  0  0  0  0  0  0  0  0  0  0  0
  152.5986  142.4893  159.9321 C   0  0  0  0  0  0  0  0  0  0  0  0
  152.7867  141.4440  158.8206 C   0  0  0  0  0  0  0  0  0  0  0  0
  149.8891  140.7363  156.0974 H   0  0  0  0  0  0  0  0  0  0  0  0
  151.2423  139.7894  153.9275 H   0  0  0  0  0  0  0  0  0  0  0  0
  152.1342  137.7053  154.3852 H   0  0  0  0  0  0  0  0  0  0  0  0
  151.7944  137.9604  156.0839 H   0  0  0  0  0  0  0  0  0  0  0  0
  150.2814  136.3660  154.0810 H   0  0  0  0  0  0  0  0  0  0  0  0
  150.2753  136.1812  155.8302 H   0  0  0  0  0  0  0  0  0  0  0  0
  148.0798  137.1713  154.6104 H   0  0  0  0  0  0  0  0  0  0  0  0
  148.6598  137.9308  156.0963 H   0  0  0  0  0  0  0  0  0  0  0  0
  149.2945  138.7514  153.2385 H   0  0  0  0  0  0  0  0  0  0  0  0
  149.0180  141.5989  153.0457 H   0  0  0  0  0  0  0  0  0  0  0  0
  146.8511  142.9984  154.0223 H   0  0  0  0  0  0  0  0  0  0  0  0
  147.0392  139.3205  155.9719 H   0  0  0  0  0  0  0  0  0  0  0  0
  150.6937  141.0901  158.4861 H   0  0  0  0  0  0  0  0  0  0  0  0
  152.0860  143.0972  156.6465 H   0  0  0  0  0  0  0  0  0  0  0  0
  150.3733  142.7530  156.6751 H   0  0  0  0  0  0  0  0  0  0  0  0
  150.9182  144.8183  157.9656 H   0  0  0  0  0  0  0  0  0  0  0  0
  150.1845  143.6025  158.9832 H   0  0  0  0  0  0  0  0  0  0  0  0
  153.1702  144.2374  158.7957 H   0  0  0  0  0  0  0  0  0  0  0  0
  152.1241  144.5922  160.1497 H   0  0  0  0  0  0  0  0  0  0  0  0
  153.4921  142.5338  160.5552 H   0  0  0  0  0  0  0  0  0  0  0  0
  151.7806  142.1843  160.5860 H   0  0  0  0  0  0  0  0  0  0  0  0
  152.9629  140.4648  159.2676 H   0  0  0  0  0  0  0  0  0  0  0  0
  153.6836  141.6882  158.2487 H   0  0  0  0  0  0  0  0  0  0  0  0
  1  2  2  0  0  0  0
  2  3  1  0  0  0  0
  2 14  1  0  0  0  0
  3  4  1  0  0  0  0
  3 20  1  0  0  0  0
  4  8  1  0  0  0  0
  4  5  1  0  0  0  0
  4 21  1  0  0  0  0
  5  6  1  0  0  0  0
  5 22  1  0  0  0  0
  5 23  1  0  0  0  0
  6  7  1  0  0  0  0
  6 24  1  0  0  0  0
  6 25  1  0  0  0  0
  7  8  1  0  0  0  0
  7 26  1  0  0  0  0
  7 27  1  0  0  0  0
  8  9  1  0  0  0  0
  8 28  1  0  0  0  0
  9 13  1  0  0  0  0
  9 10  1  0  0  0  0
 10 11  2  0  0  0  0
 10 29  1  0  0  0  0
 11 12  1  0  0  0  0
 11 30  1  0  0  0  0
 12 13  2  0  0  0  0
 13 31  1  0  0  0  0
 14 19  1  0  0  0  0
 14 15  1  0  0  0  0
 14 32  1  0  0  0  0
 15 16  1  0  0  0  0
 15 33  1  0  0  0  0
 15 34  1  0  0  0  0
 16 17  1  0  0  0  0
 16 35  1  0  0  0  0
 16 36  1  0  0  0  0
 17 18  1  0  0  0  0
 17 37  1  0  0  0  0
 17 38  1  0  0  0  0
 18 19  1  0  0  0  0
 18 39  1  0  0  0  0
 18 40  1  0  0  0  0
 19 41  1  0  0  0  0
 19 42  1  0  0  0  0
M  END
> <s_m_source_file>
AV-unprocessed.smi

> <i_m_source_file_index>
942

> <i_lp_mmshare_version>
43012

> <i_f3d_flags>
0

> <s_epik_input>
W0NIMl0xW0NIMl1bQ0gyXVtDSDJdW0NIMl1bQ0hdMUMoPU8pW05IXVtDQEBIXTJbQ0gyXVtDSDJdW0NIMl1bQ0BIXTJuM1tjSF1bY0hdbltjSF0z

> <s_epik_cmdline>
J2VwaWtfcHl0aG9uJywgJy1waCcsICc3LjAnLCAnLXRuJywgJzgnLCAnLW1hJywgJzIwMCcsICctbWV0YWxfYmluZGluZycsICctaW1hZScsICc8aW5maWxlLm1hZT4nLCAnLW9tYWUnLCAnPG91dGZpbGUubWFlPic=

> <r_lp_tautomer_probability>
1

> <r_epik_Ionization_Penalty>
0.778458

> <r_epik_Ionization_Penalty_Charging>
0.778458

> <r_epik_Ionization_Penalty_Neutral>
2.79355e-08

> <r_epik_State_Penalty>
0.807804

> <r_epik_Charging_Adjusted_Penalty>
1.58626

> <i_epik_Tot_Q>
0

> <i_epik_Tot_abs_Q>
0

> <r_epik_Metal_State_Penalty>
0.343007

> <b_epik_Metal_Only>
0

> <s_lp_Force_Field>
OPLS_2005

> <r_lp_Energy>
33.2342

> <b_lp_Chiralities_Consistent>
1

> <s_lp_Variant>
AV-unprocessed.smi:942-6

> <Gold.Version>
5.8.1

> <Gold.Id.Protein>
6NUR|6NUR_protein|mol2

> <Gold.PLP.Fitness>
42.6817

> <Gold.PLP.PLP>
-37.9097

> <Gold.PLP.part.hbond>
-1.0000

> <Gold.PLP.part.metal>
0.0000

> <Gold.PLP.part.buried>
-3.4341

> <Gold.PLP.part.nonpolar>
-33.7347

> <Gold.PLP.part.repulsive>
0.1819

> <Gold.PLP.ligand.clash>
0.0000

> <Gold.PLP.ligand.torsion>
0.3462

> <Gold.PLP.Chemscore.Hbond>
1.0000

> <Gold.PLP.Chemscore.CHOScore>
0.8121

> <Gold.PLP.Chemscore.Metal>
0.0000

> <Gold.Chemscore.Hbonds>
donor molecule, donor type, donor heavy atom, donor atom, acceptor molecule, acceptor atom, score
      P1  H  7997  8010       L1     1  1.00
      L1  C    10    29       P1  7957  0.84

> <Gold.PLP.Chemscore.Internal.Correction>
0.0279

> <Gold.Rescore>
     Score         DG    S(hbond)    S(metal)    S(lipo)     H(rot)  DE(clash)    DE(int)     intcor
     15.54     -17.33       0.99        0.00     104.44       1.44       0.00       1.79       ----

> <Gold.Chemscore.Fitness>
15.5417

> <Gold.Chemscore.DG>
-17.3317

> <Gold.Chemscore.ZeroCoef>
-5.4800

> <Gold.Chemscore.Hbond>
0.9932

> <Gold.Chemscore.Metal>
0.0000

> <Gold.Chemscore.Lipo>
104.4414

> <Gold.Chemscore.Internal_Hbond>
0.0000

> <Gold.Chemscore.DEClash>
0.0048

> <Gold.Chemscore.DEInternal>
1.7853

> <Gold.Chemscore.Rot>
1.4395

> <Gold.Chemscore.Internal.Correction>
   9.000000E+99

> <Gold.Chemscore.Hbonds>
donor molecule, donor type, donor heavy atom, donor atom, acceptor molecule, acceptor atom, score
      P1  H  7997  8010       L1     1  0.97

> <Gold.Chemscore.Hbond.Weighted>
-3.3173

> <Gold.Chemscore.Metal.Weighted>
-0.0000

> <Gold.Chemscore.Lipo.Weighted>
-12.2196

> <Gold.Chemscore.Internal_Hbond.Weighted>
0.0000

> <Gold.Chemscore.DEClash.Weighted>
0.0048

> <Gold.Chemscore.DEInternal.Weighted>
1.7853

> <Gold.Chemscore.Rot.Weighted>
3.6852

> <Gold.Chemscore.Internal.Correction.Weighted>
   9.000000E+99

> <Gold.Protein.RotatedTorsions>
[ 6907 6896 6895 6894 ] final   71.02 input  -60.11 | X-H torsion
[ 7974 7965 7964 7962 ] final  167.68 input  175.53 | X-H torsion
[ 8008 7997 7996 7995 ] final   69.13 input   59.86 | X-H torsion
[ 10167 10162 10161 10158 ] final -141.07 input  -65.29 | X-H torsion
[ 10718 10713 10712 10709 ] final -176.49 input   66.30 | X-H torsion
[ 10763 10752 10751 10750 ] final   -0.05 input  -60.55 | X-H torsion
[ 11005 11000 10999 10996 ] final   75.93 input  -57.11 | X-H torsion

> <Gold.Protein.ActiveResidues>
 VAL166  LYS551  ARG553  GLY616  TRP617  ASP618  TYR619  PRO620  LYS621  CYS622 
 ASP623  PHE694  ASN695  SER759  ASP760  ASP761  ALA762  ILE779  LEU786  VAL792 
 PHE793  MET794  SER795  GLU796  ALA797  LYS798  CYS799  TRP800  GLU811  SER814 

> <Gold.Protein.RotatedAtoms>
  152.4785  134.4781  159.9656 H   0  0  0  0  0  0  0  0  0  0  0  0  # atno 6907 bound_to 6896
  151.4792  133.3544  159.2843 H   0  0  0  0  0  0  0  0  0  0  0  0  # atno 6908 bound_to 6896
  150.8840  134.8262  159.7307 H   0  0  0  0  0  0  0  0  0  0  0  0  # atno 6909 bound_to 6896
  144.7415  139.8796  143.6395 H   0  0  0  0  0  0  0  0  0  0  0  0  # atno 7974 bound_to 7965
  155.7189  140.3493  155.5007 H   0  0  0  0  0  0  0  0  0  0  0  0  # atno 8008 bound_to 7997
  155.9288  140.1080  157.1171 H   0  0  0  0  0  0  0  0  0  0  0  0  # atno 8009 bound_to 7997
  154.4081  140.1235  156.4761 H   0  0  0  0  0  0  0  0  0  0  0  0  # atno 8010 bound_to 7997
  139.8220  143.7561  152.2666 H   0  0  0  0  0  0  0  0  0  0  0  0  # atno 10167 bound_to 10162
  156.8155  130.9601  151.3114 H   0  0  0  0  0  0  0  0  0  0  0  0  # atno 10718 bound_to 10713
  153.3269  135.6972  153.6982 H   0  0  0  0  0  0  0  0  0  0  0  0  # atno 10763 bound_to 10752
  153.5800  135.3500  155.2871 H   0  0  0  0  0  0  0  0  0  0  0  0  # atno 10764 bound_to 10752
  154.8610  135.4292  154.2448 H   0  0  0  0  0  0  0  0  0  0  0  0  # atno 10765 bound_to 10752
  139.9321  134.7559  156.1332 H   0  0  0  0  0  0  0  0  0  0  0  0  # atno 11005 bound_to 11000
  146.1221  139.4240  143.0222 LP  0  0  0  0  0  0  0  0  0  0  0  0  # atno 17320 bound_to 7965
  145.7290  141.0049  143.1362 LP  0  0  0  0  0  0  0  0  0  0  0  0  # atno 17321 bound_to 7965
  139.7742  144.7466  151.0181 LP  0  0  0  0  0  0  0  0  0  0  0  0  # atno 17342 bound_to 10162
  140.7812  143.4612  151.0276 LP  0  0  0  0  0  0  0  0  0  0  0  0  # atno 17343 bound_to 10162
  157.6484  130.8863  149.9583 LP  0  0  0  0  0  0  0  0  0  0  0  0  # atno 17370 bound_to 10713
  156.1019  130.3655  150.0202 LP  0  0  0  0  0  0  0  0  0  0  0  0  # atno 17371 bound_to 10713
  141.0915  133.6712  156.2552 LP  0  0  0  0  0  0  0  0  0  0  0  0  # atno 17394 bound_to 11000
  140.6174  134.5396  157.5542 LP  0  0  0  0  0  0  0  0  0  0  0  0  # atno 17395 bound_to 11000

$$$$
