AV-unprocessed.smi:2775|AV-procd|sdf|10696|dock2
  -GOLD-   2272015133D 1   1.00000     0.00000
 Structure written by MMmdl.
 43 46  0  0  0  0  0  0  0  0  2 V2000
  144.4021  132.6286  150.4553 C   0  0  0  0  0  0  0  0  0  0  0  0
  144.4317  133.9773  151.1483 C   0  0  0  0  0  0  0  0  0  0  0  0
  143.2661  134.6515  151.2607 N   0  3  0  0  0  0  0  0  0  0  0  0
  143.1703  135.8613  151.8499 C   0  0  0  0  0  0  0  0  0  0  0  0
  144.3184  136.4730  152.3892 C   0  0  0  0  0  0  0  0  0  0  0  0
  145.5658  135.8026  152.3144 C   0  0  0  0  0  0  0  0  0  0  0  0
  146.7770  136.3503  152.8212 N   0  0  0  0  0  0  0  0  0  0  0  0
  146.9509  137.2427  153.8155 C   0  0  0  0  0  0  0  0  0  0  0  0
  146.0420  137.8015  154.4251 O   0  0  0  0  0  0  0  0  0  0  0  0
  148.2395  137.4786  154.1151 N   0  0  0  0  0  0  0  0  0  0  0  0
  148.7641  138.3902  155.1412 C   0  0  2  0  0  0  0  0  0  0  0  0
  148.2202  139.8229  155.0444 C   0  0  2  0  0  0  0  0  0  0  0  0
  146.9980  140.4577  154.4861 C   0  0  0  0  0  0  0  0  0  0  0  0
  147.6864  141.7169  153.9007 C   0  0  0  0  0  0  0  0  0  0  0  0
  149.1119  141.4821  154.0252 O   0  0  0  0  0  0  0  0  0  0  0  0
  149.2480  140.0746  153.9531 C   0  0  1  0  0  0  0  0  0  0  0  0
  150.1130  139.0781  154.7429 C   0  0  0  0  0  0  0  0  0  0  0  0
  151.1203  139.5536  155.8026 C   0  0  0  0  0  0  0  0  0  0  0  0
  152.0081  138.3666  155.4160 C   0  0  0  0  0  0  0  0  0  0  0  0
  151.2572  138.2968  154.0824 C   0  0  0  0  0  0  0  0  0  0  0  0
  145.6200  134.5422  151.6686 C   0  0  0  0  0  0  0  0  0  0  0  0
  147.1224  133.6936  151.5194 Cl  0  0  0  0  0  0  0  0  0  0  0  0
  144.7872  131.8525  151.1173 H   0  0  0  0  0  0  0  0  0  0  0  0
  145.0171  132.6508  149.5553 H   0  0  0  0  0  0  0  0  0  0  0  0
  143.3875  132.3517  150.1661 H   0  0  0  0  0  0  0  0  0  0  0  0
  142.1849  136.3038  151.8674 H   0  0  0  0  0  0  0  0  0  0  0  0
  144.2205  137.4495  152.8382 H   0  0  0  0  0  0  0  0  0  0  0  0
  147.6223  135.9336  152.4586 H   0  0  0  0  0  0  0  0  0  0  0  0
  148.9312  136.9834  153.5705 H   0  0  0  0  0  0  0  0  0  0  0  0
  148.7704  137.9793  156.1520 H   0  0  0  0  0  0  0  0  0  0  0  0
  148.4860  140.3346  155.9768 H   0  0  0  0  0  0  0  0  0  0  0  0
  146.5313  139.8499  153.7100 H   0  0  0  0  0  0  0  0  0  0  0  0
  146.2581  140.7008  155.2486 H   0  0  0  0  0  0  0  0  0  0  0  0
  147.4142  141.8559  152.8537 H   0  0  0  0  0  0  0  0  0  0  0  0
  147.4146  142.6219  154.4450 H   0  0  0  0  0  0  0  0  0  0  0  0
  148.9585  139.6952  152.9686 H   0  0  0  0  0  0  0  0  0  0  0  0
  151.5701  140.5160  155.5535 H   0  0  0  0  0  0  0  0  0  0  0  0
  150.7552  139.5318  156.8298 H   0  0  0  0  0  0  0  0  0  0  0  0
  153.0699  138.5992  155.3304 H   0  0  0  0  0  0  0  0  0  0  0  0
  151.8346  137.4900  156.0419 H   0  0  0  0  0  0  0  0  0  0  0  0
  151.0066  137.2870  153.7570 H   0  0  0  0  0  0  0  0  0  0  0  0
  151.7510  138.8640  153.2918 H   0  0  0  0  0  0  0  0  0  0  0  0
  142.4204  134.2286  150.8773 H   0  0  0  0  0  0  0  0  0  0  0  0
  1  2  1  0  0  0  0
  1 23  1  0  0  0  0
  1 24  1  0  0  0  0
  1 25  1  0  0  0  0
  2 21  1  0  0  0  0
  2  3  2  0  0  0  0
  3  4  1  0  0  0  0
  3 43  1  0  0  0  0
  4  5  2  0  0  0  0
  4 26  1  0  0  0  0
  5  6  1  0  0  0  0
  5 27  1  0  0  0  0
  6  7  1  0  0  0  0
  6 21  2  0  0  0  0
  7  8  1  0  0  0  0
  7 28  1  0  0  0  0
  8  9  2  0  0  0  0
  8 10  1  0  0  0  0
 10 11  1  0  0  0  0
 10 29  1  0  0  0  0
 11 17  1  0  0  0  0
 11 12  1  0  0  0  0
 11 30  1  0  0  0  0
 12 16  1  0  0  0  0
 12 13  1  0  0  0  0
 12 31  1  0  0  0  0
 13 14  1  0  0  0  0
 13 32  1  0  0  0  0
 13 33  1  0  0  0  0
 14 15  1  0  0  0  0
 14 34  1  0  0  0  0
 14 35  1  0  0  0  0
 15 16  1  0  0  0  0
 16 17  1  0  0  0  0
 16 36  1  0  0  0  0
 17 20  1  0  0  0  0
 17 18  1  0  0  0  0
 18 19  1  0  0  0  0
 18 37  1  0  0  0  0
 18 38  1  0  0  0  0
 19 20  1  0  0  0  0
 19 39  1  0  0  0  0
 19 40  1  0  0  0  0
 20 41  1  0  0  0  0
 20 42  1  0  0  0  0
 21 22  1  0  0  0  0
M  CHG  1   3   1
M  END
> <s_m_source_file>
AV-unprocessed.smi

> <i_m_source_file_index>
2775

> <i_lp_mmshare_version>
43012

> <i_f3d_flags>
0

> <s_epik_input>
W0NIM11jMW5bY0hdW2NIXWMoYzFDbClbTkhdQyg9TylbTkhdW0NAQEhdMltDQEhdKFtDSDJdW0NIMl1PMylbQ0BASF0zQzI0W0NIMl1bQ0gyXVtDSDJdNA==

> <s_epik_cmdline>
J2VwaWtfcHl0aG9uJywgJy1waCcsICc3LjAnLCAnLXRuJywgJzgnLCAnLW1hJywgJzIwMCcsICctbWV0YWxfYmluZGluZycsICctaW1hZScsICc8aW5maWxlLm1hZT4nLCAnLW9tYWUnLCAnPG91dGZpbGUubWFlPic=

> <r_epik_Ionization_Penalty>
2.4104

> <r_epik_Ionization_Penalty_Charging>
2.41038

> <r_epik_Ionization_Penalty_Neutral>
1.9872e-05

> <r_epik_State_Penalty>
2.56896

> <r_epik_Charging_Adjusted_Penalty>
4.97934

> <i_epik_Tot_Q>
1

> <i_epik_Tot_abs_Q>
1

> <r_epik_Metal_State_Penalty>
2.57906

> <b_epik_Metal_Only>
0

> <s_lp_Force_Field>
OPLS_2005

> <r_lp_Energy>
86.9508

> <b_lp_Chiralities_Consistent>
1

> <s_lp_Variant>
AV-unprocessed.smi:2775-9

> <Gold.Version>
5.8.1

> <Gold.Id.Protein>
6NUR|6NUR_protein|mol2

> <Gold.PLP.Fitness>
43.3982

> <Gold.PLP.PLP>
-32.1043

> <Gold.PLP.part.hbond>
-4.3507

> <Gold.PLP.part.metal>
0.0000

> <Gold.PLP.part.buried>
-2.1183

> <Gold.PLP.part.nonpolar>
-25.3355

> <Gold.PLP.part.repulsive>
0.2884

> <Gold.PLP.ligand.clash>
0.0000

> <Gold.PLP.ligand.torsion>
0.3436

> <Gold.PLP.Chemscore.Hbond>
3.8880

> <Gold.PLP.Chemscore.CHOScore>
0.0000

> <Gold.PLP.Chemscore.Metal>
0.0000

> <Gold.Chemscore.Hbonds>
donor molecule, donor type, donor heavy atom, donor atom, acceptor molecule, acceptor atom, score
      L1  H     3    43       P1 10186  1.79
      L1  H     7    28       P1  7948  0.77
      L1  H    10    29       P1  7948  0.70
      P1  H  8011  8017       L1    15  0.66

> <Gold.PLP.Chemscore.Internal.Correction>
0.3171

> <Gold.Rescore>
     Score         DG    S(hbond)    S(metal)    S(lipo)     H(rot)  DE(clash)    DE(int)     intcor
     17.87     -19.61       1.99        0.00      85.75       1.00       0.31       1.42       ----

> <Gold.Chemscore.Fitness>
17.8703

> <Gold.Chemscore.DG>
-19.6084

> <Gold.Chemscore.ZeroCoef>
-5.4800

> <Gold.Chemscore.Hbond>
1.9926

> <Gold.Chemscore.Metal>
0.0000

> <Gold.Chemscore.Lipo>
85.7520

> <Gold.Chemscore.Internal_Hbond>
0.0000

> <Gold.Chemscore.DEClash>
0.3141

> <Gold.Chemscore.DEInternal>
1.4240

> <Gold.Chemscore.Rot>
1.0000

> <Gold.Chemscore.Internal.Correction>
   9.000000E+99

> <Gold.Chemscore.Hbonds>
donor molecule, donor type, donor heavy atom, donor atom, acceptor molecule, acceptor atom, score
      L1  H     3    43       P1 10186  0.22
      L1  H     7    28       P1  7948  0.74
      L1  H    10    29       P1  7948  0.70
      P1  H  8011  8017       L1    15  0.14

> <Gold.Chemscore.Hbond.Weighted>
-6.6554

> <Gold.Chemscore.Metal.Weighted>
-0.0000

> <Gold.Chemscore.Lipo.Weighted>
-10.0330

> <Gold.Chemscore.Internal_Hbond.Weighted>
0.0000

> <Gold.Chemscore.DEClash.Weighted>
0.3141

> <Gold.Chemscore.DEInternal.Weighted>
1.4240

> <Gold.Chemscore.Rot.Weighted>
2.5600

> <Gold.Chemscore.Internal.Correction.Weighted>
   9.000000E+99

> <Gold.Protein.RotatedTorsions>
[ 6907 6896 6895 6894 ] final  -86.53 input  -60.11 | X-H torsion
[ 7974 7965 7964 7962 ] final   29.35 input  175.53 | X-H torsion
[ 8008 7997 7996 7995 ] final  -36.73 input   59.86 | X-H torsion
[ 10167 10162 10161 10158 ] final  165.09 input  -65.29 | X-H torsion
[ 10718 10713 10712 10709 ] final  -14.60 input   66.30 | X-H torsion
[ 10763 10752 10751 10750 ] final  127.03 input  -60.55 | X-H torsion
[ 11005 11000 10999 10996 ] final   84.72 input  -57.11 | X-H torsion

> <Gold.Protein.ActiveResidues>
 VAL166  LYS551  ARG553  GLY616  TRP617  ASP618  TYR619  PRO620  LYS621  CYS622 
 ASP623  PHE694  ASN695  SER759  ASP760  ASP761  ALA762  ILE779  LEU786  VAL792 
 PHE793  MET794  SER795  GLU796  ALA797  LYS798  CYS799  TRP800  GLU811  SER814 

> <Gold.Protein.RotatedAtoms>
  150.6867  134.3036  159.4716 H   0  0  0  0  0  0  0  0  0  0  0  0  # atno 6907 bound_to 6896
  152.0929  134.9392  160.0580 H   0  0  0  0  0  0  0  0  0  0  0  0  # atno 6908 bound_to 6896
  152.0701  133.4068  159.4492 H   0  0  0  0  0  0  0  0  0  0  0  0  # atno 6909 bound_to 6896
  146.1676  139.6933  142.8990 H   0  0  0  0  0  0  0  0  0  0  0  0  # atno 7974 bound_to 7965
  154.4067  140.1623  156.2421 H   0  0  0  0  0  0  0  0  0  0  0  0  # atno 8008 bound_to 7997
  155.9192  140.3422  155.6136 H   0  0  0  0  0  0  0  0  0  0  0  0  # atno 8009 bound_to 7997
  155.7243  140.0772  157.2308 H   0  0  0  0  0  0  0  0  0  0  0  0  # atno 8010 bound_to 7997
  139.4900  144.4168  151.9234 H   0  0  0  0  0  0  0  0  0  0  0  0  # atno 10167 bound_to 10162
  156.6136  130.4856  149.6192 H   0  0  0  0  0  0  0  0  0  0  0  0  # atno 10718 bound_to 10713
  153.7028  135.3281  155.3228 H   0  0  0  0  0  0  0  0  0  0  0  0  # atno 10763 bound_to 10752
  154.8408  135.4458  154.1393 H   0  0  0  0  0  0  0  0  0  0  0  0  # atno 10764 bound_to 10752
  153.2465  135.6977  153.7804 H   0  0  0  0  0  0  0  0  0  0  0  0  # atno 10765 bound_to 10752
  139.8992  134.8236  156.2484 H   0  0  0  0  0  0  0  0  0  0  0  0  # atno 11005 bound_to 11000
  145.4425  141.0423  143.2849 LP  0  0  0  0  0  0  0  0  0  0  0  0  # atno 17320 bound_to 7965
  144.8116  139.5953  143.7027 LP  0  0  0  0  0  0  0  0  0  0  0  0  # atno 17321 bound_to 7965
  140.3611  144.2972  150.5933 LP  0  0  0  0  0  0  0  0  0  0  0  0  # atno 17342 bound_to 10162
  140.5402  143.2225  151.8097 LP  0  0  0  0  0  0  0  0  0  0  0  0  # atno 17343 bound_to 10162
  156.2369  130.6828  151.1518 LP  0  0  0  0  0  0  0  0  0  0  0  0  # atno 17370 bound_to 10713
  157.7247  131.0658  150.5983 LP  0  0  0  0  0  0  0  0  0  0  0  0  # atno 17371 bound_to 10713
  141.0240  133.7025  156.1316 LP  0  0  0  0  0  0  0  0  0  0  0  0  # atno 17394 bound_to 11000
  140.7193  134.4376  157.5576 LP  0  0  0  0  0  0  0  0  0  0  0  0  # atno 17395 bound_to 11000

$$$$
