AV-unprocessed.smi:1870|AV-procd|sdf|7598|dock9
  -GOLD-   22720 9313D 1   1.00000     0.00000
 Structure written by MMmdl.
 47 49  0  0  0  0  0  0  0  0  1 V2000
  147.1868  139.0191  154.1912 C   0  0  0  0  0  0  0  0  0  0  0  0
  148.2572  138.0117  154.5139 C   0  0  0  0  0  0  0  0  0  0  0  0
  149.4803  138.3835  154.3226 N   0  0  0  0  0  0  0  0  0  0  0  0
  150.5387  137.5351  154.5797 N   0  0  0  0  0  0  0  0  0  0  0  0
  151.8555  138.1223  154.3001 C   0  0  0  0  0  0  0  0  0  0  0  0
  152.3513  139.0117  155.4628 C   0  0  1  0  0  0  0  0  0  0  0  0
  153.6416  139.4832  155.1286 O   0  0  0  0  0  0  0  0  0  0  0  0
  151.4945  140.2662  155.7336 C   0  0  0  0  0  0  0  0  0  0  0  0
  151.8937  141.0339  156.9147 N   0  0  0  0  0  0  0  0  0  0  0  0
  151.5225  140.3680  158.1625 C   0  0  0  0  0  0  0  0  0  0  0  0
  152.1898  141.0348  159.3753 C   0  0  0  0  0  0  0  0  0  0  0  0
  152.0493  142.5483  159.3429 C   0  0  0  0  0  0  0  0  0  0  0  0
  152.3395  143.3110  160.4924 C   0  0  0  0  0  0  0  0  0  0  0  0
  152.2347  144.7149  160.4528 C   0  0  0  0  0  0  0  0  0  0  0  0
  151.8395  145.3590  159.2645 C   0  0  0  0  0  0  0  0  0  0  0  0
  151.5481  144.6006  158.1139 C   0  0  0  0  0  0  0  0  0  0  0  0
  151.6568  143.1951  158.1461 C   0  0  0  0  0  0  0  0  0  0  0  0
  151.3100  142.3772  156.9074 C   0  0  0  0  0  0  0  0  0  0  0  0
  150.4157  136.2582  155.0440 C   0  0  0  0  0  0  0  0  0  0  0  0
  151.3884  135.5309  155.2507 O   0  0  0  0  0  0  0  0  0  0  0  0
  149.0278  135.8455  155.2645 C   0  0  0  0  0  0  0  0  0  0  0  0
  148.8530  134.5154  155.7523 C   0  0  0  0  0  0  0  0  0  0  0  0
  148.7317  133.4346  156.1490 N   0  0  0  0  0  0  0  0  0  0  0  0
  147.9797  136.6710  155.0191 C   0  0  0  0  0  0  0  0  0  0  0  0
  146.5208  136.2890  155.2287 C   0  0  0  0  0  0  0  0  0  0  0  0
  146.4686  138.6082  153.4814 H   0  0  0  0  0  0  0  0  0  0  0  0
  147.6020  139.9261  153.7489 H   0  0  0  0  0  0  0  0  0  0  0  0
  146.6454  139.3089  155.0920 H   0  0  0  0  0  0  0  0  0  0  0  0
  152.5904  137.3484  154.0699 H   0  0  0  0  0  0  0  0  0  0  0  0
  151.7634  138.7093  153.3877 H   0  0  0  0  0  0  0  0  0  0  0  0
  152.4245  138.4327  156.3842 H   0  0  0  0  0  0  0  0  0  0  0  0
  154.0467  138.8574  154.5476 H   0  0  0  0  0  0  0  0  0  0  0  0
  151.5850  140.9016  154.8508 H   0  0  0  0  0  0  0  0  0  0  0  0
  150.4361  140.0053  155.7868 H   0  0  0  0  0  0  0  0  0  0  0  0
  150.4380  140.4000  158.2810 H   0  0  0  0  0  0  0  0  0  0  0  0
  151.7868  139.3125  158.1461 H   0  0  0  0  0  0  0  0  0  0  0  0
  151.7631  140.6442  160.2997 H   0  0  0  0  0  0  0  0  0  0  0  0
  153.2532  140.7931  159.3885 H   0  0  0  0  0  0  0  0  0  0  0  0
  152.6471  142.8218  161.4049 H   0  0  0  0  0  0  0  0  0  0  0  0
  152.4585  145.2977  161.3340 H   0  0  0  0  0  0  0  0  0  0  0  0
  151.7582  146.4356  159.2359 H   0  0  0  0  0  0  0  0  0  0  0  0
  151.2392  145.1003  157.2074 H   0  0  0  0  0  0  0  0  0  0  0  0
  151.6534  142.9204  156.0260 H   0  0  0  0  0  0  0  0  0  0  0  0
  150.2229  142.3138  156.8361 H   0  0  0  0  0  0  0  0  0  0  0  0
  146.4142  135.3159  155.7075 H   0  0  0  0  0  0  0  0  0  0  0  0
  145.9981  136.2462  154.2728 H   0  0  0  0  0  0  0  0  0  0  0  0
  146.0174  137.0185  155.8641 H   0  0  0  0  0  0  0  0  0  0  0  0
  1  2  1  0  0  0  0
  1 26  1  0  0  0  0
  1 27  1  0  0  0  0
  1 28  1  0  0  0  0
  2 24  1  0  0  0  0
  2  3  2  0  0  0  0
  3  4  1  0  0  0  0
  4  5  1  0  0  0  0
  4 19  1  0  0  0  0
  5  6  1  0  0  0  0
  5 29  1  0  0  0  0
  5 30  1  0  0  0  0
  6  7  1  0  0  0  0
  6  8  1  0  0  0  0
  6 31  1  0  0  0  0
  7 32  1  0  0  0  0
  8  9  1  0  0  0  0
  8 33  1  0  0  0  0
  8 34  1  0  0  0  0
  9 18  1  0  0  0  0
  9 10  1  0  0  0  0
 10 11  1  0  0  0  0
 10 35  1  0  0  0  0
 10 36  1  0  0  0  0
 11 12  1  0  0  0  0
 11 37  1  0  0  0  0
 11 38  1  0  0  0  0
 12 17  2  0  0  0  0
 12 13  1  0  0  0  0
 13 14  2  0  0  0  0
 13 39  1  0  0  0  0
 14 15  1  0  0  0  0
 14 40  1  0  0  0  0
 15 16  2  0  0  0  0
 15 41  1  0  0  0  0
 16 17  1  0  0  0  0
 16 42  1  0  0  0  0
 17 18  1  0  0  0  0
 18 43  1  0  0  0  0
 18 44  1  0  0  0  0
 19 20  2  0  0  0  0
 19 21  1  0  0  0  0
 21 22  1  0  0  0  0
 21 24  2  0  0  0  0
 22 23  3  0  0  0  0
 24 25  1  0  0  0  0
 25 45  1  0  0  0  0
 25 46  1  0  0  0  0
 25 47  1  0  0  0  0
M  END
> <s_m_source_file>
AV-unprocessed.smi

> <i_m_source_file_index>
1870

> <i_lp_mmshare_version>
43012

> <i_f3d_flags>
0

> <s_epik_input>
TiNDYyhjMVtDSDNdKWMoPU8pbihuYzFbQ0gzXSlbQ0gyXVtDQEhdKFtPSF0pW0NIMl1OKFtDSDJdW0NIMl0yKVtDSDJdYyhjMjMpW2NIXVtjSF1bY0hdW2NIXTM=

> <s_epik_cmdline>
J2VwaWtfcHl0aG9uJywgJy1waCcsICc3LjAnLCAnLXRuJywgJzgnLCAnLW1hJywgJzIwMCcsICctbWV0YWxfYmluZGluZycsICctaW1hZScsICc8aW5maWxlLm1hZT4nLCAnLW9tYWUnLCAnPG91dGZpbGUubWFlPic=

> <r_epik_Ionization_Penalty>
2.30251

> <r_epik_Ionization_Penalty_Charging>
1.06171e-10

> <r_epik_Ionization_Penalty_Neutral>
2.30251

> <r_epik_State_Penalty>
2.45335

> <r_epik_Charging_Adjusted_Penalty>
2.45335

> <i_epik_Tot_Q>
0

> <i_epik_Tot_abs_Q>
0

> <r_epik_Metal_State_Penalty>
2.45335

> <b_epik_Metal_Only>
0

> <s_lp_Force_Field>
OPLS_2005

> <r_lp_Energy>
48.2343

> <b_lp_Chiralities_Consistent>
1

> <s_lp_Variant>
AV-unprocessed.smi:1870-6

> <Gold.Version>
5.8.1

> <Gold.Id.Protein>
6NUR|6NUR_protein|mol2

> <Gold.PLP.Fitness>
49.8137

> <Gold.PLP.PLP>
-44.6837

> <Gold.PLP.part.hbond>
-2.6496

> <Gold.PLP.part.metal>
0.0000

> <Gold.PLP.part.buried>
-5.1408

> <Gold.PLP.part.nonpolar>
-37.3032

> <Gold.PLP.part.repulsive>
0.2943

> <Gold.PLP.ligand.clash>
0.0000

> <Gold.PLP.ligand.torsion>
0.4422

> <Gold.PLP.Chemscore.Hbond>
2.0000

> <Gold.PLP.Chemscore.CHOScore>
0.0000

> <Gold.PLP.Chemscore.Metal>
0.0000

> <Gold.Chemscore.Hbonds>
donor molecule, donor type, donor heavy atom, donor atom, acceptor molecule, acceptor atom, score
      P1  H  7997  8008       L1     7  0.59
      P1  H 10752 10765       L1    20  1.00

> <Gold.PLP.Chemscore.Internal.Correction>
0.0144

> <Gold.Rescore>
     Score         DG    S(hbond)    S(metal)    S(lipo)     H(rot)  DE(clash)    DE(int)     intcor
     20.37     -21.29       1.93        0.00     125.91       2.10       0.47       0.44       ----

> <Gold.Chemscore.Fitness>
20.3726

> <Gold.Chemscore.DG>
-21.2877

> <Gold.Chemscore.ZeroCoef>
-5.4800

> <Gold.Chemscore.Hbond>
1.9295

> <Gold.Chemscore.Metal>
0.0000

> <Gold.Chemscore.Lipo>
125.9115

> <Gold.Chemscore.Internal_Hbond>
0.0000

> <Gold.Chemscore.DEClash>
0.4746

> <Gold.Chemscore.DEInternal>
0.4405

> <Gold.Chemscore.Rot>
2.0971

> <Gold.Chemscore.Internal.Correction>
   9.000000E+99

> <Gold.Chemscore.Hbonds>
donor molecule, donor type, donor heavy atom, donor atom, acceptor molecule, acceptor atom, score
      P1  H  7997  8008       L1     7  0.54
      P1  H 10752 10765       L1    20  0.99

> <Gold.Chemscore.Hbond.Weighted>
-6.4446

> <Gold.Chemscore.Metal.Weighted>
-0.0000

> <Gold.Chemscore.Lipo.Weighted>
-14.7316

> <Gold.Chemscore.Internal_Hbond.Weighted>
0.0000

> <Gold.Chemscore.DEClash.Weighted>
0.4746

> <Gold.Chemscore.DEInternal.Weighted>
0.4405

> <Gold.Chemscore.Rot.Weighted>
5.3685

> <Gold.Chemscore.Internal.Correction.Weighted>
   9.000000E+99

> <Gold.Protein.RotatedTorsions>
[ 6907 6896 6895 6894 ] final  -46.09 input  -60.11 | X-H torsion
[ 7974 7965 7964 7962 ] final  -27.38 input  175.53 | X-H torsion
[ 8008 7997 7996 7995 ] final  -27.18 input   59.86 | X-H torsion
[ 10167 10162 10161 10158 ] final  -97.26 input  -65.29 | X-H torsion
[ 10718 10713 10712 10709 ] final  -69.42 input   66.30 | X-H torsion
[ 10763 10752 10751 10750 ] final -170.55 input  -60.55 | X-H torsion
[ 11005 11000 10999 10996 ] final -142.64 input  -57.11 | X-H torsion

> <Gold.Protein.ActiveResidues>
 VAL166  LYS551  ARG553  GLY616  TRP617  ASP618  TYR619  PRO620  LYS621  CYS622 
 ASP623  PHE694  ASN695  SER759  ASP760  ASP761  ALA762  ILE779  LEU786  VAL792 
 PHE793  MET794  SER795  GLU796  ALA797  LYS798  CYS799  TRP800  GLU811  SER814 

> <Gold.Protein.RotatedAtoms>
  150.9150  134.8567  159.7450 H   0  0  0  0  0  0  0  0  0  0  0  0  # atno 6907 bound_to 6896
  152.4964  134.4303  159.9520 H   0  0  0  0  0  0  0  0  0  0  0  0  # atno 6908 bound_to 6896
  151.4342  133.3622  159.2808 H   0  0  0  0  0  0  0  0  0  0  0  0  # atno 6909 bound_to 6896
  146.1362  140.5144  142.8672 H   0  0  0  0  0  0  0  0  0  0  0  0  # atno 7974 bound_to 7965
  154.4389  140.1879  156.0892 H   0  0  0  0  0  0  0  0  0  0  0  0  # atno 8008 bound_to 7997
  156.0379  140.3323  155.7185 H   0  0  0  0  0  0  0  0  0  0  0  0  # atno 8009 bound_to 7997
  155.5743  140.0615  157.2790 H   0  0  0  0  0  0  0  0  0  0  0  0  # atno 8010 bound_to 7997
  140.2853  143.3256  152.0400 H   0  0  0  0  0  0  0  0  0  0  0  0  # atno 10167 bound_to 10162
  156.0456  130.4312  150.2145 H   0  0  0  0  0  0  0  0  0  0  0  0  # atno 10718 bound_to 10713
  154.6402  135.2897  155.0112 H   0  0  0  0  0  0  0  0  0  0  0  0  # atno 10763 bound_to 10752
  154.1241  135.6543  153.4913 H   0  0  0  0  0  0  0  0  0  0  0  0  # atno 10764 bound_to 10752
  153.0323  135.5295  154.7266 H   0  0  0  0  0  0  0  0  0  0  0  0  # atno 10765 bound_to 10752
  140.8205  134.2637  157.4902 H   0  0  0  0  0  0  0  0  0  0  0  0  # atno 11005 bound_to 11000
  144.7742  140.5704  143.6649 LP  0  0  0  0  0  0  0  0  0  0  0  0  # atno 17320 bound_to 7965
  145.5151  139.1478  143.3583 LP  0  0  0  0  0  0  0  0  0  0  0  0  # atno 17321 bound_to 7965
  139.4952  144.6563  151.6564 LP  0  0  0  0  0  0  0  0  0  0  0  0  # atno 17342 bound_to 10162
  140.5778  143.9999  150.6251 LP  0  0  0  0  0  0  0  0  0  0  0  0  # atno 17343 bound_to 10162
  157.0235  130.9986  151.3333 LP  0  0  0  0  0  0  0  0  0  0  0  0  # atno 17370 bound_to 10713
  157.5328  130.8069  149.7936 LP  0  0  0  0  0  0  0  0  0  0  0  0  # atno 17371 bound_to 10713
  139.8709  134.9532  156.4139 LP  0  0  0  0  0  0  0  0  0  0  0  0  # atno 17394 bound_to 11000
  140.9104  133.7716  155.9785 LP  0  0  0  0  0  0  0  0  0  0  0  0  # atno 17395 bound_to 11000

$$$$
