AV-unprocessed.smi:1631|AV-procd|sdf|6527|dock3
  -GOLD-   22720 7203D 1   1.00000     0.00000
 Structure written by MMmdl.
 38 39  0  0  0  0  0  0  0  0  1 V2000
  150.2619  144.7721  159.9255 C   0  0  0  0  0  0  0  0  0  0  0  0
  151.1105  143.5827  159.5654 C   0  0  0  0  0  0  0  0  0  0  0  0
  150.8257  142.9817  158.4578 N   0  0  0  0  0  0  0  0  0  0  0  0
  151.5517  141.8898  158.0234 N   0  0  0  0  0  0  0  0  0  0  0  0
  151.1316  141.3673  156.7159 C   0  0  0  0  0  0  0  0  0  0  0  0
  149.6233  141.5858  156.4409 C   0  0  1  0  0  0  0  0  0  0  0  0
  149.4863  142.0575  155.1165 O   0  0  0  0  0  0  0  0  0  0  0  0
  148.7769  140.3327  156.6823 C   0  0  0  0  0  0  0  0  0  0  0  0
  149.4458  139.1531  157.0842 C   0  0  0  0  0  0  0  0  0  0  0  0
  148.7341  137.9716  157.3538 C   0  0  0  0  0  0  0  0  0  0  0  0
  147.3371  137.9540  157.2175 C   0  0  0  0  0  0  0  0  0  0  0  0
  146.6588  139.1141  156.8038 C   0  0  0  0  0  0  0  0  0  0  0  0
  147.3605  140.3114  156.5254 C   0  0  0  0  0  0  0  0  0  0  0  0
  146.5736  141.5355  156.0545 C   0  0  0  0  0  0  0  0  0  0  0  0
  145.2692  141.2778  155.9522 F   0  0  0  0  0  0  0  0  0  0  0  0
  146.7165  142.5394  156.9175 F   0  0  0  0  0  0  0  0  0  0  0  0
  147.0009  141.9205  154.8516 F   0  0  0  0  0  0  0  0  0  0  0  0
  152.5815  141.3198  158.7110 C   0  0  0  0  0  0  0  0  0  0  0  0
  153.1880  140.3309  158.2966 O   0  0  0  0  0  0  0  0  0  0  0  0
  152.8992  142.0050  159.9658 C   0  0  0  0  0  0  0  0  0  0  0  0
  153.9864  141.4529  160.7078 C   0  0  0  0  0  0  0  0  0  0  0  0
  154.8777  141.0241  161.3095 N   0  0  0  0  0  0  0  0  0  0  0  0
  152.2112  143.0946  160.3897 C   0  0  0  0  0  0  0  0  0  0  0  0
  152.5045  143.8445  161.6816 C   0  0  0  0  0  0  0  0  0  0  0  0
  149.8068  144.6418  160.9075 H   0  0  0  0  0  0  0  0  0  0  0  0
  149.4550  144.9279  159.2077 H   0  0  0  0  0  0  0  0  0  0  0  0
  150.8622  145.6818  159.9475 H   0  0  0  0  0  0  0  0  0  0  0  0
  151.7242  141.8281  155.9231 H   0  0  0  0  0  0  0  0  0  0  0  0
  151.3709  140.3038  156.6575 H   0  0  0  0  0  0  0  0  0  0  0  0
  149.2924  142.4019  157.0772 H   0  0  0  0  0  0  0  0  0  0  0  0
  149.2207  142.9640  155.1475 H   0  0  0  0  0  0  0  0  0  0  0  0
  150.5199  139.1525  157.1973 H   0  0  0  0  0  0  0  0  0  0  0  0
  149.2601  137.0814  157.6659 H   0  0  0  0  0  0  0  0  0  0  0  0
  146.7850  137.0489  157.4238 H   0  0  0  0  0  0  0  0  0  0  0  0
  145.5854  139.0673  156.6999 H   0  0  0  0  0  0  0  0  0  0  0  0
  153.3899  143.4622  162.1886 H   0  0  0  0  0  0  0  0  0  0  0  0
  151.6648  143.7563  162.3716 H   0  0  0  0  0  0  0  0  0  0  0  0
  152.6769  144.9027  161.4831 H   0  0  0  0  0  0  0  0  0  0  0  0
  1  2  1  0  0  0  0
  1 25  1  0  0  0  0
  1 26  1  0  0  0  0
  1 27  1  0  0  0  0
  2 23  1  0  0  0  0
  2  3  2  0  0  0  0
  3  4  1  0  0  0  0
  4  5  1  0  0  0  0
  4 18  1  0  0  0  0
  5  6  1  0  0  0  0
  5 28  1  0  0  0  0
  5 29  1  0  0  0  0
  6  7  1  0  0  0  0
  6  8  1  0  0  0  0
  6 30  1  0  0  0  0
  7 31  1  0  0  0  0
  8 13  1  0  0  0  0
  8  9  2  0  0  0  0
  9 10  1  0  0  0  0
  9 32  1  0  0  0  0
 10 11  2  0  0  0  0
 10 33  1  0  0  0  0
 11 12  1  0  0  0  0
 11 34  1  0  0  0  0
 12 13  2  0  0  0  0
 12 35  1  0  0  0  0
 13 14  1  0  0  0  0
 14 15  1  0  0  0  0
 14 16  1  0  0  0  0
 14 17  1  0  0  0  0
 18 19  2  0  0  0  0
 18 20  1  0  0  0  0
 20 21  1  0  0  0  0
 20 23  2  0  0  0  0
 21 22  3  0  0  0  0
 23 24  1  0  0  0  0
 24 36  1  0  0  0  0
 24 37  1  0  0  0  0
 24 38  1  0  0  0  0
M  END
> <s_m_source_file>
AV-unprocessed.smi

> <i_m_source_file_index>
1631

> <i_lp_mmshare_version>
43012

> <i_f3d_flags>
0

> <s_epik_input>
TiNDYyhjMVtDSDNdKWMoPU8pbihuYzFbQ0gzXSlbQ0gyXVtDQEhdKFtPSF0pYzJbY0hdW2NIXVtjSF1bY0hdYzJDKEYpKEYpRg==

> <s_epik_cmdline>
J2VwaWtfcHl0aG9uJywgJy1waCcsICc3LjAnLCAnLXRuJywgJzgnLCAnLW1hJywgJzIwMCcsICctbWV0YWxfYmluZGluZycsICctaW1hZScsICc8aW5maWxlLm1hZT4nLCAnLW9tYWUnLCAnPG91dGZpbGUubWFlPic=

> <r_lp_tautomer_probability>
1

> <r_epik_Ionization_Penalty>
7.1854e-08

> <r_epik_Ionization_Penalty_Charging>
1.40848e-10

> <r_epik_Ionization_Penalty_Neutral>
7.17131e-08

> <r_epik_State_Penalty>
-0

> <r_epik_Charging_Adjusted_Penalty>
1.40848e-10

> <i_epik_Tot_Q>
0

> <i_epik_Tot_abs_Q>
0

> <r_epik_Metal_State_Penalty>
-0

> <b_epik_Metal_Only>
0

> <s_lp_Force_Field>
OPLS_2005

> <r_lp_Energy>
27.8833

> <b_lp_Chiralities_Consistent>
1

> <s_lp_Variant>
AV-unprocessed.smi:1631-2

> <Gold.Version>
5.8.1

> <Gold.Id.Protein>
6NUR|6NUR_protein|mol2

> <Gold.PLP.Fitness>
41.9787

> <Gold.PLP.PLP>
-38.7953

> <Gold.PLP.part.hbond>
-3.0983

> <Gold.PLP.part.metal>
0.0000

> <Gold.PLP.part.buried>
-5.5561

> <Gold.PLP.part.nonpolar>
-28.5361

> <Gold.PLP.part.repulsive>
0.0971

> <Gold.PLP.ligand.clash>
1.4856

> <Gold.PLP.ligand.torsion>
0.9868

> <Gold.PLP.Chemscore.Hbond>
1.7137

> <Gold.PLP.Chemscore.CHOScore>
0.0000

> <Gold.PLP.Chemscore.Metal>
0.0000

> <Gold.Chemscore.Hbonds>
donor molecule, donor type, donor heavy atom, donor atom, acceptor molecule, acceptor atom, score
      L1  H     7    31       P1  8028  1.00
      P1  H  7997  8010       L1    19  0.69

> <Gold.PLP.Chemscore.Internal.Correction>
1.5017

> <Gold.Rescore>
     Score         DG    S(hbond)    S(metal)    S(lipo)     H(rot)  DE(clash)    DE(int)     intcor
     11.12     -14.63       1.85        0.00      71.78       2.11       0.01       3.50       ----

> <Gold.Chemscore.Fitness>
11.1198

> <Gold.Chemscore.DG>
-14.6336

> <Gold.Chemscore.ZeroCoef>
-5.4800

> <Gold.Chemscore.Hbond>
1.8452

> <Gold.Chemscore.Metal>
0.0000

> <Gold.Chemscore.Lipo>
71.7804

> <Gold.Chemscore.Internal_Hbond>
0.0000

> <Gold.Chemscore.DEClash>
0.0140

> <Gold.Chemscore.DEInternal>
3.4998

> <Gold.Chemscore.Rot>
2.1124

> <Gold.Chemscore.Internal.Correction>
   9.000000E+99

> <Gold.Chemscore.Hbonds>
donor molecule, donor type, donor heavy atom, donor atom, acceptor molecule, acceptor atom, score
      L1  H     7    31       P1  8028  1.00
      P1  H  7997  8010       L1    19  0.66

> <Gold.Chemscore.Hbond.Weighted>
-6.1631

> <Gold.Chemscore.Metal.Weighted>
-0.0000

> <Gold.Chemscore.Lipo.Weighted>
-8.3983

> <Gold.Chemscore.Internal_Hbond.Weighted>
0.0000

> <Gold.Chemscore.DEClash.Weighted>
0.0140

> <Gold.Chemscore.DEInternal.Weighted>
3.4998

> <Gold.Chemscore.Rot.Weighted>
5.4078

> <Gold.Chemscore.Internal.Correction.Weighted>
   9.000000E+99

> <Gold.Protein.RotatedTorsions>
[ 6907 6896 6895 6894 ] final -170.99 input  -60.11 | X-H torsion
[ 7974 7965 7964 7962 ] final -176.09 input  175.53 | X-H torsion
[ 8008 7997 7996 7995 ] final   14.46 input   59.86 | X-H torsion
[ 10167 10162 10161 10158 ] final -108.65 input  -65.29 | X-H torsion
[ 10718 10713 10712 10709 ] final -148.51 input   66.30 | X-H torsion
[ 10763 10752 10751 10750 ] final -177.92 input  -60.55 | X-H torsion
[ 11005 11000 10999 10996 ] final  177.93 input  -57.11 | X-H torsion

> <Gold.Protein.ActiveResidues>
 VAL166  LYS551  ARG553  GLY616  TRP617  ASP618  TYR619  PRO620  LYS621  CYS622 
 ASP623  PHE694  ASN695  SER759  ASP760  ASP761  ALA762  ILE779  LEU786  VAL792 
 PHE793  MET794  SER795  GLU796  ALA797  LYS798  CYS799  TRP800  GLU811  SER814 

> <Gold.Protein.RotatedAtoms>
  151.5167  133.3474  159.2893 H   0  0  0  0  0  0  0  0  0  0  0  0  # atno 6907 bound_to 6896
  150.8678  134.8048  159.7143 H   0  0  0  0  0  0  0  0  0  0  0  0  # atno 6908 bound_to 6896
  152.4677  134.5046  159.9787 H   0  0  0  0  0  0  0  0  0  0  0  0  # atno 6909 bound_to 6896
  144.7127  140.1223  143.6404 H   0  0  0  0  0  0  0  0  0  0  0  0  # atno 7974 bound_to 7965
  154.8487  140.2926  155.5612 H   0  0  0  0  0  0  0  0  0  0  0  0  # atno 8008 bound_to 7997
  156.3015  140.2500  156.3374 H   0  0  0  0  0  0  0  0  0  0  0  0  # atno 8009 bound_to 7997
  154.9045  140.0390  157.1901 H   0  0  0  0  0  0  0  0  0  0  0  0  # atno 8010 bound_to 7997
  140.1638  143.4098  152.1405 H   0  0  0  0  0  0  0  0  0  0  0  0  # atno 10167 bound_to 10162
  156.4212  130.8030  151.2252 H   0  0  0  0  0  0  0  0  0  0  0  0  # atno 10718 bound_to 10713
  154.5542  135.2815  155.0980 H   0  0  0  0  0  0  0  0  0  0  0  0  # atno 10763 bound_to 10752
  154.2414  135.6356  153.5212 H   0  0  0  0  0  0  0  0  0  0  0  0  # atno 10764 bound_to 10752
  153.0011  135.5561  154.6117 H   0  0  0  0  0  0  0  0  0  0  0  0  # atno 10765 bound_to 10752
  140.3895  134.6875  157.4499 H   0  0  0  0  0  0  0  0  0  0  0  0  # atno 11005 bound_to 11000
  145.9360  139.2637  143.1297 LP  0  0  0  0  0  0  0  0  0  0  0  0  # atno 17320 bound_to 7965
  145.9473  140.8935  143.0277 LP  0  0  0  0  0  0  0  0  0  0  0  0  # atno 17321 bound_to 7965
  139.5369  144.7218  151.4864 LP  0  0  0  0  0  0  0  0  0  0  0  0  # atno 17342 bound_to 10162
  140.6626  143.8467  150.6905 LP  0  0  0  0  0  0  0  0  0  0  0  0  # atno 17343 bound_to 10162
  157.7508  131.0227  150.3805 LP  0  0  0  0  0  0  0  0  0  0  0  0  # atno 17370 bound_to 10713
  156.4122  130.3936  149.6883 LP  0  0  0  0  0  0  0  0  0  0  0  0  # atno 17371 bound_to 10713
  140.0417  134.6257  155.8972 LP  0  0  0  0  0  0  0  0  0  0  0  0  # atno 17394 bound_to 11000
  141.1896  133.6566  156.5374 LP  0  0  0  0  0  0  0  0  0  0  0  0  # atno 17395 bound_to 11000

$$$$
