#       Name:                AV-unprocessed.smi:986
#       Creating user name   scv26
#       Creation time:       Fri Mar 27 02:22:37 2020


#       File generated by GOLD software.
#

@<TRIPOS>MOLECULE
AV-unprocessed.smi:986
    37    37     1
SMALL
NO_CHARGES


@<TRIPOS>ATOM
      1 ****        -2.1441  -0.5635   2.3276 C.3            1 S1                 0.0000
      2 ****        -2.1584   0.2589   1.0292 C.3            1 S1                 0.0000
      3 ****        -2.5775  -0.5960  -0.1740 C.3            1 S1                 0.0000
      4 ****        -0.8426   0.8334   0.7727 N.am           1 S1                 0.0000
      5 ****        -0.3363   1.9396   1.3464 C.2            1 S1                 0.0000
      6 ****        -0.9575   2.6054   2.1740 O.2            1 S1                 0.0000
      7 ****         1.0789   2.3850   0.9400 C.3            1 S1                 0.0000
      8 ****         1.7067   1.5389  -0.0746 N.am           1 S1                 0.0000
      9 ****         2.3780   0.4014   0.1688 C.2            1 S1                 0.0000
     10 ****         2.6067  -0.0236   1.3005 O.2            1 S1                 0.0000
     11 ****         2.8332  -0.3929  -1.0550 C.3            1 S1                 0.0000
     12 ****         1.7153  -1.1089  -1.6439 N.pl3          1 S1                 0.0000
     13 ****         0.8047  -0.7149  -2.5365 C.2            1 S1                 0.0000
     14 ****        -0.0947  -1.6433  -2.8301 N.2            1 S1                 0.0000
     15 ****         0.3534  -2.6560  -2.0298 C.2            1 S1                 0.0000
     16 ****         1.4330  -2.3865  -1.2957 N.2            1 S1                 0.0000
     17 ****        -3.1241  -0.9982   2.5256 H              1 S1                 0.0000
     18 ****        -1.8819   0.0544   3.1869 H              1 S1                 0.0000
     19 ****        -1.4231  -1.3798   2.2720 H              1 S1                 0.0000
     20 ****        -2.8827   1.0687   1.1346 H              1 S1                 0.0000
     21 ****        -3.5749  -1.0123  -0.0308 H              1 S1                 0.0000
     22 ****        -1.8894  -1.4280  -0.3278 H              1 S1                 0.0000
     23 ****        -2.5957  -0.0054  -1.0906 H              1 S1                 0.0000
     24 ****        -0.2597   0.3441   0.1092 H              1 S1                 0.0000
     25 ****         1.0195   3.3991   0.5442 H              1 S1                 0.0000
     26 ****         1.7061   2.4382   1.8314 H              1 S1                 0.0000
     27 ****         1.5739   1.8139  -1.0368 H              1 S1                 0.0000
     28 ****         3.2586   0.2779  -1.8026 H              1 S1                 0.0000
     29 ****         3.6125  -1.1039  -0.7761 H              1 S1                 0.0000
     30 ****         0.7948   0.2727  -2.9740 H              1 S1                 0.0000
     31 ****        -0.1327  -3.6195  -1.9842 H              1 S1                 0.0000
     32 ****        -1.8796   2.3307   2.4463 LP             1 S1                 0.0000
     33 ****        -0.5402   3.4213   2.5743 LP             1 S1                 0.0000
     34 ****         2.2871   0.4853   2.0998 LP             1 S1                 0.0000
     35 ****         3.1122  -0.8779   1.4210 LP             1 S1                 0.0000
     36 ****        -0.8744  -1.6117  -3.4555 LP             1 S1                 0.0000
     37 ****         1.9139  -2.9793  -0.6497 LP             1 S1                 0.0000
@<TRIPOS>BOND
    1    1    2 1     
    2    1   17 1     
    3    1   18 1     
    4    1   19 1     
    5    2    3 1     
    6    2    4 1     
    7    2   20 1     
    8    3   21 1     
    9    3   22 1     
   10    3   23 1     
   11    4    5 am    
   12    4   24 1     
   13    5    6 2     
   14    5    7 1     
   15    7    8 1     
   16    7   25 1     
   17    7   26 1     
   18    8    9 am    
   19    8   27 1     
   20    9   10 2     
   21    9   11 1     
   22   11   12 1     
   23   11   28 1     
   24   11   29 1     
   25   12   16 1     
   26   12   13 1     
   27   13   14 2     
   28   13   30 1     
   29   14   15 1     
   30   15   16 2     
   31   15   31 1     
   32    6   32 1     
   33    6   33 1     
   34   10   34 1     
   35   10   35 1     
   36   14   36 1     
   37   16   37 1     
@<TRIPOS>SUBSTRUCTURE
      1 S1             1
@<TRIPOS>SET
LONE_PAIRS      STATIC     ATOMS    <user>   **** ""
6 32 33 34 35 36 37
DONOR_HYDROGENS      STATIC     ATOMS    <user>   **** ""
2 24 27
ATOM$BLUE        STATIC     ATOMS    COLORGROUP SYSTEM
6 32 33 34 35 36 37
ATOM$RED        STATIC     ATOMS    COLORGROUP SYSTEM
2 24 27
