#       Name:                AV-unprocessed.smi:2562
#       Creating user name   scv26
#       Creation time:       Fri Mar 27 14:09:28 2020


#       File generated by GOLD software.
#

@<TRIPOS>MOLECULE
AV-unprocessed.smi:2562
    35    36     1
SMALL
NO_CHARGES


@<TRIPOS>ATOM
      1 ****        -2.9301   4.1318   1.4578 C.3            1 S1                 0.0000
      2 ****        -2.3981   2.6954   1.4065 C.3            1 S1                 0.0000
      3 ****        -0.8656   2.6304   1.4581 C.3            1 S1                 0.0000
      4 ****        -0.3558   1.2068   1.4038 C.2            1 S1                 0.0000
      5 ****        -0.1549   0.4019   2.4621 N.pl3          1 S1                -1.0000
      6 ****         0.2574  -0.7797   2.0504 N.2            1 S1                 0.0000
      7 ****         0.2904  -0.7011   0.7111 C.2            1 S1                 0.0000
      8 ****         0.7426  -1.8237  -0.2015 C.3            1 S1                 0.0000
      9 ****         2.2621  -1.7518  -0.4561 C.3            1 S1                 0.0000
     10 ****         2.6899  -2.8314  -1.3460 N.3            1 S1                 0.0000
     11 ****         1.9235  -2.8271  -2.5899 C.3            1 S1                 0.0000
     12 ****         0.4165  -2.8797  -2.2868 C.3            1 S1                 0.0000
     13 ****         0.0624  -1.7813  -1.4546 O.3            1 S1                 0.0000
     14 ****        -0.0799   0.5207   0.2994 N.2            1 S1                 0.0000
     15 ****        -4.0195   4.1433   1.4207 H              1 S1                 0.0000
     16 ****        -2.5610   4.7181   0.6159 H              1 S1                 0.0000
     17 ****        -2.6235   4.6326   2.3764 H              1 S1                 0.0000
     18 ****        -2.8145   2.1261   2.2384 H              1 S1                 0.0000
     19 ****        -2.7514   2.2131   0.4944 H              1 S1                 0.0000
     20 ****        -0.4363   3.1881   0.6251 H              1 S1                 0.0000
     21 ****        -0.4991   3.0976   2.3727 H              1 S1                 0.0000
     22 ****         0.4981  -2.7630   0.2984 H              1 S1                 0.0000
     23 ****         2.5141  -0.7865  -0.8975 H              1 S1                 0.0000
     24 ****         2.8025  -1.8138   0.4886 H              1 S1                 0.0000
     25 ****         3.6773  -2.7252  -1.5547 H              1 S1                 0.0000
     26 ****         2.1501  -1.9270  -3.1625 H              1 S1                 0.0000
     27 ****         2.2115  -3.6759  -3.2103 H              1 S1                 0.0000
     28 ****        -0.1540  -2.8178  -3.2135 H              1 S1                 0.0000
     29 ****         0.1448  -3.8218  -1.8076 H              1 S1                 0.0000
     30 ****        -0.2970   0.6611   3.4175 LP             1 S1                 0.0000
     31 ****         0.4956  -1.5688   2.6166 LP             1 S1                 0.0000
     32 ****         2.5290  -3.7032  -0.8832 LP             1 S1                 0.0000
     33 ****         0.3004  -0.9305  -1.9232 LP             1 S1                 0.0000
     34 ****        -0.9234  -1.8059  -1.2885 LP             1 S1                 0.0000
     35 ****        -0.1366   0.8479  -0.6438 LP             1 S1                 0.0000
@<TRIPOS>BOND
    1    1    2 1     
    2    1   15 1     
    3    1   16 1     
    4    1   17 1     
    5    2    3 1     
    6    2   18 1     
    7    2   19 1     
    8    3   20 1     
    9    3   21 1     
   10    3    4 1     
   11    4   14 2     
   12    4    5 1     
   13    5    6 1     
   14    6    7 2     
   15    7   14 1     
   16    7    8 1     
   17    8   13 1     
   18    8    9 1     
   19    8   22 1     
   20    9   10 1     
   21    9   23 1     
   22    9   24 1     
   23   10   11 1     
   24   10   25 1     
   25   11   12 1     
   26   11   26 1     
   27   11   27 1     
   28   12   13 1     
   29   12   28 1     
   30   12   29 1     
   31    5   30 1     
   32    6   31 1     
   33   10   32 1     
   34   13   33 1     
   35   13   34 1     
   36   14   35 1     
@<TRIPOS>SUBSTRUCTURE
      1 S1             1
@<TRIPOS>SET
LONE_PAIRS      STATIC     ATOMS    <user>   **** ""
6 30 31 32 33 34 35
DONOR_HYDROGENS      STATIC     ATOMS    <user>   **** ""
1 25
ATOM$BLUE        STATIC     ATOMS    COLORGROUP SYSTEM
6 30 31 32 33 34 35
ATOM$RED        STATIC     ATOMS    COLORGROUP SYSTEM
1 25
