AV-unprocessed.smi:511|AV-procd|sdf|2767|dock3
  -GOLD-   2262023233D 1   1.00000     0.00000
 Structure written by MMmdl.
 44 46  0  0  0  0  0  0  0  0  2 V2000
  149.9789  135.8229  155.2245 C   0  0  0  0  0  0  0  0  0  0  0  0
  151.2581  136.1838  155.7113 O   0  0  0  0  0  0  0  0  0  0  0  0
  151.2019  137.2137  156.6846 C   0  0  0  0  0  0  0  0  0  0  0  0
  151.2599  138.5797  155.9876 C   0  0  0  0  0  0  0  0  0  0  0  0
  151.3067  139.6826  156.9473 N   0  0  0  0  0  0  0  0  0  0  0  0
  150.4010  140.6806  157.1475 C   0  0  0  0  0  0  0  0  0  0  0  0
  149.2056  140.7693  156.4322 N   0  0  0  0  0  0  0  0  0  0  0  0
  149.0076  140.5353  155.0037 C   0  0  0  0  0  0  0  0  0  0  0  0
  148.1982  141.6818  154.3667 C   0  0  0  0  0  0  0  0  0  0  0  0
  146.8779  141.7437  154.9932 N   0  0  0  0  0  0  0  0  0  0  0  0
  146.1106  142.8333  154.4080 C   0  0  0  0  0  0  0  0  0  0  0  0
  147.0486  141.9794  156.4271 C   0  0  0  0  0  0  0  0  0  0  0  0
  147.8827  140.8397  157.0458 C   0  0  0  0  0  0  0  0  0  0  0  0
  150.7691  141.5913  158.0508 N   0  0  0  0  0  0  0  0  0  0  0  0
  151.9991  141.1233  158.4845 C   0  0  0  0  0  0  0  0  0  0  0  0
  152.3495  139.9837  157.8308 C   0  0  0  0  0  0  0  0  0  0  0  0
  153.6282  139.2709  158.0516 C   0  0  0  0  0  0  0  0  0  0  0  0
  153.9150  138.2638  157.4074 O   0  0  0  0  0  0  0  0  0  0  0  0
  154.3943  139.8697  159.0177 N   0  5  0  0  0  0  0  0  0  0  0  0
  154.0716  141.0149  159.7134 C   0  0  0  0  0  0  0  0  0  0  0  0
  154.8174  141.4845  160.5740 O   0  0  0  0  0  0  0  0  0  0  0  0
  152.8913  141.6599  159.4526 N   0  0  0  0  0  0  0  0  0  0  0  0
  152.5259  142.8850  160.1695 C   0  0  0  0  0  0  0  0  0  0  0  0
  150.0817  135.0361  154.4771 H   0  0  0  0  0  0  0  0  0  0  0  0
  149.4822  136.6722  154.7536 H   0  0  0  0  0  0  0  0  0  0  0  0
  149.3444  135.4452  156.0270 H   0  0  0  0  0  0  0  0  0  0  0  0
  150.2771  137.1330  157.2574 H   0  0  0  0  0  0  0  0  0  0  0  0
  152.0307  137.1123  157.3868 H   0  0  0  0  0  0  0  0  0  0  0  0
  152.1205  138.6087  155.3281 H   0  0  0  0  0  0  0  0  0  0  0  0
  150.4028  138.7120  155.3295 H   0  0  0  0  0  0  0  0  0  0  0  0
  149.9661  140.4109  154.5015 H   0  0  0  0  0  0  0  0  0  0  0  0
  148.4830  139.5884  154.8674 H   0  0  0  0  0  0  0  0  0  0  0  0
  148.7222  142.6322  154.4819 H   0  0  0  0  0  0  0  0  0  0  0  0
  148.0846  141.5022  153.2972 H   0  0  0  0  0  0  0  0  0  0  0  0
  145.1231  142.8946  154.8666 H   0  0  0  0  0  0  0  0  0  0  0  0
  145.9710  142.6708  153.3387 H   0  0  0  0  0  0  0  0  0  0  0  0
  146.6119  143.7927  154.5457 H   0  0  0  0  0  0  0  0  0  0  0  0
  147.5335  142.9411  156.6006 H   0  0  0  0  0  0  0  0  0  0  0  0
  146.0703  142.0216  156.9071 H   0  0  0  0  0  0  0  0  0  0  0  0
  147.3722  139.8821  156.9325 H   0  0  0  0  0  0  0  0  0  0  0  0
  147.9900  141.0110  158.1174 H   0  0  0  0  0  0  0  0  0  0  0  0
  153.3025  143.6433  160.0572 H   0  0  0  0  0  0  0  0  0  0  0  0
  152.4011  142.6791  161.2334 H   0  0  0  0  0  0  0  0  0  0  0  0
  151.5946  143.3213  159.8086 H   0  0  0  0  0  0  0  0  0  0  0  0
  1  2  1  0  0  0  0
  1 24  1  0  0  0  0
  1 25  1  0  0  0  0
  1 26  1  0  0  0  0
  2  3  1  0  0  0  0
  3  4  1  0  0  0  0
  3 27  1  0  0  0  0
  3 28  1  0  0  0  0
  4  5  1  0  0  0  0
  4 29  1  0  0  0  0
  4 30  1  0  0  0  0
  5 16  1  0  0  0  0
  5  6  1  0  0  0  0
  6  7  1  0  0  0  0
  6 14  2  0  0  0  0
  7 13  1  0  0  0  0
  7  8  1  0  0  0  0
  8  9  1  0  0  0  0
  8 31  1  0  0  0  0
  8 32  1  0  0  0  0
  9 10  1  0  0  0  0
  9 33  1  0  0  0  0
  9 34  1  0  0  0  0
 10 11  1  0  0  0  0
 10 12  1  0  0  0  0
 11 35  1  0  0  0  0
 11 36  1  0  0  0  0
 11 37  1  0  0  0  0
 12 13  1  0  0  0  0
 12 38  1  0  0  0  0
 12 39  1  0  0  0  0
 13 40  1  0  0  0  0
 13 41  1  0  0  0  0
 14 15  1  0  0  0  0
 15 22  1  0  0  0  0
 15 16  2  0  0  0  0
 16 17  1  0  0  0  0
 17 18  2  0  0  0  0
 17 19  1  0  0  0  0
 19 20  1  0  0  0  0
 20 21  2  0  0  0  0
 20 22  1  0  0  0  0
 22 23  1  0  0  0  0
 23 42  1  0  0  0  0
 23 43  1  0  0  0  0
 23 44  1  0  0  0  0
M  CHG  1  19  -1
M  END
> <s_m_source_file>
AV-unprocessed.smi

> <i_m_source_file_index>
511

> <i_lp_mmshare_version>
43012

> <i_f3d_flags>
0

> <s_epik_input>
W0NIM11uMWMoPU8pW25IXWMoPU8pYyhjMTIpbihbQ0gyXVtDSDJdT1tDSDNdKWMobjIpTjNbQ0gyXVtDSDJdTihbQ0gzXSlbQ0gyXVtDSDJdMw==

> <s_epik_cmdline>
J2VwaWtfcHl0aG9uJywgJy1waCcsICc3LjAnLCAnLXRuJywgJzgnLCAnLW1hJywgJzIwMCcsICctbWV0YWxfYmluZGluZycsICctaW1hZScsICc8aW5maWxlLm1hZT4nLCAnLW9tYWUnLCAnPG91dGZpbGUubWFlPic=

> <r_epik_Ionization_Penalty>
7.66215

> <r_epik_Ionization_Penalty_Charging>
0.0825427

> <r_epik_Ionization_Penalty_Neutral>
7.5796

> <r_epik_State_Penalty>
7.65676

> <r_epik_Charging_Adjusted_Penalty>
7.73931

> <i_epik_Tot_Q>
-1

> <i_epik_Tot_abs_Q>
1

> <r_epik_Metal_State_Penalty>
3.6066

> <b_epik_Metal_Only>
1

> <s_lp_Force_Field>
OPLS_2005

> <r_lp_Energy>
52.5947

> <b_lp_Chiralities_Consistent>
1

> <s_lp_Variant>
AV-unprocessed.smi:511-4

> <Gold.Version>
5.8.1

> <Gold.Id.Protein>
6NUR|6NUR_protein|mol2

> <Gold.PLP.Fitness>
35.4141

> <Gold.PLP.PLP>
-34.2691

> <Gold.PLP.part.hbond>
-3.6299

> <Gold.PLP.part.metal>
0.0000

> <Gold.PLP.part.buried>
-0.6436

> <Gold.PLP.part.nonpolar>
-29.3666

> <Gold.PLP.part.repulsive>
0.2096

> <Gold.PLP.ligand.clash>
0.0000

> <Gold.PLP.ligand.torsion>
1.0773

> <Gold.PLP.Chemscore.Hbond>
0.9920

> <Gold.PLP.Chemscore.CHOScore>
0.0000

> <Gold.PLP.Chemscore.Metal>
0.0000

> <Gold.Chemscore.Hbonds>
donor molecule, donor type, donor heavy atom, donor atom, acceptor molecule, acceptor atom, score
      P1  H 10752 10763       L1     2  0.76

> <Gold.PLP.Chemscore.Internal.Correction>
0.3236

> <Gold.Rescore>
     Score         DG    S(hbond)    S(metal)    S(lipo)     H(rot)  DE(clash)    DE(int)     intcor
      9.57     -11.36       0.96        0.00      55.05       1.47       0.26       1.52       ----

> <Gold.Chemscore.Fitness>
9.5745

> <Gold.Chemscore.DG>
-11.3576

> <Gold.Chemscore.ZeroCoef>
-5.4800

> <Gold.Chemscore.Hbond>
0.9607

> <Gold.Chemscore.Metal>
0.0000

> <Gold.Chemscore.Lipo>
55.0508

> <Gold.Chemscore.Internal_Hbond>
0.0000

> <Gold.Chemscore.DEClash>
0.2595

> <Gold.Chemscore.DEInternal>
1.5236

> <Gold.Chemscore.Rot>
1.4735

> <Gold.Chemscore.Internal.Correction>
   9.000000E+99

> <Gold.Chemscore.Hbonds>
donor molecule, donor type, donor heavy atom, donor atom, acceptor molecule, acceptor atom, score
      P1  H 10752 10763       L1     2  0.69

> <Gold.Chemscore.Hbond.Weighted>
-3.2088

> <Gold.Chemscore.Metal.Weighted>
-0.0000

> <Gold.Chemscore.Lipo.Weighted>
-6.4409

> <Gold.Chemscore.Internal_Hbond.Weighted>
0.0000

> <Gold.Chemscore.DEClash.Weighted>
0.2595

> <Gold.Chemscore.DEInternal.Weighted>
1.5236

> <Gold.Chemscore.Rot.Weighted>
3.7722

> <Gold.Chemscore.Internal.Correction.Weighted>
   9.000000E+99

> <Gold.Protein.RotatedTorsions>
[ 6907 6896 6895 6894 ] final  119.08 input  -60.11 | X-H torsion
[ 7974 7965 7964 7962 ] final -153.79 input  175.53 | X-H torsion
[ 8008 7997 7996 7995 ] final  -70.80 input   59.86 | X-H torsion
[ 10167 10162 10161 10158 ] final   -8.36 input  -65.29 | X-H torsion
[ 10718 10713 10712 10709 ] final  -32.62 input   66.30 | X-H torsion
[ 10763 10752 10751 10750 ] final   54.50 input  -60.55 | X-H torsion
[ 11005 11000 10999 10996 ] final  -68.63 input  -57.11 | X-H torsion

> <Gold.Protein.ActiveResidues>
 VAL166  LYS551  ARG553  GLY616  TRP617  ASP618  TYR619  PRO620  LYS621  CYS622 
 ASP623  PHE694  ASN695  SER759  ASP760  ASP761  ALA762  ILE779  LEU786  VAL792 
 PHE793  MET794  SER795  GLU796  ALA797  LYS798  CYS799  TRP800  GLU811  SER814 

> <Gold.Protein.RotatedAtoms>
  152.4498  133.7606  159.6744 H   0  0  0  0  0  0  0  0  0  0  0  0  # atno 6907 bound_to 6896
  150.8406  133.7931  159.3068 H   0  0  0  0  0  0  0  0  0  0  0  0  # atno 6908 bound_to 6896
  151.5557  135.1069  160.0012 H   0  0  0  0  0  0  0  0  0  0  0  0  # atno 6909 bound_to 6896
  144.7722  140.4477  143.5899 H   0  0  0  0  0  0  0  0  0  0  0  0  # atno 7974 bound_to 7965
  154.5039  140.0827  156.7854 H   0  0  0  0  0  0  0  0  0  0  0  0  # atno 8008 bound_to 7997
  155.3939  140.3434  155.4235 H   0  0  0  0  0  0  0  0  0  0  0  0  # atno 8009 bound_to 7997
  156.1491  140.1553  156.8787 H   0  0  0  0  0  0  0  0  0  0  0  0  # atno 8010 bound_to 7997
  140.7056  143.5978  150.8828 H   0  0  0  0  0  0  0  0  0  0  0  0  # atno 10167 bound_to 10162
  156.3726  130.4342  149.7533 H   0  0  0  0  0  0  0  0  0  0  0  0  # atno 10718 bound_to 10713
  152.9805  135.5743  154.4914 H   0  0  0  0  0  0  0  0  0  0  0  0  # atno 10763 bound_to 10752
  154.4448  135.2777  155.1825 H   0  0  0  0  0  0  0  0  0  0  0  0  # atno 10764 bound_to 10752
  154.3477  135.6216  153.5681 H   0  0  0  0  0  0  0  0  0  0  0  0  # atno 10765 bound_to 10752
  141.1536  133.6745  156.6476 H   0  0  0  0  0  0  0  0  0  0  0  0  # atno 11005 bound_to 11000
  145.6289  139.1534  143.2980 LP  0  0  0  0  0  0  0  0  0  0  0  0  # atno 17320 bound_to 7965
  146.1877  140.6394  142.9160 LP  0  0  0  0  0  0  0  0  0  0  0  0  # atno 17321 bound_to 7965
  139.9703  143.6065  152.2976 LP  0  0  0  0  0  0  0  0  0  0  0  0  # atno 17342 bound_to 10162
  139.6649  144.7662  151.1893 LP  0  0  0  0  0  0  0  0  0  0  0  0  # atno 17343 bound_to 10162
  156.4654  130.7971  151.2991 LP  0  0  0  0  0  0  0  0  0  0  0  0  # atno 17370 bound_to 10713
  157.7485  131.0052  150.3107 LP  0  0  0  0  0  0  0  0  0  0  0  0  # atno 17371 bound_to 10713
  140.3345  134.7901  157.4351 LP  0  0  0  0  0  0  0  0  0  0  0  0  # atno 17394 bound_to 11000
  140.0989  134.5499  155.8372 LP  0  0  0  0  0  0  0  0  0  0  0  0  # atno 17395 bound_to 11000

$$$$
