#       Name:                AV-unprocessed.smi:123
#       Creating user name   scv26
#       Creation time:       Thu Mar 26 18:27:50 2020


#       File generated by GOLD software.
#

@<TRIPOS>MOLECULE
AV-unprocessed.smi:123
    53    55     1
SMALL
NO_CHARGES


@<TRIPOS>ATOM
      1 ****        -3.9218  -1.7176   2.4060 C.3            1 S1                 0.0000
      2 ****        -2.9826  -2.5986   1.5617 C.3            1 S1                 0.0000
      3 ****        -1.5775  -2.3156   1.8592 N.am           1 S1                 0.0000
      4 ****        -0.9067  -1.1870   1.5728 C.2            1 S1                 0.0000
      5 ****        -1.4210  -0.2150   1.0167 O.2            1 S1                 0.0000
      6 ****         0.5738  -1.1713   1.9836 C.3            1 S1                 0.0000
      7 ****         1.2888   0.0523   1.5597 N.am           1 S1                 0.0000
      8 ****         1.3270   1.1595   2.4434 C.2            1 S1                 0.0000
      9 ****         0.7955   1.1095   3.5537 O.2            1 S1                 0.0000
     10 ****         2.0193   2.3414   1.9425 C.2            1 S1                 0.0000
     11 ****         2.1008   3.4407   2.7112 F              1 S1                 0.0000
     12 ****         2.5769   2.3517   0.7143 C.2            1 S1                 0.0000
     13 ****         2.5331   1.2628  -0.1373 N.am           1 S1                 0.0000
     14 ****         3.1515   1.3129  -1.5174 C.3            1 S1                 0.0000
     15 ****         2.0959   1.7070  -2.5562 C.3            1 S1                 0.0000
     16 ****         2.2650   3.2094  -2.6137 C.3            1 S1                 0.0000
     17 ****         3.7695   3.3568  -2.4152 C.3            1 S1                 0.0000
     18 ****         4.1469   2.2958  -1.5400 O.3            1 S1                 0.0000
     19 ****         1.8708   0.0844   0.2699 C.2            1 S1                 0.0000
     20 ****         1.7927  -0.8867  -0.4861 O.2            1 S1                 0.0000
     21 ****        -3.2745  -2.5588   0.0897 C.2            1 S1                 0.0000
     22 ****        -4.2055  -1.9130  -0.6785 C.2            1 S1                 0.0000
     23 ****        -3.9531  -2.2943  -2.0253 C.2            1 S1                 0.0000
     24 ****        -2.8902  -3.1503  -1.9808 C.2            1 S1                 0.0000
     25 ****        -2.4670  -3.3249  -0.6997 O.3            1 S1                 0.0000
     26 ****        -4.9600  -2.0269   2.2829 H              1 S1                 0.0000
     27 ****        -3.8568  -0.6666   2.1226 H              1 S1                 0.0000
     28 ****        -3.6821  -1.7917   3.4672 H              1 S1                 0.0000
     29 ****        -3.1400  -3.6263   1.8905 H              1 S1                 0.0000
     30 ****        -1.0634  -3.0552   2.3155 H              1 S1                 0.0000
     31 ****         0.6331  -1.3087   3.0643 H              1 S1                 0.0000
     32 ****         1.0569  -2.0616   1.5772 H              1 S1                 0.0000
     33 ****         3.0689   3.2580   0.3949 H              1 S1                 0.0000
     34 ****         3.5977   0.3315  -1.6851 H              1 S1                 0.0000
     35 ****         2.3626   1.2553  -3.5125 H              1 S1                 0.0000
     36 ****         1.0929   1.3810  -2.2784 H              1 S1                 0.0000
     37 ****         1.9130   3.6448  -3.5492 H              1 S1                 0.0000
     38 ****         1.7251   3.6819  -1.7922 H              1 S1                 0.0000
     39 ****         4.2905   3.2266  -3.3645 H              1 S1                 0.0000
     40 ****         4.0463   4.3292  -2.0070 H              1 S1                 0.0000
     41 ****        -4.9715  -1.2430  -0.3168 H              1 S1                 0.0000
     42 ****        -4.4825  -1.9826  -2.9136 H              1 S1                 0.0000
     43 ****        -2.3363  -3.6988  -2.7285 H              1 S1                 0.0000
     44 ****        -2.3857  -0.2415   0.7545 LP             1 S1                 0.0000
     45 ****        -0.8737   0.6003   0.8275 LP             1 S1                 0.0000
     46 ****         0.3258   0.2765   3.8461 LP             1 S1                 0.0000
     47 ****         0.8337   1.9020   4.1624 LP             1 S1                 0.0000
     48 ****         5.0034   1.8916  -1.8608 LP             1 S1                 0.0000
     49 ****         4.2745   2.6584  -0.6168 LP             1 S1                 0.0000
     50 ****         1.3127  -1.7128  -0.1909 LP             1 S1                 0.0000
     51 ****         2.2093  -0.8480  -1.3944 LP             1 S1                 0.0000
     52 ****        -2.5442  -4.2874  -0.4398 LP             1 S1                 0.0000
     53 ****        -1.5159  -3.0301  -0.6081 LP             1 S1                 0.0000
@<TRIPOS>BOND
    1    1    2 1     
    2    1   26 1     
    3    1   27 1     
    4    1   28 1     
    5    2    3 1     
    6    2   21 1     
    7    2   29 1     
    8    3    4 am    
    9    3   30 1     
   10    4    5 2     
   11    4    6 1     
   12    6    7 1     
   13    6   31 1     
   14    6   32 1     
   15    7   19 am    
   16    7    8 am    
   17    8    9 2     
   18    8   10 1     
   19   10   11 1     
   20   10   12 2     
   21   12   13 1     
   22   12   33 1     
   23   13   14 1     
   24   13   19 am    
   25   14   18 1     
   26   14   15 1     
   27   14   34 1     
   28   15   16 1     
   29   15   35 1     
   30   15   36 1     
   31   16   17 1     
   32   16   37 1     
   33   16   38 1     
   34   17   18 1     
   35   17   39 1     
   36   17   40 1     
   37   19   20 2     
   38   21   25 1     
   39   21   22 2     
   40   22   23 1     
   41   22   41 1     
   42   23   24 2     
   43   23   42 1     
   44   24   25 1     
   45   24   43 1     
   46    5   44 1     
   47    5   45 1     
   48    9   46 1     
   49    9   47 1     
   50   18   48 1     
   51   18   49 1     
   52   20   50 1     
   53   20   51 1     
   54   25   52 1     
   55   25   53 1     
@<TRIPOS>SUBSTRUCTURE
      1 S1             1
@<TRIPOS>SET
LONE_PAIRS      STATIC     ATOMS    <user>   **** ""
10 44 45 46 47 48 49 50 51 52 53
DONOR_HYDROGENS      STATIC     ATOMS    <user>   **** ""
1 30
ATOM$BLUE        STATIC     ATOMS    COLORGROUP SYSTEM
10 44 45 46 47 48 49 50 51 52 53
ATOM$RED        STATIC     ATOMS    COLORGROUP SYSTEM
1 30
