AV-unprocessed.smi:1109|AV-procd|sdf|4789|dock2
  -GOLD-   22720 3333D 1   1.00000     0.00000
 Structure written by MMmdl.
 45 46  0  0  0  0  0  0  0  0  1 V2000
  150.8188  140.6053  155.9702 C   0  0  0  0  0  0  0  0  0  0  0  0
  151.6113  139.7112  155.2098 O   0  0  0  0  0  0  0  0  0  0  0  0
  150.8853  138.5707  154.7792 C   0  0  0  0  0  0  0  0  0  0  0  0
  150.2432  137.8836  155.9945 C   0  0  0  0  0  0  0  0  0  0  0  0
  149.8614  136.4995  155.6950 N   0  0  0  0  0  0  0  0  0  0  0  0
  148.6603  136.3876  155.0213 N   0  0  0  0  0  0  0  0  0  0  0  0
  148.1907  135.2288  154.6983 C   0  0  0  0  0  0  0  0  0  0  0  0
  146.9146  135.0567  153.9315 C   0  0  0  0  0  0  0  0  0  0  0  0
  146.6039  133.9162  153.5823 O   0  0  0  0  0  0  0  0  0  0  0  0
  146.1638  136.1464  153.5716 N   0  0  0  0  0  0  0  0  0  0  0  0
  146.1811  137.4464  154.2818 C   0  0  0  0  0  0  0  0  0  0  0  0
  146.9894  138.5633  153.5948 C   0  0  0  0  0  0  0  0  0  0  0  0
  147.8332  138.2390  152.6095 N   0  0  0  0  0  0  0  0  0  0  0  0
  146.8528  139.7257  153.9679 O   0  0  0  0  0  0  0  0  0  0  0  0
  145.0870  136.0535  152.5530 C   0  0  0  0  0  0  0  0  0  0  0  0
  144.0088  134.9945  152.8775 C   0  0  0  0  0  0  0  0  0  0  0  0
  144.0038  134.0135  151.7012 C   0  0  0  0  0  0  0  0  0  0  0  0
  144.5272  134.8214  150.5161 C   0  0  0  0  0  0  0  0  0  0  0  0
  145.5790  135.7541  151.1180 C   0  0  0  0  0  0  0  0  0  0  0  0
  148.9307  134.0200  155.0236 C   0  0  0  0  0  0  0  0  0  0  0  0
  150.1149  134.1418  155.6632 C   0  0  0  0  0  0  0  0  0  0  0  0
  150.6633  135.4470  156.0354 C   0  0  0  0  0  0  0  0  0  0  0  0
  151.7476  135.5865  156.6002 O   0  0  0  0  0  0  0  0  0  0  0  0
  151.4221  141.4599  156.2765 H   0  0  0  0  0  0  0  0  0  0  0  0
  150.4354  140.1236  156.8704 H   0  0  0  0  0  0  0  0  0  0  0  0
  149.9767  140.9793  155.3867 H   0  0  0  0  0  0  0  0  0  0  0  0
  150.1230  138.8528  154.0511 H   0  0  0  0  0  0  0  0  0  0  0  0
  151.5644  137.8747  154.2848 H   0  0  0  0  0  0  0  0  0  0  0  0
  150.9338  137.9106  156.8391 H   0  0  0  0  0  0  0  0  0  0  0  0
  149.3706  138.4530  156.3201 H   0  0  0  0  0  0  0  0  0  0  0  0
  145.1559  137.8038  154.3893 H   0  0  0  0  0  0  0  0  0  0  0  0
  146.5227  137.3408  155.3121 H   0  0  0  0  0  0  0  0  0  0  0  0
  148.3666  138.9592  152.1446 H   0  0  0  0  0  0  0  0  0  0  0  0
  147.9298  137.2736  152.3298 H   0  0  0  0  0  0  0  0  0  0  0  0
  144.5687  137.0124  152.4938 H   0  0  0  0  0  0  0  0  0  0  0  0
  144.1715  134.4834  153.8270 H   0  0  0  0  0  0  0  0  0  0  0  0
  143.0353  135.4815  152.9480 H   0  0  0  0  0  0  0  0  0  0  0  0
  144.6826  133.1852  151.9068 H   0  0  0  0  0  0  0  0  0  0  0  0
  143.0165  133.5902  151.5149 H   0  0  0  0  0  0  0  0  0  0  0  0
  144.9304  134.1908  149.7234 H   0  0  0  0  0  0  0  0  0  0  0  0
  143.7151  135.4124  150.0907 H   0  0  0  0  0  0  0  0  0  0  0  0
  145.6965  136.6647  150.5300 H   0  0  0  0  0  0  0  0  0  0  0  0
  146.5452  135.2506  151.1073 H   0  0  0  0  0  0  0  0  0  0  0  0
  148.5459  133.0436  154.7660 H   0  0  0  0  0  0  0  0  0  0  0  0
  150.6734  133.2509  155.9105 H   0  0  0  0  0  0  0  0  0  0  0  0
  1  2  1  0  0  0  0
  1 24  1  0  0  0  0
  1 25  1  0  0  0  0
  1 26  1  0  0  0  0
  2  3  1  0  0  0  0
  3  4  1  0  0  0  0
  3 27  1  0  0  0  0
  3 28  1  0  0  0  0
  4  5  1  0  0  0  0
  4 29  1  0  0  0  0
  4 30  1  0  0  0  0
  5 22  1  0  0  0  0
  5  6  1  0  0  0  0
  6  7  2  0  0  0  0
  7  8  1  0  0  0  0
  7 20  1  0  0  0  0
  8  9  2  0  0  0  0
  8 10  1  0  0  0  0
 10 11  1  0  0  0  0
 10 15  1  0  0  0  0
 11 12  1  0  0  0  0
 11 31  1  0  0  0  0
 11 32  1  0  0  0  0
 12 13  1  0  0  0  0
 12 14  2  0  0  0  0
 13 33  1  0  0  0  0
 13 34  1  0  0  0  0
 15 19  1  0  0  0  0
 15 16  1  0  0  0  0
 15 35  1  0  0  0  0
 16 17  1  0  0  0  0
 16 36  1  0  0  0  0
 16 37  1  0  0  0  0
 17 18  1  0  0  0  0
 17 38  1  0  0  0  0
 17 39  1  0  0  0  0
 18 19  1  0  0  0  0
 18 40  1  0  0  0  0
 18 41  1  0  0  0  0
 19 42  1  0  0  0  0
 19 43  1  0  0  0  0
 20 21  2  0  0  0  0
 20 44  1  0  0  0  0
 21 22  1  0  0  0  0
 21 45  1  0  0  0  0
 22 23  2  0  0  0  0
M  END
> <s_m_source_file>
AV-unprocessed.smi

> <i_m_source_file_index>
1109

> <i_lp_mmshare_version>
43012

> <i_f3d_flags>
0

> <s_epik_input>
W0NIM11PW0NIMl1bQ0gyXW4xbmMoW2NIXVtjSF1jMT1PKUMoPU8pTihbQ0gyXUMoPU8pW05IMl0pW0NIXTJbQ0gyXVtDSDJdW0NIMl1bQ0gyXTI=

> <s_epik_cmdline>
J2VwaWtfcHl0aG9uJywgJy1waCcsICc3LjAnLCAnLXRuJywgJzgnLCAnLW1hJywgJzIwMCcsICctbWV0YWxfYmluZGluZycsICctaW1hZScsICc8aW5maWxlLm1hZT4nLCAnLW9tYWUnLCAnPG91dGZpbGUubWFlPic=

> <r_lp_tautomer_probability>
1

> <r_epik_Ionization_Penalty>
6.63696e-08

> <r_epik_Ionization_Penalty_Charging>
1.13312e-09

> <r_epik_Ionization_Penalty_Neutral>
6.52365e-08

> <r_epik_State_Penalty>
-0

> <r_epik_Charging_Adjusted_Penalty>
1.13312e-09

> <i_epik_Tot_Q>
0

> <i_epik_Tot_abs_Q>
0

> <r_epik_Metal_State_Penalty>
-0

> <b_epik_Metal_Only>
0

> <s_lp_Force_Field>
OPLS_2005

> <r_lp_Energy>
53.0262

> <b_lp_Chiralities_Consistent>
1

> <s_lp_Variant>
AV-unprocessed.smi:1109-1

> <Gold.Version>
5.8.1

> <Gold.Id.Protein>
6NUR|6NUR_protein|mol2

> <Gold.PLP.Fitness>
39.7280

> <Gold.PLP.PLP>
-29.7625

> <Gold.PLP.part.hbond>
-3.9537

> <Gold.PLP.part.metal>
0.0000

> <Gold.PLP.part.buried>
-2.8658

> <Gold.PLP.part.nonpolar>
-24.2398

> <Gold.PLP.part.repulsive>
1.3045

> <Gold.PLP.ligand.clash>
0.0000

> <Gold.PLP.ligand.torsion>
1.0727

> <Gold.PLP.Chemscore.Hbond>
3.8640

> <Gold.PLP.Chemscore.CHOScore>
0.0000

> <Gold.PLP.Chemscore.Metal>
0.0000

> <Gold.Chemscore.Hbonds>
donor molecule, donor type, donor heavy atom, donor atom, acceptor molecule, acceptor atom, score
      L1  H    13    33       P1  7957  1.00
      L1  H    13    34       P1  7948  0.83
      P1  H  7989  7998       L1     2  0.74
      P1  H 10752 10765       L1    23  0.46

> <Gold.PLP.Chemscore.Internal.Correction>
0.5189

> <Gold.Rescore>
     Score         DG    S(hbond)    S(metal)    S(lipo)     H(rot)  DE(clash)    DE(int)     intcor
      5.68     -10.76       1.65        0.00      54.99       2.61       0.27       4.81       ----

> <Gold.Chemscore.Fitness>
5.6774

> <Gold.Chemscore.DG>
-10.7564

> <Gold.Chemscore.ZeroCoef>
-5.4800

> <Gold.Chemscore.Hbond>
1.6508

> <Gold.Chemscore.Metal>
0.0000

> <Gold.Chemscore.Lipo>
54.9853

> <Gold.Chemscore.Internal_Hbond>
0.0000

> <Gold.Chemscore.DEClash>
0.2703

> <Gold.Chemscore.DEInternal>
4.8087

> <Gold.Chemscore.Rot>
2.6057

> <Gold.Chemscore.Internal.Correction>
   9.000000E+99

> <Gold.Chemscore.Hbonds>
donor molecule, donor type, donor heavy atom, donor atom, acceptor molecule, acceptor atom, score
      L1  H    13    33       P1  7957  0.98
      L1  H    13    34       P1  7948  0.76
      P1  H  7989  7998       L1     2  0.04
      P1  H 10752 10765       L1    23  0.08

> <Gold.Chemscore.Hbond.Weighted>
-5.5138

> <Gold.Chemscore.Metal.Weighted>
-0.0000

> <Gold.Chemscore.Lipo.Weighted>
-6.4333

> <Gold.Chemscore.Internal_Hbond.Weighted>
0.0000

> <Gold.Chemscore.DEClash.Weighted>
0.2703

> <Gold.Chemscore.DEInternal.Weighted>
4.8087

> <Gold.Chemscore.Rot.Weighted>
6.6707

> <Gold.Chemscore.Internal.Correction.Weighted>
   9.000000E+99

> <Gold.Protein.RotatedTorsions>
[ 6907 6896 6895 6894 ] final    3.22 input  -60.11 | X-H torsion
[ 7974 7965 7964 7962 ] final   -7.67 input  175.53 | X-H torsion
[ 8008 7997 7996 7995 ] final  -53.90 input   59.86 | X-H torsion
[ 10167 10162 10161 10158 ] final   30.36 input  -65.29 | X-H torsion
[ 10718 10713 10712 10709 ] final   92.81 input   66.30 | X-H torsion
[ 10763 10752 10751 10750 ] final -169.29 input  -60.55 | X-H torsion
[ 11005 11000 10999 10996 ] final  130.77 input  -57.11 | X-H torsion

> <Gold.Protein.ActiveResidues>
 VAL166  LYS551  ARG553  GLY616  TRP617  ASP618  TYR619  PRO620  LYS621  CYS622 
 ASP623  PHE694  ASN695  SER759  ASP760  ASP761  ALA762  ILE779  LEU786  VAL792 
 PHE793  MET794  SER795  GLU796  ALA797  LYS798  CYS799  TRP800  GLU811  SER814 

> <Gold.Protein.RotatedAtoms>
  151.6215  135.1031  160.0102 H   0  0  0  0  0  0  0  0  0  0  0  0  # atno 6907 bound_to 6896
  152.4155  133.7027  159.6444 H   0  0  0  0  0  0  0  0  0  0  0  0  # atno 6908 bound_to 6896
  150.8044  133.8464  159.3234 H   0  0  0  0  0  0  0  0  0  0  0  0  # atno 6909 bound_to 6896
  146.2301  140.2354  142.8341 H   0  0  0  0  0  0  0  0  0  0  0  0  # atno 7974 bound_to 7965
  154.4147  140.1189  156.5229 H   0  0  0  0  0  0  0  0  0  0  0  0  # atno 8008 bound_to 7997
  155.6684  140.3496  155.4790 H   0  0  0  0  0  0  0  0  0  0  0  0  # atno 8009 bound_to 7997
  155.9654  140.1131  157.0849 H   0  0  0  0  0  0  0  0  0  0  0  0  # atno 8010 bound_to 7997
  140.4685  144.0799  150.6231 H   0  0  0  0  0  0  0  0  0  0  0  0  # atno 10167 bound_to 10162
  157.6957  131.0456  150.3938 H   0  0  0  0  0  0  0  0  0  0  0  0  # atno 10718 bound_to 10713
  154.6538  135.2915  154.9953 H   0  0  0  0  0  0  0  0  0  0  0  0  # atno 10763 bound_to 10752
  154.1036  135.6573  153.4876 H   0  0  0  0  0  0  0  0  0  0  0  0  # atno 10764 bound_to 10752
  153.0391  135.5248  154.7458 H   0  0  0  0  0  0  0  0  0  0  0  0  # atno 10765 bound_to 10752
  139.9691  134.9582  156.9342 H   0  0  0  0  0  0  0  0  0  0  0  0  # atno 11005 bound_to 11000
  144.9526  140.8193  143.5563 LP  0  0  0  0  0  0  0  0  0  0  0  0  # atno 17320 bound_to 7965
  145.2316  139.2112  143.5040 LP  0  0  0  0  0  0  0  0  0  0  0  0  # atno 17321 bound_to 7965
  140.4006  143.2705  151.9952 LP  0  0  0  0  0  0  0  0  0  0  0  0  # atno 17342 bound_to 10162
  139.4815  144.6000  151.7622 LP  0  0  0  0  0  0  0  0  0  0  0  0  # atno 17343 bound_to 10162
  156.4339  130.3977  149.6742 LP  0  0  0  0  0  0  0  0  0  0  0  0  # atno 17370 bound_to 10713
  156.3949  130.7646  151.2649 LP  0  0  0  0  0  0  0  0  0  0  0  0  # atno 17371 bound_to 10713
  140.5331  134.0793  155.7321 LP  0  0  0  0  0  0  0  0  0  0  0  0  # atno 17394 bound_to 11000
  141.1371  133.9202  157.2409 LP  0  0  0  0  0  0  0  0  0  0  0  0  # atno 17395 bound_to 11000

$$$$
