#       Name:                AV-unprocessed.smi:1769
#       Creating user name   scv26
#       Creation time:       Fri Mar 27 08:39:32 2020


#       File generated by GOLD software.
#

@<TRIPOS>MOLECULE
AV-unprocessed.smi:1769
    46    47     1
SMALL
NO_CHARGES


@<TRIPOS>ATOM
      1 ****        -4.6286  -1.5761  -0.2566 C.3            1 S1                 0.0000
      2 ****        -3.1400  -1.2901  -0.4668 C.2            1 S1                 0.0000
      3 ****        -2.4505  -2.1645  -0.9925 O.2            1 S1                 0.0000
      4 ****        -2.6319  -0.0985  -0.0704 N.am           1 S1                 0.0000
      5 ****        -3.3771   0.9540   0.6324 C.3            1 S1                 0.0000
      6 ****        -2.8810   1.0236   2.0882 C.3            1 S1                 0.0000
      7 ****        -1.3570   1.2468   2.1440 C.3            1 S1                 0.0000
      8 ****        -0.5988   0.2327   1.2558 C.3            1 S1                 0.0000
      9 ****         0.9018   0.5414   1.1988 C.2            1 S1                 0.0000
     10 ****         1.2955   1.6341   0.7890 O.2            1 S1                 0.0000
     11 ****         1.7300  -0.4450   1.5794 N.am           1 S1                 0.0000
     12 ****         3.1888  -0.4022   1.5123 C.3            1 S1                 0.0000
     13 ****         3.7343  -1.0609   0.2291 C.3            1 S1                 0.0000
     14 ****         3.1892  -0.4479  -1.0499 C.ar           1 S1                 0.0000
     15 ****         2.1587  -1.0874  -1.7753 C.ar           1 S1                 0.0000
     16 ****         1.6462  -0.4735  -2.9369 C.ar           1 S1                 0.0000
     17 ****         2.1790   0.7645  -3.3504 C.ar           1 S1                 0.0000
     18 ****         3.1682   1.3434  -2.6348 N.pl3          1 S1                 1.0000
     19 ****         3.6851   0.7885  -1.5167 C.ar           1 S1                 0.0000
     20 ****        -1.2033   0.2228  -0.1661 C.3            1 S1                 0.0000
     21 ****        -4.8920  -1.5057   0.7991 H              1 S1                 0.0000
     22 ****        -4.8787  -2.5824  -0.5948 H              1 S1                 0.0000
     23 ****        -5.2398  -0.8730  -0.8229 H              1 S1                 0.0000
     24 ****        -3.2023   1.9088   0.1342 H              1 S1                 0.0000
     25 ****        -4.4566   0.8115   0.6145 H              1 S1                 0.0000
     26 ****        -3.3943   1.8238   2.6218 H              1 S1                 0.0000
     27 ****        -3.1345   0.0960   2.6032 H              1 S1                 0.0000
     28 ****        -1.1417   2.2646   1.8143 H              1 S1                 0.0000
     29 ****        -1.0116   1.1788   3.1764 H              1 S1                 0.0000
     30 ****        -0.7298  -0.7612   1.6888 H              1 S1                 0.0000
     31 ****         1.3164  -1.3064   1.9071 H              1 S1                 0.0000
     32 ****         3.5456   0.6263   1.5870 H              1 S1                 0.0000
     33 ****         3.5843  -0.9222   2.3851 H              1 S1                 0.0000
     34 ****         4.8222  -0.9871   0.2155 H              1 S1                 0.0000
     35 ****         3.5048  -2.1272   0.2392 H              1 S1                 0.0000
     36 ****         1.7521  -2.0298  -1.4382 H              1 S1                 0.0000
     37 ****         0.8518  -0.9434  -3.4983 H              1 S1                 0.0000
     38 ****         1.8455   1.3062  -4.2234 H              1 S1                 0.0000
     39 ****         4.4642   1.3531  -1.0257 H              1 S1                 0.0000
     40 ****        -0.6616  -0.4776  -0.8035 H              1 S1                 0.0000
     41 ****        -1.0889   1.1992  -0.6405 H              1 S1                 0.0000
     42 ****         3.5381   2.2405  -2.9497 H              1 S1                 0.0000
     43 ****        -2.8667  -3.0309  -1.2684 LP             1 S1                 0.0000
     44 ****        -1.4745  -2.0081  -1.1436 LP             1 S1                 0.0000
     45 ****         0.6354   2.3241   0.4918 LP             1 S1                 0.0000
     46 ****         2.2752   1.8314   0.7534 LP             1 S1                 0.0000
@<TRIPOS>BOND
    1    1    2 1     
    2    1   21 1     
    3    1   22 1     
    4    1   23 1     
    5    2    3 2     
    6    2    4 am    
    7    4   20 1     
    8    4    5 1     
    9    5    6 1     
   10    5   24 1     
   11    5   25 1     
   12    6    7 1     
   13    6   26 1     
   14    6   27 1     
   15    7    8 1     
   16    7   28 1     
   17    7   29 1     
   18    8    9 1     
   19    8   20 1     
   20    8   30 1     
   21    9   10 2     
   22    9   11 am    
   23   11   12 1     
   24   11   31 1     
   25   12   13 1     
   26   12   32 1     
   27   12   33 1     
   28   13   14 1     
   29   13   34 1     
   30   13   35 1     
   31   14   19 ar    
   32   14   15 ar    
   33   15   16 ar    
   34   15   36 1     
   35   16   17 ar    
   36   16   37 1     
   37   17   18 ar    
   38   17   38 1     
   39   18   19 ar    
   40   18   42 1     
   41   19   39 1     
   42   20   40 1     
   43   20   41 1     
   44    3   43 1     
   45    3   44 1     
   46   10   45 1     
   47   10   46 1     
@<TRIPOS>SUBSTRUCTURE
      1 S1             1
@<TRIPOS>SET
LONE_PAIRS      STATIC     ATOMS    <user>   **** ""
4 43 44 45 46
DONOR_HYDROGENS      STATIC     ATOMS    <user>   **** ""
2 31 42
ATOM$BLUE        STATIC     ATOMS    COLORGROUP SYSTEM
4 43 44 45 46
ATOM$RED        STATIC     ATOMS    COLORGROUP SYSTEM
2 31 42
