AV-unprocessed.smi:229|AV-procd|sdf|1760|dock3
  -GOLD-   2262020293D 1   1.00000     0.00000
 Structure written by MMmdl.
 58 62  0  0  0  0  0  0  0  0  1 V2000
  148.3570  133.1005  152.3385 C   0  0  0  0  0  0  0  0  0  0  0  0
  149.2082  132.9640  153.6070 C   0  0  0  0  0  0  0  0  0  0  0  0
  149.0230  134.1372  154.5808 C   0  0  1  0  0  0  0  0  0  0  0  0
  150.0050  135.2840  154.2882 C   0  0  0  0  0  0  0  0  0  0  0  0
  149.7216  136.4135  155.1664 N   0  0  0  0  0  0  0  0  0  0  0  0
  150.6579  137.3877  155.2904 C   0  0  0  0  0  0  0  0  0  0  0  0
  151.7326  137.4085  154.4570 N   0  0  0  0  0  0  0  0  0  0  0  0
  152.6597  138.3641  154.5729 C   0  0  0  0  0  0  0  0  0  0  0  0
  152.7111  139.3764  155.4408 N   0  0  0  0  0  0  0  0  0  0  0  0
  151.6397  139.3571  156.2839 C   0  0  0  0  0  0  0  0  0  0  0  0
  150.5769  138.4101  156.2780 C   0  0  0  0  0  0  0  0  0  0  0  0
  149.6748  138.7075  157.2936 N   0  0  0  0  0  0  0  0  0  0  0  0
  150.1705  139.7736  157.8601 C   0  0  0  0  0  0  0  0  0  0  0  0
  151.3520  140.2277  157.3195 N   0  0  0  0  0  0  0  0  0  0  0  0
  152.1267  141.3754  157.7573 C   0  0  0  0  0  0  0  0  0  0  0  0
  151.2766  142.6580  157.8503 C   0  0  2  0  0  0  0  0  0  0  0  0
  151.1164  143.2048  156.5542 O   0  0  0  0  0  0  0  0  0  0  0  0
  151.9016  143.6972  158.8038 C   0  0  1  0  0  0  0  0  0  0  0  0
  151.2619  145.0896  158.8405 C   0  0  0  0  0  0  0  0  0  0  0  0
  151.6660  145.5635  160.2183 C   0  0  0  0  0  0  0  0  0  0  0  0
  151.5483  144.2785  161.0339 C   0  0  0  0  0  0  0  0  0  0  0  0
  151.9106  143.2228  160.1480 O   0  0  0  0  0  0  0  0  0  0  0  0
  148.3441  136.8795  155.0619 C   0  0  0  0  0  0  0  0  0  0  0  0
  147.3534  135.7188  155.3090 C   0  0  2  0  0  0  0  0  0  0  0  0
  145.9229  136.1417  154.9885 C   0  0  0  0  0  0  0  0  0  0  0  0
  145.3628  136.5416  156.3449 C   0  0  0  0  0  0  0  0  0  0  0  0
  145.9060  135.5513  157.1972 O   0  0  0  0  0  0  0  0  0  0  0  0
  147.2517  135.3160  156.7994 C   0  0  0  0  0  0  0  0  0  0  0  0
  147.6835  134.6196  154.4544 O   0  0  0  0  0  0  0  0  0  0  0  0
  148.5051  132.2461  151.6780 H   0  0  0  0  0  0  0  0  0  0  0  0
  148.6182  134.0002  151.7809 H   0  0  0  0  0  0  0  0  0  0  0  0
  147.2954  133.1531  152.5811 H   0  0  0  0  0  0  0  0  0  0  0  0
  148.9408  132.0327  154.1076 H   0  0  0  0  0  0  0  0  0  0  0  0
  150.2601  132.8743  153.3336 H   0  0  0  0  0  0  0  0  0  0  0  0
  149.1974  133.7756  155.5946 H   0  0  0  0  0  0  0  0  0  0  0  0
  151.0281  134.9364  154.4389 H   0  0  0  0  0  0  0  0  0  0  0  0
  149.9169  135.6020  153.2482 H   0  0  0  0  0  0  0  0  0  0  0  0
  153.4779  138.3092  153.8700 H   0  0  0  0  0  0  0  0  0  0  0  0
  149.6905  140.2556  158.6995 H   0  0  0  0  0  0  0  0  0  0  0  0
  152.5636  141.1408  158.7286 H   0  0  0  0  0  0  0  0  0  0  0  0
  152.9596  141.5160  157.0673 H   0  0  0  0  0  0  0  0  0  0  0  0
  150.2877  142.3928  158.2267 H   0  0  0  0  0  0  0  0  0  0  0  0
  150.4405  143.8642  156.5897 H   0  0  0  0  0  0  0  0  0  0  0  0
  152.9536  143.8177  158.5399 H   0  0  0  0  0  0  0  0  0  0  0  0
  151.6178  145.7418  158.0428 H   0  0  0  0  0  0  0  0  0  0  0  0
  150.1746  145.0391  158.7792 H   0  0  0  0  0  0  0  0  0  0  0  0
  152.7004  145.9100  160.2083 H   0  0  0  0  0  0  0  0  0  0  0  0
  151.0374  146.3696  160.5977 H   0  0  0  0  0  0  0  0  0  0  0  0
  152.1778  144.2880  161.9239 H   0  0  0  0  0  0  0  0  0  0  0  0
  150.5158  144.1244  161.3506 H   0  0  0  0  0  0  0  0  0  0  0  0
  148.1376  137.6973  155.7515 H   0  0  0  0  0  0  0  0  0  0  0  0
  148.2024  137.2803  154.0571 H   0  0  0  0  0  0  0  0  0  0  0  0
  145.8546  136.9386  154.2475 H   0  0  0  0  0  0  0  0  0  0  0  0
  145.3554  135.2905  154.6095 H   0  0  0  0  0  0  0  0  0  0  0  0
  145.7199  137.5278  156.6456 H   0  0  0  0  0  0  0  0  0  0  0  0
  144.2731  136.5423  156.3700 H   0  0  0  0  0  0  0  0  0  0  0  0
  147.4905  134.2678  156.9763 H   0  0  0  0  0  0  0  0  0  0  0  0
  147.9180  135.9161  157.4207 H   0  0  0  0  0  0  0  0  0  0  0  0
  1  2  1  0  0  0  0
  1 30  1  0  0  0  0
  1 31  1  0  0  0  0
  1 32  1  0  0  0  0
  2  3  1  0  0  0  0
  2 33  1  0  0  0  0
  2 34  1  0  0  0  0
  3 29  1  0  0  0  0
  3  4  1  0  0  0  0
  3 35  1  0  0  0  0
  4  5  1  0  0  0  0
  4 36  1  0  0  0  0
  4 37  1  0  0  0  0
  5  6  1  0  0  0  0
  5 23  1  0  0  0  0
  6 11  1  0  0  0  0
  6  7  2  0  0  0  0
  7  8  1  0  0  0  0
  8  9  2  0  0  0  0
  8 38  1  0  0  0  0
  9 10  1  0  0  0  0
 10 14  1  0  0  0  0
 10 11  2  0  0  0  0
 11 12  1  0  0  0  0
 12 13  2  0  0  0  0
 13 14  1  0  0  0  0
 13 39  1  0  0  0  0
 14 15  1  0  0  0  0
 15 16  1  0  0  0  0
 15 40  1  0  0  0  0
 15 41  1  0  0  0  0
 16 17  1  0  0  0  0
 16 18  1  0  0  0  0
 16 42  1  0  0  0  0
 17 43  1  0  0  0  0
 18 22  1  0  0  0  0
 18 19  1  0  0  0  0
 18 44  1  0  0  0  0
 19 20  1  0  0  0  0
 19 45  1  0  0  0  0
 19 46  1  0  0  0  0
 20 21  1  0  0  0  0
 20 47  1  0  0  0  0
 20 48  1  0  0  0  0
 21 22  1  0  0  0  0
 21 49  1  0  0  0  0
 21 50  1  0  0  0  0
 23 24  1  0  0  0  0
 23 51  1  0  0  0  0
 23 52  1  0  0  0  0
 24 28  1  0  0  0  0
 24 25  1  0  0  0  0
 24 29  1  0  0  0  0
 25 26  1  0  0  0  0
 25 53  1  0  0  0  0
 25 54  1  0  0  0  0
 26 27  1  0  0  0  0
 26 55  1  0  0  0  0
 26 56  1  0  0  0  0
 27 28  1  0  0  0  0
 28 57  1  0  0  0  0
 28 58  1  0  0  0  0
M  END
> <s_m_source_file>
AV-unprocessed.smi

> <i_m_source_file_index>
229

> <i_lp_mmshare_version>
43012

> <i_f3d_flags>
0

> <s_epik_input>
W0NIMl0xT1tDSDJdW0NIMl1bQ0BdMTJbQ0gyXU4oW0NIMl1bQ0BIXShPMilbQ0gyXVtDSDNdKWMobltjSF1uMyljKGMzNCluW2NIXW40W0NIMl1bQ0BIXShbT0hdKVtDQEBIXTVbQ0gyXVtDSDJdW0NIMl1PNQ==

> <s_epik_cmdline>
J2VwaWtfcHl0aG9uJywgJy1waCcsICc3LjAnLCAnLXRuJywgJzgnLCAnLW1hJywgJzIwMCcsICctbWV0YWxfYmluZGluZycsICctaW1hZScsICc8aW5maWxlLm1hZT4nLCAnLW9tYWUnLCAnPG91dGZpbGUubWFlPic=

> <r_lp_tautomer_probability>
1

> <r_epik_Ionization_Penalty>
0.00318402

> <r_epik_Ionization_Penalty_Charging>
0

> <r_epik_Ionization_Penalty_Neutral>
0.00318402

> <r_epik_State_Penalty>
0.00215642

> <r_epik_Charging_Adjusted_Penalty>
0.00215642

> <i_epik_Tot_Q>
0

> <i_epik_Tot_abs_Q>
0

> <r_epik_Metal_State_Penalty>
-0

> <b_epik_Metal_Only>
0

> <s_lp_Force_Field>
OPLS_2005

> <r_lp_Energy>
56.4449

> <b_lp_Chiralities_Consistent>
1

> <s_lp_Variant>
AV-unprocessed.smi:229-14

> <Gold.Version>
5.8.1

> <Gold.Id.Protein>
6NUR|6NUR_protein|mol2

> <Gold.PLP.Fitness>
51.2041

> <Gold.PLP.PLP>
-43.8566

> <Gold.PLP.part.hbond>
-3.0000

> <Gold.PLP.part.metal>
0.0000

> <Gold.PLP.part.buried>
-8.4005

> <Gold.PLP.part.nonpolar>
-33.3725

> <Gold.PLP.part.repulsive>
0.3073

> <Gold.PLP.ligand.clash>
0.0000

> <Gold.PLP.ligand.torsion>
0.8441

> <Gold.PLP.Chemscore.Hbond>
2.8800

> <Gold.PLP.Chemscore.CHOScore>
0.0000

> <Gold.PLP.Chemscore.Metal>
0.0000

> <Gold.Chemscore.Hbonds>
donor molecule, donor type, donor heavy atom, donor atom, acceptor molecule, acceptor atom, score
      L1  H    17    43       P1  8028  0.94
      P1  H  7997  8008       L1     9  1.00
      P1  H 10752 10763       L1     7  0.76

> <Gold.PLP.Chemscore.Internal.Correction>
0.3958

> <Gold.Rescore>
     Score         DG    S(hbond)    S(metal)    S(lipo)     H(rot)  DE(clash)    DE(int)     intcor
     18.09     -18.98       2.59        0.00      95.16       2.46       0.12       0.77       ----

> <Gold.Chemscore.Fitness>
18.0948

> <Gold.Chemscore.DG>
-18.9787

> <Gold.Chemscore.ZeroCoef>
-5.4800

> <Gold.Chemscore.Hbond>
2.5930

> <Gold.Chemscore.Metal>
0.0000

> <Gold.Chemscore.Lipo>
95.1575

> <Gold.Chemscore.Internal_Hbond>
0.0000

> <Gold.Chemscore.DEClash>
0.1156

> <Gold.Chemscore.DEInternal>
0.7684

> <Gold.Chemscore.Rot>
2.4591

> <Gold.Chemscore.Internal.Correction>
   9.000000E+99

> <Gold.Chemscore.Hbonds>
donor molecule, donor type, donor heavy atom, donor atom, acceptor molecule, acceptor atom, score
      L1  H    17    43       P1  8028  0.89
      P1  H  7997  8008       L1     9  0.89
      P1  H 10752 10763       L1     7  0.20

> <Gold.Chemscore.Hbond.Weighted>
-8.6606

> <Gold.Chemscore.Metal.Weighted>
-0.0000

> <Gold.Chemscore.Lipo.Weighted>
-11.1334

> <Gold.Chemscore.Internal_Hbond.Weighted>
0.0000

> <Gold.Chemscore.DEClash.Weighted>
0.1156

> <Gold.Chemscore.DEInternal.Weighted>
0.7684

> <Gold.Chemscore.Rot.Weighted>
6.2953

> <Gold.Chemscore.Internal.Correction.Weighted>
   9.000000E+99

> <Gold.Protein.RotatedTorsions>
[ 6907 6896 6895 6894 ] final -175.66 input  -60.11 | X-H torsion
[ 7974 7965 7964 7962 ] final  -11.34 input  175.53 | X-H torsion
[ 8008 7997 7996 7995 ] final  -35.66 input   59.86 | X-H torsion
[ 10167 10162 10161 10158 ] final   90.47 input  -65.29 | X-H torsion
[ 10718 10713 10712 10709 ] final  130.51 input   66.30 | X-H torsion
[ 10763 10752 10751 10750 ] final   44.45 input  -60.55 | X-H torsion
[ 11005 11000 10999 10996 ] final  -32.97 input  -57.11 | X-H torsion

> <Gold.Protein.ActiveResidues>
 VAL166  LYS551  ARG553  GLY616  TRP617  ASP618  TYR619  PRO620  LYS621  CYS622 
 ASP623  PHE694  ASN695  SER759  ASP760  ASP761  ALA762  ILE779  LEU786  VAL792 
 PHE793  MET794  SER795  GLU796  ALA797  LYS798  CYS799  TRP800  GLU811  SER814 

> <Gold.Protein.RotatedAtoms>
  151.5922  133.3365  159.3029 H   0  0  0  0  0  0  0  0  0  0  0  0  # atno 6907 bound_to 6896
  150.8254  134.7485  159.6819 H   0  0  0  0  0  0  0  0  0  0  0  0  # atno 6908 bound_to 6896
  152.4344  134.5722  159.9976 H   0  0  0  0  0  0  0  0  0  0  0  0  # atno 6909 bound_to 6896
  146.2190  140.2897  142.8367 H   0  0  0  0  0  0  0  0  0  0  0  0  # atno 7974 bound_to 7965
  154.4090  140.1651  156.2247 H   0  0  0  0  0  0  0  0  0  0  0  0  # atno 8008 bound_to 7997
  155.9333  140.3413  155.6244 H   0  0  0  0  0  0  0  0  0  0  0  0  # atno 8009 bound_to 7997
  155.7079  140.0753  157.2374 H   0  0  0  0  0  0  0  0  0  0  0  0  # atno 8010 bound_to 7997
  139.8470  144.6613  150.9215 H   0  0  0  0  0  0  0  0  0  0  0  0  # atno 10167 bound_to 10162
  157.5055  131.1095  150.9367 H   0  0  0  0  0  0  0  0  0  0  0  0  # atno 10718 bound_to 10713
  152.9841  135.6070  154.3276 H   0  0  0  0  0  0  0  0  0  0  0  0  # atno 10763 bound_to 10752
  154.2982  135.2773  155.2625 H   0  0  0  0  0  0  0  0  0  0  0  0  # atno 10764 bound_to 10752
  154.4890  135.5897  153.6501 H   0  0  0  0  0  0  0  0  0  0  0  0  # atno 10765 bound_to 10752
  140.9596  133.7172  156.1349 H   0  0  0  0  0  0  0  0  0  0  0  0  # atno 11005 bound_to 11000
  144.9136  140.7786  143.5792 LP  0  0  0  0  0  0  0  0  0  0  0  0  # atno 17320 bound_to 7965
  145.2829  139.1911  143.4781 LP  0  0  0  0  0  0  0  0  0  0  0  0  # atno 17321 bound_to 7965
  140.7792  143.3861  151.1391 LP  0  0  0  0  0  0  0  0  0  0  0  0  # atno 17342 bound_to 10162
  139.7503  143.8789  152.3075 LP  0  0  0  0  0  0  0  0  0  0  0  0  # atno 17343 bound_to 10162
  157.0024  130.5605  149.5312 LP  0  0  0  0  0  0  0  0  0  0  0  0  # atno 17370 bound_to 10713
  156.0256  130.5349  150.8396 LP  0  0  0  0  0  0  0  0  0  0  0  0  # atno 17371 bound_to 10713
  140.7486  134.4070  157.5545 LP  0  0  0  0  0  0  0  0  0  0  0  0  # atno 17394 bound_to 11000
  139.8874  134.8884  156.2532 LP  0  0  0  0  0  0  0  0  0  0  0  0  # atno 17395 bound_to 11000

$$$$
