#       Name:                AV-unprocessed.smi:705
#       Creating user name   scv26
#       Creation time:       Fri Mar 27 00:43:33 2020


#       File generated by GOLD software.
#

@<TRIPOS>MOLECULE
AV-unprocessed.smi:705
    32    33     1
SMALL
NO_CHARGES


@<TRIPOS>ATOM
      1 ****        -4.8901  -0.6860  -0.0618 N.am           1 S1                 0.0000
      2 ****        -4.3804   0.5404  -0.2085 C.2            1 S1                 0.0000
      3 ****        -5.0926   1.5327  -0.3479 O.2            1 S1                 0.0000
      4 ****        -2.9071   0.6512  -0.2363 C.2            1 S1                 0.0000
      5 ****        -2.0132  -0.3252   0.1002 C.2            1 S1                 0.0000
      6 ****        -0.7533   0.3219  -0.0837 C.2            1 S1                 0.0000
      7 ****         0.6175  -0.2710   0.1217 C.3            1 S1                 0.0000
      8 ****         1.4183  -0.3422  -1.1931 C.3            1 S1                 0.0000
      9 ****         2.8082  -0.9470  -0.9425 C.3            1 S1                 0.0000
     10 ****         3.5505  -0.1773   0.1629 C.3            1 S1                 0.0000
     11 ****         2.7479  -0.1387   1.4050 N.4            1 S1                 1.0000
     12 ****         1.4142   0.4731   1.2141 C.3            1 S1                 0.0000
     13 ****        -0.8787   1.5866  -0.4837 N.2            1 S1                 0.0000
     14 ****        -2.2090   1.7849  -0.5667 N.pl3          1 S1                 0.0000
     15 ****        -2.6102   2.6688  -0.8472 H              1 S1                 0.0000
     16 ****        -5.8915  -0.8136  -0.0415 H              1 S1                 0.0000
     17 ****        -4.2737  -1.4807   0.0236 H              1 S1                 0.0000
     18 ****        -2.2150  -1.3365   0.4216 H              1 S1                 0.0000
     19 ****         0.4833  -1.2968   0.4688 H              1 S1                 0.0000
     20 ****         0.8808  -0.9380  -1.9318 H              1 S1                 0.0000
     21 ****         1.5299   0.6560  -1.6192 H              1 S1                 0.0000
     22 ****         2.7067  -1.9951  -0.6572 H              1 S1                 0.0000
     23 ****         3.3919  -0.9328  -1.8634 H              1 S1                 0.0000
     24 ****         4.5102  -0.6498   0.3735 H              1 S1                 0.0000
     25 ****         3.7607   0.8431  -0.1605 H              1 S1                 0.0000
     26 ****         2.6226  -1.0847   1.7354 H              1 S1                 0.0000
     27 ****         1.5442   1.5238   0.9508 H              1 S1                 0.0000
     28 ****         0.8762   0.4465   2.1623 H              1 S1                 0.0000
     29 ****         3.2518   0.3871   2.1049 H              1 S1                 0.0000
     30 ****        -6.0880   1.4369  -0.3540 LP             1 S1                 0.0000
     31 ****        -4.6766   2.4357  -0.4552 LP             1 S1                 0.0000
     32 ****        -0.1490   2.2419  -0.6787 LP             1 S1                 0.0000
@<TRIPOS>BOND
    1    1    2 am    
    2    1   16 1     
    3    1   17 1     
    4    2    3 2     
    5    2    4 1     
    6    4   14 1     
    7    4    5 2     
    8    5    6 1     
    9    5   18 1     
   10    6    7 1     
   11    6   13 2     
   12    7   12 1     
   13    7    8 1     
   14    7   19 1     
   15    8    9 1     
   16    8   20 1     
   17    8   21 1     
   18    9   10 1     
   19    9   22 1     
   20    9   23 1     
   21   10   11 1     
   22   10   24 1     
   23   10   25 1     
   24   11   12 1     
   25   11   26 1     
   26   11   29 1     
   27   12   27 1     
   28   12   28 1     
   29   13   14 1     
   30   14   15 1     
   31    3   30 1     
   32    3   31 1     
   33   13   32 1     
@<TRIPOS>SUBSTRUCTURE
      1 S1             1
@<TRIPOS>SET
LONE_PAIRS      STATIC     ATOMS    <user>   **** ""
3 30 31 32
DONOR_HYDROGENS      STATIC     ATOMS    <user>   **** ""
5 16 17 26 29 15
ATOM$BLUE        STATIC     ATOMS    COLORGROUP SYSTEM
3 30 31 32
ATOM$RED        STATIC     ATOMS    COLORGROUP SYSTEM
5 16 17 26 29 15
