AV-unprocessed.smi:2329|AV-procd|sdf|9306|dock6
  -GOLD-   2272012523D 1   1.00000     0.00000
 Structure written by MMmdl.
 45 48  0  0  0  0  0  0  0  0  1 V2000
  145.2741  131.6482  150.9464 C   0  0  0  0  0  0  0  0  0  0  0  0
  144.8624  133.0216  151.4335 C   0  0  0  0  0  0  0  0  0  0  0  0
  143.5030  133.3801  151.5217 C   0  0  0  0  0  0  0  0  0  0  0  0
  143.1864  134.6698  151.9847 C   0  0  0  0  0  0  0  0  0  0  0  0
  144.2345  135.5408  152.3391 C   0  0  0  0  0  0  0  0  0  0  0  0
  145.5723  135.1017  152.2226 C   0  0  0  0  0  0  0  0  0  0  0  0
  146.5509  136.0531  152.6107 N   0  0  0  0  0  0  0  0  0  0  0  0
  146.4060  137.1286  153.4096 C   0  0  0  0  0  0  0  0  0  0  0  0
  145.3698  137.4333  153.9975 O   0  0  0  0  0  0  0  0  0  0  0  0
  147.5167  137.8791  153.5195 N   0  0  0  0  0  0  0  0  0  0  0  0
  147.6909  139.1034  154.3037 C   0  0  2  0  0  0  0  0  0  0  0  0
  147.7772  140.3521  153.4107 C   0  0  1  0  0  0  0  0  0  0  0  0
  146.6933  141.3936  153.4741 C   0  0  0  0  0  0  0  0  0  0  0  0
  147.2624  142.4184  154.4592 C   0  0  0  0  0  0  0  0  0  0  0  0
  148.2341  141.6947  155.2110 O   0  0  0  0  0  0  0  0  0  0  0  0
  148.9101  140.8194  154.3112 C   0  0  1  0  0  0  0  0  0  0  0  0
  149.1368  139.3701  154.7915 C   0  0  0  0  0  0  0  0  0  0  0  0
  149.4682  139.1753  156.2692 C   0  0  0  0  0  0  0  0  0  0  0  0
  150.9936  139.2189  156.3984 C   0  0  0  0  0  0  0  0  0  0  0  0
  151.5389  138.9010  155.0025 C   0  0  0  0  0  0  0  0  0  0  0  0
  150.3083  138.6363  154.1322 C   0  0  0  0  0  0  0  0  0  0  0  0
  145.8680  133.8562  151.7749 N   0  0  0  0  0  0  0  0  0  0  0  0
  144.4541  131.1553  150.4233 H   0  0  0  0  0  0  0  0  0  0  0  0
  145.5683  131.0225  151.7893 H   0  0  0  0  0  0  0  0  0  0  0  0
  146.1184  131.7199  150.2599 H   0  0  0  0  0  0  0  0  0  0  0  0
  142.7222  132.6874  151.2434 H   0  0  0  0  0  0  0  0  0  0  0  0
  142.1571  134.9861  152.0677 H   0  0  0  0  0  0  0  0  0  0  0  0
  144.0089  136.5346  152.6980 H   0  0  0  0  0  0  0  0  0  0  0  0
  147.4668  135.9224  152.2071 H   0  0  0  0  0  0  0  0  0  0  0  0
  148.3235  137.5721  152.9956 H   0  0  0  0  0  0  0  0  0  0  0  0
  146.9561  139.2320  155.1017 H   0  0  0  0  0  0  0  0  0  0  0  0
  148.1362  140.1270  152.4046 H   0  0  0  0  0  0  0  0  0  0  0  0
  146.4854  141.8430  152.5027 H   0  0  0  0  0  0  0  0  0  0  0  0
  145.7639  140.9661  153.8515 H   0  0  0  0  0  0  0  0  0  0  0  0
  147.7589  143.2293  153.9243 H   0  0  0  0  0  0  0  0  0  0  0  0
  146.4979  142.8524  155.1041 H   0  0  0  0  0  0  0  0  0  0  0  0
  149.7390  141.2900  153.7806 H   0  0  0  0  0  0  0  0  0  0  0  0
  148.9938  139.9179  156.9109 H   0  0  0  0  0  0  0  0  0  0  0  0
  149.1103  138.2024  156.6055 H   0  0  0  0  0  0  0  0  0  0  0  0
  151.3199  140.2127  156.7063 H   0  0  0  0  0  0  0  0  0  0  0  0
  151.3479  138.5099  157.1470 H   0  0  0  0  0  0  0  0  0  0  0  0
  152.0927  139.7584  154.6186 H   0  0  0  0  0  0  0  0  0  0  0  0
  152.2173  138.0473  155.0098 H   0  0  0  0  0  0  0  0  0  0  0  0
  150.1252  137.5616  154.1115 H   0  0  0  0  0  0  0  0  0  0  0  0
  150.4731  138.9489  153.1004 H   0  0  0  0  0  0  0  0  0  0  0  0
  1  2  1  0  0  0  0
  1 23  1  0  0  0  0
  1 24  1  0  0  0  0
  1 25  1  0  0  0  0
  2 22  1  0  0  0  0
  2  3  2  0  0  0  0
  3  4  1  0  0  0  0
  3 26  1  0  0  0  0
  4  5  2  0  0  0  0
  4 27  1  0  0  0  0
  5  6  1  0  0  0  0
  5 28  1  0  0  0  0
  6  7  1  0  0  0  0
  6 22  2  0  0  0  0
  7  8  1  0  0  0  0
  7 29  1  0  0  0  0
  8  9  2  0  0  0  0
  8 10  1  0  0  0  0
 10 11  1  0  0  0  0
 10 30  1  0  0  0  0
 11 17  1  0  0  0  0
 11 12  1  0  0  0  0
 11 31  1  0  0  0  0
 12 16  1  0  0  0  0
 12 13  1  0  0  0  0
 12 32  1  0  0  0  0
 13 14  1  0  0  0  0
 13 33  1  0  0  0  0
 13 34  1  0  0  0  0
 14 15  1  0  0  0  0
 14 35  1  0  0  0  0
 14 36  1  0  0  0  0
 15 16  1  0  0  0  0
 16 17  1  0  0  0  0
 16 37  1  0  0  0  0
 17 21  1  0  0  0  0
 17 18  1  0  0  0  0
 18 19  1  0  0  0  0
 18 38  1  0  0  0  0
 18 39  1  0  0  0  0
 19 20  1  0  0  0  0
 19 40  1  0  0  0  0
 19 41  1  0  0  0  0
 20 21  1  0  0  0  0
 20 42  1  0  0  0  0
 20 43  1  0  0  0  0
 21 44  1  0  0  0  0
 21 45  1  0  0  0  0
M  END
> <s_m_source_file>
AV-unprocessed.smi

> <i_m_source_file_index>
2329

> <i_lp_mmshare_version>
43012

> <i_f3d_flags>
0

> <s_epik_input>
W0NIM11jMVtjSF1bY0hdW2NIXWMobjEpW05IXUMoPU8pW05IXVtDQEBIXTJbQ0BASF0oW0NIMl1bQ0gyXU8zKVtDQEhdM0MyNFtDSDJdW0NIMl1bQ0gyXVtDSDJdNA==

> <s_epik_cmdline>
J2VwaWtfcHl0aG9uJywgJy1waCcsICc3LjAnLCAnLXRuJywgJzgnLCAnLW1hJywgJzIwMCcsICctbWV0YWxfYmluZGluZycsICctaW1hZScsICc8aW5maWxlLm1hZT4nLCAnLW9tYWUnLCAnPG91dGZpbGUubWFlPic=

> <r_lp_tautomer_probability>
1

> <r_epik_Ionization_Penalty>
8.97002e-05

> <r_epik_Ionization_Penalty_Charging>
0

> <r_epik_Ionization_Penalty_Neutral>
8.97002e-05

> <r_epik_State_Penalty>
-0

> <r_epik_Charging_Adjusted_Penalty>
0

> <i_epik_Tot_Q>
0

> <i_epik_Tot_abs_Q>
0

> <r_epik_Metal_State_Penalty>
-0

> <b_epik_Metal_Only>
0

> <s_lp_Force_Field>
OPLS_2005

> <r_lp_Energy>
64.3151

> <b_lp_Chiralities_Consistent>
1

> <s_lp_Variant>
AV-unprocessed.smi:2329-5

> <Gold.Version>
5.8.1

> <Gold.Id.Protein>
6NUR|6NUR_protein|mol2

> <Gold.PLP.Fitness>
38.1533

> <Gold.PLP.PLP>
-32.9842

> <Gold.PLP.part.hbond>
-1.9205

> <Gold.PLP.part.metal>
0.0000

> <Gold.PLP.part.buried>
-1.9974

> <Gold.PLP.part.nonpolar>
-30.8353

> <Gold.PLP.part.repulsive>
0.5578

> <Gold.PLP.ligand.clash>
0.0000

> <Gold.PLP.ligand.torsion>
0.3512

> <Gold.PLP.Chemscore.Hbond>
1.8960

> <Gold.PLP.Chemscore.CHOScore>
0.0000

> <Gold.PLP.Chemscore.Metal>
0.0000

> <Gold.Chemscore.Hbonds>
donor molecule, donor type, donor heavy atom, donor atom, acceptor molecule, acceptor atom, score
      L1  H     7    29       P1  7948  1.00
      L1  H    10    30       P1  7948  0.90

> <Gold.PLP.Chemscore.Internal.Correction>
0.1834

> <Gold.Rescore>
     Score         DG    S(hbond)    S(metal)    S(lipo)     H(rot)  DE(clash)    DE(int)     intcor
     17.33     -20.22       1.94        0.00      92.43       1.00       1.11       1.78       ----

> <Gold.Chemscore.Fitness>
17.3327

> <Gold.Chemscore.DG>
-20.2232

> <Gold.Chemscore.ZeroCoef>
-5.4800

> <Gold.Chemscore.Hbond>
1.9427

> <Gold.Chemscore.Metal>
0.0000

> <Gold.Chemscore.Lipo>
92.4314

> <Gold.Chemscore.Internal_Hbond>
0.0000

> <Gold.Chemscore.DEClash>
1.1066

> <Gold.Chemscore.DEInternal>
1.7840

> <Gold.Chemscore.Rot>
1.0000

> <Gold.Chemscore.Internal.Correction>
   9.000000E+99

> <Gold.Chemscore.Hbonds>
donor molecule, donor type, donor heavy atom, donor atom, acceptor molecule, acceptor atom, score
      L1  H     7    29       P1  7948  0.93
      L1  H    10    30       P1  7948  0.86

> <Gold.Chemscore.Hbond.Weighted>
-6.4888

> <Gold.Chemscore.Metal.Weighted>
-0.0000

> <Gold.Chemscore.Lipo.Weighted>
-10.8145

> <Gold.Chemscore.Internal_Hbond.Weighted>
0.0000

> <Gold.Chemscore.DEClash.Weighted>
1.1066

> <Gold.Chemscore.DEInternal.Weighted>
1.7840

> <Gold.Chemscore.Rot.Weighted>
2.5600

> <Gold.Chemscore.Internal.Correction.Weighted>
   9.000000E+99

> <Gold.Protein.RotatedTorsions>
[ 6907 6896 6895 6894 ] final  115.75 input  -60.11 | X-H torsion
[ 7974 7965 7964 7962 ] final  -26.33 input  175.53 | X-H torsion
[ 8008 7997 7996 7995 ] final   78.33 input   59.86 | X-H torsion
[ 10167 10162 10161 10158 ] final -136.30 input  -65.29 | X-H torsion
[ 10718 10713 10712 10709 ] final  -80.95 input   66.30 | X-H torsion
[ 10763 10752 10751 10750 ] final   83.95 input  -60.55 | X-H torsion
[ 11005 11000 10999 10996 ] final   98.16 input  -57.11 | X-H torsion

> <Gold.Protein.ActiveResidues>
 VAL166  LYS551  ARG553  GLY616  TRP617  ASP618  TYR619  PRO620  LYS621  CYS622 
 ASP623  PHE694  ASN695  SER759  ASP760  ASP761  ALA762  ILE779  LEU786  VAL792 
 PHE793  MET794  SER795  GLU796  ALA797  LYS798  CYS799  TRP800  GLU811  SER814 

> <Gold.Protein.RotatedAtoms>
  152.4722  133.8056  159.6975 H   0  0  0  0  0  0  0  0  0  0  0  0  # atno 6907 bound_to 6896
  150.8718  133.7486  159.2965 H   0  0  0  0  0  0  0  0  0  0  0  0  # atno 6908 bound_to 6896
  151.5018  135.1065  159.9883 H   0  0  0  0  0  0  0  0  0  0  0  0  # atno 6909 bound_to 6896
  146.1432  140.5005  142.8643 H   0  0  0  0  0  0  0  0  0  0  0  0  # atno 7974 bound_to 7965
  155.8542  140.3457  155.5713 H   0  0  0  0  0  0  0  0  0  0  0  0  # atno 8008 bound_to 7997
  155.8005  140.0884  157.1979 H   0  0  0  0  0  0  0  0  0  0  0  0  # atno 8009 bound_to 7997
  154.4009  140.1466  156.3256 H   0  0  0  0  0  0  0  0  0  0  0  0  # atno 8010 bound_to 7997
  139.8692  143.6979  152.2642 H   0  0  0  0  0  0  0  0  0  0  0  0  # atno 10167 bound_to 10162
  156.0060  130.4589  150.3879 H   0  0  0  0  0  0  0  0  0  0  0  0  # atno 10718 bound_to 10713
  153.1337  135.4672  154.9389 H   0  0  0  0  0  0  0  0  0  0  0  0  # atno 10763 bound_to 10752
  154.7687  135.3152  154.8236 H   0  0  0  0  0  0  0  0  0  0  0  0  # atno 10764 bound_to 10752
  153.8773  135.6897  153.4823 H   0  0  0  0  0  0  0  0  0  0  0  0  # atno 10765 bound_to 10752
  139.8773  134.9036  156.4415 H   0  0  0  0  0  0  0  0  0  0  0  0  # atno 11005 bound_to 11000
  144.7816  140.5853  143.6601 LP  0  0  0  0  0  0  0  0  0  0  0  0  # atno 17320 bound_to 7965
  145.4997  139.1484  143.3664 LP  0  0  0  0  0  0  0  0  0  0  0  0  # atno 17321 bound_to 7965
  139.7300  144.7584  151.0817 LP  0  0  0  0  0  0  0  0  0  0  0  0  # atno 17342 bound_to 10162
  140.7763  143.5100  150.9664 LP  0  0  0  0  0  0  0  0  0  0  0  0  # atno 17343 bound_to 10162
  157.1955  131.0425  151.2678 LP  0  0  0  0  0  0  0  0  0  0  0  0  # atno 17370 bound_to 10713
  157.4023  130.7340  149.6776 LP  0  0  0  0  0  0  0  0  0  0  0  0  # atno 17371 bound_to 10713
  140.8996  133.7789  155.9665 LP  0  0  0  0  0  0  0  0  0  0  0  0  # atno 17394 bound_to 11000
  140.8665  134.2777  157.5210 LP  0  0  0  0  0  0  0  0  0  0  0  0  # atno 17395 bound_to 11000

$$$$
