#       Name:                AV-unprocessed.smi:2528
#       Creating user name   scv26
#       Creation time:       Fri Mar 27 13:59:58 2020


#       File generated by GOLD software.
#

@<TRIPOS>MOLECULE
AV-unprocessed.smi:2528
    49    51     1
SMALL
NO_CHARGES


@<TRIPOS>ATOM
      1 ****        -1.3761   1.9455   1.7338 O.2            1 S1                 0.0000
      2 ****        -1.8985   0.8347   1.8338 C.2            1 S1                 0.0000
      3 ****        -1.1983  -0.3050   1.9232 N.am           1 S1                 0.0000
      4 ****         0.2576  -0.3967   1.9049 C.3            1 S1                 0.0000
      5 ****         0.8103  -0.3599   0.4704 C.3            1 S1                 0.0000
      6 ****         2.3501  -0.3786   0.4459 C.3            1 S1                 0.0000
      7 ****         2.8716  -0.4207  -0.9145 N.3            1 S1                 0.0000
      8 ****         4.3333  -0.4489  -0.9232 C.3            1 S1                 0.0000
      9 ****         4.9098  -0.4559  -2.3478 C.3            1 S1                 0.0000
     10 ****         4.3518  -1.6454  -3.1422 C.3            1 S1                 0.0000
     11 ****         2.8164  -1.6439  -3.0846 C.3            1 S1                 0.0000
     12 ****         2.3176  -1.5765  -1.6262 C.3            1 S1                 0.0000
     13 ****         0.7761  -1.5644  -1.5787 C.3            1 S1                 0.0000
     14 ****         0.3334  -1.5082  -0.2269 O.3            1 S1                 0.0000
     15 ****        -3.2215   0.5962   1.8631 N.am           1 S1                 0.0000
     16 ****        -4.2853   1.5371   1.8351 C.ar           1 S1                 0.0000
     17 ****        -5.5818   0.9755   1.8731 C.ar           1 S1                 0.0000
     18 ****        -6.7057   1.8241   1.8605 C.ar           1 S1                 0.0000
     19 ****        -6.5044   3.2149   1.8093 C.ar           1 S1                 0.0000
     20 ****        -5.1812   3.6920   1.7715 C.ar           1 S1                 0.0000
     21 ****        -4.1025   2.8805   1.7840 N.ar           1 S1                 0.0000
     22 ****        -1.7062  -1.1742   1.9957 H              1 S1                 0.0000
     23 ****         0.6867   0.4128   2.4979 H              1 S1                 0.0000
     24 ****         0.5497  -1.3263   2.3942 H              1 S1                 0.0000
     25 ****         0.4551   0.5409  -0.0338 H              1 S1                 0.0000
     26 ****         2.7319   0.5060   0.9572 H              1 S1                 0.0000
     27 ****         2.7112  -1.2425   1.0065 H              1 S1                 0.0000
     28 ****         4.7196   0.4193  -0.3880 H              1 S1                 0.0000
     29 ****         4.6898  -1.3277  -0.3835 H              1 S1                 0.0000
     30 ****         4.6531   0.4767  -2.8520 H              1 S1                 0.0000
     31 ****         5.9984  -0.5034  -2.3136 H              1 S1                 0.0000
     32 ****         4.6927  -1.6048  -4.1770 H              1 S1                 0.0000
     33 ****         4.7333  -2.5771  -2.7225 H              1 S1                 0.0000
     34 ****         2.4330  -0.7904  -3.6457 H              1 S1                 0.0000
     35 ****         2.4287  -2.5373  -3.5750 H              1 S1                 0.0000
     36 ****         2.6511  -2.4846  -1.1202 H              1 S1                 0.0000
     37 ****         0.3738  -0.7142  -2.1321 H              1 S1                 0.0000
     38 ****         0.3730  -2.4659  -2.0405 H              1 S1                 0.0000
     39 ****        -3.5000  -0.3714   1.9296 H              1 S1                 0.0000
     40 ****        -5.7188  -0.0955   1.9137 H              1 S1                 0.0000
     41 ****        -7.7044   1.4142   1.8911 H              1 S1                 0.0000
     42 ****        -7.3411   3.8977   1.7998 H              1 S1                 0.0000
     43 ****        -4.9834   4.7529   1.7317 H              1 S1                 0.0000
     44 ****        -0.3798   2.0297   1.7160 LP             1 S1                 0.0000
     45 ****        -1.9482   2.7632   1.6704 LP             1 S1                 0.0000
     46 ****         2.5887   0.4134  -1.3878 LP             1 S1                 0.0000
     47 ****        -0.6664  -1.4924  -0.2198 LP             1 S1                 0.0000
     48 ****         0.6572  -2.3264   0.2484 LP             1 S1                 0.0000
     49 ****        -3.1798   3.2649   1.7560 LP             1 S1                 0.0000
@<TRIPOS>BOND
    1    1    2 2     
    2    2    3 am    
    3    2   15 am    
    4    3    4 1     
    5    3   22 1     
    6    4    5 1     
    7    4   23 1     
    8    4   24 1     
    9    5   14 1     
   10    5    6 1     
   11    5   25 1     
   12    6    7 1     
   13    6   26 1     
   14    6   27 1     
   15    7   12 1     
   16    7    8 1     
   17    8    9 1     
   18    8   28 1     
   19    8   29 1     
   20    9   10 1     
   21    9   30 1     
   22    9   31 1     
   23   10   11 1     
   24   10   32 1     
   25   10   33 1     
   26   11   12 1     
   27   11   34 1     
   28   11   35 1     
   29   12   13 1     
   30   12   36 1     
   31   13   14 1     
   32   13   37 1     
   33   13   38 1     
   34   15   16 1     
   35   15   39 1     
   36   16   21 ar    
   37   16   17 ar    
   38   17   18 ar    
   39   17   40 1     
   40   18   19 ar    
   41   18   41 1     
   42   19   20 ar    
   43   19   42 1     
   44   20   21 ar    
   45   20   43 1     
   46    1   44 1     
   47    1   45 1     
   48    7   46 1     
   49   14   47 1     
   50   14   48 1     
   51   21   49 1     
@<TRIPOS>SUBSTRUCTURE
      1 S1             1
@<TRIPOS>SET
LONE_PAIRS      STATIC     ATOMS    <user>   **** ""
6 44 45 46 47 48 49
DONOR_HYDROGENS      STATIC     ATOMS    <user>   **** ""
2 22 39
ATOM$BLUE        STATIC     ATOMS    COLORGROUP SYSTEM
6 44 45 46 47 48 49
ATOM$RED        STATIC     ATOMS    COLORGROUP SYSTEM
2 22 39
