AV-unprocessed.smi:1|AV-procd|sdf|13|dock9
  -GOLD-   2262015103D 1   1.00000     0.00000
 Structure written by MMmdl.
 57 62  0  0  0  0  0  0  0  0  1 V2000
  154.2205  141.0931  160.4995 O   0  0  0  0  0  0  0  0  0  0  0  0
  153.2264  141.4428  159.8574 C   0  0  0  0  0  0  0  0  0  0  0  0
  152.4092  140.6799  159.0335 N   0  0  0  0  0  0  0  0  0  0  0  0
  152.3319  139.3945  159.2014 C   0  0  0  0  0  0  0  0  0  0  0  0
  152.9388  138.5218  160.1133 N   0  0  0  0  0  0  0  0  0  0  0  0
  152.7573  137.1318  160.1670 C   0  0  0  0  0  0  0  0  0  0  0  0
  151.9872  136.4484  159.3633 N   0  0  0  0  0  0  0  0  0  0  0  0
  151.3546  137.2658  158.4374 C   0  0  0  0  0  0  0  0  0  0  0  0
  151.4514  138.6335  158.2882 C   0  0  0  0  0  0  0  0  0  0  0  0
  150.6525  139.0755  157.2399 N   0  0  0  0  0  0  0  0  0  0  0  0
  150.1037  137.9476  156.7979 C   0  0  0  0  0  0  0  0  0  0  0  0
  150.4724  136.8283  157.4488 N   0  0  0  0  0  0  0  0  0  0  0  0
  149.9873  135.4443  157.1472 C   0  0  2  0  0  0  0  0  0  0  0  0
  150.3036  135.1232  155.8245 O   0  0  0  0  0  0  0  0  0  0  0  0
  149.1209  134.8982  155.0615 C   0  0  1  0  0  0  0  0  0  0  0  0
  149.3650  133.8604  153.9599 C   0  0  0  0  0  0  0  0  0  0  0  0
  148.3040  133.9262  153.0218 O   0  0  0  0  0  0  0  0  0  0  0  0
  147.6047  132.8172  152.7151 C   0  0  0  0  0  0  0  0  0  0  0  0
  147.8429  131.7062  153.1934 O   0  0  0  0  0  0  0  0  0  0  0  0
  146.5119  133.0743  151.7331 C   0  0  0  0  0  0  0  0  0  0  0  0
  146.2719  134.3974  151.2940 C   0  0  0  0  0  0  0  0  0  0  0  0
  145.2441  134.6717  150.3707 C   0  0  0  0  0  0  0  0  0  0  0  0
  144.4438  133.6260  149.8752 C   0  0  0  0  0  0  0  0  0  0  0  0
  144.6724  132.3055  150.3040 C   0  0  0  0  0  0  0  0  0  0  0  0
  145.6999  132.0290  151.2270 C   0  0  0  0  0  0  0  0  0  0  0  0
  148.0771  134.4876  156.0986 C   0  0  1  0  0  0  0  0  0  0  0  0
  148.1979  133.1160  156.4394 O   0  0  0  0  0  0  0  0  0  0  0  0
  148.0523  132.9701  158.0970 S   0  0  0  0  0  0  0  0  0  0  0  0
  146.6927  132.4993  158.4023 O   0  0  0  0  0  0  0  0  0  0  0  0
  149.2575  132.2989  158.6075 O   0  0  0  0  0  0  0  0  0  0  0  0
  148.1451  134.5918  158.4926 O   0  0  0  0  0  0  0  0  0  0  0  0
  148.4660  135.3227  157.3218 C   0  0  1  0  0  0  0  0  0  0  0  0
  152.7878  142.8665  159.9688 C   0  0  0  0  0  0  0  0  0  0  0  0
  152.4042  143.3929  161.2205 C   0  0  0  0  0  0  0  0  0  0  0  0
  151.9843  144.7336  161.3239 C   0  0  0  0  0  0  0  0  0  0  0  0
  151.9448  145.5504  160.1772 C   0  0  0  0  0  0  0  0  0  0  0  0
  152.3243  145.0264  158.9261 C   0  0  0  0  0  0  0  0  0  0  0  0
  152.7446  143.6861  158.8212 C   0  0  0  0  0  0  0  0  0  0  0  0
  153.3262  136.6400  160.9571 H   0  0  0  0  0  0  0  0  0  0  0  0
  149.4099  137.9359  155.9702 H   0  0  0  0  0  0  0  0  0  0  0  0
  150.5522  134.7940  157.8167 H   0  0  0  0  0  0  0  0  0  0  0  0
  148.8068  135.8386  154.6100 H   0  0  0  0  0  0  0  0  0  0  0  0
  150.3229  134.0375  153.4690 H   0  0  0  0  0  0  0  0  0  0  0  0
  149.3947  132.8600  154.3938 H   0  0  0  0  0  0  0  0  0  0  0  0
  146.8728  135.2167  151.6616 H   0  0  0  0  0  0  0  0  0  0  0  0
  145.0697  135.6861  150.0435 H   0  0  0  0  0  0  0  0  0  0  0  0
  143.6553  133.8366  149.1679 H   0  0  0  0  0  0  0  0  0  0  0  0
  144.0582  131.5020  149.9251 H   0  0  0  0  0  0  0  0  0  0  0  0
  145.8473  131.0044  151.5359 H   0  0  0  0  0  0  0  0  0  0  0  0
  147.0574  134.6841  155.7656 H   0  0  0  0  0  0  0  0  0  0  0  0
  147.9856  136.3014  157.3067 H   0  0  0  0  0  0  0  0  0  0  0  0
  152.4291  142.7715  162.1040 H   0  0  0  0  0  0  0  0  0  0  0  0
  151.6904  145.1344  162.2826 H   0  0  0  0  0  0  0  0  0  0  0  0
  151.6216  146.5778  160.2567 H   0  0  0  0  0  0  0  0  0  0  0  0
  152.2913  145.6521  158.0465 H   0  0  0  0  0  0  0  0  0  0  0  0
  153.0314  143.2902  157.8576 H   0  0  0  0  0  0  0  0  0  0  0  0
  153.5638  138.9324  160.7924 H   0  0  0  0  0  0  0  0  0  0  0  0
  1  2  2  0  0  0  0
  2  3  1  0  0  0  0
  2 33  1  0  0  0  0
  3  4  2  0  0  0  0
  4  9  1  0  0  0  0
  4  5  1  0  0  0  0
  5  6  1  0  0  0  0
  5 57  1  0  0  0  0
  6  7  2  0  0  0  0
  6 39  1  0  0  0  0
  7  8  1  0  0  0  0
  8 12  1  0  0  0  0
  8  9  2  0  0  0  0
  9 10  1  0  0  0  0
 10 11  2  0  0  0  0
 11 12  1  0  0  0  0
 11 40  1  0  0  0  0
 12 13  1  0  0  0  0
 13 32  1  0  0  0  0
 13 14  1  0  0  0  0
 13 41  1  0  0  0  0
 14 15  1  0  0  0  0
 15 16  1  0  0  0  0
 15 26  1  0  0  0  0
 15 42  1  0  0  0  0
 16 17  1  0  0  0  0
 16 43  1  0  0  0  0
 16 44  1  0  0  0  0
 17 18  1  0  0  0  0
 18 19  2  0  0  0  0
 18 20  1  0  0  0  0
 20 25  1  0  0  0  0
 20 21  2  0  0  0  0
 21 22  1  0  0  0  0
 21 45  1  0  0  0  0
 22 23  2  0  0  0  0
 22 46  1  0  0  0  0
 23 24  1  0  0  0  0
 23 47  1  0  0  0  0
 24 25  2  0  0  0  0
 24 48  1  0  0  0  0
 25 49  1  0  0  0  0
 26 32  1  0  0  0  0
 26 27  1  0  0  0  0
 26 50  1  0  0  0  0
 27 28  1  0  0  0  0
 28 29  2  0  0  0  0
 28 30  2  0  0  0  0
 28 31  1  0  0  0  0
 31 32  1  0  0  0  0
 32 51  1  0  0  0  0
 33 38  1  0  0  0  0
 33 34  2  0  0  0  0
 34 35  1  0  0  0  0
 34 52  1  0  0  0  0
 35 36  2  0  0  0  0
 35 53  1  0  0  0  0
 36 37  1  0  0  0  0
 36 54  1  0  0  0  0
 37 38  2  0  0  0  0
 37 55  1  0  0  0  0
 38 56  1  0  0  0  0
M  END
> <s_m_source_file>
AV-unprocessed.smi

> <i_m_source_file_index>
1

> <i_lp_mmshare_version>
43012

> <i_f3d_flags>
0

> <s_epik_input>
W2NIXTFbY0hdW2NIXVtjSF1bY0hdYzFDKD1PKVtOSF1jKG5bY0hdbjIpYyhjMjMpbltjSF1uM1tDQEBIXShbQ0BIXShbQ0BIXTQ1KU9TKE81KSg9Tyk9TylPW0NASF00W0NIMl1PQyg9TyljNltjSF1bY0hdW2NIXVtjSF1bY0hdNg==

> <s_epik_cmdline>
J2VwaWtfcHl0aG9uJywgJy1waCcsICc3LjAnLCAnLXRuJywgJzgnLCAnLW1hJywgJzIwMCcsICctbWV0YWxfYmluZGluZycsICctaW1hZScsICc8aW5maWxlLm1hZT4nLCAnLW9tYWUnLCAnPG91dGZpbGUubWFlPic=

> <r_epik_Ionization_Penalty>
0.122545

> <r_epik_Ionization_Penalty_Charging>
0.122545

> <r_epik_Ionization_Penalty_Neutral>
7.8935e-16

> <r_epik_State_Penalty>
2.69178

> <r_epik_Charging_Adjusted_Penalty>
2.81433

> <i_epik_Tot_Q>
0

> <i_epik_Tot_abs_Q>
0

> <r_epik_Metal_State_Penalty>
3.02665

> <b_epik_Metal_Only>
0

> <s_epik_Chemistry_Notes>
This compound has an ester and may undergo hydrolysis at high or low pH. This compound contains an acetal/aminal-like group ( X-CH(R)-Y where X, Y are N, S, or O) that may be acid/base labile, releasing an aldehyde.

> <s_lp_Force_Field>
OPLS_2005

> <r_lp_Energy>
62.4827

> <b_lp_Chiralities_Consistent>
1

> <s_lp_Variant>
AV-unprocessed.smi:1-13

> <Gold.Version>
5.8.1

> <Gold.Id.Protein>
6NUR|6NUR_protein|mol2

> <Gold.PLP.Fitness>
62.2175

> <Gold.PLP.PLP>
-60.6297

> <Gold.PLP.part.hbond>
-2.2743

> <Gold.PLP.part.metal>
0.0000

> <Gold.PLP.part.buried>
-9.6300

> <Gold.PLP.part.nonpolar>
-51.1032

> <Gold.PLP.part.repulsive>
1.6483

> <Gold.PLP.ligand.clash>
0.0000

> <Gold.PLP.ligand.torsion>
1.7941

> <Gold.PLP.Chemscore.Hbond>
1.6800

> <Gold.PLP.Chemscore.CHOScore>
0.0000

> <Gold.PLP.Chemscore.Metal>
0.0000

> <Gold.Chemscore.Hbonds>
donor molecule, donor type, donor heavy atom, donor atom, acceptor molecule, acceptor atom, score
      P1  H  6896  6908       L1    30  0.57
      P1  H  6896  6909       L1     7  0.83

> <Gold.PLP.Chemscore.Internal.Correction>
0.1359

> <Gold.Rescore>
     Score         DG    S(hbond)    S(metal)    S(lipo)     H(rot)  DE(clash)    DE(int)     intcor
     19.36     -21.57       1.64        0.00     137.56       2.13       0.09       2.13       ----

> <Gold.Chemscore.Fitness>
19.3564

> <Gold.Chemscore.DG>
-21.5742

> <Gold.Chemscore.ZeroCoef>
-5.4800

> <Gold.Chemscore.Hbond>
1.6351

> <Gold.Chemscore.Metal>
0.0000

> <Gold.Chemscore.Lipo>
137.5574

> <Gold.Chemscore.Internal_Hbond>
0.0000

> <Gold.Chemscore.DEClash>
0.0917

> <Gold.Chemscore.DEInternal>
2.1262

> <Gold.Chemscore.Rot>
2.1333

> <Gold.Chemscore.Internal.Correction>
   9.000000E+99

> <Gold.Chemscore.Hbonds>
donor molecule, donor type, donor heavy atom, donor atom, acceptor molecule, acceptor atom, score
      P1  H  6896  6908       L1    30  0.52
      P1  H  6896  6909       L1     7  0.70

> <Gold.Chemscore.Hbond.Weighted>
-5.4614

> <Gold.Chemscore.Metal.Weighted>
-0.0000

> <Gold.Chemscore.Lipo.Weighted>
-16.0942

> <Gold.Chemscore.Internal_Hbond.Weighted>
0.0000

> <Gold.Chemscore.DEClash.Weighted>
0.0917

> <Gold.Chemscore.DEInternal.Weighted>
2.1262

> <Gold.Chemscore.Rot.Weighted>
5.4614

> <Gold.Chemscore.Internal.Correction.Weighted>
   9.000000E+99

> <Gold.Protein.RotatedTorsions>
[ 6907 6896 6895 6894 ] final  111.55 input  -60.11 | X-H torsion
[ 7974 7965 7964 7962 ] final   35.65 input  175.53 | X-H torsion
[ 8008 7997 7996 7995 ] final  -93.21 input   59.86 | X-H torsion
[ 10167 10162 10161 10158 ] final -124.08 input  -65.29 | X-H torsion
[ 10718 10713 10712 10709 ] final -148.04 input   66.30 | X-H torsion
[ 10763 10752 10751 10750 ] final  155.44 input  -60.55 | X-H torsion
[ 11005 11000 10999 10996 ] final   40.27 input  -57.11 | X-H torsion

> <Gold.Protein.ActiveResidues>
 VAL166  LYS551  ARG553  GLY616  TRP617  ASP618  TYR619  PRO620  LYS621  CYS622 
 ASP623  PHE694  ASN695  SER759  ASP760  ASP761  ALA762  ILE779  LEU786  VAL792 
 PHE793  MET794  SER795  GLU796  ALA797  LYS798  CYS799  TRP800  GLU811  SER814 

> <Gold.Protein.RotatedAtoms>
  152.4963  133.8641  159.7264 H   0  0  0  0  0  0  0  0  0  0  0  0  # atno 6907 bound_to 6896
  150.9145  133.6947  159.2853 H   0  0  0  0  0  0  0  0  0  0  0  0  # atno 6908 bound_to 6896
  151.4346  135.1018  159.9704 H   0  0  0  0  0  0  0  0  0  0  0  0  # atno 6909 bound_to 6896
  146.1268  139.6116  142.9253 H   0  0  0  0  0  0  0  0  0  0  0  0  # atno 7974 bound_to 7965
  154.7329  140.0501  157.0742 H   0  0  0  0  0  0  0  0  0  0  0  0  # atno 8008 bound_to 7997
  155.0279  140.3154  155.4750 H   0  0  0  0  0  0  0  0  0  0  0  0  # atno 8009 bound_to 7997
  156.2846  140.2155  156.5399 H   0  0  0  0  0  0  0  0  0  0  0  0  # atno 8010 bound_to 7997
  139.9966  143.5584  152.2320 H   0  0  0  0  0  0  0  0  0  0  0  0  # atno 10167 bound_to 10162
  156.4152  130.8001  151.2221 H   0  0  0  0  0  0  0  0  0  0  0  0  # atno 10718 bound_to 10713
  154.1684  135.2806  155.3088 H   0  0  0  0  0  0  0  0  0  0  0  0  # atno 10763 bound_to 10752
  154.6094  135.5504  153.7460 H   0  0  0  0  0  0  0  0  0  0  0  0  # atno 10764 bound_to 10752
  153.0172  135.6411  154.1825 H   0  0  0  0  0  0  0  0  0  0  0  0  # atno 10765 bound_to 10752
  140.1947  134.3944  155.8128 H   0  0  0  0  0  0  0  0  0  0  0  0  # atno 11005 bound_to 11000
  145.5348  141.0425  143.2363 LP  0  0  0  0  0  0  0  0  0  0  0  0  # atno 17320 bound_to 7965
  144.7650  139.6866  143.7218 LP  0  0  0  0  0  0  0  0  0  0  0  0  # atno 17321 bound_to 7965
  139.6301  144.7643  151.2554 LP  0  0  0  0  0  0  0  0  0  0  0  0  # atno 17342 bound_to 10162
  140.7434  143.6494  150.8262 LP  0  0  0  0  0  0  0  0  0  0  0  0  # atno 17343 bound_to 10162
  157.7508  131.0245  150.3880 LP  0  0  0  0  0  0  0  0  0  0  0  0  # atno 17370 bound_to 10713
  156.4186  130.3948  149.6841 LP  0  0  0  0  0  0  0  0  0  0  0  0  # atno 17371 bound_to 10713
  141.2227  133.7064  156.8155 LP  0  0  0  0  0  0  0  0  0  0  0  0  # atno 17394 bound_to 11000
  140.2121  134.8820  157.3285 LP  0  0  0  0  0  0  0  0  0  0  0  0  # atno 17395 bound_to 11000

$$$$
