AV-unprocessed.smi:1230|AV-procd|sdf|5153|dock6
  -GOLD-   22720 4223D 1   1.00000     0.00000
 Structure written by MMmdl.
 38 39  0  0  0  0  0  0  0  0  2 V2000
  151.4925  145.2391  159.1435 C   0  0  0  0  0  0  0  0  0  0  0  0
  152.4094  144.2364  159.8608 C   0  0  1  0  0  0  0  0  0  0  0  0
  151.8958  143.9004  161.2752 C   0  0  0  0  0  0  0  0  0  0  0  0
  152.8438  142.9340  162.0035 C   0  0  0  0  0  0  0  0  0  0  0  0
  153.0711  141.6533  161.1865 C   0  0  0  0  0  0  0  0  0  0  0  0
  153.5801  141.9769  159.7716 C   0  0  0  0  0  0  0  0  0  0  0  0
  152.6448  142.9516  159.0327 C   0  0  1  0  0  0  0  0  0  0  0  0
  151.4081  142.2838  158.8066 O   0  0  0  0  0  0  0  0  0  0  0  0
  150.8642  142.4894  157.5129 C   0  0  0  0  0  0  0  0  0  0  0  0
  149.7818  141.4312  157.2612 C   0  0  0  0  0  0  0  0  0  0  0  0
  150.3759  140.1275  156.9395 N   0  0  0  0  0  0  0  0  0  0  0  0
  151.5315  140.1202  156.1401 C   0  0  0  0  0  0  0  0  0  0  0  0
  152.1390  138.9714  155.7878 C   0  0  0  0  0  0  0  0  0  0  0  0
  153.3098  138.9355  154.9746 C   0  0  0  0  0  0  0  0  0  0  0  0
  154.2783  138.9037  154.3408 N   0  0  0  0  0  0  0  0  0  0  0  0
  151.5717  137.7081  156.2536 C   0  0  0  0  0  0  0  0  0  0  0  0
  152.1092  136.6433  155.9515 O   0  0  0  0  0  0  0  0  0  0  0  0
  150.4430  137.7741  157.0196 N   0  5  0  0  0  0  0  0  0  0  0  0
  149.8308  138.9491  157.3672 C   0  0  0  0  0  0  0  0  0  0  0  0
  148.8058  138.9804  158.0488 O   0  0  0  0  0  0  0  0  0  0  0  0
  150.4838  144.8427  159.0232 H   0  0  0  0  0  0  0  0  0  0  0  0
  151.8755  145.4826  158.1522 H   0  0  0  0  0  0  0  0  0  0  0  0
  151.4157  146.1710  159.7039 H   0  0  0  0  0  0  0  0  0  0  0  0
  153.3778  144.7257  159.9760 H   0  0  0  0  0  0  0  0  0  0  0  0
  151.7897  144.8148  161.8598 H   0  0  0  0  0  0  0  0  0  0  0  0
  150.9004  143.4584  161.2135 H   0  0  0  0  0  0  0  0  0  0  0  0
  153.7999  143.4271  162.1837 H   0  0  0  0  0  0  0  0  0  0  0  0
  152.4366  142.6824  162.9831 H   0  0  0  0  0  0  0  0  0  0  0  0
  153.7847  141.0074  161.6987 H   0  0  0  0  0  0  0  0  0  0  0  0
  152.1388  141.0911  161.1227 H   0  0  0  0  0  0  0  0  0  0  0  0
  154.5760  142.4161  159.8401 H   0  0  0  0  0  0  0  0  0  0  0  0
  153.6898  141.0576  159.1954 H   0  0  0  0  0  0  0  0  0  0  0  0
  153.1208  143.2212  158.0874 H   0  0  0  0  0  0  0  0  0  0  0  0
  150.4390  143.4911  157.4389 H   0  0  0  0  0  0  0  0  0  0  0  0
  151.6532  142.4086  156.7634 H   0  0  0  0  0  0  0  0  0  0  0  0
  149.1433  141.3457  158.1414 H   0  0  0  0  0  0  0  0  0  0  0  0
  149.1185  141.7601  156.4593 H   0  0  0  0  0  0  0  0  0  0  0  0
  151.8835  141.0937  155.8312 H   0  0  0  0  0  0  0  0  0  0  0  0
  1  2  1  0  0  0  0
  1 21  1  0  0  0  0
  1 22  1  0  0  0  0
  1 23  1  0  0  0  0
  2  7  1  0  0  0  0
  2  3  1  0  0  0  0
  2 24  1  0  0  0  0
  3  4  1  0  0  0  0
  3 25  1  0  0  0  0
  3 26  1  0  0  0  0
  4  5  1  0  0  0  0
  4 27  1  0  0  0  0
  4 28  1  0  0  0  0
  5  6  1  0  0  0  0
  5 29  1  0  0  0  0
  5 30  1  0  0  0  0
  6  7  1  0  0  0  0
  6 31  1  0  0  0  0
  6 32  1  0  0  0  0
  7  8  1  0  0  0  0
  7 33  1  0  0  0  0
  8  9  1  0  0  0  0
  9 10  1  0  0  0  0
  9 34  1  0  0  0  0
  9 35  1  0  0  0  0
 10 11  1  0  0  0  0
 10 36  1  0  0  0  0
 10 37  1  0  0  0  0
 11 19  1  0  0  0  0
 11 12  1  0  0  0  0
 12 13  2  0  0  0  0
 12 38  1  0  0  0  0
 13 14  1  0  0  0  0
 13 16  1  0  0  0  0
 14 15  3  0  0  0  0
 16 17  2  0  0  0  0
 16 18  1  0  0  0  0
 18 19  1  0  0  0  0
 19 20  2  0  0  0  0
M  CHG  1  18  -1
M  END
> <s_m_source_file>
AV-unprocessed.smi

> <i_m_source_file_index>
1230

> <i_lp_mmshare_version>
43012

> <i_f3d_flags>
0

> <s_epik_input>
W0NIM11bQ0BASF0xW0NIMl1bQ0gyXVtDSDJdW0NIMl1bQ0BIXTFPW0NIMl1bQ0gyXW4yW2NIXWMoQyNOKWMoPU8pW25IXWMyPU8=

> <s_epik_cmdline>
J2VwaWtfcHl0aG9uJywgJy1waCcsICc3LjAnLCAnLXRuJywgJzgnLCAnLW1hJywgJzIwMCcsICctbWV0YWxfYmluZGluZycsICctaW1hZScsICc8aW5maWxlLm1hZT4nLCAnLW9tYWUnLCAnPG91dGZpbGUubWFlPic=

> <r_epik_Ionization_Penalty>
0.400014

> <r_epik_Ionization_Penalty_Charging>
4.81474e-10

> <r_epik_Ionization_Penalty_Neutral>
0.400014

> <r_epik_State_Penalty>
0.399305

> <r_epik_Charging_Adjusted_Penalty>
0.399305

> <i_epik_Tot_Q>
-1

> <i_epik_Tot_abs_Q>
1

> <r_epik_Metal_State_Penalty>
0.00056968

> <b_epik_Metal_Only>
0

> <s_lp_Force_Field>
OPLS_2005

> <r_lp_Energy>
24.4713

> <b_lp_Chiralities_Consistent>
1

> <s_lp_Variant>
AV-unprocessed.smi:1230-2

> <Gold.Version>
5.8.1

> <Gold.Id.Protein>
6NUR|6NUR_protein|mol2

> <Gold.PLP.Fitness>
45.7888

> <Gold.PLP.PLP>
-43.2041

> <Gold.PLP.part.hbond>
-2.6026

> <Gold.PLP.part.metal>
0.0000

> <Gold.PLP.part.buried>
-3.6170

> <Gold.PLP.part.nonpolar>
-37.2618

> <Gold.PLP.part.repulsive>
0.0367

> <Gold.PLP.ligand.clash>
0.0000

> <Gold.PLP.ligand.torsion>
1.0495

> <Gold.PLP.Chemscore.Hbond>
1.5600

> <Gold.PLP.Chemscore.CHOScore>
0.0000

> <Gold.PLP.Chemscore.Metal>
0.0000

> <Gold.Chemscore.Hbonds>
donor molecule, donor type, donor heavy atom, donor atom, acceptor molecule, acceptor atom, score
      P1  H  7997  8008       L1    15  0.39
      P1  H 10752 10763       L1    17  1.00

> <Gold.PLP.Chemscore.Internal.Correction>
0.0038

> <Gold.Rescore>
     Score         DG    S(hbond)    S(metal)    S(lipo)     H(rot)  DE(clash)    DE(int)     intcor
     15.96     -17.03       0.98        0.00     112.20       1.90       0.12       0.95       ----

> <Gold.Chemscore.Fitness>
15.9606

> <Gold.Chemscore.DG>
-17.0350

> <Gold.Chemscore.ZeroCoef>
-5.4800

> <Gold.Chemscore.Hbond>
0.9842

> <Gold.Chemscore.Metal>
0.0000

> <Gold.Chemscore.Lipo>
112.1999

> <Gold.Chemscore.Internal_Hbond>
0.0000

> <Gold.Chemscore.DEClash>
0.1210

> <Gold.Chemscore.DEInternal>
0.9534

> <Gold.Chemscore.Rot>
1.8984

> <Gold.Chemscore.Internal.Correction>
   9.000000E+99

> <Gold.Chemscore.Hbonds>
donor molecule, donor type, donor heavy atom, donor atom, acceptor molecule, acceptor atom, score
      P1  H  7997  8008       L1    15  0.01
      P1  H 10752 10763       L1    17  0.97

> <Gold.Chemscore.Hbond.Weighted>
-3.2874

> <Gold.Chemscore.Metal.Weighted>
-0.0000

> <Gold.Chemscore.Lipo.Weighted>
-13.1274

> <Gold.Chemscore.Internal_Hbond.Weighted>
0.0000

> <Gold.Chemscore.DEClash.Weighted>
0.1210

> <Gold.Chemscore.DEInternal.Weighted>
0.9534

> <Gold.Chemscore.Rot.Weighted>
4.8598

> <Gold.Chemscore.Internal.Correction.Weighted>
   9.000000E+99

> <Gold.Protein.RotatedTorsions>
[ 6907 6896 6895 6894 ] final -162.82 input  -60.11 | X-H torsion
[ 7974 7965 7964 7962 ] final   -0.38 input  175.53 | X-H torsion
[ 8008 7997 7996 7995 ] final   26.82 input   59.86 | X-H torsion
[ 10167 10162 10161 10158 ] final  -75.91 input  -65.29 | X-H torsion
[ 10718 10713 10712 10709 ] final -149.02 input   66.30 | X-H torsion
[ 10763 10752 10751 10750 ] final   94.76 input  -60.55 | X-H torsion
[ 11005 11000 10999 10996 ] final  138.13 input  -57.11 | X-H torsion

> <Gold.Protein.ActiveResidues>
 VAL166  LYS551  ARG553  GLY616  TRP617  ASP618  TYR619  PRO620  LYS621  CYS622 
 ASP623  PHE694  ASN695  SER759  ASP760  ASP761  ALA762  ILE779  LEU786  VAL792 
 PHE793  MET794  SER795  GLU796  ALA797  LYS798  CYS799  TRP800  GLU811  SER814 

> <Gold.Protein.RotatedAtoms>
  151.3864  133.3804  159.2715 H   0  0  0  0  0  0  0  0  0  0  0  0  # atno 6907 bound_to 6896
  150.9538  134.8936  159.7699 H   0  0  0  0  0  0  0  0  0  0  0  0  # atno 6908 bound_to 6896
  152.5122  134.3820  159.9406 H   0  0  0  0  0  0  0  0  0  0  0  0  # atno 6909 bound_to 6896
  146.2428  140.1261  142.8339 H   0  0  0  0  0  0  0  0  0  0  0  0  # atno 7974 bound_to 7965
  155.0332  140.3161  155.4751 H   0  0  0  0  0  0  0  0  0  0  0  0  # atno 8008 bound_to 7997
  156.2870  140.2176  156.5396 H   0  0  0  0  0  0  0  0  0  0  0  0  # atno 8009 bound_to 7997
  154.7353  140.0478  157.0750 H   0  0  0  0  0  0  0  0  0  0  0  0  # atno 8010 bound_to 7997
  140.4902  143.2382  151.7919 H   0  0  0  0  0  0  0  0  0  0  0  0  # atno 10167 bound_to 10162
  156.4278  130.8060  151.2286 H   0  0  0  0  0  0  0  0  0  0  0  0  # atno 10718 bound_to 10713
  153.2453  135.4278  155.0741 H   0  0  0  0  0  0  0  0  0  0  0  0  # atno 10763 bound_to 10752
  154.8358  135.3412  154.6590 H   0  0  0  0  0  0  0  0  0  0  0  0  # atno 10764 bound_to 10752
  153.7013  135.7028  153.5119 H   0  0  0  0  0  0  0  0  0  0  0  0  # atno 10765 bound_to 10752
  140.0162  134.9417  157.0381 H   0  0  0  0  0  0  0  0  0  0  0  0  # atno 11005 bound_to 11000
  145.0365  140.8912  143.5078 LP  0  0  0  0  0  0  0  0  0  0  0  0  # atno 17320 bound_to 7965
  145.1335  139.2617  143.5527 LP  0  0  0  0  0  0  0  0  0  0  0  0  # atno 17321 bound_to 7965
  139.4850  144.4659  151.9485 LP  0  0  0  0  0  0  0  0  0  0  0  0  # atno 17342 bound_to 10162
  140.3745  144.2813  150.5916 LP  0  0  0  0  0  0  0  0  0  0  0  0  # atno 17343 bound_to 10162
  157.7508  131.0208  150.3723 LP  0  0  0  0  0  0  0  0  0  0  0  0  # atno 17370 bound_to 10713
  156.4054  130.3924  149.6930 LP  0  0  0  0  0  0  0  0  0  0  0  0  # atno 17371 bound_to 10713
  140.4466  134.1625  155.7178 LP  0  0  0  0  0  0  0  0  0  0  0  0  # atno 17394 bound_to 11000
  141.1744  133.8543  157.1467 LP  0  0  0  0  0  0  0  0  0  0  0  0  # atno 17395 bound_to 11000

$$$$
