#       Name:                AV-unprocessed.smi:3029
#       Creating user name   scv26
#       Creation time:       Fri Mar 27 16:47:53 2020


#       File generated by GOLD software.
#

@<TRIPOS>MOLECULE
AV-unprocessed.smi:3029
    46    47     1
SMALL
NO_CHARGES


@<TRIPOS>ATOM
      1 ****        -2.8794   0.5589  -1.7239 O.2            1 S1                 0.0000
      2 ****        -3.0552   0.7799  -0.5256 C.2            1 S1                 0.0000
      3 ****        -3.5618   2.0685  -0.0421 C.2            1 S1                 0.0000
      4 ****        -3.7457   2.3103   1.2706 C.2            1 S1                 0.0000
      5 ****        -3.4440   1.2898   2.2554 C.2            1 S1                 0.0000
      6 ****        -3.6306   1.5402   3.6676 N.pl3          1 S1                 1.0000
      7 ****        -3.3647   0.6505   4.4703 O.2            1 S1                 0.0000
      8 ****        -4.0502   2.6377   4.0202 O.2            1 S1                -1.0000
      9 ****        -2.9813   0.1060   1.8084 C.2            1 S1                 0.0000
     10 ****        -2.7870  -0.1534   0.4380 N.am           1 S1                 0.0000
     11 ****        -2.2558  -1.4804   0.0892 C.3            1 S1                 0.0000
     12 ****        -0.7349  -1.5692   0.3117 C.3            1 S1                 0.0000
     13 ****        -0.0308  -0.7623  -0.6745 N.3            1 S1                 0.0000
     14 ****         1.4065  -0.7082  -0.4369 C.3            1 S1                 0.0000
     15 ****         2.0429  -1.9703  -1.0644 C.3            1 S1                 0.0000
     16 ****         3.5736  -1.9452  -0.9847 C.3            1 S1                 0.0000
     17 ****         4.1265  -0.6809  -1.6489 C.3            1 S1                 0.0000
     18 ****         3.5320   0.5755  -0.9998 C.3            1 S1                 0.0000
     19 ****         1.9856   0.5993  -1.0523 C.3            1 S1                 0.0000
     20 ****         1.4549   1.8874  -0.3689 C.3            1 S1                 0.0000
     21 ****         1.7438   1.8809   0.9329 F              1 S1                 0.0000
     22 ****         2.0195   2.9600  -0.9242 F              1 S1                 0.0000
     23 ****         0.1360   2.0155  -0.5124 F              1 S1                 0.0000
     24 ****        -3.7915   2.8432  -0.7588 H              1 S1                 0.0000
     25 ****        -4.1204   3.2757   1.5781 H              1 S1                 0.0000
     26 ****        -2.7219  -0.7178   2.4580 H              1 S1                 0.0000
     27 ****        -2.7476  -2.2252   0.7166 H              1 S1                 0.0000
     28 ****        -2.5067  -1.7717  -0.9322 H              1 S1                 0.0000
     29 ****        -0.4812  -1.2374   1.3194 H              1 S1                 0.0000
     30 ****        -0.4171  -2.6079   0.2256 H              1 S1                 0.0000
     31 ****        -0.2267  -1.0837  -1.6121 H              1 S1                 0.0000
     32 ****         1.6034  -0.6958   0.6361 H              1 S1                 0.0000
     33 ****         1.6799  -2.8706  -0.5687 H              1 S1                 0.0000
     34 ****         1.7443  -2.0548  -2.1106 H              1 S1                 0.0000
     35 ****         3.8895  -1.9840   0.0585 H              1 S1                 0.0000
     36 ****         3.9863  -2.8312  -1.4680 H              1 S1                 0.0000
     37 ****         5.2137  -0.6630  -1.5665 H              1 S1                 0.0000
     38 ****         3.8957  -0.6905  -2.7149 H              1 S1                 0.0000
     39 ****         3.8652   0.6333   0.0371 H              1 S1                 0.0000
     40 ****         3.9380   1.4551  -1.4995 H              1 S1                 0.0000
     41 ****         1.6976   0.6372  -2.1045 H              1 S1                 0.0000
     42 ****        -2.5287  -0.3288  -2.0224 LP             1 S1                 0.0000
     43 ****        -3.0873   1.2670  -2.3987 LP             1 S1                 0.0000
     44 ****        -3.0245  -0.2316   4.1445 LP             1 S1                 0.0000
     45 ****        -3.4882   0.8077   5.4501 LP             1 S1                 0.0000
     46 ****        -0.3755   0.1713  -0.5766 LP             1 S1                 0.0000
@<TRIPOS>BOND
    1    1    2 2     
    2    2   10 am    
    3    2    3 1     
    4    3    4 2     
    5    3   24 1     
    6    4    5 1     
    7    4   25 1     
    8    5    6 1     
    9    5    9 2     
   10    6    7 2     
   11    6    8 1     
   12    9   10 1     
   13    9   26 1     
   14   10   11 1     
   15   11   12 1     
   16   11   27 1     
   17   11   28 1     
   18   12   13 1     
   19   12   29 1     
   20   12   30 1     
   21   13   14 1     
   22   13   31 1     
   23   14   19 1     
   24   14   15 1     
   25   14   32 1     
   26   15   16 1     
   27   15   33 1     
   28   15   34 1     
   29   16   17 1     
   30   16   35 1     
   31   16   36 1     
   32   17   18 1     
   33   17   37 1     
   34   17   38 1     
   35   18   19 1     
   36   18   39 1     
   37   18   40 1     
   38   19   20 1     
   39   19   41 1     
   40   20   21 1     
   41   20   22 1     
   42   20   23 1     
   43    1   42 1     
   44    1   43 1     
   45    7   44 1     
   46    7   45 1     
   47   13   46 1     
@<TRIPOS>SUBSTRUCTURE
      1 S1             1
@<TRIPOS>SET
LONE_PAIRS      STATIC     ATOMS    <user>   **** ""
6 42 43 44 45 8 46
DONOR_HYDROGENS      STATIC     ATOMS    <user>   **** ""
1 31
ATOM$BLUE        STATIC     ATOMS    COLORGROUP SYSTEM
6 42 43 44 45 8 46
ATOM$RED        STATIC     ATOMS    COLORGROUP SYSTEM
1 31
