#       Name:                AV-unprocessed.smi:150
#       Creating user name   scv26
#       Creation time:       Thu Mar 26 18:46:04 2020


#       File generated by GOLD software.
#

@<TRIPOS>MOLECULE
AV-unprocessed.smi:150
    64    66     1
SMALL
NO_CHARGES


@<TRIPOS>ATOM
      1 ****        -4.9836   2.5253   3.1905 C.3            1 S1                 0.0000
      2 ****        -4.7646   1.0177   2.9742 C.3            1 S1                 0.0000
      3 ****        -4.8398   0.2746   4.3171 C.3            1 S1                 0.0000
      4 ****        -3.4276   0.7097   2.2612 C.3            1 S1                 0.0000
      5 ****        -3.3189   1.1999   0.7921 C.3            1 S1                 0.0000
      6 ****        -4.1915   0.3794  -0.1905 C.3            1 S1                 0.0000
      7 ****        -4.4086   1.1179  -1.3743 O.3            1 S1                 0.0000
      8 ****        -1.9180   1.3141   0.3520 N.pl3          1 S1                 0.0000
      9 ****        -1.1399   2.4411   0.8578 C.3            1 S1                 0.0000
     10 ****        -1.1665   0.2369  -0.0038 C.ar           1 S1                 0.0000
     11 ****        -1.4099  -0.9821   0.5455 N.ar           1 S1                 0.0000
     12 ****        -0.6641  -2.0392   0.2124 C.ar           1 S1                 0.0000
     13 ****         0.3653  -2.1002  -0.6334 N.ar           1 S1                 0.0000
     14 ****         0.6227  -0.8804  -1.1854 C.ar           1 S1                 0.0000
     15 ****        -0.0876   0.3274  -0.9303 C.ar           1 S1                 0.0000
     16 ****         0.4539   1.3600  -1.6876 N.2            1 S1                 0.0000
     17 ****         1.4289   0.7971  -2.3466 C.2            1 S1                 0.0000
     18 ****         1.6080  -0.5447  -2.0976 N.pl3          1 S1                 0.0000
     19 ****         2.6140  -1.4128  -2.6908 C.3            1 S1                 0.0000
     20 ****         3.9395  -1.4857  -1.8917 C.3            1 S1                 0.0000
     21 ****         3.6558  -2.0709  -0.6327 O.3            1 S1                 0.0000
     22 ****         4.9569  -2.3819  -2.6267 C.3            1 S1                 0.0000
     23 ****         6.3477  -2.3456  -1.9690 C.3            1 S1                 0.0000
     24 ****         6.8089  -1.0030  -1.8817 O.3            1 S1                 0.0000
     25 ****         5.9835  -0.1930  -1.0541 C.3            1 S1                 0.0000
     26 ****         4.5681  -0.0954  -1.6507 C.3            1 S1                 0.0000
     27 ****        -4.1616   2.9687   3.7534 H              1 S1                 0.0000
     28 ****        -5.9028   2.7108   3.7468 H              1 S1                 0.0000
     29 ****        -5.0709   3.0630   2.2471 H              1 S1                 0.0000
     30 ****        -5.5879   0.6462   2.3656 H              1 S1                 0.0000
     31 ****        -4.0490   0.5983   4.9947 H              1 S1                 0.0000
     32 ****        -4.7392  -0.8023   4.1787 H              1 S1                 0.0000
     33 ****        -5.7951   0.4515   4.8120 H              1 S1                 0.0000
     34 ****        -2.6224   1.1451   2.8544 H              1 S1                 0.0000
     35 ****        -3.2596  -0.3668   2.2899 H              1 S1                 0.0000
     36 ****        -3.7028   2.2191   0.7679 H              1 S1                 0.0000
     37 ****        -3.7708  -0.5946  -0.4339 H              1 S1                 0.0000
     38 ****        -5.1740   0.1857   0.2363 H              1 S1                 0.0000
     39 ****        -4.9570   0.6073  -1.9501 H              1 S1                 0.0000
     40 ****        -0.8102   3.0743   0.0343 H              1 S1                 0.0000
     41 ****        -0.2601   2.1023   1.4069 H              1 S1                 0.0000
     42 ****        -1.7318   3.0601   1.5324 H              1 S1                 0.0000
     43 ****        -0.9295  -2.9687   0.6941 H              1 S1                 0.0000
     44 ****         2.0530   1.3507  -3.0330 H              1 S1                 0.0000
     45 ****         2.1841  -2.4092  -2.8053 H              1 S1                 0.0000
     46 ****         2.8097  -1.0510  -3.7012 H              1 S1                 0.0000
     47 ****         4.4612  -2.1379  -0.1430 H              1 S1                 0.0000
     48 ****         4.5942  -3.4094  -2.6797 H              1 S1                 0.0000
     49 ****         5.0574  -2.0414  -3.6583 H              1 S1                 0.0000
     50 ****         6.3285  -2.8015  -0.9779 H              1 S1                 0.0000
     51 ****         7.0562  -2.9201  -2.5659 H              1 S1                 0.0000
     52 ****         5.9565  -0.5969  -0.0410 H              1 S1                 0.0000
     53 ****         6.4262   0.8006  -0.9841 H              1 S1                 0.0000
     54 ****         4.6281   0.4403  -2.5990 H              1 S1                 0.0000
     55 ****         3.9390   0.5083  -0.9957 H              1 S1                 0.0000
     56 ****        -3.5334   1.3051  -1.8204 LP             1 S1                 0.0000
     57 ****        -4.8623   1.9816  -1.1547 LP             1 S1                 0.0000
     58 ****        -2.1540  -1.0887   1.2050 LP             1 S1                 0.0000
     59 ****         0.8812  -2.9324  -0.8364 LP             1 S1                 0.0000
     60 ****         0.1624   2.3161  -1.7198 LP             1 S1                 0.0000
     61 ****         3.2651  -2.9819  -0.7650 LP             1 S1                 0.0000
     62 ****         3.0049  -1.4983  -0.1341 LP             1 S1                 0.0000
     63 ****         6.8248  -0.6096  -2.8010 LP             1 S1                 0.0000
     64 ****         7.7350  -1.0065  -1.5046 LP             1 S1                 0.0000
@<TRIPOS>BOND
    1    1    2 1     
    2    1   27 1     
    3    1   28 1     
    4    1   29 1     
    5    2    3 1     
    6    2    4 1     
    7    2   30 1     
    8    3   31 1     
    9    3   32 1     
   10    3   33 1     
   11    4    5 1     
   12    4   34 1     
   13    4   35 1     
   14    5    6 1     
   15    5    8 1     
   16    5   36 1     
   17    6    7 1     
   18    6   37 1     
   19    6   38 1     
   20    7   39 1     
   21    8    9 1     
   22    8   10 1     
   23    9   40 1     
   24    9   41 1     
   25    9   42 1     
   26   10   15 ar    
   27   10   11 ar    
   28   11   12 ar    
   29   12   13 ar    
   30   12   43 1     
   31   13   14 ar    
   32   14   18 1     
   33   14   15 ar    
   34   15   16 1     
   35   16   17 2     
   36   17   18 1     
   37   17   44 1     
   38   18   19 1     
   39   19   20 1     
   40   19   45 1     
   41   19   46 1     
   42   20   26 1     
   43   20   21 1     
   44   20   22 1     
   45   21   47 1     
   46   22   23 1     
   47   22   48 1     
   48   22   49 1     
   49   23   24 1     
   50   23   50 1     
   51   23   51 1     
   52   24   25 1     
   53   25   26 1     
   54   25   52 1     
   55   25   53 1     
   56   26   54 1     
   57   26   55 1     
   58    7   56 1     
   59    7   57 1     
   60   11   58 1     
   61   13   59 1     
   62   16   60 1     
   63   21   61 1     
   64   21   62 1     
   65   24   63 1     
   66   24   64 1     
@<TRIPOS>SUBSTRUCTURE
      1 S1             1
@<TRIPOS>SET
LONE_PAIRS      STATIC     ATOMS    <user>   **** ""
9 56 57 58 59 60 61 62 63 64
DONOR_HYDROGENS      STATIC     ATOMS    <user>   **** ""
2 39 47
ATOM$BLUE        STATIC     ATOMS    COLORGROUP SYSTEM
9 56 57 58 59 60 61 62 63 64
ATOM$RED        STATIC     ATOMS    COLORGROUP SYSTEM
2 39 47
