AV-unprocessed.smi:1958|AV-procd|sdf|7908|dock1
  -GOLD-   2272010 63D 1   1.00000     0.00000
 Structure written by MMmdl.
 48 49  0  0  0  0  0  0  0  0  2 V2000
  150.5954  143.9467  158.9095 C   0  0  0  0  0  0  0  0  0  0  0  0
  151.4903  142.9030  158.5675 O   0  0  0  0  0  0  0  0  0  0  0  0
  150.9161  141.9670  157.6714 C   0  0  0  0  0  0  0  0  0  0  0  0
  152.0198  141.4141  156.7574 C   0  0  0  0  0  0  0  0  0  0  0  0
  151.5126  140.3504  155.8849 N   0  0  0  0  0  0  0  0  0  0  0  0
  150.4942  140.7534  155.0373 N   0  0  0  0  0  0  0  0  0  0  0  0
  149.9565  139.9073  154.2192 C   0  0  0  0  0  0  0  0  0  0  0  0
  148.8575  140.3009  153.2942 C   0  0  0  0  0  0  0  0  0  0  0  0
  148.3628  141.4292  153.3109 O   0  0  0  0  0  0  0  0  0  0  0  0
  148.4493  139.3430  152.4442 N   0  0  0  0  0  0  0  0  0  0  0  0
  147.4008  139.5137  151.4453 C   0  0  0  0  0  0  0  0  0  0  0  0
  146.3310  138.3915  151.5168 C   0  0  2  0  0  0  0  0  0  0  0  0
  146.0663  137.8150  150.1054 C   0  0  0  0  0  0  0  0  0  0  0  0
  145.0446  138.8352  152.1504 N   0  3  0  0  0  0  0  0  0  0  0  0
  143.9095  137.9190  151.8514 C   0  0  0  0  0  0  0  0  0  0  0  0
  142.5956  138.4413  152.4554 C   0  0  0  0  0  0  0  0  0  0  0  0
  142.7480  138.5947  153.8581 O   0  0  0  0  0  0  0  0  0  0  0  0
  143.7498  139.5509  154.1676 C   0  0  0  0  0  0  0  0  0  0  0  0
  145.1088  139.0835  153.6182 C   0  0  0  0  0  0  0  0  0  0  0  0
  150.4073  138.5268  154.1731 C   0  0  0  0  0  0  0  0  0  0  0  0
  151.3966  138.1468  155.0110 C   0  0  0  0  0  0  0  0  0  0  0  0
  152.0179  139.0817  155.9506 C   0  0  0  0  0  0  0  0  0  0  0  0
  152.9106  138.7562  156.7325 O   0  0  0  0  0  0  0  0  0  0  0  0
  151.0837  144.6386  159.5957 H   0  0  0  0  0  0  0  0  0  0  0  0
  149.7046  143.5562  159.4031 H   0  0  0  0  0  0  0  0  0  0  0  0
  150.2890  144.5088  158.0263 H   0  0  0  0  0  0  0  0  0  0  0  0
  150.4436  141.1577  158.2304 H   0  0  0  0  0  0  0  0  0  0  0  0
  150.1420  142.4514  157.0738 H   0  0  0  0  0  0  0  0  0  0  0  0
  152.4289  142.2256  156.1529 H   0  0  0  0  0  0  0  0  0  0  0  0
  152.8558  141.0508  157.3577 H   0  0  0  0  0  0  0  0  0  0  0  0
  148.9016  138.4410  152.4923 H   0  0  0  0  0  0  0  0  0  0  0  0
  146.9574  140.4913  151.6361 H   0  0  0  0  0  0  0  0  0  0  0  0
  147.8462  139.5427  150.4491 H   0  0  0  0  0  0  0  0  0  0  0  0
  146.7460  137.5960  152.1381 H   0  0  0  0  0  0  0  0  0  0  0  0
  146.9834  137.4803  149.6212 H   0  0  0  0  0  0  0  0  0  0  0  0
  145.6091  138.5626  149.4564 H   0  0  0  0  0  0  0  0  0  0  0  0
  145.4122  136.9454  150.1214 H   0  0  0  0  0  0  0  0  0  0  0  0
  143.7654  137.8053  150.7790 H   0  0  0  0  0  0  0  0  0  0  0  0
  144.1276  136.9266  152.2491 H   0  0  0  0  0  0  0  0  0  0  0  0
  142.3025  139.3882  151.9988 H   0  0  0  0  0  0  0  0  0  0  0  0
  141.7884  137.7337  152.2654 H   0  0  0  0  0  0  0  0  0  0  0  0
  143.4790  140.5258  153.7589 H   0  0  0  0  0  0  0  0  0  0  0  0
  143.8033  139.6658  155.2504 H   0  0  0  0  0  0  0  0  0  0  0  0
  145.4281  138.1745  154.1306 H   0  0  0  0  0  0  0  0  0  0  0  0
  145.8325  139.8641  153.8500 H   0  0  0  0  0  0  0  0  0  0  0  0
  149.9667  137.8152  153.4899 H   0  0  0  0  0  0  0  0  0  0  0  0
  151.7412  137.1233  154.9883 H   0  0  0  0  0  0  0  0  0  0  0  0
  144.8185  139.7268  151.7330 H   0  0  0  0  0  0  0  0  0  0  0  0
  1  2  1  0  0  0  0
  1 24  1  0  0  0  0
  1 25  1  0  0  0  0
  1 26  1  0  0  0  0
  2  3  1  0  0  0  0
  3  4  1  0  0  0  0
  3 27  1  0  0  0  0
  3 28  1  0  0  0  0
  4  5  1  0  0  0  0
  4 29  1  0  0  0  0
  4 30  1  0  0  0  0
  5 22  1  0  0  0  0
  5  6  1  0  0  0  0
  6  7  2  0  0  0  0
  7  8  1  0  0  0  0
  7 20  1  0  0  0  0
  8  9  2  0  0  0  0
  8 10  1  0  0  0  0
 10 11  1  0  0  0  0
 10 31  1  0  0  0  0
 11 12  1  0  0  0  0
 11 32  1  0  0  0  0
 11 33  1  0  0  0  0
 12 13  1  0  0  0  0
 12 14  1  0  0  0  0
 12 34  1  0  0  0  0
 13 35  1  0  0  0  0
 13 36  1  0  0  0  0
 13 37  1  0  0  0  0
 14 19  1  0  0  0  0
 14 15  1  0  0  0  0
 14 48  1  0  0  0  0
 15 16  1  0  0  0  0
 15 38  1  0  0  0  0
 15 39  1  0  0  0  0
 16 17  1  0  0  0  0
 16 40  1  0  0  0  0
 16 41  1  0  0  0  0
 17 18  1  0  0  0  0
 18 19  1  0  0  0  0
 18 42  1  0  0  0  0
 18 43  1  0  0  0  0
 19 44  1  0  0  0  0
 19 45  1  0  0  0  0
 20 21  2  0  0  0  0
 20 46  1  0  0  0  0
 21 22  1  0  0  0  0
 21 47  1  0  0  0  0
 22 23  2  0  0  0  0
M  CHG  1  14   1
M  END
> <s_m_source_file>
AV-unprocessed.smi

> <i_m_source_file_index>
1958

> <i_lp_mmshare_version>
43012

> <i_f3d_flags>
0

> <s_epik_input>
W0NIM11PW0NIMl1bQ0gyXW4xbmMoW2NIXVtjSF1jMT1PKUMoPU8pW05IXVtDSDJdW0NASF0oW0NIM10pTjJbQ0gyXVtDSDJdT1tDSDJdW0NIMl0y

> <s_epik_cmdline>
J2VwaWtfcHl0aG9uJywgJy1waCcsICc3LjAnLCAnLXRuJywgJzgnLCAnLW1hJywgJzIwMCcsICctbWV0YWxfYmluZGluZycsICctaW1hZScsICc8aW5maWxlLm1hZT4nLCAnLW9tYWUnLCAnPG91dGZpbGUubWFlPic=

> <r_lp_tautomer_probability>
1

> <r_epik_Ionization_Penalty>
0.724355

> <r_epik_Ionization_Penalty_Charging>
0.724348

> <r_epik_Ionization_Penalty_Neutral>
6.31911e-06

> <r_epik_State_Penalty>
0.749058

> <r_epik_Charging_Adjusted_Penalty>
1.47341

> <i_epik_Tot_Q>
1

> <i_epik_Tot_abs_Q>
1

> <r_epik_Metal_State_Penalty>
0.750821

> <b_epik_Metal_Only>
0

> <s_lp_Force_Field>
OPLS_2005

> <r_lp_Energy>
41.4704

> <b_lp_Chiralities_Consistent>
1

> <s_lp_Variant>
AV-unprocessed.smi:1958-3

> <Gold.Version>
5.8.1

> <Gold.Id.Protein>
6NUR|6NUR_protein|mol2

> <Gold.PLP.Fitness>
45.6710

> <Gold.PLP.PLP>
-36.4819

> <Gold.PLP.part.hbond>
-5.1540

> <Gold.PLP.part.metal>
0.0000

> <Gold.PLP.part.buried>
5.2057

> <Gold.PLP.part.nonpolar>
-37.2705

> <Gold.PLP.part.repulsive>
0.4708

> <Gold.PLP.ligand.clash>
0.4861

> <Gold.PLP.ligand.torsion>
1.1858

> <Gold.PLP.Chemscore.Hbond>
3.9440

> <Gold.PLP.Chemscore.CHOScore>
0.0000

> <Gold.PLP.Chemscore.Metal>
0.0000

> <Gold.Chemscore.Hbonds>
donor molecule, donor type, donor heavy atom, donor atom, acceptor molecule, acceptor atom, score
      L1  H    10    31       P1  7948  0.41
      L1  H    14    48       P1 10175  0.56
      P1  H  7997  8008       L1    23  1.00
      P1  H  8011  8017       L1     9  0.77

> <Gold.PLP.Chemscore.Internal.Correction>
0.2148

> <Gold.Rescore>
     Score         DG    S(hbond)    S(metal)    S(lipo)     H(rot)  DE(clash)    DE(int)     intcor
     13.26     -18.95       2.77        0.00      82.46       2.12       4.29       1.39       ----

> <Gold.Chemscore.Fitness>
13.2637

> <Gold.Chemscore.DG>
-18.9452

> <Gold.Chemscore.ZeroCoef>
-5.4800

> <Gold.Chemscore.Hbond>
2.7696

> <Gold.Chemscore.Metal>
0.0000

> <Gold.Chemscore.Lipo>
82.4562

> <Gold.Chemscore.Internal_Hbond>
0.0000

> <Gold.Chemscore.DEClash>
4.2925

> <Gold.Chemscore.DEInternal>
1.3890

> <Gold.Chemscore.Rot>
2.1221

> <Gold.Chemscore.Internal.Correction>
   9.000000E+99

> <Gold.Chemscore.Hbonds>
donor molecule, donor type, donor heavy atom, donor atom, acceptor molecule, acceptor atom, score
      L1  H    10    31       P1  7948  0.40
      L1  H    14    48       P1 10175  0.17
      P1  H  7997  8008       L1    23  0.37
      P1  H  8011  8017       L1     9  0.19

> <Gold.Chemscore.Hbond.Weighted>
-9.2503

> <Gold.Chemscore.Metal.Weighted>
-0.0000

> <Gold.Chemscore.Lipo.Weighted>
-9.6474

> <Gold.Chemscore.Internal_Hbond.Weighted>
0.0000

> <Gold.Chemscore.DEClash.Weighted>
4.2925

> <Gold.Chemscore.DEInternal.Weighted>
1.3890

> <Gold.Chemscore.Rot.Weighted>
5.4325

> <Gold.Chemscore.Internal.Correction.Weighted>
   9.000000E+99

> <Gold.Protein.RotatedTorsions>
[ 6907 6896 6895 6894 ] final -176.01 input  -60.11 | X-H torsion
[ 7974 7965 7964 7962 ] final  115.11 input  175.53 | X-H torsion
[ 8008 7997 7996 7995 ] final  -43.50 input   59.86 | X-H torsion
[ 10167 10162 10161 10158 ] final   93.68 input  -65.29 | X-H torsion
[ 10718 10713 10712 10709 ] final -177.69 input   66.30 | X-H torsion
[ 10763 10752 10751 10750 ] final  173.82 input  -60.55 | X-H torsion
[ 11005 11000 10999 10996 ] final  156.22 input  -57.11 | X-H torsion

> <Gold.Protein.ActiveResidues>
 VAL166  LYS551  ARG553  GLY616  TRP617  ASP618  TYR619  PRO620  LYS621  CYS622 
 ASP623  PHE694  ASN695  SER759  ASP760  ASP761  ALA762  ILE779  LEU786  VAL792 
 PHE793  MET794  SER795  GLU796  ALA797  LYS798  CYS799  TRP800  GLU811  SER814 

> <Gold.Protein.RotatedAtoms>
  151.5978  133.3359  159.3040 H   0  0  0  0  0  0  0  0  0  0  0  0  # atno 6907 bound_to 6896
  150.8224  134.7442  159.6795 H   0  0  0  0  0  0  0  0  0  0  0  0  # atno 6908 bound_to 6896
  152.4316  134.5771  159.9989 H   0  0  0  0  0  0  0  0  0  0  0  0  # atno 6909 bound_to 6896
  145.1961  139.2975  143.4343 H   0  0  0  0  0  0  0  0  0  0  0  0  # atno 7974 bound_to 7965
  154.3997  140.1446  156.3529 H   0  0  0  0  0  0  0  0  0  0  0  0  # atno 8008 bound_to 7997
  155.8252  140.3468  155.5517 H   0  0  0  0  0  0  0  0  0  0  0  0  # atno 8009 bound_to 7997
  155.8246  140.0903  157.1819 H   0  0  0  0  0  0  0  0  0  0  0  0  # atno 8010 bound_to 7997
  139.8157  144.6754  150.9583 H   0  0  0  0  0  0  0  0  0  0  0  0  # atno 10167 bound_to 10162
  156.8332  130.9660  151.3105 H   0  0  0  0  0  0  0  0  0  0  0  0  # atno 10718 bound_to 10713
  154.4453  135.2763  155.1819 H   0  0  0  0  0  0  0  0  0  0  0  0  # atno 10763 bound_to 10752
  154.3668  135.6117  153.5723 H   0  0  0  0  0  0  0  0  0  0  0  0  # atno 10764 bound_to 10752
  152.9843  135.5848  154.4788 H   0  0  0  0  0  0  0  0  0  0  0  0  # atno 10765 bound_to 10752
  140.1654  134.8580  157.2626 H   0  0  0  0  0  0  0  0  0  0  0  0  # atno 11005 bound_to 11000
  146.3427  140.2190  142.8591 LP  0  0  0  0  0  0  0  0  0  0  0  0  # atno 17320 bound_to 7965
  144.9993  140.8618  143.5291 LP  0  0  0  0  0  0  0  0  0  0  0  0  # atno 17321 bound_to 7965
  140.7816  143.4141  151.0945 LP  0  0  0  0  0  0  0  0  0  0  0  0  # atno 17342 bound_to 10162
  139.7805  143.8362  152.3137 LP  0  0  0  0  0  0  0  0  0  0  0  0  # atno 17343 bound_to 10162
  157.6396  130.8794  149.9422 LP  0  0  0  0  0  0  0  0  0  0  0  0  # atno 17370 bound_to 10713
  156.0922  130.3662  150.0373 LP  0  0  0  0  0  0  0  0  0  0  0  0  # atno 17371 bound_to 10713
  140.2440  134.3762  155.7469 LP  0  0  0  0  0  0  0  0  0  0  0  0  # atno 17394 bound_to 11000
  141.2213  133.7280  156.8833 LP  0  0  0  0  0  0  0  0  0  0  0  0  # atno 17395 bound_to 11000

$$$$
