#       Name:                AV-unprocessed.smi:224
#       Creating user name   scv26
#       Creation time:       Thu Mar 26 20:19:38 2020


#       File generated by GOLD software.
#

@<TRIPOS>MOLECULE
AV-unprocessed.smi:224
    65    68     1
SMALL
NO_CHARGES


@<TRIPOS>ATOM
      1 ****        -5.2047   1.7957  -4.7407 C.3            1 S1                 0.0000
      2 ****        -3.7845   2.0036  -4.1991 C.3            1 S1                 0.0000
      3 ****        -3.0440   2.7183  -5.1678 O.3            1 S1                 0.0000
      4 ****        -3.0779   0.6651  -3.9026 C.3            1 S1                 0.0000
      5 ****        -1.7044   0.8210  -3.3477 N.4            1 S1                 1.0000
      6 ****        -0.9413  -0.4548  -3.3839 C.3            1 S1                 0.0000
      7 ****         0.5220  -0.2472  -2.9550 C.3            1 S1                 0.0000
      8 ****         0.6022   0.4291  -1.6627 N.pl3          1 S1                 0.0000
      9 ****         0.6539  -0.3090  -0.5208 C.ar           1 S1                 0.0000
     10 ****         0.2577  -1.6100  -0.5432 N.ar           1 S1                 0.0000
     11 ****         0.2783  -2.3462   0.5711 C.ar           1 S1                 0.0000
     12 ****         0.6576  -1.9892   1.7984 N.ar           1 S1                 0.0000
     13 ****         1.0741  -0.6912   1.8285 C.ar           1 S1                 0.0000
     14 ****         1.1061   0.2109   0.7268 C.ar           1 S1                 0.0000
     15 ****         1.6039   1.4406   1.1430 N.2            1 S1                 0.0000
     16 ****         1.8390   1.2786   2.4164 C.2            1 S1                 0.0000
     17 ****         1.5554   0.0257   2.9099 N.pl3          1 S1                 0.0000
     18 ****         1.7159  -0.4286   4.2828 C.3            1 S1                 0.0000
     19 ****         3.1682  -0.8214   4.6552 C.3            1 S1                 0.0000
     20 ****         3.9970   0.3224   4.5574 O.3            1 S1                 0.0000
     21 ****         3.7546  -1.9416   3.7958 C.3            1 S1                 0.0000
     22 ****         3.4656  -3.1823   4.6263 C.3            1 S1                 0.0000
     23 ****         3.7420  -2.7361   5.9424 O.3            1 S1                 0.0000
     24 ****         3.2453  -1.4089   6.0797 C.3            1 S1                 0.0000
     25 ****        -0.1265   1.6944  -1.6093 C.3            1 S1                 0.0000
     26 ****        -1.6039   1.5309  -2.0332 C.3            1 S1                 0.0000
     27 ****        -2.4614   0.8931  -0.9194 C.3            1 S1                 0.0000
     28 ****        -5.8237   1.2614  -4.0194 H              1 S1                 0.0000
     29 ****        -5.1993   1.2181  -5.6659 H              1 S1                 0.0000
     30 ****        -5.6909   2.7501  -4.9461 H              1 S1                 0.0000
     31 ****        -3.8573   2.6113  -3.2980 H              1 S1                 0.0000
     32 ****        -3.0791   2.2465  -5.9863 H              1 S1                 0.0000
     33 ****        -3.6817   0.0566  -3.2288 H              1 S1                 0.0000
     34 ****        -3.0161   0.0977  -4.8329 H              1 S1                 0.0000
     35 ****        -1.4271  -1.1905  -2.7424 H              1 S1                 0.0000
     36 ****        -0.9584  -0.8653  -4.3941 H              1 S1                 0.0000
     37 ****         1.0606  -1.1957  -2.9409 H              1 S1                 0.0000
     38 ****         1.0326   0.3747  -3.6912 H              1 S1                 0.0000
     39 ****        -0.0588  -3.3668   0.4643 H              1 S1                 0.0000
     40 ****         2.2334   2.0723   3.0346 H              1 S1                 0.0000
     41 ****         1.3609   0.3631   4.9441 H              1 S1                 0.0000
     42 ****         1.0472  -1.2756   4.4404 H              1 S1                 0.0000
     43 ****         4.8743   0.0784   4.8110 H              1 S1                 0.0000
     44 ****         3.3499  -2.0030   2.7870 H              1 S1                 0.0000
     45 ****         4.8363  -1.8298   3.7033 H              1 S1                 0.0000
     46 ****         2.4182  -3.4771   4.5438 H              1 S1                 0.0000
     47 ****         4.0893  -4.0320   4.3486 H              1 S1                 0.0000
     48 ****         3.8998  -0.8399   6.7414 H              1 S1                 0.0000
     49 ****         2.2621  -1.4461   6.5508 H              1 S1                 0.0000
     50 ****        -0.0751   2.1642  -0.6286 H              1 S1                 0.0000
     51 ****         0.3696   2.3848  -2.2926 H              1 S1                 0.0000
     52 ****        -1.9759   2.5449  -2.1736 H              1 S1                 0.0000
     53 ****        -2.3010   1.4040   0.0304 H              1 S1                 0.0000
     54 ****        -2.2238  -0.1589  -0.7660 H              1 S1                 0.0000
     55 ****        -3.5265   0.9652  -1.1376 H              1 S1                 0.0000
     56 ****        -1.2272   1.4240  -4.0029 H              1 S1                 0.0000
     57 ****        -2.0935   2.8032  -4.8691 LP             1 S1                 0.0000
     58 ****        -3.4384   3.6294  -5.2877 LP             1 S1                 0.0000
     59 ****        -0.0518  -2.0190  -1.4017 LP             1 S1                 0.0000
     60 ****         0.6390  -2.5949   2.5938 LP             1 S1                 0.0000
     61 ****         1.7488   2.2623   0.5919 LP             1 S1                 0.0000
     62 ****         3.6565   1.0390   5.1662 LP             1 S1                 0.0000
     63 ****         3.9989   0.6583   3.6155 LP             1 S1                 0.0000
     64 ****         4.7291  -2.7456   6.1021 LP             1 S1                 0.0000
     65 ****         3.2915  -3.3356   6.6040 LP             1 S1                 0.0000
@<TRIPOS>BOND
    1    1    2 1     
    2    1   28 1     
    3    1   29 1     
    4    1   30 1     
    5    2    3 1     
    6    2    4 1     
    7    2   31 1     
    8    3   32 1     
    9    4    5 1     
   10    4   33 1     
   11    4   34 1     
   12    5   26 1     
   13    5    6 1     
   14    5   56 1     
   15    6    7 1     
   16    6   35 1     
   17    6   36 1     
   18    7    8 1     
   19    7   37 1     
   20    7   38 1     
   21    8    9 1     
   22    8   25 1     
   23    9   14 ar    
   24    9   10 ar    
   25   10   11 ar    
   26   11   12 ar    
   27   11   39 1     
   28   12   13 ar    
   29   13   17 1     
   30   13   14 ar    
   31   14   15 1     
   32   15   16 2     
   33   16   17 1     
   34   16   40 1     
   35   17   18 1     
   36   18   19 1     
   37   18   41 1     
   38   18   42 1     
   39   19   24 1     
   40   19   20 1     
   41   19   21 1     
   42   20   43 1     
   43   21   22 1     
   44   21   44 1     
   45   21   45 1     
   46   22   23 1     
   47   22   46 1     
   48   22   47 1     
   49   23   24 1     
   50   24   48 1     
   51   24   49 1     
   52   25   26 1     
   53   25   50 1     
   54   25   51 1     
   55   26   27 1     
   56   26   52 1     
   57   27   53 1     
   58   27   54 1     
   59   27   55 1     
   60    3   57 1     
   61    3   58 1     
   62   10   59 1     
   63   12   60 1     
   64   15   61 1     
   65   20   62 1     
   66   20   63 1     
   67   23   64 1     
   68   23   65 1     
@<TRIPOS>SUBSTRUCTURE
      1 S1             1
@<TRIPOS>SET
LONE_PAIRS      STATIC     ATOMS    <user>   **** ""
9 57 58 59 60 61 62 63 64 65
DONOR_HYDROGENS      STATIC     ATOMS    <user>   **** ""
3 32 56 43
ATOM$BLUE        STATIC     ATOMS    COLORGROUP SYSTEM
9 57 58 59 60 61 62 63 64 65
ATOM$RED        STATIC     ATOMS    COLORGROUP SYSTEM
3 32 56 43
