AV-unprocessed.smi:2198|AV-procd|sdf|8921|dock1
  -GOLD-   2272012133D 1   1.00000     0.00000
 Structure written by MMmdl.
 42 43  0  0  0  0  0  0  0  0  2 V2000
  149.7247  134.3911  155.0753 C   0  0  0  0  0  0  0  0  0  0  0  0
  149.9233  135.8876  154.9623 C   0  0  0  0  0  0  0  0  0  0  0  0
  148.9084  136.6610  155.0413 N   0  0  0  0  0  0  0  0  0  0  0  0
  149.0891  138.0511  154.9434 C   0  0  0  0  0  0  0  0  0  0  0  0
  147.8284  138.8910  155.0536 C   0  0  0  0  0  0  0  0  0  0  0  0
  150.3286  138.5914  154.7625 C   0  0  0  0  0  0  0  0  0  0  0  0
  150.5786  140.0954  154.6589 C   0  0  0  0  0  0  0  0  0  0  0  0
  150.2914  140.8964  155.9298 C   0  0  0  0  0  0  0  0  0  0  0  0
  149.1481  140.9469  156.3827 O   0  0  0  0  0  0  0  0  0  0  0  0
  151.3386  141.5160  156.4959 N   0  0  0  0  0  0  0  0  0  0  0  0
  151.2895  142.3184  157.7136 C   0  0  2  0  0  0  0  0  0  0  0  0
  151.6592  143.7850  157.4137 C   0  0  0  0  0  0  0  0  0  0  0  0
  151.6863  144.6270  158.6980 C   0  0  0  0  0  0  0  0  0  0  0  0
  152.6370  144.0210  159.7421 C   0  0  0  0  0  0  0  0  0  0  0  0
  152.2719  142.5576  160.0571 C   0  0  2  0  0  0  0  0  0  0  0  0
  153.2259  141.9541  161.0976 C   0  0  0  0  0  0  0  0  0  0  0  0
  152.2424  141.7181  158.7647 C   0  0  0  0  0  0  0  0  0  0  0  0
  151.4711  137.6645  154.6693 C   0  0  0  0  0  0  0  0  0  0  0  0
  152.6096  138.0965  154.4934 O   0  0  0  0  0  0  0  0  0  0  0  0
  151.2143  136.3300  154.7815 N   0  5  0  0  0  0  0  0  0  0  0  0
  148.6662  134.1305  155.0326 H   0  0  0  0  0  0  0  0  0  0  0  0
  150.1296  134.0285  156.0205 H   0  0  0  0  0  0  0  0  0  0  0  0
  150.2341  133.8766  154.2598 H   0  0  0  0  0  0  0  0  0  0  0  0
  147.9019  139.5906  155.8862 H   0  0  0  0  0  0  0  0  0  0  0  0
  146.9509  138.2653  155.2217 H   0  0  0  0  0  0  0  0  0  0  0  0
  147.6642  139.4556  154.1361 H   0  0  0  0  0  0  0  0  0  0  0  0
  151.6157  140.2526  154.3613 H   0  0  0  0  0  0  0  0  0  0  0  0
  149.9970  140.5297  153.8455 H   0  0  0  0  0  0  0  0  0  0  0  0
  152.2404  141.4153  156.0534 H   0  0  0  0  0  0  0  0  0  0  0  0
  150.2760  142.2851  158.1187 H   0  0  0  0  0  0  0  0  0  0  0  0
  152.6369  143.8291  156.9317 H   0  0  0  0  0  0  0  0  0  0  0  0
  150.9477  144.2179  156.7096 H   0  0  0  0  0  0  0  0  0  0  0  0
  151.9910  145.6480  158.4664 H   0  0  0  0  0  0  0  0  0  0  0  0
  150.6798  144.6921  159.1134 H   0  0  0  0  0  0  0  0  0  0  0  0
  153.6623  144.0750  159.3733 H   0  0  0  0  0  0  0  0  0  0  0  0
  152.6055  144.6186  160.6537 H   0  0  0  0  0  0  0  0  0  0  0  0
  151.2690  142.5466  160.4868 H   0  0  0  0  0  0  0  0  0  0  0  0
  154.2529  141.9369  160.7312 H   0  0  0  0  0  0  0  0  0  0  0  0
  152.9429  140.9303  161.3438 H   0  0  0  0  0  0  0  0  0  0  0  0
  153.2122  142.5304  162.0231 H   0  0  0  0  0  0  0  0  0  0  0  0
  151.9360  140.6968  158.9958 H   0  0  0  0  0  0  0  0  0  0  0  0
  153.2500  141.6505  158.3510 H   0  0  0  0  0  0  0  0  0  0  0  0
  1  2  1  0  0  0  0
  1 21  1  0  0  0  0
  1 22  1  0  0  0  0
  1 23  1  0  0  0  0
  2 20  1  0  0  0  0
  2  3  2  0  0  0  0
  3  4  1  0  0  0  0
  4  5  1  0  0  0  0
  4  6  2  0  0  0  0
  5 24  1  0  0  0  0
  5 25  1  0  0  0  0
  5 26  1  0  0  0  0
  6  7  1  0  0  0  0
  6 18  1  0  0  0  0
  7  8  1  0  0  0  0
  7 27  1  0  0  0  0
  7 28  1  0  0  0  0
  8  9  2  0  0  0  0
  8 10  1  0  0  0  0
 10 11  1  0  0  0  0
 10 29  1  0  0  0  0
 11 17  1  0  0  0  0
 11 12  1  0  0  0  0
 11 30  1  0  0  0  0
 12 13  1  0  0  0  0
 12 31  1  0  0  0  0
 12 32  1  0  0  0  0
 13 14  1  0  0  0  0
 13 33  1  0  0  0  0
 13 34  1  0  0  0  0
 14 15  1  0  0  0  0
 14 35  1  0  0  0  0
 14 36  1  0  0  0  0
 15 16  1  0  0  0  0
 15 17  1  0  0  0  0
 15 37  1  0  0  0  0
 16 38  1  0  0  0  0
 16 39  1  0  0  0  0
 16 40  1  0  0  0  0
 17 41  1  0  0  0  0
 17 42  1  0  0  0  0
 18 19  2  0  0  0  0
 18 20  1  0  0  0  0
M  CHG  1  20  -1
M  END
> <s_m_source_file>
AV-unprocessed.smi

> <i_m_source_file_index>
2198

> <i_lp_mmshare_version>
43012

> <i_f3d_flags>
0

> <s_epik_input>
W0NIM11jMW5jKFtDSDNdKWMoYyg9TylbbkhdMSlbQ0gyXUMoPU8pW05IXVtDQEBIXTJbQ0gyXVtDSDJdW0NIMl1bQ0BASF0oW0NIM10pW0NIMl0y

> <s_epik_cmdline>
J2VwaWtfcHl0aG9uJywgJy1waCcsICc3LjAnLCAnLXRuJywgJzgnLCAnLW1hJywgJzIwMCcsICctbWV0YWxfYmluZGluZycsICctaW1hZScsICc8aW5maWxlLm1hZT4nLCAnLW9tYWUnLCAnPG91dGZpbGUubWFlPic=

> <r_lp_tautomer_probability>
0.839158

> <r_epik_Ionization_Penalty>
6.67193

> <r_epik_Ionization_Penalty_Charging>
7.66837e-08

> <r_epik_Ionization_Penalty_Neutral>
6.67193

> <r_epik_State_Penalty>
4.51643

> <r_epik_Charging_Adjusted_Penalty>
4.51643

> <i_epik_Tot_Q>
-1

> <i_epik_Tot_abs_Q>
1

> <r_epik_Metal_State_Penalty>
0.851582

> <b_epik_Metal_Only>
1

> <s_lp_Force_Field>
OPLS_2005

> <r_lp_Energy>
13.6631

> <b_lp_Chiralities_Consistent>
1

> <s_lp_Variant>
AV-unprocessed.smi:2198-11

> <Gold.Version>
5.8.1

> <Gold.Id.Protein>
6NUR|6NUR_protein|mol2

> <Gold.PLP.Fitness>
45.5337

> <Gold.PLP.PLP>
-39.6183

> <Gold.PLP.part.hbond>
-1.6147

> <Gold.PLP.part.metal>
0.0000

> <Gold.PLP.part.buried>
-2.2633

> <Gold.PLP.part.nonpolar>
-36.4001

> <Gold.PLP.part.repulsive>
0.5245

> <Gold.PLP.ligand.clash>
0.0000

> <Gold.PLP.ligand.torsion>
0.0551

> <Gold.PLP.Chemscore.Hbond>
2.0000

> <Gold.PLP.Chemscore.CHOScore>
0.0000

> <Gold.PLP.Chemscore.Metal>
0.0000

> <Gold.Chemscore.Hbonds>
donor molecule, donor type, donor heavy atom, donor atom, acceptor molecule, acceptor atom, score
      P1  H 10752 10764       L1    20  2.00

> <Gold.PLP.Chemscore.Internal.Correction>
0.0256

> <Gold.Rescore>
     Score         DG    S(hbond)    S(metal)    S(lipo)     H(rot)  DE(clash)    DE(int)     intcor
     15.07     -16.76       0.95        0.00     100.95       1.45       0.21       1.49       ----

> <Gold.Chemscore.Fitness>
15.0724

> <Gold.Chemscore.DG>
-16.7629

> <Gold.Chemscore.ZeroCoef>
-5.4800

> <Gold.Chemscore.Hbond>
0.9493

> <Gold.Chemscore.Metal>
0.0000

> <Gold.Chemscore.Lipo>
100.9523

> <Gold.Chemscore.Internal_Hbond>
0.0000

> <Gold.Chemscore.DEClash>
0.2053

> <Gold.Chemscore.DEInternal>
1.4851

> <Gold.Chemscore.Rot>
1.4450

> <Gold.Chemscore.Internal.Correction>
   9.000000E+99

> <Gold.Chemscore.Hbonds>
donor molecule, donor type, donor heavy atom, donor atom, acceptor molecule, acceptor atom, score
      P1  H 10752 10764       L1    20  0.38

> <Gold.Chemscore.Hbond.Weighted>
-3.1707

> <Gold.Chemscore.Metal.Weighted>
-0.0000

> <Gold.Chemscore.Lipo.Weighted>
-11.8114

> <Gold.Chemscore.Internal_Hbond.Weighted>
0.0000

> <Gold.Chemscore.DEClash.Weighted>
0.2053

> <Gold.Chemscore.DEInternal.Weighted>
1.4851

> <Gold.Chemscore.Rot.Weighted>
3.6992

> <Gold.Chemscore.Internal.Correction.Weighted>
   9.000000E+99

> <Gold.Protein.RotatedTorsions>
[ 6907 6896 6895 6894 ] final  -57.71 input  -60.11 | X-H torsion
[ 7974 7965 7964 7962 ] final  106.71 input  175.53 | X-H torsion
[ 8008 7997 7996 7995 ] final  168.50 input   59.86 | X-H torsion
[ 10167 10162 10161 10158 ] final  114.76 input  -65.29 | X-H torsion
[ 10718 10713 10712 10709 ] final   90.59 input   66.30 | X-H torsion
[ 10763 10752 10751 10750 ] final  -44.97 input  -60.55 | X-H torsion
[ 11005 11000 10999 10996 ] final -146.83 input  -57.11 | X-H torsion

> <Gold.Protein.ActiveResidues>
 VAL166  LYS551  ARG553  GLY616  TRP617  ASP618  TYR619  PRO620  LYS621  CYS622 
 ASP623  PHE694  ASN695  SER759  ASP760  ASP761  ALA762  ILE779  LEU786  VAL792 
 PHE793  MET794  SER795  GLU796  ALA797  LYS798  CYS799  TRP800  GLU811  SER814 

> <Gold.Protein.RotatedAtoms>
  150.8065  134.7193  159.6648 H   0  0  0  0  0  0  0  0  0  0  0  0  # atno 6907 bound_to 6896
  152.4184  134.5996  160.0006 H   0  0  0  0  0  0  0  0  0  0  0  0  # atno 6908 bound_to 6896
  151.6219  133.3301  159.3126 H   0  0  0  0  0  0  0  0  0  0  0  0  # atno 6909 bound_to 6896
  145.3030  139.2563  143.3804 H   0  0  0  0  0  0  0  0  0  0  0  0  # atno 7974 bound_to 7965
  156.1541  140.1589  156.8721 H   0  0  0  0  0  0  0  0  0  0  0  0  # atno 8008 bound_to 7997
  154.5098  140.0804  156.8005 H   0  0  0  0  0  0  0  0  0  0  0  0  # atno 8009 bound_to 7997
  155.3837  140.3406  155.4250 H   0  0  0  0  0  0  0  0  0  0  0  0  # atno 8010 bound_to 7997
  139.6365  144.7120  151.2324 H   0  0  0  0  0  0  0  0  0  0  0  0  # atno 10167 bound_to 10162
  157.6959  131.0376  150.3600 H   0  0  0  0  0  0  0  0  0  0  0  0  # atno 10718 bound_to 10713
  154.0208  135.6669  153.4772 H   0  0  0  0  0  0  0  0  0  0  0  0  # atno 10763 bound_to 10752
  153.0581  135.5044  154.8025 H   0  0  0  0  0  0  0  0  0  0  0  0  # atno 10764 bound_to 10752
  154.6938  135.3066  154.9405 H   0  0  0  0  0  0  0  0  0  0  0  0  # atno 10765 bound_to 10752
  140.7779  134.3113  157.5055 H   0  0  0  0  0  0  0  0  0  0  0  0  # atno 11005 bound_to 11000
  146.3145  140.3549  142.8659 LP  0  0  0  0  0  0  0  0  0  0  0  0  # atno 17320 bound_to 7965
  144.9078  140.7720  143.5826 LP  0  0  0  0  0  0  0  0  0  0  0  0  # atno 17321 bound_to 7965
  140.7468  143.6387  150.8355 LP  0  0  0  0  0  0  0  0  0  0  0  0  # atno 17342 bound_to 10162
  140.0019  143.5735  152.2872 LP  0  0  0  0  0  0  0  0  0  0  0  0  # atno 17343 bound_to 10162
  156.4038  130.3921  149.6940 LP  0  0  0  0  0  0  0  0  0  0  0  0  # atno 17370 bound_to 10713
  156.4248  130.7786  151.2805 LP  0  0  0  0  0  0  0  0  0  0  0  0  # atno 17371 bound_to 10713
  139.8746  134.9300  156.3492 LP  0  0  0  0  0  0  0  0  0  0  0  0  # atno 17394 bound_to 11000
  140.9511  133.7450  156.0273 LP  0  0  0  0  0  0  0  0  0  0  0  0  # atno 17395 bound_to 11000

$$$$
