AV-unprocessed.smi:2038|AV-procd|sdf|8281|dock9
  -GOLD-   2272010553D 1   1.00000     0.00000
 Structure written by MMmdl.
 33 34  0  0  0  0  0  0  0  0  1 V2000
  150.1396  140.1761  154.3939 O   0  0  0  0  0  0  0  0  0  0  0  0
  149.5219  141.1997  154.6882 C   0  0  0  0  0  0  0  0  0  0  0  0
  149.7682  141.9530  155.7758 N   0  0  0  0  0  0  0  0  0  0  0  0
  150.7340  141.7399  156.7960 C   0  0  0  0  0  0  0  0  0  0  0  0
  151.2502  142.8662  157.4677 C   0  0  0  0  0  0  0  0  0  0  0  0
  152.1930  142.6800  158.4962 C   0  0  0  0  0  0  0  0  0  0  0  0
  152.5830  141.3680  158.8302 C   0  0  0  0  0  0  0  0  0  0  0  0
  153.5079  141.1912  159.8384 O   0  0  0  0  0  0  0  0  0  0  0  0
  153.8341  139.8621  160.2364 C   0  0  0  0  0  0  0  0  0  0  0  0
  155.1674  139.8735  160.9932 C   0  0  0  0  0  0  0  0  0  0  0  0
  155.5138  138.6224  161.2942 F   0  0  0  0  0  0  0  0  0  0  0  0
  156.1229  140.4107  160.2353 F   0  0  0  0  0  0  0  0  0  0  0  0
  155.0494  140.5683  162.1243 F   0  0  0  0  0  0  0  0  0  0  0  0
  152.0802  140.2768  158.2019 N   0  0  0  0  0  0  0  0  0  0  0  0
  151.1780  140.4621  157.2145 C   0  0  0  0  0  0  0  0  0  0  0  0
  148.3927  141.6953  153.7770 C   0  0  1  0  0  0  0  0  0  0  0  0
  147.1841  140.7429  153.7085 C   0  0  0  0  0  0  0  0  0  0  0  0
  146.1008  141.4821  154.4687 C   0  0  0  0  0  0  0  0  0  0  0  0
  146.4792  142.9338  154.2147 C   0  0  0  0  0  0  0  0  0  0  0  0
  147.8947  142.9194  154.3150 O   0  0  0  0  0  0  0  0  0  0  0  0
  149.2415  142.8116  155.8469 H   0  0  0  0  0  0  0  0  0  0  0  0
  150.9337  143.8630  157.1970 H   0  0  0  0  0  0  0  0  0  0  0  0
  152.6085  143.5280  159.0204 H   0  0  0  0  0  0  0  0  0  0  0  0
  153.0507  139.4578  160.8798 H   0  0  0  0  0  0  0  0  0  0  0  0
  153.9153  139.2144  159.3617 H   0  0  0  0  0  0  0  0  0  0  0  0
  150.7966  139.5533  156.7756 H   0  0  0  0  0  0  0  0  0  0  0  0
  148.7720  141.8786  152.7700 H   0  0  0  0  0  0  0  0  0  0  0  0
  146.8833  140.6071  152.6689 H   0  0  0  0  0  0  0  0  0  0  0  0
  147.3717  139.7518  154.1244 H   0  0  0  0  0  0  0  0  0  0  0  0
  145.0942  141.2357  154.1303 H   0  0  0  0  0  0  0  0  0  0  0  0
  146.1708  141.2588  155.5343 H   0  0  0  0  0  0  0  0  0  0  0  0
  146.1867  143.2433  153.2102 H   0  0  0  0  0  0  0  0  0  0  0  0
  146.0316  143.6200  154.9339 H   0  0  0  0  0  0  0  0  0  0  0  0
  1  2  2  0  0  0  0
  2  3  1  0  0  0  0
  2 16  1  0  0  0  0
  3  4  1  0  0  0  0
  3 21  1  0  0  0  0
  4 15  1  0  0  0  0
  4  5  2  0  0  0  0
  5  6  1  0  0  0  0
  5 22  1  0  0  0  0
  6  7  2  0  0  0  0
  6 23  1  0  0  0  0
  7  8  1  0  0  0  0
  7 14  1  0  0  0  0
  8  9  1  0  0  0  0
  9 10  1  0  0  0  0
  9 24  1  0  0  0  0
  9 25  1  0  0  0  0
 10 11  1  0  0  0  0
 10 12  1  0  0  0  0
 10 13  1  0  0  0  0
 14 15  2  0  0  0  0
 15 26  1  0  0  0  0
 16 20  1  0  0  0  0
 16 17  1  0  0  0  0
 16 27  1  0  0  0  0
 17 18  1  0  0  0  0
 17 28  1  0  0  0  0
 17 29  1  0  0  0  0
 18 19  1  0  0  0  0
 18 30  1  0  0  0  0
 18 31  1  0  0  0  0
 19 20  1  0  0  0  0
 19 32  1  0  0  0  0
 19 33  1  0  0  0  0
M  END
> <s_m_source_file>
AV-unprocessed.smi

> <i_m_source_file_index>
2038

> <i_lp_mmshare_version>
43012

> <i_f3d_flags>
0

> <s_epik_input>
TzFbQ0gyXVtDSDJdW0NIMl1bQ0BIXTFDKD1PKVtOSF1jMltjSF1bY0hdYyhuW2NIXTIpT1tDSDJdQyhGKShGKUY=

> <s_epik_cmdline>
J2VwaWtfcHl0aG9uJywgJy1waCcsICc3LjAnLCAnLXRuJywgJzgnLCAnLW1hJywgJzIwMCcsICctbWV0YWxfYmluZGluZycsICctaW1hZScsICc8aW5maWxlLm1hZT4nLCAnLW9tYWUnLCAnPG91dGZpbGUubWFlPic=

> <r_lp_tautomer_probability>
1

> <r_epik_Ionization_Penalty>
2.73305e-06

> <r_epik_Ionization_Penalty_Charging>
0

> <r_epik_Ionization_Penalty_Neutral>
2.73305e-06

> <r_epik_State_Penalty>
-0

> <r_epik_Charging_Adjusted_Penalty>
0

> <i_epik_Tot_Q>
0

> <i_epik_Tot_abs_Q>
0

> <r_epik_Metal_State_Penalty>
-0

> <b_epik_Metal_Only>
0

> <s_lp_Force_Field>
OPLS_2005

> <r_lp_Energy>
22.8429

> <b_lp_Chiralities_Consistent>
1

> <s_lp_Variant>
AV-unprocessed.smi:2038-2

> <Gold.Version>
5.8.1

> <Gold.Id.Protein>
6NUR|6NUR_protein|mol2

> <Gold.PLP.Fitness>
39.9999

> <Gold.PLP.PLP>
-31.8251

> <Gold.PLP.part.hbond>
-4.0000

> <Gold.PLP.part.metal>
0.0000

> <Gold.PLP.part.buried>
-0.0770

> <Gold.PLP.part.nonpolar>
-31.4752

> <Gold.PLP.part.repulsive>
4.9246

> <Gold.PLP.ligand.clash>
0.0000

> <Gold.PLP.ligand.torsion>
0.3281

> <Gold.PLP.Chemscore.Hbond>
2.9357

> <Gold.PLP.Chemscore.CHOScore>
0.0000

> <Gold.PLP.Chemscore.Metal>
0.0000

> <Gold.Chemscore.Hbonds>
donor molecule, donor type, donor heavy atom, donor atom, acceptor molecule, acceptor atom, score
      L1  H     3    21       P1  8028  1.00
      P1  H  7989  7998       L1     1  1.00
      P1  H  8022  8030       L1    20  0.80

> <Gold.PLP.Chemscore.Internal.Correction>
0.0239

> <Gold.Rescore>
     Score         DG    S(hbond)    S(metal)    S(lipo)     H(rot)  DE(clash)    DE(int)     intcor
     11.71     -16.66       2.09        0.00      72.87       1.69       3.63       1.32       ----

> <Gold.Chemscore.Fitness>
11.7132

> <Gold.Chemscore.DG>
-16.6586

> <Gold.Chemscore.ZeroCoef>
-5.4800

> <Gold.Chemscore.Hbond>
2.0911

> <Gold.Chemscore.Metal>
0.0000

> <Gold.Chemscore.Lipo>
72.8694

> <Gold.Chemscore.Internal_Hbond>
0.0000

> <Gold.Chemscore.DEClash>
3.6250

> <Gold.Chemscore.DEInternal>
1.3204

> <Gold.Chemscore.Rot>
1.6919

> <Gold.Chemscore.Internal.Correction>
   9.000000E+99

> <Gold.Chemscore.Hbonds>
donor molecule, donor type, donor heavy atom, donor atom, acceptor molecule, acceptor atom, score
      L1  H     3    21       P1  8028  0.98
      P1  H  7989  7998       L1     1  0.29
      P1  H  8022  8030       L1    20  0.45

> <Gold.Chemscore.Hbond.Weighted>
-6.9842

> <Gold.Chemscore.Metal.Weighted>
-0.0000

> <Gold.Chemscore.Lipo.Weighted>
-8.5257

> <Gold.Chemscore.Internal_Hbond.Weighted>
0.0000

> <Gold.Chemscore.DEClash.Weighted>
3.6250

> <Gold.Chemscore.DEInternal.Weighted>
1.3204

> <Gold.Chemscore.Rot.Weighted>
4.3313

> <Gold.Chemscore.Internal.Correction.Weighted>
   9.000000E+99

> <Gold.Protein.RotatedTorsions>
[ 6907 6896 6895 6894 ] final  -95.37 input  -60.11 | X-H torsion
[ 7974 7965 7964 7962 ] final   34.65 input  175.53 | X-H torsion
[ 8008 7997 7996 7995 ] final  165.57 input   59.86 | X-H torsion
[ 10167 10162 10161 10158 ] final  -96.15 input  -65.29 | X-H torsion
[ 10718 10713 10712 10709 ] final    9.65 input   66.30 | X-H torsion
[ 10763 10752 10751 10750 ] final   36.30 input  -60.55 | X-H torsion
[ 11005 11000 10999 10996 ] final -166.44 input  -57.11 | X-H torsion

> <Gold.Protein.ActiveResidues>
 VAL166  LYS551  ARG553  GLY616  TRP617  ASP618  TYR619  PRO620  LYS621  CYS622 
 ASP623  PHE694  ASN695  SER759  ASP760  ASP761  ALA762  ILE779  LEU786  VAL792 
 PHE793  MET794  SER795  GLU796  ALA797  LYS798  CYS799  TRP800  GLU811  SER814 

> <Gold.Protein.RotatedAtoms>
  150.6962  134.1668  159.4196 H   0  0  0  0  0  0  0  0  0  0  0  0  # atno 6907 bound_to 6896
  151.9647  135.0104  160.0559 H   0  0  0  0  0  0  0  0  0  0  0  0  # atno 6908 bound_to 6896
  152.1895  133.4728  159.5037 H   0  0  0  0  0  0  0  0  0  0  0  0  # atno 6909 bound_to 6896
  146.1338  139.6242  142.9209 H   0  0  0  0  0  0  0  0  0  0  0  0  # atno 7974 bound_to 7965
  156.1789  140.1666  156.8311 H   0  0  0  0  0  0  0  0  0  0  0  0  # atno 8008 bound_to 7997
  154.5338  140.0751  156.8425 H   0  0  0  0  0  0  0  0  0  0  0  0  # atno 8009 bound_to 7997
  155.3353  140.3381  155.4241 H   0  0  0  0  0  0  0  0  0  0  0  0  # atno 8010 bound_to 7997
  140.2968  143.3187  152.0289 H   0  0  0  0  0  0  0  0  0  0  0  0  # atno 10167 bound_to 10162
  156.9694  130.5963  149.5667 H   0  0  0  0  0  0  0  0  0  0  0  0  # atno 10718 bound_to 10713
  153.0083  135.6309  154.1963 H   0  0  0  0  0  0  0  0  0  0  0  0  # atno 10763 bound_to 10752
  154.1706  135.2818  155.3084 H   0  0  0  0  0  0  0  0  0  0  0  0  # atno 10764 bound_to 10752
  154.5911  135.5617  153.7340 H   0  0  0  0  0  0  0  0  0  0  0  0  # atno 10765 bound_to 10752
  140.5645  134.5300  157.5150 H   0  0  0  0  0  0  0  0  0  0  0  0  # atno 11005 bound_to 11000
  145.5201  141.0432  143.2440 LP  0  0  0  0  0  0  0  0  0  0  0  0  # atno 17320 bound_to 7965
  144.7718  139.6718  143.7191 LP  0  0  0  0  0  0  0  0  0  0  0  0  # atno 17321 bound_to 7965
  139.4924  144.6485  151.6727 LP  0  0  0  0  0  0  0  0  0  0  0  0  # atno 17342 bound_to 10162
  140.5685  144.0149  150.6204 LP  0  0  0  0  0  0  0  0  0  0  0  0  # atno 17343 bound_to 10162
  156.0289  130.5381  150.8481 LP  0  0  0  0  0  0  0  0  0  0  0  0  # atno 17370 bound_to 10713
  157.5603  131.0945  150.9569 LP  0  0  0  0  0  0  0  0  0  0  0  0  # atno 17371 bound_to 10713
  139.9392  134.7819  156.0723 LP  0  0  0  0  0  0  0  0  0  0  0  0  # atno 17394 bound_to 11000
  141.1094  133.6648  156.2943 LP  0  0  0  0  0  0  0  0  0  0  0  0  # atno 17395 bound_to 11000

$$$$
