AV-unprocessed.smi:915|AV-procd|sdf|4156|dock3
  -GOLD-   22720 2 63D 1   1.00000     0.00000
 Structure written by MMmdl.
 33 34  0  0  0  0  0  0  0  0  2 V2000
  147.8127  138.6704  153.7906 C   0  0  0  0  0  0  0  0  0  0  0  0
  148.6952  139.7374  154.4485 C   0  0  0  0  0  0  0  0  0  0  0  0
  150.0074  139.1837  154.9147 C   0  0  0  0  0  0  0  0  0  0  0  0
  150.6327  138.0521  154.4592 C   0  0  0  0  0  0  0  0  0  0  0  0
  152.1403  137.7744  155.2832 S   0  0  0  0  0  0  0  0  0  0  0  0
  151.8766  139.2373  156.2350 C   0  0  0  0  0  0  0  0  0  0  0  0
  152.7131  139.7029  157.1767 N   0  5  0  0  0  0  0  0  0  0  0  0
  152.2504  140.5321  158.1397 C   0  0  0  0  0  0  0  0  0  0  0  0
  151.1028  140.9737  158.2341 O   0  0  0  0  0  0  0  0  0  0  0  0
  153.1754  140.8757  159.0471 N   0  0  0  0  0  0  0  0  0  0  0  0
  152.9669  141.7690  160.1825 C   0  0  0  0  0  0  0  0  0  0  0  0
  152.1067  142.9918  159.8119 C   0  0  2  0  0  0  0  0  0  0  0  0
  152.5933  143.7419  158.5634 C   0  0  0  0  0  0  0  0  0  0  0  0
  152.0013  145.1496  158.6367 C   0  0  0  0  0  0  0  0  0  0  0  0
  152.2183  145.6361  160.0704 C   0  0  0  0  0  0  0  0  0  0  0  0
  152.0402  144.2018  161.1626 S   0  0  0  0  0  0  0  0  0  0  0  0
  150.7218  139.8360  155.9229 N   0  0  0  0  0  0  0  0  0  0  0  0
  146.8673  139.0989  153.4580 H   0  0  0  0  0  0  0  0  0  0  0  0
  147.5859  137.8626  154.4872 H   0  0  0  0  0  0  0  0  0  0  0  0
  148.3064  138.2347  152.9214 H   0  0  0  0  0  0  0  0  0  0  0  0
  148.8631  140.5497  153.7408 H   0  0  0  0  0  0  0  0  0  0  0  0
  148.1587  140.1798  155.2888 H   0  0  0  0  0  0  0  0  0  0  0  0
  150.3000  137.3671  153.6942 H   0  0  0  0  0  0  0  0  0  0  0  0
  154.1008  140.4891  158.9336 H   0  0  0  0  0  0  0  0  0  0  0  0
  152.5095  141.2181  161.0057 H   0  0  0  0  0  0  0  0  0  0  0  0
  153.9446  142.0956  160.5376 H   0  0  0  0  0  0  0  0  0  0  0  0
  151.0775  142.6745  159.6394 H   0  0  0  0  0  0  0  0  0  0  0  0
  153.6823  143.8079  158.5677 H   0  0  0  0  0  0  0  0  0  0  0  0
  152.3036  143.2291  157.6455 H   0  0  0  0  0  0  0  0  0  0  0  0
  152.4539  145.8217  157.9072 H   0  0  0  0  0  0  0  0  0  0  0  0
  150.9330  145.1060  158.4209 H   0  0  0  0  0  0  0  0  0  0  0  0
  153.2300  146.0262  160.1840 H   0  0  0  0  0  0  0  0  0  0  0  0
  151.5220  146.4284  160.3465 H   0  0  0  0  0  0  0  0  0  0  0  0
  1  2  1  0  0  0  0
  1 18  1  0  0  0  0
  1 19  1  0  0  0  0
  1 20  1  0  0  0  0
  2  3  1  0  0  0  0
  2 21  1  0  0  0  0
  2 22  1  0  0  0  0
  3 17  1  0  0  0  0
  3  4  2  0  0  0  0
  4  5  1  0  0  0  0
  4 23  1  0  0  0  0
  5  6  1  0  0  0  0
  6  7  1  0  0  0  0
  6 17  2  0  0  0  0
  7  8  1  0  0  0  0
  8  9  2  0  0  0  0
  8 10  1  0  0  0  0
 10 11  1  0  0  0  0
 10 24  1  0  0  0  0
 11 12  1  0  0  0  0
 11 25  1  0  0  0  0
 11 26  1  0  0  0  0
 12 16  1  0  0  0  0
 12 13  1  0  0  0  0
 12 27  1  0  0  0  0
 13 14  1  0  0  0  0
 13 28  1  0  0  0  0
 13 29  1  0  0  0  0
 14 15  1  0  0  0  0
 14 30  1  0  0  0  0
 14 31  1  0  0  0  0
 15 16  1  0  0  0  0
 15 32  1  0  0  0  0
 15 33  1  0  0  0  0
M  CHG  1   7  -1
M  END
> <s_m_source_file>
AV-unprocessed.smi

> <i_m_source_file_index>
915

> <i_lp_mmshare_version>
43012

> <i_f3d_flags>
0

> <s_epik_input>
W0NIM11bQ0gyXWMxW2NIXXNjKG4xKVtOSF1DKD1PKVtOSF1bQ0gyXVtDQEBIXTJbQ0gyXVtDSDJdW0NIMl1TMg==

> <s_epik_cmdline>
J2VwaWtfcHl0aG9uJywgJy1waCcsICc3LjAnLCAnLXRuJywgJzgnLCAnLW1hJywgJzIwMCcsICctbWV0YWxfYmluZGluZycsICctaW1hZScsICc8aW5maWxlLm1hZT4nLCAnLW9tYWUnLCAnPG91dGZpbGUubWFlPic=

> <r_lp_tautomer_probability>
0.999

> <r_epik_Ionization_Penalty>
8.73043

> <r_epik_Ionization_Penalty_Charging>
6.79141

> <r_epik_Ionization_Penalty_Neutral>
1.93902

> <r_epik_State_Penalty>
6.79158

> <r_epik_Charging_Adjusted_Penalty>
13.583

> <i_epik_Tot_Q>
-1

> <i_epik_Tot_abs_Q>
1

> <r_epik_Metal_State_Penalty>
2.71141

> <b_epik_Metal_Only>
1

> <s_lp_Force_Field>
OPLS_2005

> <r_lp_Energy>
4.53782

> <b_lp_Chiralities_Consistent>
1

> <s_lp_Variant>
AV-unprocessed.smi:915-3

> <Gold.Version>
5.8.1

> <Gold.Id.Protein>
6NUR|6NUR_protein|mol2

> <Gold.PLP.Fitness>
50.1149

> <Gold.PLP.PLP>
-41.9392

> <Gold.PLP.part.hbond>
-1.0000

> <Gold.PLP.part.metal>
0.0000

> <Gold.PLP.part.buried>
-3.3782

> <Gold.PLP.part.nonpolar>
-37.2626

> <Gold.PLP.part.repulsive>
0.1148

> <Gold.PLP.ligand.clash>
0.0000

> <Gold.PLP.ligand.torsion>
0.5932

> <Gold.PLP.Chemscore.Hbond>
2.0000

> <Gold.PLP.Chemscore.CHOScore>
1.0979

> <Gold.PLP.Chemscore.Metal>
0.0000

> <Gold.Chemscore.Hbonds>
donor molecule, donor type, donor heavy atom, donor atom, acceptor molecule, acceptor atom, score
      P1  H  7997  8010       L1     7  2.00
      L1  C     4    23       P1  7948  0.93
      L1  C     4    23       P1  7949  0.18

> <Gold.PLP.Chemscore.Internal.Correction>
0.0685

> <Gold.Rescore>
     Score         DG    S(hbond)    S(metal)    S(lipo)     H(rot)  DE(clash)    DE(int)     intcor
     14.11     -17.49       0.93        0.00     105.24       1.33       0.05       3.34       ----

> <Gold.Chemscore.Fitness>
14.1073

> <Gold.Chemscore.DG>
-17.4893

> <Gold.Chemscore.ZeroCoef>
-5.4800

> <Gold.Chemscore.Hbond>
0.9287

> <Gold.Chemscore.Metal>
0.0000

> <Gold.Chemscore.Lipo>
105.2444

> <Gold.Chemscore.Internal_Hbond>
0.0000

> <Gold.Chemscore.DEClash>
0.0462

> <Gold.Chemscore.DEInternal>
3.3357

> <Gold.Chemscore.Rot>
1.3305

> <Gold.Chemscore.Internal.Correction>
   9.000000E+99

> <Gold.Chemscore.Hbonds>
donor molecule, donor type, donor heavy atom, donor atom, acceptor molecule, acceptor atom, score
      P1  H  7997  8010       L1     7  0.72

> <Gold.Chemscore.Hbond.Weighted>
-3.1017

> <Gold.Chemscore.Metal.Weighted>
-0.0000

> <Gold.Chemscore.Lipo.Weighted>
-12.3136

> <Gold.Chemscore.Internal_Hbond.Weighted>
0.0000

> <Gold.Chemscore.DEClash.Weighted>
0.0462

> <Gold.Chemscore.DEInternal.Weighted>
3.3357

> <Gold.Chemscore.Rot.Weighted>
3.4060

> <Gold.Chemscore.Internal.Correction.Weighted>
   9.000000E+99

> <Gold.Protein.RotatedTorsions>
[ 6907 6896 6895 6894 ] final  114.33 input  -60.11 | X-H torsion
[ 7974 7965 7964 7962 ] final   -5.19 input  175.53 | X-H torsion
[ 8008 7997 7996 7995 ] final   71.34 input   59.86 | X-H torsion
[ 10167 10162 10161 10158 ] final   23.72 input  -65.29 | X-H torsion
[ 10718 10713 10712 10709 ] final -173.01 input   66.30 | X-H torsion
[ 10763 10752 10751 10750 ] final   57.83 input  -60.55 | X-H torsion
[ 11005 11000 10999 10996 ] final -109.71 input  -57.11 | X-H torsion

> <Gold.Protein.ActiveResidues>
 VAL166  LYS551  ARG553  GLY616  TRP617  ASP618  TYR619  PRO620  LYS621  CYS622 
 ASP623  PHE694  ASN695  SER759  ASP760  ASP761  ALA762  ILE779  LEU786  VAL792 
 PHE793  MET794  SER795  GLU796  ALA797  LYS798  CYS799  TRP800  GLU811  SER814 

> <Gold.Protein.RotatedAtoms>
  152.4809  133.8252  159.7073 H   0  0  0  0  0  0  0  0  0  0  0  0  # atno 6907 bound_to 6896
  150.8858  133.7300  159.2925 H   0  0  0  0  0  0  0  0  0  0  0  0  # atno 6908 bound_to 6896
  151.4789  135.1054  159.9824 H   0  0  0  0  0  0  0  0  0  0  0  0  # atno 6909 bound_to 6896
  146.2358  140.1983  142.8333 H   0  0  0  0  0  0  0  0  0  0  0  0  # atno 7974 bound_to 7965
  155.7524  140.3488  155.5157 H   0  0  0  0  0  0  0  0  0  0  0  0  # atno 8008 bound_to 7997
  155.8992  140.1031  157.1383 H   0  0  0  0  0  0  0  0  0  0  0  0  # atno 8009 bound_to 7997
  154.4042  140.1289  156.4401 H   0  0  0  0  0  0  0  0  0  0  0  0  # atno 8010 bound_to 7997
  140.5246  143.9945  150.6434 H   0  0  0  0  0  0  0  0  0  0  0  0  # atno 10167 bound_to 10162
  156.7640  130.9424  151.3118 H   0  0  0  0  0  0  0  0  0  0  0  0  # atno 10718 bound_to 10713
  152.9858  135.5628  154.5453 H   0  0  0  0  0  0  0  0  0  0  0  0  # atno 10763 bound_to 10752
  154.4900  135.2792  155.1506 H   0  0  0  0  0  0  0  0  0  0  0  0  # atno 10764 bound_to 10752
  154.2979  135.6313  153.5465 H   0  0  0  0  0  0  0  0  0  0  0  0  # atno 10765 bound_to 10752
  141.0832  133.9183  157.2243 H   0  0  0  0  0  0  0  0  0  0  0  0  # atno 11005 bound_to 11000
  144.9802  140.8452  143.5402 LP  0  0  0  0  0  0  0  0  0  0  0  0  # atno 17320 bound_to 7965
  145.1976  139.2269  143.5210 LP  0  0  0  0  0  0  0  0  0  0  0  0  # atno 17321 bound_to 7965
  140.3303  143.3082  152.0694 LP  0  0  0  0  0  0  0  0  0  0  0  0  # atno 17342 bound_to 10162
  139.4934  144.6514  151.6668 LP  0  0  0  0  0  0  0  0  0  0  0  0  # atno 17343 bound_to 10162
  157.6722  130.9061  150.0066 LP  0  0  0  0  0  0  0  0  0  0  0  0  # atno 17370 bound_to 10713
  156.1321  130.3643  149.9715 LP  0  0  0  0  0  0  0  0  0  0  0  0  # atno 17371 bound_to 10713
  139.9648  135.0145  156.9357 LP  0  0  0  0  0  0  0  0  0  0  0  0  # atno 17394 bound_to 11000
  140.5421  134.0709  155.7344 LP  0  0  0  0  0  0  0  0  0  0  0  0  # atno 17395 bound_to 11000

$$$$
