AV-unprocessed.smi:2889|AV-procd|sdf|11113|dock5
  -GOLD-   2272015583D 1   1.00000     0.00000
 Structure written by MMmdl.
 35 36  0  0  0  0  0  0  0  0  2 V2000
  151.6738  145.5742  159.9660 C   0  0  0  0  0  0  0  0  0  0  0  0
  151.7974  143.9715  159.1219 S   0  0  0  0  0  0  0  0  0  0  0  0
  153.0391  143.0982  160.1384 C   0  0  1  0  0  0  0  0  0  0  0  0
  152.5563  142.9985  161.6113 C   0  0  0  0  0  0  0  0  0  0  0  0
  153.5943  142.3350  162.5404 C   0  0  0  0  0  0  0  0  0  0  0  0
  153.9985  140.9599  161.9713 C   0  0  0  0  0  0  0  0  0  0  0  0
  154.4790  141.0381  160.4988 C   0  0  0  0  0  0  0  0  0  0  0  0
  153.4753  141.7258  159.5392 C   0  0  1  0  0  0  0  0  0  0  0  0
  152.3222  140.8599  159.3244 N   0  5  0  0  0  0  0  0  0  0  0  0
  152.4002  139.6743  158.2210 S   0  0  0  0  0  0  0  0  0  0  0  0
  153.7501  139.0998  158.0915 O   0  0  0  0  0  0  0  0  0  0  0  0
  151.2783  138.7304  158.3506 O   0  0  0  0  0  0  0  0  0  0  0  0
  152.0864  140.6271  156.6703 C   0  0  0  0  0  0  0  0  0  0  0  0
  151.8124  139.6916  155.5238 C   0  0  0  0  0  0  0  0  0  0  0  0
  152.6586  138.6833  154.9835 C   0  0  0  0  0  0  0  0  0  0  0  0
  151.9119  138.1440  153.9769 C   0  0  0  0  0  0  0  0  0  0  0  0
  150.7123  138.7717  153.8867 O   0  0  0  0  0  0  0  0  0  0  0  0
  150.6596  139.7610  154.8751 N   0  0  0  0  0  0  0  0  0  0  0  0
  150.8938  146.1781  159.5031 H   0  0  0  0  0  0  0  0  0  0  0  0
  152.6123  146.1241  159.8987 H   0  0  0  0  0  0  0  0  0  0  0  0
  151.4242  145.4348  161.0177 H   0  0  0  0  0  0  0  0  0  0  0  0
  153.9197  143.7417  160.1478 H   0  0  0  0  0  0  0  0  0  0  0  0
  152.3332  143.9974  161.9874 H   0  0  0  0  0  0  0  0  0  0  0  0
  151.6152  142.4469  161.6654 H   0  0  0  0  0  0  0  0  0  0  0  0
  154.4755  142.9727  162.6212 H   0  0  0  0  0  0  0  0  0  0  0  0
  153.1900  142.2264  163.5470 H   0  0  0  0  0  0  0  0  0  0  0  0
  154.7901  140.5325  162.5873 H   0  0  0  0  0  0  0  0  0  0  0  0
  153.1551  140.2715  162.0551 H   0  0  0  0  0  0  0  0  0  0  0  0
  155.4158  141.5959  160.4743 H   0  0  0  0  0  0  0  0  0  0  0  0
  154.7219  140.0390  160.1345 H   0  0  0  0  0  0  0  0  0  0  0  0
  153.9982  141.9215  158.6023 H   0  0  0  0  0  0  0  0  0  0  0  0
  151.2303  141.2769  156.8519 H   0  0  0  0  0  0  0  0  0  0  0  0
  152.9461  141.2666  156.4721 H   0  0  0  0  0  0  0  0  0  0  0  0
  153.6501  138.3930  155.2983 H   0  0  0  0  0  0  0  0  0  0  0  0
  152.0865  137.3483  153.2680 H   0  0  0  0  0  0  0  0  0  0  0  0
  1  2  1  0  0  0  0
  1 19  1  0  0  0  0
  1 20  1  0  0  0  0
  1 21  1  0  0  0  0
  2  3  1  0  0  0  0
  3  8  1  0  0  0  0
  3  4  1  0  0  0  0
  3 22  1  0  0  0  0
  4  5  1  0  0  0  0
  4 23  1  0  0  0  0
  4 24  1  0  0  0  0
  5  6  1  0  0  0  0
  5 25  1  0  0  0  0
  5 26  1  0  0  0  0
  6  7  1  0  0  0  0
  6 27  1  0  0  0  0
  6 28  1  0  0  0  0
  7  8  1  0  0  0  0
  7 29  1  0  0  0  0
  7 30  1  0  0  0  0
  8  9  1  0  0  0  0
  8 31  1  0  0  0  0
  9 10  1  0  0  0  0
 10 11  2  0  0  0  0
 10 12  2  0  0  0  0
 10 13  1  0  0  0  0
 13 14  1  0  0  0  0
 13 32  1  0  0  0  0
 13 33  1  0  0  0  0
 14 18  2  0  0  0  0
 14 15  1  0  0  0  0
 15 16  2  0  0  0  0
 15 34  1  0  0  0  0
 16 17  1  0  0  0  0
 16 35  1  0  0  0  0
 17 18  1  0  0  0  0
M  CHG  1   9  -1
M  END
> <s_m_source_file>
AV-unprocessed.smi

> <i_m_source_file_index>
2889

> <i_lp_mmshare_version>
43012

> <i_f3d_flags>
0

> <s_epik_input>
W0NIM11TW0NAQEhdMVtDSDJdW0NIMl1bQ0gyXVtDSDJdW0NASF0xW05IXVMoPU8pKD1PKVtDSDJdYzJbY0hdW2NIXW9uMg==

> <s_epik_cmdline>
J2VwaWtfcHl0aG9uJywgJy1waCcsICc3LjAnLCAnLXRuJywgJzgnLCAnLW1hJywgJzIwMCcsICctbWV0YWxfYmluZGluZycsICctaW1hZScsICc8aW5maWxlLm1hZT4nLCAnLW9tYWUnLCAnPG91dGZpbGUubWFlPic=

> <r_lp_tautomer_probability>
1

> <r_epik_Ionization_Penalty>
4.65467

> <r_epik_Ionization_Penalty_Charging>
4.65467

> <r_epik_Ionization_Penalty_Neutral>
2.71476e-10

> <r_epik_State_Penalty>
4.65444

> <r_epik_Charging_Adjusted_Penalty>
9.30911

> <i_epik_Tot_Q>
-1

> <i_epik_Tot_abs_Q>
1

> <r_epik_Metal_State_Penalty>
0.901484

> <b_epik_Metal_Only>
1

> <s_lp_Force_Field>
OPLS_2005

> <r_lp_Energy>
11.2119

> <b_lp_Chiralities_Consistent>
1

> <s_lp_Variant>
AV-unprocessed.smi:2889-6

> <Gold.Version>
5.8.1

> <Gold.Id.Protein>
6NUR|6NUR_protein|mol2

> <Gold.PLP.Fitness>
49.9836

> <Gold.PLP.PLP>
-45.0075

> <Gold.PLP.part.hbond>
-1.0000

> <Gold.PLP.part.metal>
0.0000

> <Gold.PLP.part.buried>
-5.9777

> <Gold.PLP.part.nonpolar>
-37.3158

> <Gold.PLP.part.repulsive>
0.2815

> <Gold.PLP.ligand.clash>
0.0000

> <Gold.PLP.ligand.torsion>
1.0299

> <Gold.PLP.Chemscore.Hbond>
1.0000

> <Gold.PLP.Chemscore.CHOScore>
1.0000

> <Gold.PLP.Chemscore.Metal>
0.0000

> <Gold.Chemscore.Hbonds>
donor molecule, donor type, donor heavy atom, donor atom, acceptor molecule, acceptor atom, score
      P1  H  7989  7998       L1    18  0.05
      P1  H  7997  8010       L1    11  1.00
      L1  C    16    35       P1  7949  1.00

> <Gold.PLP.Chemscore.Internal.Correction>
1.0360

> <Gold.Rescore>
     Score         DG    S(hbond)    S(metal)    S(lipo)     H(rot)  DE(clash)    DE(int)     intcor
     17.73     -18.74       0.98        0.00     118.96       1.53       0.05       0.97       ----

> <Gold.Chemscore.Fitness>
17.7283

> <Gold.Chemscore.DG>
-18.7437

> <Gold.Chemscore.ZeroCoef>
-5.4800

> <Gold.Chemscore.Hbond>
0.9779

> <Gold.Chemscore.Metal>
0.0000

> <Gold.Chemscore.Lipo>
118.9556

> <Gold.Chemscore.Internal_Hbond>
0.0000

> <Gold.Chemscore.DEClash>
0.0472

> <Gold.Chemscore.DEInternal>
0.9682

> <Gold.Chemscore.Rot>
1.5314

> <Gold.Chemscore.Internal.Correction>
   9.000000E+99

> <Gold.Chemscore.Hbonds>
donor molecule, donor type, donor heavy atom, donor atom, acceptor molecule, acceptor atom, score
      P1  H  7997  8010       L1    11  0.94

> <Gold.Chemscore.Hbond.Weighted>
-3.2663

> <Gold.Chemscore.Metal.Weighted>
-0.0000

> <Gold.Chemscore.Lipo.Weighted>
-13.9178

> <Gold.Chemscore.Internal_Hbond.Weighted>
0.0000

> <Gold.Chemscore.DEClash.Weighted>
0.0472

> <Gold.Chemscore.DEInternal.Weighted>
0.9682

> <Gold.Chemscore.Rot.Weighted>
3.9205

> <Gold.Chemscore.Internal.Correction.Weighted>
   9.000000E+99

> <Gold.Protein.RotatedTorsions>
[ 6907 6896 6895 6894 ] final -141.77 input  -60.11 | X-H torsion
[ 7974 7965 7964 7962 ] final  137.74 input  175.53 | X-H torsion
[ 8008 7997 7996 7995 ] final   10.98 input   59.86 | X-H torsion
[ 10167 10162 10161 10158 ] final   70.02 input  -65.29 | X-H torsion
[ 10718 10713 10712 10709 ] final   33.13 input   66.30 | X-H torsion
[ 10763 10752 10751 10750 ] final -162.78 input  -60.55 | X-H torsion
[ 11005 11000 10999 10996 ] final  -81.60 input  -57.11 | X-H torsion

> <Gold.Protein.ActiveResidues>
 VAL166  LYS551  ARG553  GLY616  TRP617  ASP618  TYR619  PRO620  LYS621  CYS622 
 ASP623  PHE694  ASN695  SER759  ASP760  ASP761  ALA762  ILE779  LEU786  VAL792 
 PHE793  MET794  SER795  GLU796  ALA797  LYS798  CYS799  TRP800  GLU811  SER814 

> <Gold.Protein.RotatedAtoms>
  151.0782  133.5411  159.2622 H   0  0  0  0  0  0  0  0  0  0  0  0  # atno 6907 bound_to 6896
  151.2324  135.0558  159.9003 H   0  0  0  0  0  0  0  0  0  0  0  0  # atno 6908 bound_to 6896
  152.5420  134.0569  159.8188 H   0  0  0  0  0  0  0  0  0  0  0  0  # atno 6909 bound_to 6896
  144.9438  139.4898  143.5559 H   0  0  0  0  0  0  0  0  0  0  0  0  # atno 7974 bound_to 7965
  154.8008  140.2851  155.5923 H   0  0  0  0  0  0  0  0  0  0  0  0  # atno 8008 bound_to 7997
  156.2977  140.2587  156.2805 H   0  0  0  0  0  0  0  0  0  0  0  0  # atno 8009 bound_to 7997
  154.9561  140.0378  157.2157 H   0  0  0  0  0  0  0  0  0  0  0  0  # atno 8010 bound_to 7997
  140.0614  144.5229  150.7291 H   0  0  0  0  0  0  0  0  0  0  0  0  # atno 10167 bound_to 10162
  157.2940  130.7317  149.6627 H   0  0  0  0  0  0  0  0  0  0  0  0  # atno 10718 bound_to 10713
  154.7183  135.3020  154.9089 H   0  0  0  0  0  0  0  0  0  0  0  0  # atno 10763 bound_to 10752
  153.9969  135.6712  153.4761 H   0  0  0  0  0  0  0  0  0  0  0  0  # atno 10764 bound_to 10752
  153.0812  135.5008  154.8422 H   0  0  0  0  0  0  0  0  0  0  0  0  # atno 10765 bound_to 10752
  141.1666  133.7204  156.8446 H   0  0  0  0  0  0  0  0  0  0  0  0  # atno 11005 bound_to 11000
  146.3296  139.8477  142.8879 LP  0  0  0  0  0  0  0  0  0  0  0  0  # atno 17320 bound_to 7965
  145.2949  141.0178  143.3642 LP  0  0  0  0  0  0  0  0  0  0  0  0  # atno 17321 bound_to 7965
  140.7170  143.2553  151.4403 LP  0  0  0  0  0  0  0  0  0  0  0  0  # atno 17342 bound_to 10162
  139.5891  144.1538  152.2066 LP  0  0  0  0  0  0  0  0  0  0  0  0  # atno 17343 bound_to 10162
  155.9668  130.4300  150.4857 LP  0  0  0  0  0  0  0  0  0  0  0  0  # atno 17370 bound_to 10713
  157.2825  131.0610  151.2188 LP  0  0  0  0  0  0  0  0  0  0  0  0  # atno 17371 bound_to 10713
  140.1959  134.8932  157.3113 LP  0  0  0  0  0  0  0  0  0  0  0  0  # atno 17394 bound_to 11000
  140.2240  134.3989  155.7552 LP  0  0  0  0  0  0  0  0  0  0  0  0  # atno 17395 bound_to 11000

$$$$
