AV-unprocessed.smi:2090|AV-procd|sdf|8532|dock7
  -GOLD-   2272011253D 1   1.00000     0.00000
 Structure written by MMmdl.
 42 43  0  0  0  0  0  0  0  0  2 V2000
  151.5252  140.6165  156.1881 C   0  0  0  0  0  0  0  0  0  0  0  0
  150.4056  140.2213  155.2877 C   0  0  0  0  0  0  0  0  0  0  0  0
  150.0400  139.0308  154.7253 C   0  0  0  0  0  0  0  0  0  0  0  0
  148.8751  139.3706  153.9876 C   0  0  0  0  0  0  0  0  0  0  0  0
  148.1677  138.3875  153.2500 N   0  0  0  0  0  0  0  0  0  0  0  0
  146.8376  138.2017  153.2029 C   0  0  0  0  0  0  0  0  0  0  0  0
  146.0020  138.8967  153.7819 O   0  0  0  0  0  0  0  0  0  0  0  0
  146.5163  137.1453  152.4418 N   0  0  0  0  0  0  0  0  0  0  0  0
  145.1560  136.6737  152.2083 C   0  0  0  0  0  0  0  0  0  0  0  0
  145.0863  135.7385  150.9851 C   0  0  0  0  0  0  0  0  0  0  0  0
  145.1157  134.3036  151.3642 N   0  3  2  0  0  0  0  0  0  0  0  0
  146.4830  133.8501  151.7287 C   0  0  0  0  0  0  0  0  0  0  0  0
  146.4696  132.4037  152.2509 C   0  0  0  0  0  0  0  0  0  0  0  0
  145.8486  131.4456  151.2212 C   0  0  1  0  0  0  0  0  0  0  0  0
  145.8064  130.0016  151.7399 C   0  0  0  0  0  0  0  0  0  0  0  0
  144.4496  131.9558  150.8377 C   0  0  0  0  0  0  0  0  0  0  0  0
  144.5010  133.4118  150.3448 C   0  0  0  0  0  0  0  0  0  0  0  0
  148.5605  140.6532  154.0867 N   0  0  0  0  0  0  0  0  0  0  0  0
  149.5405  141.2053  154.9200 O   0  0  0  0  0  0  0  0  0  0  0  0
  152.0404  139.7382  156.5774 H   0  0  0  0  0  0  0  0  0  0  0  0
  151.1553  141.1940  157.0355 H   0  0  0  0  0  0  0  0  0  0  0  0
  152.2531  141.2267  155.6536 H   0  0  0  0  0  0  0  0  0  0  0  0
  150.5274  138.0728  154.8306 H   0  0  0  0  0  0  0  0  0  0  0  0
  148.7369  137.7462  152.7179 H   0  0  0  0  0  0  0  0  0  0  0  0
  147.2626  136.6307  151.9972 H   0  0  0  0  0  0  0  0  0  0  0  0
  144.7805  136.1674  153.0993 H   0  0  0  0  0  0  0  0  0  0  0  0
  144.5302  137.5532  152.0632 H   0  0  0  0  0  0  0  0  0  0  0  0
  144.1975  135.9468  150.3871 H   0  0  0  0  0  0  0  0  0  0  0  0
  145.9431  135.9485  150.3432 H   0  0  0  0  0  0  0  0  0  0  0  0
  147.1390  133.9322  150.8605 H   0  0  0  0  0  0  0  0  0  0  0  0
  146.8956  134.5013  152.5003 H   0  0  0  0  0  0  0  0  0  0  0  0
  147.4871  132.0904  152.4874 H   0  0  0  0  0  0  0  0  0  0  0  0
  145.9086  132.3593  153.1855 H   0  0  0  0  0  0  0  0  0  0  0  0
  146.4722  131.4578  150.3261 H   0  0  0  0  0  0  0  0  0  0  0  0
  145.1919  129.9180  152.6370 H   0  0  0  0  0  0  0  0  0  0  0  0
  146.8064  129.6442  151.9874 H   0  0  0  0  0  0  0  0  0  0  0  0
  145.3928  129.3277  150.9890 H   0  0  0  0  0  0  0  0  0  0  0  0
  144.0207  131.3212  150.0614 H   0  0  0  0  0  0  0  0  0  0  0  0
  143.7809  131.8863  151.6970 H   0  0  0  0  0  0  0  0  0  0  0  0
  143.4879  133.7385  150.1142 H   0  0  0  0  0  0  0  0  0  0  0  0
  145.0704  133.4727  149.4160 H   0  0  0  0  0  0  0  0  0  0  0  0
  144.5610  134.2201  152.2043 H   0  0  0  0  0  0  0  0  0  0  0  0
  1  2  1  0  0  0  0
  1 20  1  0  0  0  0
  1 21  1  0  0  0  0
  1 22  1  0  0  0  0
  2 19  1  0  0  0  0
  2  3  2  0  0  0  0
  3  4  1  0  0  0  0
  3 23  1  0  0  0  0
  4  5  1  0  0  0  0
  4 18  2  0  0  0  0
  5  6  1  0  0  0  0
  5 24  1  0  0  0  0
  6  7  2  0  0  0  0
  6  8  1  0  0  0  0
  8  9  1  0  0  0  0
  8 25  1  0  0  0  0
  9 10  1  0  0  0  0
  9 26  1  0  0  0  0
  9 27  1  0  0  0  0
 10 11  1  0  0  0  0
 10 28  1  0  0  0  0
 10 29  1  0  0  0  0
 11 17  1  0  0  0  0
 11 12  1  0  0  0  0
 11 42  1  0  0  0  0
 12 13  1  0  0  0  0
 12 30  1  0  0  0  0
 12 31  1  0  0  0  0
 13 14  1  0  0  0  0
 13 32  1  0  0  0  0
 13 33  1  0  0  0  0
 14 15  1  0  0  0  0
 14 16  1  0  0  0  0
 14 34  1  0  0  0  0
 15 35  1  0  0  0  0
 15 36  1  0  0  0  0
 15 37  1  0  0  0  0
 16 17  1  0  0  0  0
 16 38  1  0  0  0  0
 16 39  1  0  0  0  0
 17 40  1  0  0  0  0
 17 41  1  0  0  0  0
 18 19  1  0  0  0  0
M  CHG  1  11   1
M  END
> <s_m_source_file>
AV-unprocessed.smi

> <i_m_source_file_index>
2090

> <i_lp_mmshare_version>
43012

> <i_f3d_flags>
0

> <s_epik_input>
W0NIM11jMVtjSF1jKG5vMSlbTkhdQyg9TylbTkhdW0NIMl1bQ0gyXU4yW0NIMl1bQ0gyXVtDSF0oW0NIM10pW0NIMl1bQ0gyXTI=

> <s_epik_cmdline>
J2VwaWtfcHl0aG9uJywgJy1waCcsICc3LjAnLCAnLXRuJywgJzgnLCAnLW1hJywgJzIwMCcsICctbWV0YWxfYmluZGluZycsICctaW1hZScsICc8aW5maWxlLm1hZT4nLCAnLW9tYWUnLCAnPG91dGZpbGUubWFlPic=

> <r_epik_Ionization_Penalty>
0.00176265

> <r_epik_Ionization_Penalty_Charging>
0.00172695

> <r_epik_Ionization_Penalty_Neutral>
3.56992e-05

> <r_epik_State_Penalty>
0.00116803

> <r_epik_Charging_Adjusted_Penalty>
0.00289498

> <i_epik_Tot_Q>
1

> <i_epik_Tot_abs_Q>
1

> <r_epik_Metal_State_Penalty>
0.0215312

> <b_epik_Metal_Only>
0

> <s_lp_Force_Field>
OPLS_2005

> <r_lp_Energy>
12.7246

> <b_lp_Chiralities_Consistent>
1

> <s_lp_Variant>
AV-unprocessed.smi:2090-1

> <Gold.Version>
5.8.1

> <Gold.Id.Protein>
6NUR|6NUR_protein|mol2

> <Gold.PLP.Fitness>
38.1001

> <Gold.PLP.PLP>
-33.9570

> <Gold.PLP.part.hbond>
-3.3911

> <Gold.PLP.part.metal>
0.0000

> <Gold.PLP.part.buried>
-4.5532

> <Gold.PLP.part.nonpolar>
-27.8200

> <Gold.PLP.part.repulsive>
0.5139

> <Gold.PLP.ligand.clash>
0.0000

> <Gold.PLP.ligand.torsion>
0.9400

> <Gold.PLP.Chemscore.Hbond>
2.0000

> <Gold.PLP.Chemscore.CHOScore>
0.0000

> <Gold.PLP.Chemscore.Metal>
0.0000

> <Gold.Chemscore.Hbonds>
donor molecule, donor type, donor heavy atom, donor atom, acceptor molecule, acceptor atom, score
      L1  H     5    24       P1  7948  1.00
      L1  H     8    25       P1  7948  1.00

> <Gold.PLP.Chemscore.Internal.Correction>
0.0232

> <Gold.Rescore>
     Score         DG    S(hbond)    S(metal)    S(lipo)     H(rot)  DE(clash)    DE(int)     intcor
     16.30     -17.14       1.92        0.00      79.09       1.57       0.01       0.83       ----

> <Gold.Chemscore.Fitness>
16.2971

> <Gold.Chemscore.DG>
-17.1382

> <Gold.Chemscore.ZeroCoef>
-5.4800

> <Gold.Chemscore.Hbond>
1.9230

> <Gold.Chemscore.Metal>
0.0000

> <Gold.Chemscore.Lipo>
79.0940

> <Gold.Chemscore.Internal_Hbond>
0.0000

> <Gold.Chemscore.DEClash>
0.0126

> <Gold.Chemscore.DEInternal>
0.8285

> <Gold.Chemscore.Rot>
1.5697

> <Gold.Chemscore.Internal.Correction>
   9.000000E+99

> <Gold.Chemscore.Hbonds>
donor molecule, donor type, donor heavy atom, donor atom, acceptor molecule, acceptor atom, score
      L1  H     5    24       P1  7948  0.97
      L1  H     8    25       P1  7948  0.96

> <Gold.Chemscore.Hbond.Weighted>
-6.4227

> <Gold.Chemscore.Metal.Weighted>
-0.0000

> <Gold.Chemscore.Lipo.Weighted>
-9.2540

> <Gold.Chemscore.Internal_Hbond.Weighted>
0.0000

> <Gold.Chemscore.DEClash.Weighted>
0.0126

> <Gold.Chemscore.DEInternal.Weighted>
0.8285

> <Gold.Chemscore.Rot.Weighted>
4.0185

> <Gold.Chemscore.Internal.Correction.Weighted>
   9.000000E+99

> <Gold.Protein.RotatedTorsions>
[ 6907 6896 6895 6894 ] final  -46.78 input  -60.11 | X-H torsion
[ 7974 7965 7964 7962 ] final  145.03 input  175.53 | X-H torsion
[ 8008 7997 7996 7995 ] final -137.90 input   59.86 | X-H torsion
[ 10167 10162 10161 10158 ] final -144.03 input  -65.29 | X-H torsion
[ 10718 10713 10712 10709 ] final   77.71 input   66.30 | X-H torsion
[ 10763 10752 10751 10750 ] final  161.43 input  -60.55 | X-H torsion
[ 11005 11000 10999 10996 ] final -104.89 input  -57.11 | X-H torsion

> <Gold.Protein.ActiveResidues>
 VAL166  LYS551  ARG553  GLY616  TRP617  ASP618  TYR619  PRO620  LYS621  CYS622 
 ASP623  PHE694  ASN695  SER759  ASP760  ASP761  ALA762  ILE779  LEU786  VAL792 
 PHE793  MET794  SER795  GLU796  ALA797  LYS798  CYS799  TRP800  GLU811  SER814 

> <Gold.Protein.RotatedAtoms>
  150.9076  134.8492  159.7402 H   0  0  0  0  0  0  0  0  0  0  0  0  # atno 6907 bound_to 6896
  152.4927  134.4408  159.9552 H   0  0  0  0  0  0  0  0  0  0  0  0  # atno 6908 bound_to 6896
  151.4453  133.3593  159.2823 H   0  0  0  0  0  0  0  0  0  0  0  0  # atno 6909 bound_to 6896
  144.8787  139.5733  143.5853 H   0  0  0  0  0  0  0  0  0  0  0  0  # atno 7974 bound_to 7965
  155.4195  140.0517  157.3026 H   0  0  0  0  0  0  0  0  0  0  0  0  # atno 8008 bound_to 7997
  154.4909  140.2119  155.9510 H   0  0  0  0  0  0  0  0  0  0  0  0  # atno 8009 bound_to 7997
  156.1340  140.3166  155.8398 H   0  0  0  0  0  0  0  0  0  0  0  0  # atno 8010 bound_to 7997
  139.7938  143.7929  152.2652 H   0  0  0  0  0  0  0  0  0  0  0  0  # atno 10167 bound_to 10162
  157.6720  130.9834  150.1681 H   0  0  0  0  0  0  0  0  0  0  0  0  # atno 10718 bound_to 10713
  154.2627  135.2768  155.2771 H   0  0  0  0  0  0  0  0  0  0  0  0  # atno 10763 bound_to 10752
  154.5369  135.5713  153.6810 H   0  0  0  0  0  0  0  0  0  0  0  0  # atno 10764 bound_to 10752
  152.9959  135.6241  154.2779 H   0  0  0  0  0  0  0  0  0  0  0  0  # atno 10765 bound_to 10752
  141.1079  133.8761  157.1667 H   0  0  0  0  0  0  0  0  0  0  0  0  # atno 11005 bound_to 11000
  146.2980  139.7336  142.9112 LP  0  0  0  0  0  0  0  0  0  0  0  0  # atno 17320 bound_to 7965
  145.3995  141.0383  143.3078 LP  0  0  0  0  0  0  0  0  0  0  0  0  # atno 17321 bound_to 7965
  139.8028  144.7367  150.9801 LP  0  0  0  0  0  0  0  0  0  0  0  0  # atno 17342 bound_to 10162
  140.7820  143.4328  151.0669 LP  0  0  0  0  0  0  0  0  0  0  0  0  # atno 17343 bound_to 10162
  156.2442  130.3694  149.8304 LP  0  0  0  0  0  0  0  0  0  0  0  0  # atno 17370 bound_to 10713
  156.6095  130.8581  151.3451 LP  0  0  0  0  0  0  0  0  0  0  0  0  # atno 17371 bound_to 10713
  139.9958  135.0047  157.0079 LP  0  0  0  0  0  0  0  0  0  0  0  0  # atno 17394 bound_to 11000
  140.4853  134.1248  155.7223 LP  0  0  0  0  0  0  0  0  0  0  0  0  # atno 17395 bound_to 11000

$$$$
