#       Name:                AV-unprocessed.smi:212
#       Creating user name   scv26
#       Creation time:       Thu Mar 26 19:58:44 2020


#       File generated by GOLD software.
#

@<TRIPOS>MOLECULE
AV-unprocessed.smi:212
    75    78     1
SMALL
NO_CHARGES


@<TRIPOS>ATOM
      1 ****        -1.8181  -1.9332   1.9375 C.3            1 S1                 0.0000
      2 ****        -2.2605  -0.4573   1.9053 C.3            1 S1                 0.0000
      3 ****        -1.9588   0.2765   3.2274 C.3            1 S1                 0.0000
      4 ****        -2.4699   1.6721   3.1873 N.4            1 S1                 1.0000
      5 ****        -2.3114   2.3948   4.4778 C.3            1 S1                 0.0000
      6 ****        -3.6067   2.4115   5.3249 C.3            1 S1                 0.0000
      7 ****        -3.3736   3.1956   6.6274 C.3            1 S1                 0.0000
      8 ****        -4.8022   3.0025   4.5549 C.3            1 S1                 0.0000
      9 ****        -3.9345   1.0910   5.7087 O.3            1 S1                 0.0000
     10 ****        -1.9353   2.4321   2.0281 C.3            1 S1                 0.0000
     11 ****        -2.1778   1.6871   0.6990 C.3            1 S1                 0.0000
     12 ****        -1.7421   0.2942   0.7576 N.3            1 S1                 0.0000
     13 ****        -0.4567   0.0783   0.3896 C.ar           1 S1                 0.0000
     14 ****         0.5626   0.6218   1.1043 N.ar           1 S1                 0.0000
     15 ****         1.8287   0.3934   0.7415 C.ar           1 S1                 0.0000
     16 ****         2.2862  -0.3338  -0.2803 N.ar           1 S1                 0.0000
     17 ****         1.2623  -0.8786  -0.9984 C.ar           1 S1                 0.0000
     18 ****        -0.1265  -0.7227  -0.7345 C.ar           1 S1                 0.0000
     19 ****        -0.8743  -1.4200  -1.6744 N.2            1 S1                 0.0000
     20 ****         0.0237  -1.9556  -2.4563 C.2            1 S1                 0.0000
     21 ****         1.3310  -1.6795  -2.1246 N.pl3          1 S1                 0.0000
     22 ****         2.5170  -2.1450  -2.8205 C.3            1 S1                 0.0000
     23 ****         2.8134  -1.3843  -4.1401 C.3            1 S1                 0.0000
     24 ****         2.9304   0.1472  -3.9283 C.3            1 S1                 0.0000
     25 ****         1.6641   0.7641  -3.8146 O.3            1 S1                 0.0000
     26 ****         4.0926  -1.9496  -4.8110 C.3            1 S1                 0.0000
     27 ****         4.0562  -3.4393  -5.1112 C.3            1 S1                 0.0000
     28 ****         5.1683  -3.5831  -6.1408 C.3            1 S1                 0.0000
     29 ****         5.0925  -2.4014  -6.9256 O.3            1 S1                 0.0000
     30 ****         4.3944  -1.3869  -6.2081 C.3            1 S1                 0.0000
     31 ****        -2.3197  -2.4699   2.7432 H              1 S1                 0.0000
     32 ****        -0.7444  -2.0343   2.0991 H              1 S1                 0.0000
     33 ****        -2.0677  -2.4390   1.0042 H              1 S1                 0.0000
     34 ****        -3.3444  -0.4665   1.7820 H              1 S1                 0.0000
     35 ****        -2.4223  -0.2628   4.0528 H              1 S1                 0.0000
     36 ****        -0.8862   0.2843   3.4257 H              1 S1                 0.0000
     37 ****        -1.4806   1.9724   5.0458 H              1 S1                 0.0000
     38 ****        -2.0278   3.4302   4.2812 H              1 S1                 0.0000
     39 ****        -3.1232   4.2369   6.4213 H              1 S1                 0.0000
     40 ****        -2.5542   2.7699   7.2081 H              1 S1                 0.0000
     41 ****        -4.2616   3.1925   7.2613 H              1 S1                 0.0000
     42 ****        -4.5945   4.0221   4.2289 H              1 S1                 0.0000
     43 ****        -5.6975   3.0338   5.1772 H              1 S1                 0.0000
     44 ****        -5.0458   2.4158   3.6686 H              1 S1                 0.0000
     45 ****        -4.6915   1.1198   6.2747 H              1 S1                 0.0000
     46 ****        -2.4137   3.4110   1.9810 H              1 S1                 0.0000
     47 ****        -0.8705   2.6128   2.1776 H              1 S1                 0.0000
     48 ****        -3.2429   1.6949   0.4650 H              1 S1                 0.0000
     49 ****        -1.6802   2.2066  -0.1215 H              1 S1                 0.0000
     50 ****         2.5837   0.8583   1.3584 H              1 S1                 0.0000
     51 ****        -0.2431  -2.5678  -3.3056 H              1 S1                 0.0000
     52 ****         3.3692  -2.0677  -2.1440 H              1 S1                 0.0000
     53 ****         2.3762  -3.2083  -3.0138 H              1 S1                 0.0000
     54 ****         1.9842  -1.5648  -4.8265 H              1 S1                 0.0000
     55 ****         3.5290   0.3723  -3.0449 H              1 S1                 0.0000
     56 ****         3.4263   0.6273  -4.7705 H              1 S1                 0.0000
     57 ****         1.7927   1.6927  -3.6944 H              1 S1                 0.0000
     58 ****         4.9523  -1.7543  -4.1676 H              1 S1                 0.0000
     59 ****         4.2255  -4.0623  -4.2325 H              1 S1                 0.0000
     60 ****         3.0986  -3.7193  -5.5529 H              1 S1                 0.0000
     61 ****         6.1409  -3.6162  -5.6484 H              1 S1                 0.0000
     62 ****         5.0646  -4.4797  -6.7519 H              1 S1                 0.0000
     63 ****         3.4734  -1.1638  -6.7484 H              1 S1                 0.0000
     64 ****         4.9871  -0.4729  -6.1641 H              1 S1                 0.0000
     65 ****        -3.4652   1.6032   3.0310 H              1 S1                 0.0000
     66 ****        -3.1642   0.6813   6.1972 LP             1 S1                 0.0000
     67 ****        -4.1420   0.5459   4.8964 LP             1 S1                 0.0000
     68 ****        -2.2185  -0.1573   0.0032 LP             1 S1                 0.0000
     69 ****         0.3659   1.1926   1.9015 LP             1 S1                 0.0000
     70 ****         3.2550  -0.4626  -0.4921 LP             1 S1                 0.0000
     71 ****        -1.8695  -1.4945  -1.7377 LP             1 S1                 0.0000
     72 ****         1.1744   0.3868  -3.0286 LP             1 S1                 0.0000
     73 ****         1.1339   0.6019  -4.6468 LP             1 S1                 0.0000
     74 ****         4.6068  -2.5993  -7.7771 LP             1 S1                 0.0000
     75 ****         6.0168  -2.0828  -7.1355 LP             1 S1                 0.0000
@<TRIPOS>BOND
    1    1    2 1     
    2    1   31 1     
    3    1   32 1     
    4    1   33 1     
    5    2   12 1     
    6    2    3 1     
    7    2   34 1     
    8    3    4 1     
    9    3   35 1     
   10    3   36 1     
   11    4    5 1     
   12    4   10 1     
   13    4   65 1     
   14    5    6 1     
   15    5   37 1     
   16    5   38 1     
   17    6    7 1     
   18    6    8 1     
   19    6    9 1     
   20    7   39 1     
   21    7   40 1     
   22    7   41 1     
   23    8   42 1     
   24    8   43 1     
   25    8   44 1     
   26    9   45 1     
   27   10   11 1     
   28   10   46 1     
   29   10   47 1     
   30   11   12 1     
   31   11   48 1     
   32   11   49 1     
   33   12   13 1     
   34   13   18 ar    
   35   13   14 ar    
   36   14   15 ar    
   37   15   16 ar    
   38   15   50 1     
   39   16   17 ar    
   40   17   21 1     
   41   17   18 ar    
   42   18   19 1     
   43   19   20 2     
   44   20   21 1     
   45   20   51 1     
   46   21   22 1     
   47   22   23 1     
   48   22   52 1     
   49   22   53 1     
   50   23   24 1     
   51   23   26 1     
   52   23   54 1     
   53   24   25 1     
   54   24   55 1     
   55   24   56 1     
   56   25   57 1     
   57   26   30 1     
   58   26   27 1     
   59   26   58 1     
   60   27   28 1     
   61   27   59 1     
   62   27   60 1     
   63   28   29 1     
   64   28   61 1     
   65   28   62 1     
   66   29   30 1     
   67   30   63 1     
   68   30   64 1     
   69    9   66 1     
   70    9   67 1     
   71   12   68 1     
   72   14   69 1     
   73   16   70 1     
   74   19   71 1     
   75   25   72 1     
   76   25   73 1     
   77   29   74 1     
   78   29   75 1     
@<TRIPOS>SUBSTRUCTURE
      1 S1             1
@<TRIPOS>SET
LONE_PAIRS      STATIC     ATOMS    <user>   **** ""
10 66 67 68 69 70 71 72 73 74 75
DONOR_HYDROGENS      STATIC     ATOMS    <user>   **** ""
3 65 45 57
ATOM$BLUE        STATIC     ATOMS    COLORGROUP SYSTEM
10 66 67 68 69 70 71 72 73 74 75
ATOM$RED        STATIC     ATOMS    COLORGROUP SYSTEM
3 65 45 57
