AV-unprocessed.smi:83|AV-procd|sdf|805|dock10
  -GOLD-   2262017193D 1   1.00000     0.00000
 Structure written by MMmdl.
 56 59  0  0  0  0  0  0  0  0  1 V2000
  152.1363  145.2418  159.2858 C   0  0  0  0  0  0  0  0  0  0  0  0
  152.3167  143.8289  159.8433 C   0  0  0  0  0  0  0  0  0  0  0  0
  152.7700  143.6884  160.9791 O   0  0  0  0  0  0  0  0  0  0  0  0
  151.9723  142.7836  159.0647 N   0  0  0  0  0  0  0  0  0  0  0  0
  152.0916  141.3722  159.4272 C   0  0  0  0  0  0  0  0  0  0  0  0
  151.7696  140.5937  158.1500 C   0  0  0  0  0  0  0  0  0  0  0  0
  150.8694  141.5366  157.3592 C   0  0  2  0  0  0  0  0  0  0  0  0
  150.8171  141.2329  155.8492 C   0  0  0  0  0  0  0  0  0  0  0  0
  150.2491  139.9146  155.5589 N   0  0  0  0  0  0  0  0  0  0  0  0
  151.0279  138.9981  154.7361 C   0  0  0  0  0  0  0  0  0  0  0  0
  149.2563  139.4289  156.3552 C   0  0  0  0  0  0  0  0  0  0  0  0
  148.1355  140.1835  156.5075 N   0  0  0  0  0  0  0  0  0  0  0  0
  147.1293  139.7674  157.2803 C   0  0  0  0  0  0  0  0  0  0  0  0
  147.0330  138.6420  157.9875 N   0  0  0  0  0  0  0  0  0  0  0  0
  148.1513  137.8756  157.8466 C   0  0  0  0  0  0  0  0  0  0  0  0
  149.2979  138.1847  157.0574 C   0  0  0  0  0  0  0  0  0  0  0  0
  150.2312  137.1593  157.1810 N   0  0  0  0  0  0  0  0  0  0  0  0
  149.6682  136.2976  157.9822 C   0  0  0  0  0  0  0  0  0  0  0  0
  148.4173  136.6495  158.4295 N   0  0  0  0  0  0  0  0  0  0  0  0
  147.5701  135.8811  159.3245 C   0  0  0  0  0  0  0  0  0  0  0  0
  147.4578  136.5221  160.7216 C   0  0  2  0  0  0  0  0  0  0  0  0
  148.7446  136.9109  161.1632 O   0  0  0  0  0  0  0  0  0  0  0  0
  146.8455  135.5600  161.7562 C   0  0  1  0  0  0  0  0  0  0  0  0
  145.3936  135.1644  161.4746 C   0  0  0  0  0  0  0  0  0  0  0  0
  145.2539  133.7950  162.1230 C   0  0  0  0  0  0  0  0  0  0  0  0
  146.6932  133.3831  162.4396 C   0  0  0  0  0  0  0  0  0  0  0  0
  147.5021  134.3022  161.7206 O   0  0  0  0  0  0  0  0  0  0  0  0
  151.4174  142.9216  157.7214 C   0  0  0  0  0  0  0  0  0  0  0  0
  152.6744  145.3594  158.3450 H   0  0  0  0  0  0  0  0  0  0  0  0
  152.5199  145.9836  159.9871 H   0  0  0  0  0  0  0  0  0  0  0  0
  151.0808  145.4548  159.1150 H   0  0  0  0  0  0  0  0  0  0  0  0
  153.0862  141.1224  159.7990 H   0  0  0  0  0  0  0  0  0  0  0  0
  151.3657  141.1409  160.2079 H   0  0  0  0  0  0  0  0  0  0  0  0
  152.6907  140.4061  157.5961 H   0  0  0  0  0  0  0  0  0  0  0  0
  151.2996  139.6307  158.3517 H   0  0  0  0  0  0  0  0  0  0  0  0
  149.8644  141.4511  157.7757 H   0  0  0  0  0  0  0  0  0  0  0  0
  150.2884  142.0271  155.3223 H   0  0  0  0  0  0  0  0  0  0  0  0
  151.8314  141.2523  155.4494 H   0  0  0  0  0  0  0  0  0  0  0  0
  150.3788  138.2960  154.2121 H   0  0  0  0  0  0  0  0  0  0  0  0
  151.7360  138.4373  155.3468 H   0  0  0  0  0  0  0  0  0  0  0  0
  151.5951  139.5468  153.9838 H   0  0  0  0  0  0  0  0  0  0  0  0
  146.2812  140.4330  157.3421 H   0  0  0  0  0  0  0  0  0  0  0  0
  150.1525  135.3762  158.2712 H   0  0  0  0  0  0  0  0  0  0  0  0
  146.5843  135.7976  158.8661 H   0  0  0  0  0  0  0  0  0  0  0  0
  147.9639  134.8668  159.3985 H   0  0  0  0  0  0  0  0  0  0  0  0
  146.8413  137.4198  160.6557 H   0  0  0  0  0  0  0  0  0  0  0  0
  149.3852  136.3562  160.7449 H   0  0  0  0  0  0  0  0  0  0  0  0
  146.9314  135.9734  162.7634 H   0  0  0  0  0  0  0  0  0  0  0  0
  144.6797  135.8911  161.8636 H   0  0  0  0  0  0  0  0  0  0  0  0
  145.2270  135.0753  160.4000 H   0  0  0  0  0  0  0  0  0  0  0  0
  144.6533  133.8367  163.0324 H   0  0  0  0  0  0  0  0  0  0  0  0
  144.7785  133.0921  161.4381 H   0  0  0  0  0  0  0  0  0  0  0  0
  146.8954  133.4859  163.5067 H   0  0  0  0  0  0  0  0  0  0  0  0
  146.9102  132.3549  162.1493 H   0  0  0  0  0  0  0  0  0  0  0  0
  150.6344  143.6805  157.6756 H   0  0  0  0  0  0  0  0  0  0  0  0
  152.2183  143.2186  157.0426 H   0  0  0  0  0  0  0  0  0  0  0  0
  1  2  1  0  0  0  0
  1 29  1  0  0  0  0
  1 30  1  0  0  0  0
  1 31  1  0  0  0  0
  2  3  2  0  0  0  0
  2  4  1  0  0  0  0
  4 28  1  0  0  0  0
  4  5  1  0  0  0  0
  5  6  1  0  0  0  0
  5 32  1  0  0  0  0
  5 33  1  0  0  0  0
  6  7  1  0  0  0  0
  6 34  1  0  0  0  0
  6 35  1  0  0  0  0
  7  8  1  0  0  0  0
  7 28  1  0  0  0  0
  7 36  1  0  0  0  0
  8  9  1  0  0  0  0
  8 37  1  0  0  0  0
  8 38  1  0  0  0  0
  9 10  1  0  0  0  0
  9 11  1  0  0  0  0
 10 39  1  0  0  0  0
 10 40  1  0  0  0  0
 10 41  1  0  0  0  0
 11 16  1  0  0  0  0
 11 12  2  0  0  0  0
 12 13  1  0  0  0  0
 13 14  2  0  0  0  0
 13 42  1  0  0  0  0
 14 15  1  0  0  0  0
 15 19  1  0  0  0  0
 15 16  2  0  0  0  0
 16 17  1  0  0  0  0
 17 18  2  0  0  0  0
 18 19  1  0  0  0  0
 18 43  1  0  0  0  0
 19 20  1  0  0  0  0
 20 21  1  0  0  0  0
 20 44  1  0  0  0  0
 20 45  1  0  0  0  0
 21 22  1  0  0  0  0
 21 23  1  0  0  0  0
 21 46  1  0  0  0  0
 22 47  1  0  0  0  0
 23 27  1  0  0  0  0
 23 24  1  0  0  0  0
 23 48  1  0  0  0  0
 24 25  1  0  0  0  0
 24 49  1  0  0  0  0
 24 50  1  0  0  0  0
 25 26  1  0  0  0  0
 25 51  1  0  0  0  0
 25 52  1  0  0  0  0
 26 27  1  0  0  0  0
 26 53  1  0  0  0  0
 26 54  1  0  0  0  0
 28 55  1  0  0  0  0
 28 56  1  0  0  0  0
M  END
> <s_m_source_file>
AV-unprocessed.smi

> <i_m_source_file_index>
83

> <i_lp_mmshare_version>
43012

> <i_f3d_flags>
0

> <s_epik_input>
W0NIM11DKD1PKU4xW0NIMl1bQ0gyXVtDQEhdKFtDSDJdMSlbQ0gyXU4oW0NIM10pYyhuW2NIXW4yKWMoYzIzKW5bY0hdbjNbQ0gyXVtDQEhdKFtPSF0pW0NAQEhdNFtDSDJdW0NIMl1bQ0gyXU80

> <s_epik_cmdline>
J2VwaWtfcHl0aG9uJywgJy1waCcsICc3LjAnLCAnLXRuJywgJzgnLCAnLW1hJywgJzIwMCcsICctbWV0YWxfYmluZGluZycsICctaW1hZScsICc8aW5maWxlLm1hZT4nLCAnLW9tYWUnLCAnPG91dGZpbGUubWFlPic=

> <r_lp_tautomer_probability>
1

> <r_epik_Ionization_Penalty>
0.00109752

> <r_epik_Ionization_Penalty_Charging>
0

> <r_epik_Ionization_Penalty_Neutral>
0.00109752

> <r_epik_State_Penalty>
0.000634803

> <r_epik_Charging_Adjusted_Penalty>
0.000634803

> <i_epik_Tot_Q>
0

> <i_epik_Tot_abs_Q>
0

> <r_epik_Metal_State_Penalty>
-0

> <b_epik_Metal_Only>
0

> <s_lp_Force_Field>
OPLS_2005

> <r_lp_Energy>
52.1459

> <b_lp_Chiralities_Consistent>
1

> <s_lp_Variant>
AV-unprocessed.smi:83-6

> <Gold.Version>
5.8.1

> <Gold.Id.Protein>
6NUR|6NUR_protein|mol2

> <Gold.PLP.Fitness>
45.0485

> <Gold.PLP.PLP>
-44.1227

> <Gold.PLP.part.hbond>
-1.2564

> <Gold.PLP.part.metal>
0.0000

> <Gold.PLP.part.buried>
-7.2164

> <Gold.PLP.part.nonpolar>
-37.2185

> <Gold.PLP.part.repulsive>
0.1088

> <Gold.PLP.ligand.clash>
0.0000

> <Gold.PLP.ligand.torsion>
1.2596

> <Gold.PLP.Chemscore.Hbond>
1.0000

> <Gold.PLP.Chemscore.CHOScore>
0.0000

> <Gold.PLP.Chemscore.Metal>
0.0000

> <Gold.Chemscore.Hbonds>
donor molecule, donor type, donor heavy atom, donor atom, acceptor molecule, acceptor atom, score
      P1  H  6931  6943       L1    22  1.00

> <Gold.PLP.Chemscore.Internal.Correction>
0.4449

> <Gold.Rescore>
     Score         DG    S(hbond)    S(metal)    S(lipo)     H(rot)  DE(clash)    DE(int)     intcor
     12.18     -13.41       0.97        0.00      97.31       2.62       0.03       1.20       ----

> <Gold.Chemscore.Fitness>
12.1766

> <Gold.Chemscore.DG>
-13.4076

> <Gold.Chemscore.ZeroCoef>
-5.4800

> <Gold.Chemscore.Hbond>
0.9691

> <Gold.Chemscore.Metal>
0.0000

> <Gold.Chemscore.Lipo>
97.3148

> <Gold.Chemscore.Internal_Hbond>
0.0000

> <Gold.Chemscore.DEClash>
0.0262

> <Gold.Chemscore.DEInternal>
1.2047

> <Gold.Chemscore.Rot>
2.6152

> <Gold.Chemscore.Internal.Correction>
   9.000000E+99

> <Gold.Chemscore.Hbonds>
donor molecule, donor type, donor heavy atom, donor atom, acceptor molecule, acceptor atom, score
      P1  H  6931  6943       L1    22  0.93

> <Gold.Chemscore.Hbond.Weighted>
-3.2366

> <Gold.Chemscore.Metal.Weighted>
-0.0000

> <Gold.Chemscore.Lipo.Weighted>
-11.3858

> <Gold.Chemscore.Internal_Hbond.Weighted>
0.0000

> <Gold.Chemscore.DEClash.Weighted>
0.0262

> <Gold.Chemscore.DEInternal.Weighted>
1.2047

> <Gold.Chemscore.Rot.Weighted>
6.6949

> <Gold.Chemscore.Internal.Correction.Weighted>
   9.000000E+99

> <Gold.Protein.RotatedTorsions>
[ 6907 6896 6895 6894 ] final   55.18 input  -60.11 | X-H torsion
[ 7974 7965 7964 7962 ] final  164.88 input  175.53 | X-H torsion
[ 8008 7997 7996 7995 ] final  -48.49 input   59.86 | X-H torsion
[ 10167 10162 10161 10158 ] final -144.51 input  -65.29 | X-H torsion
[ 10718 10713 10712 10709 ] final   66.97 input   66.30 | X-H torsion
[ 10763 10752 10751 10750 ] final  -14.52 input  -60.55 | X-H torsion
[ 11005 11000 10999 10996 ] final   61.01 input  -57.11 | X-H torsion

> <Gold.Protein.ActiveResidues>
 VAL166  LYS551  ARG553  GLY616  TRP617  ASP618  TYR619  PRO620  LYS621  CYS622 
 ASP623  PHE694  ASN695  SER759  ASP760  ASP761  ALA762  ILE779  LEU786  VAL792 
 PHE793  MET794  SER795  GLU796  ALA797  LYS798  CYS799  TRP800  GLU811  SER814 

> <Gold.Protein.RotatedAtoms>
  152.3513  134.7002  160.0235 H   0  0  0  0  0  0  0  0  0  0  0  0  # atno 6907 bound_to 6896
  151.7355  133.3314  159.3360 H   0  0  0  0  0  0  0  0  0  0  0  0  # atno 6908 bound_to 6896
  150.7542  134.6258  159.6205 H   0  0  0  0  0  0  0  0  0  0  0  0  # atno 6909 bound_to 6896
  144.7526  139.8390  143.6361 H   0  0  0  0  0  0  0  0  0  0  0  0  # atno 7974 bound_to 7965
  154.4030  140.1320  156.4347 H   0  0  0  0  0  0  0  0  0  0  0  0  # atno 8008 bound_to 7997
  155.7517  140.3488  155.5133 H   0  0  0  0  0  0  0  0  0  0  0  0  # atno 8009 bound_to 7997
  155.8943  140.1008  157.1386 H   0  0  0  0  0  0  0  0  0  0  0  0  # atno 8010 bound_to 7997
  139.7892  143.7991  152.2648 H   0  0  0  0  0  0  0  0  0  0  0  0  # atno 10167 bound_to 10162
  157.6201  130.9296  150.0179 H   0  0  0  0  0  0  0  0  0  0  0  0  # atno 10718 bound_to 10713
  153.5295  135.7015  153.5690 H   0  0  0  0  0  0  0  0  0  0  0  0  # atno 10763 bound_to 10752
  153.3704  135.3946  155.1784 H   0  0  0  0  0  0  0  0  0  0  0  0  # atno 10764 bound_to 10752
  154.8686  135.3810  154.4791 H   0  0  0  0  0  0  0  0  0  0  0  0  # atno 10765 bound_to 10752
  140.0191  134.6180  155.9666 H   0  0  0  0  0  0  0  0  0  0  0  0  # atno 11005 bound_to 11000
  146.1496  139.4575  143.0057 LP  0  0  0  0  0  0  0  0  0  0  0  0  # atno 17320 bound_to 7965
  145.6891  141.0169  143.1565 LP  0  0  0  0  0  0  0  0  0  0  0  0  # atno 17321 bound_to 7965
  139.8077  144.7349  150.9740 LP  0  0  0  0  0  0  0  0  0  0  0  0  # atno 17342 bound_to 10162
  140.7820  143.4282  151.0735 LP  0  0  0  0  0  0  0  0  0  0  0  0  # atno 17343 bound_to 10162
  156.1343  130.3643  149.9682 LP  0  0  0  0  0  0  0  0  0  0  0  0  # atno 17370 bound_to 10713
  156.7736  130.9195  151.3645 LP  0  0  0  0  0  0  0  0  0  0  0  0  # atno 17371 bound_to 10713
  141.1762  133.6541  156.4839 LP  0  0  0  0  0  0  0  0  0  0  0  0  # atno 17394 bound_to 11000
  140.4419  134.7008  157.4996 LP  0  0  0  0  0  0  0  0  0  0  0  0  # atno 17395 bound_to 11000

$$$$
