AV-unprocessed.smi:197|AV-procd|sdf|1547|dock8
  -GOLD-   2262019413D 1   1.00000     0.00000
 Structure written by MMmdl.
 54 57  0  0  0  0  0  0  0  0  1 V2000
  151.7949  144.5070  159.3642 C   0  0  0  0  0  0  0  0  0  0  0  0
  151.0197  143.3413  159.1480 O   0  0  0  0  0  0  0  0  0  0  0  0
  151.2952  142.7283  157.8993 C   0  0  0  0  0  0  0  0  0  0  0  0
  150.0926  141.8700  157.4781 C   0  0  0  0  0  0  0  0  0  0  0  0
  150.1519  141.3500  156.0164 C   0  0  1  0  0  0  0  0  0  0  0  0
  151.2071  140.2257  155.8773 C   0  0  0  0  0  0  0  0  0  0  0  0
  151.2155  139.6976  154.5565 O   0  0  0  0  0  0  0  0  0  0  0  0
  149.9668  139.1132  154.2164 C   0  0  0  0  0  0  0  0  0  0  0  0
  148.8890  140.2028  154.2470 C   0  0  0  0  0  0  0  0  0  0  0  0
  148.8481  140.8490  155.5552 N   0  0  0  0  0  0  0  0  0  0  0  0
  147.7930  141.6977  155.6085 C   0  0  0  0  0  0  0  0  0  0  0  0
  147.3432  142.3096  154.4803 N   0  0  0  0  0  0  0  0  0  0  0  0
  146.2867  143.1260  154.5372 C   0  0  0  0  0  0  0  0  0  0  0  0
  145.5413  143.4544  155.5948 N   0  0  0  0  0  0  0  0  0  0  0  0
  145.9832  142.8316  156.7252 C   0  0  0  0  0  0  0  0  0  0  0  0
  147.0924  141.9458  156.8188 C   0  0  0  0  0  0  0  0  0  0  0  0
  147.2447  141.5070  158.1276 N   0  0  0  0  0  0  0  0  0  0  0  0
  146.2758  142.0980  158.7726 C   0  0  0  0  0  0  0  0  0  0  0  0
  145.4650  142.9055  158.0062 N   0  0  0  0  0  0  0  0  0  0  0  0
  144.3129  143.6677  158.4619 C   0  0  0  0  0  0  0  0  0  0  0  0
  144.6300  144.5959  159.6585 C   0  0  2  0  0  0  0  0  0  0  0  0
  143.5735  145.5343  159.7924 O   0  0  0  0  0  0  0  0  0  0  0  0
  145.9395  145.3591  159.5241 C   0  0  0  0  0  0  0  0  0  0  0  0
  146.2850  145.6788  160.9731 C   0  0  0  0  0  0  0  0  0  0  0  0
  145.8528  144.5418  161.7095 O   0  0  0  0  0  0  0  0  0  0  0  0
  144.8524  143.8302  160.9814 C   0  0  1  0  0  0  0  0  0  0  0  0
  143.6093  143.5837  161.8515 C   0  0  0  0  0  0  0  0  0  0  0  0
  151.5484  144.9358  160.3354 H   0  0  0  0  0  0  0  0  0  0  0  0
  151.5929  145.2611  158.6023 H   0  0  0  0  0  0  0  0  0  0  0  0
  152.8615  144.2786  159.3578 H   0  0  0  0  0  0  0  0  0  0  0  0
  151.5288  143.4789  157.1441 H   0  0  0  0  0  0  0  0  0  0  0  0
  152.1762  142.0916  157.9940 H   0  0  0  0  0  0  0  0  0  0  0  0
  150.0018  141.0223  158.1583 H   0  0  0  0  0  0  0  0  0  0  0  0
  149.1991  142.4723  157.6401 H   0  0  0  0  0  0  0  0  0  0  0  0
  150.4451  142.1697  155.3588 H   0  0  0  0  0  0  0  0  0  0  0  0
  152.2068  140.6066  156.0818 H   0  0  0  0  0  0  0  0  0  0  0  0
  151.0207  139.4231  156.5931 H   0  0  0  0  0  0  0  0  0  0  0  0
  150.0356  138.6800  153.2185 H   0  0  0  0  0  0  0  0  0  0  0  0
  149.7248  138.3010  154.9039 H   0  0  0  0  0  0  0  0  0  0  0  0
  149.0970  140.9502  153.4796 H   0  0  0  0  0  0  0  0  0  0  0  0
  147.9196  139.7612  154.0104 H   0  0  0  0  0  0  0  0  0  0  0  0
  145.9948  143.5777  153.6007 H   0  0  0  0  0  0  0  0  0  0  0  0
  146.1195  141.9539  159.8319 H   0  0  0  0  0  0  0  0  0  0  0  0
  143.9287  144.2480  157.6218 H   0  0  0  0  0  0  0  0  0  0  0  0
  143.5256  142.9618  158.7296 H   0  0  0  0  0  0  0  0  0  0  0  0
  143.4715  145.9893  158.9706 H   0  0  0  0  0  0  0  0  0  0  0  0
  146.7115  144.7105  159.1084 H   0  0  0  0  0  0  0  0  0  0  0  0
  145.8709  146.2460  158.8925 H   0  0  0  0  0  0  0  0  0  0  0  0
  147.3479  145.8711  161.1197 H   0  0  0  0  0  0  0  0  0  0  0  0
  145.7307  146.5539  161.3150 H   0  0  0  0  0  0  0  0  0  0  0  0
  145.3006  142.8629  160.7505 H   0  0  0  0  0  0  0  0  0  0  0  0
  142.8414  143.0460  161.2949 H   0  0  0  0  0  0  0  0  0  0  0  0
  143.1766  144.5175  162.2115 H   0  0  0  0  0  0  0  0  0  0  0  0
  143.8647  142.9852  162.7260 H   0  0  0  0  0  0  0  0  0  0  0  0
  1  2  1  0  0  0  0
  1 28  1  0  0  0  0
  1 29  1  0  0  0  0
  1 30  1  0  0  0  0
  2  3  1  0  0  0  0
  3  4  1  0  0  0  0
  3 31  1  0  0  0  0
  3 32  1  0  0  0  0
  4  5  1  0  0  0  0
  4 33  1  0  0  0  0
  4 34  1  0  0  0  0
  5 10  1  0  0  0  0
  5  6  1  0  0  0  0
  5 35  1  0  0  0  0
  6  7  1  0  0  0  0
  6 36  1  0  0  0  0
  6 37  1  0  0  0  0
  7  8  1  0  0  0  0
  8  9  1  0  0  0  0
  8 38  1  0  0  0  0
  8 39  1  0  0  0  0
  9 10  1  0  0  0  0
  9 40  1  0  0  0  0
  9 41  1  0  0  0  0
 10 11  1  0  0  0  0
 11 16  1  0  0  0  0
 11 12  2  0  0  0  0
 12 13  1  0  0  0  0
 13 14  2  0  0  0  0
 13 42  1  0  0  0  0
 14 15  1  0  0  0  0
 15 19  1  0  0  0  0
 15 16  2  0  0  0  0
 16 17  1  0  0  0  0
 17 18  2  0  0  0  0
 18 19  1  0  0  0  0
 18 43  1  0  0  0  0
 19 20  1  0  0  0  0
 20 21  1  0  0  0  0
 20 44  1  0  0  0  0
 20 45  1  0  0  0  0
 21 26  1  0  0  0  0
 21 22  1  0  0  0  0
 21 23  1  0  0  0  0
 22 46  1  0  0  0  0
 23 24  1  0  0  0  0
 23 47  1  0  0  0  0
 23 48  1  0  0  0  0
 24 25  1  0  0  0  0
 24 49  1  0  0  0  0
 24 50  1  0  0  0  0
 25 26  1  0  0  0  0
 26 27  1  0  0  0  0
 26 51  1  0  0  0  0
 27 52  1  0  0  0  0
 27 53  1  0  0  0  0
 27 54  1  0  0  0  0
M  END
> <s_m_source_file>
AV-unprocessed.smi

> <i_m_source_file_index>
197

> <i_lp_mmshare_version>
43012

> <i_f3d_flags>
0

> <s_epik_input>
W0NIM11PW0NIMl1bQ0gyXVtDQEBIXTFbQ0gyXU9bQ0gyXVtDSDJdTjFjKG5bY0hdbjIpYyhjMjMpbltjSF1uM1tDSDJdW0NAQF00KFtPSF0pW0NIMl1bQ0gyXU9bQ0BIXTRbQ0gzXQ==

> <s_epik_cmdline>
J2VwaWtfcHl0aG9uJywgJy1waCcsICc3LjAnLCAnLXRuJywgJzgnLCAnLW1hJywgJzIwMCcsICctbWV0YWxfYmluZGluZycsICctaW1hZScsICc8aW5maWxlLm1hZT4nLCAnLW9tYWUnLCAnPG91dGZpbGUubWFlPic=

> <r_lp_tautomer_probability>
1

> <r_epik_Ionization_Penalty>
0.000106218

> <r_epik_Ionization_Penalty_Charging>
0

> <r_epik_Ionization_Penalty_Neutral>
0.000106218

> <r_epik_State_Penalty>
-0

> <r_epik_Charging_Adjusted_Penalty>
0

> <i_epik_Tot_Q>
0

> <i_epik_Tot_abs_Q>
0

> <r_epik_Metal_State_Penalty>
-0

> <b_epik_Metal_Only>
0

> <s_lp_Force_Field>
OPLS_2005

> <r_lp_Energy>
42.2665

> <b_lp_Chiralities_Consistent>
1

> <s_lp_Variant>
AV-unprocessed.smi:197-4

> <Gold.Version>
5.8.1

> <Gold.Id.Protein>
6NUR|6NUR_protein|mol2

> <Gold.PLP.Fitness>
42.6669

> <Gold.PLP.PLP>
-41.4971

> <Gold.PLP.part.hbond>
-3.5659

> <Gold.PLP.part.metal>
0.0000

> <Gold.PLP.part.buried>
-2.0698

> <Gold.PLP.part.nonpolar>
-36.2147

> <Gold.PLP.part.repulsive>
0.7748

> <Gold.PLP.ligand.clash>
0.0000

> <Gold.PLP.ligand.torsion>
1.0718

> <Gold.PLP.Chemscore.Hbond>
1.0000

> <Gold.PLP.Chemscore.CHOScore>
0.0000

> <Gold.PLP.Chemscore.Metal>
0.0000

> <Gold.Chemscore.Hbonds>
donor molecule, donor type, donor heavy atom, donor atom, acceptor molecule, acceptor atom, score
      P1  H  7989  7998       L1     7  1.00

> <Gold.PLP.Chemscore.Internal.Correction>
0.3133

> <Gold.Rescore>
     Score         DG    S(hbond)    S(metal)    S(lipo)     H(rot)  DE(clash)    DE(int)     intcor
      7.38      -9.82       0.36        0.00      88.72       2.84       1.16       1.28       ----

> <Gold.Chemscore.Fitness>
7.3792

> <Gold.Chemscore.DG>
-9.8193

> <Gold.Chemscore.ZeroCoef>
-5.4800

> <Gold.Chemscore.Hbond>
0.3648

> <Gold.Chemscore.Metal>
0.0000

> <Gold.Chemscore.Lipo>
88.7229

> <Gold.Chemscore.Internal_Hbond>
0.0000

> <Gold.Chemscore.DEClash>
1.1642

> <Gold.Chemscore.DEInternal>
1.2760

> <Gold.Chemscore.Rot>
2.8358

> <Gold.Chemscore.Internal.Correction>
   9.000000E+99

> <Gold.Chemscore.Hbonds>
donor molecule, donor type, donor heavy atom, donor atom, acceptor molecule, acceptor atom, score
      P1  H  7989  7998       L1     7  0.61

> <Gold.Chemscore.Hbond.Weighted>
-1.2183

> <Gold.Chemscore.Metal.Weighted>
-0.0000

> <Gold.Chemscore.Lipo.Weighted>
-10.3806

> <Gold.Chemscore.Internal_Hbond.Weighted>
0.0000

> <Gold.Chemscore.DEClash.Weighted>
1.1642

> <Gold.Chemscore.DEInternal.Weighted>
1.2760

> <Gold.Chemscore.Rot.Weighted>
7.2596

> <Gold.Chemscore.Internal.Correction.Weighted>
   9.000000E+99

> <Gold.Protein.RotatedTorsions>
[ 6907 6896 6895 6894 ] final -117.86 input  -60.11 | X-H torsion
[ 7974 7965 7964 7962 ] final  -43.01 input  175.53 | X-H torsion
[ 8008 7997 7996 7995 ] final -144.26 input   59.86 | X-H torsion
[ 10167 10162 10161 10158 ] final  -39.87 input  -65.29 | X-H torsion
[ 10718 10713 10712 10709 ] final   27.96 input   66.30 | X-H torsion
[ 10763 10752 10751 10750 ] final  -45.70 input  -60.55 | X-H torsion
[ 11005 11000 10999 10996 ] final   82.31 input  -57.11 | X-H torsion

> <Gold.Protein.ActiveResidues>
 VAL166  LYS551  ARG553  GLY616  TRP617  ASP618  TYR619  PRO620  LYS621  CYS622 
 ASP623  PHE694  ASN695  SER759  ASP760  ASP761  ALA762  ILE779  LEU786  VAL792 
 PHE793  MET794  SER795  GLU796  ALA797  LYS798  CYS799  TRP800  GLU811  SER814 

> <Gold.Protein.RotatedAtoms>
  150.8171  133.8317  159.3155 H   0  0  0  0  0  0  0  0  0  0  0  0  # atno 6907 bound_to 6896
  151.6086  135.1040  160.0085 H   0  0  0  0  0  0  0  0  0  0  0  0  # atno 6908 bound_to 6896
  152.4262  133.7159  159.6562 H   0  0  0  0  0  0  0  0  0  0  0  0  # atno 6909 bound_to 6896
  146.0061  140.7019  142.9247 H   0  0  0  0  0  0  0  0  0  0  0  0  # atno 7974 bound_to 7965
  155.5240  140.0594  157.2901 H   0  0  0  0  0  0  0  0  0  0  0  0  # atno 8008 bound_to 7997
  154.4508  140.1947  156.0472 H   0  0  0  0  0  0  0  0  0  0  0  0  # atno 8009 bound_to 7997
  156.0699  140.3261  155.7567 H   0  0  0  0  0  0  0  0  0  0  0  0  # atno 8010 bound_to 7997
  140.7051  143.3188  151.2844 H   0  0  0  0  0  0  0  0  0  0  0  0  # atno 10167 bound_to 10162
  157.2272  130.7006  149.6296 H   0  0  0  0  0  0  0  0  0  0  0  0  # atno 10718 bound_to 10713
  154.0329  135.6654  153.4782 H   0  0  0  0  0  0  0  0  0  0  0  0  # atno 10763 bound_to 10752
  153.0533  135.5071  154.7916 H   0  0  0  0  0  0  0  0  0  0  0  0  # atno 10764 bound_to 10752
  154.6867  135.3054  154.9503 H   0  0  0  0  0  0  0  0  0  0  0  0  # atno 10765 bound_to 10752
  139.9068  134.8062  156.2157 H   0  0  0  0  0  0  0  0  0  0  0  0  # atno 11005 bound_to 11000
  144.6936  140.3317  143.7215 LP  0  0  0  0  0  0  0  0  0  0  0  0  # atno 17320 bound_to 7965
  145.7414  139.1765  143.2374 LP  0  0  0  0  0  0  0  0  0  0  0  0  # atno 17321 bound_to 7965
  139.6635  144.0147  152.2708 LP  0  0  0  0  0  0  0  0  0  0  0  0  # atno 17342 bound_to 10162
  139.9722  144.6486  150.7978 LP  0  0  0  0  0  0  0  0  0  0  0  0  # atno 17343 bound_to 10162
  155.9678  130.4501  150.5683 LP  0  0  0  0  0  0  0  0  0  0  0  0  # atno 17370 bound_to 10713
  157.3516  131.0734  151.1709 LP  0  0  0  0  0  0  0  0  0  0  0  0  # atno 17371 bound_to 10713
  141.0437  133.6924  156.1644 LP  0  0  0  0  0  0  0  0  0  0  0  0  # atno 17394 bound_to 11000
  140.6916  134.4659  157.5588 LP  0  0  0  0  0  0  0  0  0  0  0  0  # atno 17395 bound_to 11000

$$$$
