AV-unprocessed.smi:2495|AV-procd|sdf|9823|dock6
  -GOLD-   2272013453D 1   1.00000     0.00000
 Structure written by MMmdl.
 33 34  0  0  0  0  0  0  0  0  1 V2000
  146.7021  142.7940  154.1010 C   0  0  0  0  0  0  0  0  0  0  0  0
  147.6592  142.0727  154.9255 N   0  0  0  0  0  0  0  0  0  0  0  0
  148.7304  141.4206  154.4490 C   0  0  0  0  0  0  0  0  0  0  0  0
  149.0108  141.3855  153.2502 O   0  0  0  0  0  0  0  0  0  0  0  0
  149.6291  140.7244  155.4821 C   0  0  2  0  0  0  0  0  0  0  0  0
  150.3264  141.7282  156.4291 C   0  0  0  0  0  0  0  0  0  0  0  0
  151.2642  141.0415  157.3152 N   0  0  0  0  0  0  0  0  0  0  0  0
  151.7625  141.8065  158.3924 C   0  0  0  0  0  0  0  0  0  0  0  0
  151.5258  143.2005  158.4678 C   0  0  0  0  0  0  0  0  0  0  0  0
  152.0638  143.8812  159.5801 C   0  0  0  0  0  0  0  0  0  0  0  0
  151.8725  145.3725  159.7587 C   0  0  0  0  0  0  0  0  0  0  0  0
  152.7744  143.2405  160.5323 N   0  0  0  0  0  0  0  0  0  0  0  0
  152.9361  141.9259  160.3721 C   0  0  0  0  0  0  0  0  0  0  0  0
  152.4712  141.1818  159.3660 N   0  0  0  0  0  0  0  0  0  0  0  0
  152.1992  140.1672  156.6110 C   0  0  0  0  0  0  0  0  0  0  0  0
  151.4384  139.2109  155.6802 C   0  0  0  0  0  0  0  0  0  0  0  0
  150.6202  139.9628  154.7919 O   0  0  0  0  0  0  0  0  0  0  0  0
  145.9694  143.2950  154.7334 H   0  0  0  0  0  0  0  0  0  0  0  0
  146.1707  142.1094  153.4390 H   0  0  0  0  0  0  0  0  0  0  0  0
  147.2009  143.5499  153.4930 H   0  0  0  0  0  0  0  0  0  0  0  0
  147.4953  142.0574  155.9221 H   0  0  0  0  0  0  0  0  0  0  0  0
  148.9976  140.0486  156.0617 H   0  0  0  0  0  0  0  0  0  0  0  0
  150.8759  142.4738  155.8526 H   0  0  0  0  0  0  0  0  0  0  0  0
  149.5676  142.2639  156.9977 H   0  0  0  0  0  0  0  0  0  0  0  0
  150.9494  143.7300  157.7239 H   0  0  0  0  0  0  0  0  0  0  0  0
  150.9874  145.7177  159.2236 H   0  0  0  0  0  0  0  0  0  0  0  0
  152.7386  145.9108  159.3735 H   0  0  0  0  0  0  0  0  0  0  0  0
  151.7501  145.6255  160.8124 H   0  0  0  0  0  0  0  0  0  0  0  0
  153.5012  141.4108  161.1346 H   0  0  0  0  0  0  0  0  0  0  0  0
  152.8974  140.7750  156.0337 H   0  0  0  0  0  0  0  0  0  0  0  0
  152.7842  139.5848  157.3240 H   0  0  0  0  0  0  0  0  0  0  0  0
  152.1417  138.6162  155.0974 H   0  0  0  0  0  0  0  0  0  0  0  0
  150.8275  138.5114  156.2531 H   0  0  0  0  0  0  0  0  0  0  0  0
  1  2  1  0  0  0  0
  1 18  1  0  0  0  0
  1 19  1  0  0  0  0
  1 20  1  0  0  0  0
  2  3  1  0  0  0  0
  2 21  1  0  0  0  0
  3  4  2  0  0  0  0
  3  5  1  0  0  0  0
  5 17  1  0  0  0  0
  5  6  1  0  0  0  0
  5 22  1  0  0  0  0
  6  7  1  0  0  0  0
  6 23  1  0  0  0  0
  6 24  1  0  0  0  0
  7  8  1  0  0  0  0
  7 15  1  0  0  0  0
  8 14  1  0  0  0  0
  8  9  2  0  0  0  0
  9 10  1  0  0  0  0
  9 25  1  0  0  0  0
 10 11  1  0  0  0  0
 10 12  2  0  0  0  0
 11 26  1  0  0  0  0
 11 27  1  0  0  0  0
 11 28  1  0  0  0  0
 12 13  1  0  0  0  0
 13 14  2  0  0  0  0
 13 29  1  0  0  0  0
 15 16  1  0  0  0  0
 15 30  1  0  0  0  0
 15 31  1  0  0  0  0
 16 17  1  0  0  0  0
 16 32  1  0  0  0  0
 16 33  1  0  0  0  0
M  END
> <s_m_source_file>
AV-unprocessed.smi

> <i_m_source_file_index>
2495

> <i_lp_mmshare_version>
43012

> <i_f3d_flags>
0

> <s_epik_input>
W0NIM11bTkhdQyg9TylbQ0BASF0xW0NIMl1OKFtDSDJdW0NIMl1PMSljMltjSF1jKFtDSDNdKW5bY0hdbjI=

> <s_epik_cmdline>
J2VwaWtfcHl0aG9uJywgJy1waCcsICc3LjAnLCAnLXRuJywgJzgnLCAnLW1hJywgJzIwMCcsICctbWV0YWxfYmluZGluZycsICctaW1hZScsICc8aW5maWxlLm1hZT4nLCAnLW9tYWUnLCAnPG91dGZpbGUubWFlPic=

> <r_lp_tautomer_probability>
1

> <r_epik_Ionization_Penalty>
0.000466083

> <r_epik_Ionization_Penalty_Charging>
0

> <r_epik_Ionization_Penalty_Neutral>
0.000466083

> <r_epik_State_Penalty>
0.000259726

> <r_epik_Charging_Adjusted_Penalty>
0.000259726

> <i_epik_Tot_Q>
0

> <i_epik_Tot_abs_Q>
0

> <r_epik_Metal_State_Penalty>
-0

> <b_epik_Metal_Only>
0

> <s_lp_Force_Field>
OPLS_2005

> <r_lp_Energy>
12.0364

> <b_lp_Chiralities_Consistent>
1

> <s_lp_Variant>
AV-unprocessed.smi:2495-1

> <Gold.Version>
5.8.1

> <Gold.Id.Protein>
6NUR|6NUR_protein|mol2

> <Gold.PLP.Fitness>
39.4316

> <Gold.PLP.PLP>
-33.6216

> <Gold.PLP.part.hbond>
-3.9310

> <Gold.PLP.part.metal>
0.0000

> <Gold.PLP.part.buried>
-4.8779

> <Gold.PLP.part.nonpolar>
-29.2274

> <Gold.PLP.part.repulsive>
4.0566

> <Gold.PLP.ligand.clash>
0.0000

> <Gold.PLP.ligand.torsion>
0.2561

> <Gold.PLP.Chemscore.Hbond>
1.9920

> <Gold.PLP.Chemscore.CHOScore>
0.0000

> <Gold.PLP.Chemscore.Metal>
0.0000

> <Gold.Chemscore.Hbonds>
donor molecule, donor type, donor heavy atom, donor atom, acceptor molecule, acceptor atom, score
      P1  H  7989  7998       L1    17  1.00
      P1  H  8011  8017       L1     4  0.98

> <Gold.PLP.Chemscore.Internal.Correction>
0.3462

> <Gold.Rescore>
     Score         DG    S(hbond)    S(metal)    S(lipo)     H(rot)  DE(clash)    DE(int)     intcor
     13.60     -15.45       1.69        0.00      66.93       1.37       1.59       0.26       ----

> <Gold.Chemscore.Fitness>
13.6014

> <Gold.Chemscore.DG>
-15.4454

> <Gold.Chemscore.ZeroCoef>
-5.4800

> <Gold.Chemscore.Hbond>
1.6897

> <Gold.Chemscore.Metal>
0.0000

> <Gold.Chemscore.Lipo>
66.9289

> <Gold.Chemscore.Internal_Hbond>
0.0000

> <Gold.Chemscore.DEClash>
1.5858

> <Gold.Chemscore.DEInternal>
0.2582

> <Gold.Chemscore.Rot>
1.3706

> <Gold.Chemscore.Internal.Correction>
   9.000000E+99

> <Gold.Chemscore.Hbonds>
donor molecule, donor type, donor heavy atom, donor atom, acceptor molecule, acceptor atom, score
      P1  H  7989  7998       L1    17  0.77
      P1  H  8011  8017       L1     4  0.91

> <Gold.Chemscore.Hbond.Weighted>
-5.6435

> <Gold.Chemscore.Metal.Weighted>
-0.0000

> <Gold.Chemscore.Lipo.Weighted>
-7.8307

> <Gold.Chemscore.Internal_Hbond.Weighted>
0.0000

> <Gold.Chemscore.DEClash.Weighted>
1.5858

> <Gold.Chemscore.DEInternal.Weighted>
0.2582

> <Gold.Chemscore.Rot.Weighted>
3.5087

> <Gold.Chemscore.Internal.Correction.Weighted>
   9.000000E+99

> <Gold.Protein.RotatedTorsions>
[ 6907 6896 6895 6894 ] final -147.06 input  -60.11 | X-H torsion
[ 7974 7965 7964 7962 ] final    5.75 input  175.53 | X-H torsion
[ 8008 7997 7996 7995 ] final  -14.99 input   59.86 | X-H torsion
[ 10167 10162 10161 10158 ] final   -2.64 input  -65.29 | X-H torsion
[ 10718 10713 10712 10709 ] final  -59.54 input   66.30 | X-H torsion
[ 10763 10752 10751 10750 ] final  129.91 input  -60.55 | X-H torsion
[ 11005 11000 10999 10996 ] final   80.43 input  -57.11 | X-H torsion

> <Gold.Protein.ActiveResidues>
 VAL166  LYS551  ARG553  GLY616  TRP617  ASP618  TYR619  PRO620  LYS621  CYS622 
 ASP623  PHE694  ASN695  SER759  ASP760  ASP761  ALA762  ILE779  LEU786  VAL792 
 PHE793  MET794  SER795  GLU796  ALA797  LYS798  CYS799  TRP800  GLU811  SER814 

> <Gold.Protein.RotatedAtoms>
  151.1504  133.4911  159.2595 H   0  0  0  0  0  0  0  0  0  0  0  0  # atno 6907 bound_to 6896
  151.1560  135.0250  159.8699 H   0  0  0  0  0  0  0  0  0  0  0  0  # atno 6908 bound_to 6896
  152.5463  134.1383  159.8521 H   0  0  0  0  0  0  0  0  0  0  0  0  # atno 6909 bound_to 6896
  146.2439  140.0337  142.8387 H   0  0  0  0  0  0  0  0  0  0  0  0  # atno 7974 bound_to 7965
  154.5165  140.2208  155.9055 H   0  0  0  0  0  0  0  0  0  0  0  0  # atno 8008 bound_to 7997
  156.1614  140.3141  155.8779 H   0  0  0  0  0  0  0  0  0  0  0  0  # atno 8009 bound_to 7997
  155.3744  140.0468  157.3035 H   0  0  0  0  0  0  0  0  0  0  0  0  # atno 8010 bound_to 7997
  140.6859  143.6633  150.8247 H   0  0  0  0  0  0  0  0  0  0  0  0  # atno 10167 bound_to 10162
  156.1054  130.4181  150.0729 H   0  0  0  0  0  0  0  0  0  0  0  0  # atno 10718 bound_to 10713
  153.7495  135.3212  155.3318 H   0  0  0  0  0  0  0  0  0  0  0  0  # atno 10763 bound_to 10752
  154.8268  135.4564  154.0946 H   0  0  0  0  0  0  0  0  0  0  0  0  # atno 10764 bound_to 10752
  153.2144  135.6940  153.8157 H   0  0  0  0  0  0  0  0  0  0  0  0  # atno 10765 bound_to 10752
  139.9135  134.7919  156.1908 H   0  0  0  0  0  0  0  0  0  0  0  0  # atno 11005 bound_to 11000
  145.1131  140.9417  143.4644 LP  0  0  0  0  0  0  0  0  0  0  0  0  # atno 17320 bound_to 7965
  145.0556  139.3146  143.5906 LP  0  0  0  0  0  0  0  0  0  0  0  0  # atno 17321 bound_to 7965
  140.0340  143.5414  152.2747 LP  0  0  0  0  0  0  0  0  0  0  0  0  # atno 17342 bound_to 10162
  139.6217  144.7630  151.2726 LP  0  0  0  0  0  0  0  0  0  0  0  0  # atno 17343 bound_to 10162
  156.8706  130.9523  151.3609 LP  0  0  0  0  0  0  0  0  0  0  0  0  # atno 17370 bound_to 10713
  157.6230  130.8670  149.9142 LP  0  0  0  0  0  0  0  0  0  0  0  0  # atno 17371 bound_to 10713
  141.0585  133.6853  156.1906 LP  0  0  0  0  0  0  0  0  0  0  0  0  # atno 17394 bound_to 11000
  140.6699  134.4879  157.5587 LP  0  0  0  0  0  0  0  0  0  0  0  0  # atno 17395 bound_to 11000

$$$$
