AV-unprocessed.smi:2519|AV-procd|sdf|9905|dock5
  -GOLD-   2272013543D 1   1.00000     0.00000
 Structure written by MMmdl.
 43 44  0  0  0  0  0  0  0  0  1 V2000
  146.6479  134.9583  154.2005 C   0  0  0  0  0  0  0  0  0  0  0  0
  146.8427  136.3789  153.9569 N   0  0  0  0  0  0  0  0  0  0  0  0
  147.5264  137.2029  154.7676 C   0  0  0  0  0  0  0  0  0  0  0  0
  148.0548  136.8270  155.8150 O   0  0  0  0  0  0  0  0  0  0  0  0
  147.5976  138.6450  154.3360 C   0  0  0  0  0  0  0  0  0  0  0  0
  147.0323  139.0441  153.1044 C   0  0  0  0  0  0  0  0  0  0  0  0
  147.1086  140.3981  152.7326 C   0  0  0  0  0  0  0  0  0  0  0  0
  147.7434  141.3070  153.5989 C   0  0  0  0  0  0  0  0  0  0  0  0
  148.2851  140.8386  154.8149 C   0  0  0  0  0  0  0  0  0  0  0  0
  148.9048  141.8291  155.6208 N   0  0  0  0  0  0  0  0  0  0  0  0
  149.3685  141.7124  156.8814 C   0  0  0  0  0  0  0  0  0  0  0  0
  149.3306  140.6799  157.5489 O   0  0  0  0  0  0  0  0  0  0  0  0
  149.8994  142.8435  157.3818 N   0  0  0  0  0  0  0  0  0  0  0  0
  150.4876  143.0667  158.7044 C   0  0  2  0  0  0  0  0  0  0  0  0
  151.0020  144.5146  158.8342 C   0  0  0  0  0  0  0  0  0  0  0  0
  151.6931  144.7409  160.1867 C   0  0  0  0  0  0  0  0  0  0  0  0
  152.8291  143.7305  160.4097 C   0  0  0  0  0  0  0  0  0  0  0  0
  152.3272  142.2758  160.2931 C   0  0  2  0  0  0  0  0  0  0  0  0
  153.4560  141.2528  160.5342 C   0  0  0  0  0  0  0  0  0  0  0  0
  153.0611  140.0231  160.2025 F   0  0  0  0  0  0  0  0  0  0  0  0
  154.5254  141.5735  159.8060 F   0  0  0  0  0  0  0  0  0  0  0  0
  153.8111  141.2599  161.8190 F   0  0  0  0  0  0  0  0  0  0  0  0
  151.6333  142.0624  158.9302 C   0  0  0  0  0  0  0  0  0  0  0  0
  148.2042  139.5315  155.1624 N   0  0  0  0  0  0  0  0  0  0  0  0
  146.0698  134.5182  153.3881 H   0  0  0  0  0  0  0  0  0  0  0  0
  146.1061  134.7945  155.1328 H   0  0  0  0  0  0  0  0  0  0  0  0
  147.6057  134.4397  154.2575 H   0  0  0  0  0  0  0  0  0  0  0  0
  146.4386  136.7686  153.1167 H   0  0  0  0  0  0  0  0  0  0  0  0
  146.5483  138.3331  152.4509 H   0  0  0  0  0  0  0  0  0  0  0  0
  146.6867  140.7344  151.7972 H   0  0  0  0  0  0  0  0  0  0  0  0
  147.8112  142.3509  153.3286 H   0  0  0  0  0  0  0  0  0  0  0  0
  149.0058  142.7368  155.1916 H   0  0  0  0  0  0  0  0  0  0  0  0
  149.8927  143.6460  156.7687 H   0  0  0  0  0  0  0  0  0  0  0  0
  149.7364  142.8842  159.4749 H   0  0  0  0  0  0  0  0  0  0  0  0
  151.7054  144.7302  158.0285 H   0  0  0  0  0  0  0  0  0  0  0  0
  150.1805  145.2231  158.7232 H   0  0  0  0  0  0  0  0  0  0  0  0
  152.0848  145.7572  160.2365 H   0  0  0  0  0  0  0  0  0  0  0  0
  150.9612  144.6523  160.9905 H   0  0  0  0  0  0  0  0  0  0  0  0
  153.6205  143.9086  159.6809 H   0  0  0  0  0  0  0  0  0  0  0  0
  153.2722  143.8976  161.3918 H   0  0  0  0  0  0  0  0  0  0  0  0
  151.5789  142.1219  161.0722 H   0  0  0  0  0  0  0  0  0  0  0  0
  151.2407  141.0466  158.8705 H   0  0  0  0  0  0  0  0  0  0  0  0
  152.3668  142.1552  158.1278 H   0  0  0  0  0  0  0  0  0  0  0  0
  1  2  1  0  0  0  0
  1 25  1  0  0  0  0
  1 26  1  0  0  0  0
  1 27  1  0  0  0  0
  2  3  1  0  0  0  0
  2 28  1  0  0  0  0
  3  4  2  0  0  0  0
  3  5  1  0  0  0  0
  5 24  1  0  0  0  0
  5  6  2  0  0  0  0
  6  7  1  0  0  0  0
  6 29  1  0  0  0  0
  7  8  2  0  0  0  0
  7 30  1  0  0  0  0
  8  9  1  0  0  0  0
  8 31  1  0  0  0  0
  9 10  1  0  0  0  0
  9 24  2  0  0  0  0
 10 11  1  0  0  0  0
 10 32  1  0  0  0  0
 11 12  2  0  0  0  0
 11 13  1  0  0  0  0
 13 14  1  0  0  0  0
 13 33  1  0  0  0  0
 14 23  1  0  0  0  0
 14 15  1  0  0  0  0
 14 34  1  0  0  0  0
 15 16  1  0  0  0  0
 15 35  1  0  0  0  0
 15 36  1  0  0  0  0
 16 17  1  0  0  0  0
 16 37  1  0  0  0  0
 16 38  1  0  0  0  0
 17 18  1  0  0  0  0
 17 39  1  0  0  0  0
 17 40  1  0  0  0  0
 18 19  1  0  0  0  0
 18 23  1  0  0  0  0
 18 41  1  0  0  0  0
 19 20  1  0  0  0  0
 19 21  1  0  0  0  0
 19 22  1  0  0  0  0
 23 42  1  0  0  0  0
 23 43  1  0  0  0  0
M  END
> <s_m_source_file>
AV-unprocessed.smi

> <i_m_source_file_index>
2519

> <i_lp_mmshare_version>
43012

> <i_f3d_flags>
0

> <s_epik_input>
W0NIM11bTkhdQyg9TyljMVtjSF1bY0hdW2NIXWMobjEpW05IXUMoPU8pW05IXVtDQEBIXTJbQ0gyXVtDSDJdW0NIMl1bQ0BASF0oQyhGKShGKUYpW0NIMl0y

> <s_epik_cmdline>
J2VwaWtfcHl0aG9uJywgJy1waCcsICc3LjAnLCAnLXRuJywgJzgnLCAnLW1hJywgJzIwMCcsICctbWV0YWxfYmluZGluZycsICctaW1hZScsICc8aW5maWxlLm1hZT4nLCAnLW9tYWUnLCAnPG91dGZpbGUubWFlPic=

> <r_lp_tautomer_probability>
1

> <r_epik_Ionization_Penalty>
3.74915e-05

> <r_epik_Ionization_Penalty_Charging>
0

> <r_epik_Ionization_Penalty_Neutral>
3.74915e-05

> <r_epik_State_Penalty>
-0

> <r_epik_Charging_Adjusted_Penalty>
0

> <i_epik_Tot_Q>
0

> <i_epik_Tot_abs_Q>
0

> <r_epik_Metal_State_Penalty>
-0

> <b_epik_Metal_Only>
0

> <s_lp_Force_Field>
OPLS_2005

> <r_lp_Energy>
27.0484

> <b_lp_Chiralities_Consistent>
1

> <s_lp_Variant>
AV-unprocessed.smi:2519-3

> <Gold.Version>
5.8.1

> <Gold.Id.Protein>
6NUR|6NUR_protein|mol2

> <Gold.PLP.Fitness>
47.2355

> <Gold.PLP.PLP>
-42.1307

> <Gold.PLP.part.hbond>
-3.0000

> <Gold.PLP.part.metal>
0.0000

> <Gold.PLP.part.buried>
-4.5285

> <Gold.PLP.part.nonpolar>
-33.7549

> <Gold.PLP.part.repulsive>
0.2624

> <Gold.PLP.ligand.clash>
0.0000

> <Gold.PLP.ligand.torsion>
0.2784

> <Gold.PLP.Chemscore.Hbond>
1.8800

> <Gold.PLP.Chemscore.CHOScore>
0.0000

> <Gold.PLP.Chemscore.Metal>
0.0000

> <Gold.Chemscore.Hbonds>
donor molecule, donor type, donor heavy atom, donor atom, acceptor molecule, acceptor atom, score
      L1  H    10    32       P1  8028  0.81
      L1  H    13    33       P1  8028  0.94

> <Gold.PLP.Chemscore.Internal.Correction>
0.0218

> <Gold.Rescore>
     Score         DG    S(hbond)    S(metal)    S(lipo)     H(rot)  DE(clash)    DE(int)     intcor
     16.58     -19.62       1.47        0.00     100.83       1.00       0.09       2.94       ----

> <Gold.Chemscore.Fitness>
16.5823

> <Gold.Chemscore.DG>
-19.6152

> <Gold.Chemscore.ZeroCoef>
-5.4800

> <Gold.Chemscore.Hbond>
1.4666

> <Gold.Chemscore.Metal>
0.0000

> <Gold.Chemscore.Lipo>
100.8262

> <Gold.Chemscore.Internal_Hbond>
0.0000

> <Gold.Chemscore.DEClash>
0.0912

> <Gold.Chemscore.DEInternal>
2.9417

> <Gold.Chemscore.Rot>
1.0000

> <Gold.Chemscore.Internal.Correction>
   9.000000E+99

> <Gold.Chemscore.Hbonds>
donor molecule, donor type, donor heavy atom, donor atom, acceptor molecule, acceptor atom, score
      L1  H    10    32       P1  8028  0.75
      L1  H    13    33       P1  8028  0.91

> <Gold.Chemscore.Hbond.Weighted>
-4.8985

> <Gold.Chemscore.Metal.Weighted>
-0.0000

> <Gold.Chemscore.Lipo.Weighted>
-11.7967

> <Gold.Chemscore.Internal_Hbond.Weighted>
0.0000

> <Gold.Chemscore.DEClash.Weighted>
0.0912

> <Gold.Chemscore.DEInternal.Weighted>
2.9417

> <Gold.Chemscore.Rot.Weighted>
2.5600

> <Gold.Chemscore.Internal.Correction.Weighted>
   9.000000E+99

> <Gold.Protein.RotatedTorsions>
[ 6907 6896 6895 6894 ] final   56.11 input  -60.11 | X-H torsion
[ 7974 7965 7964 7962 ] final  171.25 input  175.53 | X-H torsion
[ 8008 7997 7996 7995 ] final -121.74 input   59.86 | X-H torsion
[ 10167 10162 10161 10158 ] final  162.01 input  -65.29 | X-H torsion
[ 10718 10713 10712 10709 ] final  -18.40 input   66.30 | X-H torsion
[ 10763 10752 10751 10750 ] final  -87.57 input  -60.55 | X-H torsion
[ 11005 11000 10999 10996 ] final  -42.00 input  -57.11 | X-H torsion

> <Gold.Protein.ActiveResidues>
 VAL166  LYS551  ARG553  GLY616  TRP617  ASP618  TYR619  PRO620  LYS621  CYS622 
 ASP623  PHE694  ASN695  SER759  ASP760  ASP761  ALA762  ILE779  LEU786  VAL792 
 PHE793  MET794  SER795  GLU796  ALA797  LYS798  CYS799  TRP800  GLU811  SER814 

> <Gold.Protein.RotatedAtoms>
  152.3605  134.6879  160.0208 H   0  0  0  0  0  0  0  0  0  0  0  0  # atno 6907 bound_to 6896
  151.7204  133.3309  159.3322 H   0  0  0  0  0  0  0  0  0  0  0  0  # atno 6908 bound_to 6896
  150.7601  134.6387  159.6270 H   0  0  0  0  0  0  0  0  0  0  0  0  # atno 6909 bound_to 6896
  144.7300  139.9323  143.6425 H   0  0  0  0  0  0  0  0  0  0  0  0  # atno 7974 bound_to 7965
  155.1529  140.0404  157.2825 H   0  0  0  0  0  0  0  0  0  0  0  0  # atno 8008 bound_to 7997
  154.6391  140.2542  155.7316 H   0  0  0  0  0  0  0  0  0  0  0  0  # atno 8009 bound_to 7997
  156.2523  140.2859  156.0777 H   0  0  0  0  0  0  0  0  0  0  0  0  # atno 8010 bound_to 7997
  139.4855  144.4480  151.8867 H   0  0  0  0  0  0  0  0  0  0  0  0  # atno 10167 bound_to 10162
  156.5601  130.4723  149.6411 H   0  0  0  0  0  0  0  0  0  0  0  0  # atno 10718 bound_to 10713
  154.6350  135.5408  153.7724 H   0  0  0  0  0  0  0  0  0  0  0  0  # atno 10763 bound_to 10752
  153.0304  135.6445  154.1244 H   0  0  0  0  0  0  0  0  0  0  0  0  # atno 10764 bound_to 10752
  154.1172  135.2922  155.3197 H   0  0  0  0  0  0  0  0  0  0  0  0  # atno 10765 bound_to 10752
  141.0285  133.6830  156.2534 H   0  0  0  0  0  0  0  0  0  0  0  0  # atno 11005 bound_to 11000
  146.0848  139.3836  143.0442 LP  0  0  0  0  0  0  0  0  0  0  0  0  # atno 17320 bound_to 7965
  145.7791  140.9864  143.1108 LP  0  0  0  0  0  0  0  0  0  0  0  0  # atno 17321 bound_to 7965
  140.3935  144.2585  150.5898 LP  0  0  0  0  0  0  0  0  0  0  0  0  # atno 17342 bound_to 10162
  140.5124  143.2287  151.8515 LP  0  0  0  0  0  0  0  0  0  0  0  0  # atno 17343 bound_to 10162
  156.2807  130.7069  151.1892 LP  0  0  0  0  0  0  0  0  0  0  0  0  # atno 17370 bound_to 10713
  157.7370  131.0556  150.5380 LP  0  0  0  0  0  0  0  0  0  0  0  0  # atno 17371 bound_to 10713
  140.6449  134.5127  157.5573 LP  0  0  0  0  0  0  0  0  0  0  0  0  # atno 17394 bound_to 11000
  139.9192  134.8184  156.1267 LP  0  0  0  0  0  0  0  0  0  0  0  0  # atno 17395 bound_to 11000

$$$$
