AV-unprocessed.smi:2229|AV-procd|sdf|9029|dock10
  -GOLD-   2272012233D 1   1.00000     0.00000
 Structure written by MMmdl.
 44 45  0  0  0  0  0  0  0  0  1 V2000
  151.5760  144.0947  157.7423 C   0  0  0  0  0  0  0  0  0  0  0  0
  151.8745  143.0017  158.7796 C   0  0  0  0  0  0  0  0  0  0  0  0
  153.2133  143.2812  159.4842 C   0  0  0  0  0  0  0  0  0  0  0  0
  151.8241  141.6039  158.1278 C   0  0  0  0  0  0  0  0  0  0  0  0
  150.3963  141.0884  157.8793 C   0  0  0  0  0  0  0  0  0  0  0  0
  149.7390  141.6506  156.5966 C   0  0  2  0  0  0  0  0  0  0  0  0
  148.2075  141.5844  156.5998 C   0  0  0  0  0  0  0  0  0  0  0  0
  147.8238  141.7283  155.1308 C   0  0  0  0  0  0  0  0  0  0  0  0
  148.9001  140.9483  154.3744 C   0  0  0  0  0  0  0  0  0  0  0  0
  150.1582  140.9691  155.2679 C   0  0  2  0  0  0  0  0  0  0  0  0
  150.6696  139.6225  155.4994 N   0  0  0  0  0  0  0  0  0  0  0  0
  151.9316  139.1998  155.3302 C   0  0  0  0  0  0  0  0  0  0  0  0
  152.8216  139.9161  154.8745 O   0  0  0  0  0  0  0  0  0  0  0  0
  152.2628  137.7594  155.7589 C   0  0  0  0  0  0  0  0  0  0  0  0
  151.0889  136.9219  156.0345 N   0  0  0  0  0  0  0  0  0  0  0  0
  150.1868  136.5420  155.0622 C   0  0  0  0  0  0  0  0  0  0  0  0
  149.2809  135.7513  155.5277 N   0  0  0  0  0  0  0  0  0  0  0  0
  149.6307  135.6390  156.8313 N   0  0  0  0  0  0  0  0  0  0  0  0
  150.7207  136.3306  157.1679 C   0  0  0  0  0  0  0  0  0  0  0  0
  151.2681  136.3854  158.2673 O   0  0  0  0  0  0  0  0  0  0  0  0
  149.0770  135.0559  157.4426 H   0  0  0  0  0  0  0  0  0  0  0  0
  152.3312  144.1110  156.9556 H   0  0  0  0  0  0  0  0  0  0  0  0
  151.5561  145.0818  158.2050 H   0  0  0  0  0  0  0  0  0  0  0  0
  150.6061  143.9366  157.2698 H   0  0  0  0  0  0  0  0  0  0  0  0
  151.0875  143.0501  159.5334 H   0  0  0  0  0  0  0  0  0  0  0  0
  154.0514  143.1891  158.7928 H   0  0  0  0  0  0  0  0  0  0  0  0
  153.3848  142.5955  160.3135 H   0  0  0  0  0  0  0  0  0  0  0  0
  153.2341  144.2899  159.8974 H   0  0  0  0  0  0  0  0  0  0  0  0
  152.3507  141.6497  157.1742 H   0  0  0  0  0  0  0  0  0  0  0  0
  152.3719  140.8876  158.7416 H   0  0  0  0  0  0  0  0  0  0  0  0
  150.4232  140.0013  157.8050 H   0  0  0  0  0  0  0  0  0  0  0  0
  149.7777  141.3236  158.7466 H   0  0  0  0  0  0  0  0  0  0  0  0
  150.0171  142.7024  156.5111 H   0  0  0  0  0  0  0  0  0  0  0  0
  147.8733  140.6150  156.9729 H   0  0  0  0  0  0  0  0  0  0  0  0
  147.7531  142.3564  157.2210 H   0  0  0  0  0  0  0  0  0  0  0  0
  146.8175  141.3642  154.9217 H   0  0  0  0  0  0  0  0  0  0  0  0
  147.8629  142.7801  154.8444 H   0  0  0  0  0  0  0  0  0  0  0  0
  148.5543  139.9255  154.2150 H   0  0  0  0  0  0  0  0  0  0  0  0
  149.0915  141.3769  153.3903 H   0  0  0  0  0  0  0  0  0  0  0  0
  150.9437  141.5650  154.7993 H   0  0  0  0  0  0  0  0  0  0  0  0
  150.0067  138.9565  155.8684 H   0  0  0  0  0  0  0  0  0  0  0  0
  152.8553  137.2947  154.9695 H   0  0  0  0  0  0  0  0  0  0  0  0
  152.9063  137.7957  156.6396 H   0  0  0  0  0  0  0  0  0  0  0  0
  150.3069  136.9093  154.0415 H   0  0  0  0  0  0  0  0  0  0  0  0
  1  2  1  0  0  0  0
  1 22  1  0  0  0  0
  1 23  1  0  0  0  0
  1 24  1  0  0  0  0
  2  3  1  0  0  0  0
  2  4  1  0  0  0  0
  2 25  1  0  0  0  0
  3 26  1  0  0  0  0
  3 27  1  0  0  0  0
  3 28  1  0  0  0  0
  4  5  1  0  0  0  0
  4 29  1  0  0  0  0
  4 30  1  0  0  0  0
  5  6  1  0  0  0  0
  5 31  1  0  0  0  0
  5 32  1  0  0  0  0
  6 10  1  0  0  0  0
  6  7  1  0  0  0  0
  6 33  1  0  0  0  0
  7  8  1  0  0  0  0
  7 34  1  0  0  0  0
  7 35  1  0  0  0  0
  8  9  1  0  0  0  0
  8 36  1  0  0  0  0
  8 37  1  0  0  0  0
  9 10  1  0  0  0  0
  9 38  1  0  0  0  0
  9 39  1  0  0  0  0
 10 11  1  0  0  0  0
 10 40  1  0  0  0  0
 11 12  1  0  0  0  0
 11 41  1  0  0  0  0
 12 13  2  0  0  0  0
 12 14  1  0  0  0  0
 14 15  1  0  0  0  0
 14 42  1  0  0  0  0
 14 43  1  0  0  0  0
 15 19  1  0  0  0  0
 15 16  1  0  0  0  0
 16 17  2  0  0  0  0
 16 44  1  0  0  0  0
 17 18  1  0  0  0  0
 18 21  1  0  0  0  0
 18 19  1  0  0  0  0
 19 20  2  0  0  0  0
M  END
> <s_m_source_file>
AV-unprocessed.smi

> <i_m_source_file_index>
2229

> <i_lp_mmshare_version>
43012

> <i_f3d_flags>
0

> <s_epik_input>
W0NIM11bQ0hdKFtDSDNdKVtDSDJdW0NIMl1bQ0BASF0xW0NIMl1bQ0gyXVtDSDJdW0NASF0xW05IXUMoPU8pW0NIMl1uMltjSF1uW25IXWMyPU8=

> <s_epik_cmdline>
J2VwaWtfcHl0aG9uJywgJy1waCcsICc3LjAnLCAnLXRuJywgJzgnLCAnLW1hJywgJzIwMCcsICctbWV0YWxfYmluZGluZycsICctaW1hZScsICc8aW5maWxlLm1hZT4nLCAnLW9tYWUnLCAnPG91dGZpbGUubWFlPic=

> <r_lp_tautomer_probability>
1

> <r_epik_Ionization_Penalty>
4.14174e-05

> <r_epik_Ionization_Penalty_Charging>
4.13165e-05

> <r_epik_Ionization_Penalty_Neutral>
1.00911e-07

> <r_epik_State_Penalty>
-0

> <r_epik_Charging_Adjusted_Penalty>
4.13165e-05

> <i_epik_Tot_Q>
0

> <i_epik_Tot_abs_Q>
0

> <r_epik_Metal_State_Penalty>
0.0399369

> <b_epik_Metal_Only>
0

> <s_lp_Force_Field>
OPLS_2005

> <r_lp_Energy>
36.2175

> <b_lp_Chiralities_Consistent>
1

> <s_lp_Variant>
AV-unprocessed.smi:2229-3

> <Gold.Version>
5.8.1

> <Gold.Id.Protein>
6NUR|6NUR_protein|mol2

> <Gold.PLP.Fitness>
42.5195

> <Gold.PLP.PLP>
-34.6166

> <Gold.PLP.part.hbond>
-3.0000

> <Gold.PLP.part.metal>
0.0000

> <Gold.PLP.part.buried>
-2.4531

> <Gold.PLP.part.nonpolar>
-29.8975

> <Gold.PLP.part.repulsive>
0.2668

> <Gold.PLP.ligand.clash>
0.0000

> <Gold.PLP.ligand.torsion>
0.6987

> <Gold.PLP.Chemscore.Hbond>
2.0124

> <Gold.PLP.Chemscore.CHOScore>
1.0628

> <Gold.PLP.Chemscore.Metal>
0.0000

> <Gold.Chemscore.Hbonds>
donor molecule, donor type, donor heavy atom, donor atom, acceptor molecule, acceptor atom, score
      P1  H  6896  6907       L1    20  0.60
      P1  H  7989  7998       L1    13  0.37
      P1  H  7997  8008       L1    13  1.00
      L1  C    16    44       P1  7948  0.73
      L1  C    16    44       P1  7949  0.08

> <Gold.PLP.Chemscore.Internal.Correction>
0.0747

> <Gold.Rescore>
     Score         DG    S(hbond)    S(metal)    S(lipo)     H(rot)  DE(clash)    DE(int)     intcor
     14.29     -15.24       1.92        0.00      86.42       2.64       0.30       0.65       ----

> <Gold.Chemscore.Fitness>
14.2864

> <Gold.Chemscore.DG>
-15.2412

> <Gold.Chemscore.ZeroCoef>
-5.4800

> <Gold.Chemscore.Hbond>
1.9163

> <Gold.Chemscore.Metal>
0.0000

> <Gold.Chemscore.Lipo>
86.4176

> <Gold.Chemscore.Internal_Hbond>
0.0000

> <Gold.Chemscore.DEClash>
0.3035

> <Gold.Chemscore.DEInternal>
0.6514

> <Gold.Chemscore.Rot>
2.6368

> <Gold.Chemscore.Internal.Correction>
   9.000000E+99

> <Gold.Chemscore.Hbonds>
donor molecule, donor type, donor heavy atom, donor atom, acceptor molecule, acceptor atom, score
      P1  H  6896  6907       L1    20  0.55
      P1  H  7989  7998       L1    13  0.06
      P1  H  7997  8008       L1    13  0.95

> <Gold.Chemscore.Hbond.Weighted>
-6.4005

> <Gold.Chemscore.Metal.Weighted>
-0.0000

> <Gold.Chemscore.Lipo.Weighted>
-10.1109

> <Gold.Chemscore.Internal_Hbond.Weighted>
0.0000

> <Gold.Chemscore.DEClash.Weighted>
0.3035

> <Gold.Chemscore.DEInternal.Weighted>
0.6514

> <Gold.Chemscore.Rot.Weighted>
6.7501

> <Gold.Chemscore.Internal.Correction.Weighted>
   9.000000E+99

> <Gold.Protein.RotatedTorsions>
[ 6907 6896 6895 6894 ] final  -27.03 input  -60.11 | X-H torsion
[ 7974 7965 7964 7962 ] final  148.45 input  175.53 | X-H torsion
[ 8008 7997 7996 7995 ] final  -20.08 input   59.86 | X-H torsion
[ 10167 10162 10161 10158 ] final   97.79 input  -65.29 | X-H torsion
[ 10718 10713 10712 10709 ] final  140.81 input   66.30 | X-H torsion
[ 10763 10752 10751 10750 ] final  -16.84 input  -60.55 | X-H torsion
[ 11005 11000 10999 10996 ] final   47.71 input  -57.11 | X-H torsion

> <Gold.Protein.ActiveResidues>
 VAL166  LYS551  ARG553  GLY616  TRP617  ASP618  TYR619  PRO620  LYS621  CYS622 
 ASP623  PHE694  ASN695  SER759  ASP760  ASP761  ALA762  ILE779  LEU786  VAL792 
 PHE793  MET794  SER795  GLU796  ALA797  LYS798  CYS799  TRP800  GLU811  SER814 

> <Gold.Protein.RotatedAtoms>
  151.1527  135.0235  159.8675 H   0  0  0  0  0  0  0  0  0  0  0  0  # atno 6907 bound_to 6896
  152.5452  134.1370  159.8473 H   0  0  0  0  0  0  0  0  0  0  0  0  # atno 6908 bound_to 6896
  151.1457  133.4895  159.2628 H   0  0  0  0  0  0  0  0  0  0  0  0  # atno 6909 bound_to 6896
  144.8513  139.6156  143.5972 H   0  0  0  0  0  0  0  0  0  0  0  0  # atno 7974 bound_to 7965
  154.4793  140.2071  155.9802 H   0  0  0  0  0  0  0  0  0  0  0  0  # atno 8008 bound_to 7997
  156.1140  140.3224  155.8082 H   0  0  0  0  0  0  0  0  0  0  0  0  # atno 8009 bound_to 7997
  155.4586  140.0522  157.2984 H   0  0  0  0  0  0  0  0  0  0  0  0  # atno 8010 bound_to 7997
  139.7768  144.6903  151.0078 H   0  0  0  0  0  0  0  0  0  0  0  0  # atno 10167 bound_to 10162
  157.3991  131.1014  151.0569 H   0  0  0  0  0  0  0  0  0  0  0  0  # atno 10718 bound_to 10713
  153.5646  135.7009  153.5531 H   0  0  0  0  0  0  0  0  0  0  0  0  # atno 10763 bound_to 10752
  153.3398  135.4024  155.1562 H   0  0  0  0  0  0  0  0  0  0  0  0  # atno 10764 bound_to 10752
  154.8642  135.3739  154.5166 H   0  0  0  0  0  0  0  0  0  0  0  0  # atno 10765 bound_to 10752
  140.1255  134.4774  155.8563 H   0  0  0  0  0  0  0  0  0  0  0  0  # atno 11005 bound_to 11000
  146.2787  139.6819  142.9245 LP  0  0  0  0  0  0  0  0  0  0  0  0  # atno 17320 bound_to 7965
  145.4495  141.0427  143.2812 LP  0  0  0  0  0  0  0  0  0  0  0  0  # atno 17321 bound_to 7965
  140.7817  143.4527  151.0390 LP  0  0  0  0  0  0  0  0  0  0  0  0  # atno 17342 bound_to 10162
  139.8209  143.7821  152.3177 LP  0  0  0  0  0  0  0  0  0  0  0  0  # atno 17343 bound_to 10162
  157.1575  130.6211  149.5600 LP  0  0  0  0  0  0  0  0  0  0  0  0  # atno 17370 bound_to 10713
  155.9818  130.4828  150.6849 LP  0  0  0  0  0  0  0  0  0  0  0  0  # atno 17371 bound_to 10713
  141.2160  133.6776  156.6970 LP  0  0  0  0  0  0  0  0  0  0  0  0  # atno 17394 bound_to 11000
  140.2910  134.8241  157.4016 LP  0  0  0  0  0  0  0  0  0  0  0  0  # atno 17395 bound_to 11000

$$$$
