AV-unprocessed.smi:2269|AV-procd|sdf|9152|dock9
  -GOLD-   2272012363D 1   1.00000     0.00000
 Structure written by MMmdl.
 41 42  0  0  0  0  0  0  0  0  1 V2000
  147.4074  142.0447  154.5195 C   0  0  0  0  0  0  0  0  0  0  0  0
  148.6656  141.2244  154.7420 C   0  0  0  0  0  0  0  0  0  0  0  0
  149.6661  141.8459  155.4946 N   0  0  0  0  0  0  0  0  0  0  0  0
  150.7715  141.2212  155.7388 C   0  0  0  0  0  0  0  0  0  0  0  0
  151.0048  139.9204  155.2629 N   0  0  0  0  0  0  0  0  0  0  0  0
  152.3000  139.3172  155.6207 C   0  0  0  0  0  0  0  0  0  0  0  0
  152.2373  138.5654  156.9698 C   0  0  2  0  0  0  0  0  0  0  0  0
  151.1951  137.6127  156.8884 O   0  0  0  0  0  0  0  0  0  0  0  0
  151.8939  139.5054  158.1370 C   0  0  0  0  0  0  0  0  0  0  0  0
  152.9950  140.3721  158.3677 O   0  0  0  0  0  0  0  0  0  0  0  0
  153.0220  140.9275  159.6740 C   0  0  0  0  0  0  0  0  0  0  0  0
  152.6605  142.4072  159.6889 C   0  0  0  0  0  0  0  0  0  0  0  0
  152.3632  143.0358  158.4605 C   0  0  0  0  0  0  0  0  0  0  0  0
  152.0206  144.4004  158.4184 C   0  0  0  0  0  0  0  0  0  0  0  0
  151.9711  145.1484  159.6088 C   0  0  0  0  0  0  0  0  0  0  0  0
  152.2669  144.5304  160.8383 C   0  0  0  0  0  0  0  0  0  0  0  0
  152.6123  143.1644  160.8863 C   0  0  0  0  0  0  0  0  0  0  0  0
  152.9800  142.4627  162.4230 Cl  0  0  0  0  0  0  0  0  0  0  0  0
  150.0800  139.2398  154.5257 C   0  0  0  0  0  0  0  0  0  0  0  0
  150.2896  138.0935  154.1239 O   0  0  0  0  0  0  0  0  0  0  0  0
  148.8283  139.9646  154.2529 C   0  0  0  0  0  0  0  0  0  0  0  0
  147.7734  139.2371  153.4285 C   0  0  0  0  0  0  0  0  0  0  0  0
  147.2464  142.2167  153.4551 H   0  0  0  0  0  0  0  0  0  0  0  0
  147.4750  143.0171  155.0090 H   0  0  0  0  0  0  0  0  0  0  0  0
  146.5377  141.5274  154.9255 H   0  0  0  0  0  0  0  0  0  0  0  0
  151.5805  141.6591  156.3259 H   0  0  0  0  0  0  0  0  0  0  0  0
  152.5811  138.6221  154.8276 H   0  0  0  0  0  0  0  0  0  0  0  0
  153.1084  140.0515  155.6267 H   0  0  0  0  0  0  0  0  0  0  0  0
  153.1851  138.0650  157.1730 H   0  0  0  0  0  0  0  0  0  0  0  0
  150.5033  137.8728  157.4772 H   0  0  0  0  0  0  0  0  0  0  0  0
  151.0327  140.1234  157.8786 H   0  0  0  0  0  0  0  0  0  0  0  0
  151.6240  138.9371  159.0287 H   0  0  0  0  0  0  0  0  0  0  0  0
  152.2739  140.4019  160.2677 H   0  0  0  0  0  0  0  0  0  0  0  0
  153.9771  140.7168  160.1538 H   0  0  0  0  0  0  0  0  0  0  0  0
  152.4005  142.4681  157.5421 H   0  0  0  0  0  0  0  0  0  0  0  0
  151.7957  144.8723  157.4732 H   0  0  0  0  0  0  0  0  0  0  0  0
  151.7076  146.1955  159.5790 H   0  0  0  0  0  0  0  0  0  0  0  0
  152.2299  145.1096  161.7493 H   0  0  0  0  0  0  0  0  0  0  0  0
  147.4494  138.3340  153.9465 H   0  0  0  0  0  0  0  0  0  0  0  0
  148.1866  138.9438  152.4627 H   0  0  0  0  0  0  0  0  0  0  0  0
  146.8883  139.8406  153.2343 H   0  0  0  0  0  0  0  0  0  0  0  0
  1  2  1  0  0  0  0
  1 23  1  0  0  0  0
  1 24  1  0  0  0  0
  1 25  1  0  0  0  0
  2 21  2  0  0  0  0
  2  3  1  0  0  0  0
  3  4  2  0  0  0  0
  4  5  1  0  0  0  0
  4 26  1  0  0  0  0
  5  6  1  0  0  0  0
  5 19  1  0  0  0  0
  6  7  1  0  0  0  0
  6 27  1  0  0  0  0
  6 28  1  0  0  0  0
  7  8  1  0  0  0  0
  7  9  1  0  0  0  0
  7 29  1  0  0  0  0
  8 30  1  0  0  0  0
  9 10  1  0  0  0  0
  9 31  1  0  0  0  0
  9 32  1  0  0  0  0
 10 11  1  0  0  0  0
 11 12  1  0  0  0  0
 11 33  1  0  0  0  0
 11 34  1  0  0  0  0
 12 17  1  0  0  0  0
 12 13  2  0  0  0  0
 13 14  1  0  0  0  0
 13 35  1  0  0  0  0
 14 15  2  0  0  0  0
 14 36  1  0  0  0  0
 15 16  1  0  0  0  0
 15 37  1  0  0  0  0
 16 17  2  0  0  0  0
 16 38  1  0  0  0  0
 17 18  1  0  0  0  0
 19 20  2  0  0  0  0
 19 21  1  0  0  0  0
 21 22  1  0  0  0  0
 22 39  1  0  0  0  0
 22 40  1  0  0  0  0
 22 41  1  0  0  0  0
M  END
> <s_m_source_file>
AV-unprocessed.smi

> <i_m_source_file_index>
2269

> <i_lp_mmshare_version>
43012

> <i_f3d_flags>
0

> <s_epik_input>
W0NIM11jMW5bY0hdbihjKD1PKWMxW0NIM10pW0NIMl1bQ0BIXShbT0hdKVtDSDJdT1tDSDJdYzJbY0hdW2NIXVtjSF1bY0hdYzJDbA==

> <s_epik_cmdline>
J2VwaWtfcHl0aG9uJywgJy1waCcsICc3LjAnLCAnLXRuJywgJzgnLCAnLW1hJywgJzIwMCcsICctbWV0YWxfYmluZGluZycsICctaW1hZScsICc8aW5maWxlLm1hZT4nLCAnLW9tYWUnLCAnPG91dGZpbGUubWFlPic=

> <r_lp_tautomer_probability>
1

> <r_epik_Ionization_Penalty>
5.36022e-05

> <r_epik_Ionization_Penalty_Charging>
1.17753e-07

> <r_epik_Ionization_Penalty_Neutral>
5.34845e-05

> <r_epik_State_Penalty>
-0

> <r_epik_Charging_Adjusted_Penalty>
1.17753e-07

> <i_epik_Tot_Q>
0

> <i_epik_Tot_abs_Q>
0

> <r_epik_Metal_State_Penalty>
-0

> <b_epik_Metal_Only>
0

> <s_lp_Force_Field>
OPLS_2005

> <r_lp_Energy>
24.1822

> <b_lp_Chiralities_Consistent>
1

> <s_lp_Variant>
AV-unprocessed.smi:2269-1

> <Gold.Version>
5.8.1

> <Gold.Id.Protein>
6NUR|6NUR_protein|mol2

> <Gold.PLP.Fitness>
54.4655

> <Gold.PLP.PLP>
-53.7874

> <Gold.PLP.part.hbond>
-1.0000

> <Gold.PLP.part.metal>
0.0000

> <Gold.PLP.part.buried>
-3.5423

> <Gold.PLP.part.nonpolar>
-49.3741

> <Gold.PLP.part.repulsive>
0.7472

> <Gold.PLP.ligand.clash>
0.0000

> <Gold.PLP.ligand.torsion>
0.8655

> <Gold.PLP.Chemscore.Hbond>
0.7582

> <Gold.PLP.Chemscore.CHOScore>
0.0000

> <Gold.PLP.Chemscore.Metal>
0.0000

> <Gold.Chemscore.Hbonds>
donor molecule, donor type, donor heavy atom, donor atom, acceptor molecule, acceptor atom, score
      P1  H  7997  8009       L1    10  0.71

> <Gold.PLP.Chemscore.Internal.Correction>
0.1346

> <Gold.Rescore>
     Score         DG    S(hbond)    S(metal)    S(lipo)     H(rot)  DE(clash)    DE(int)     intcor
     13.36     -17.47       0.80        0.00     134.77       2.52       2.03       2.09       ----

> <Gold.Chemscore.Fitness>
13.3555

> <Gold.Chemscore.DG>
-17.4719

> <Gold.Chemscore.ZeroCoef>
-5.4800

> <Gold.Chemscore.Hbond>
0.7978

> <Gold.Chemscore.Metal>
0.0000

> <Gold.Chemscore.Lipo>
134.7738

> <Gold.Chemscore.Internal_Hbond>
0.0000

> <Gold.Chemscore.DEClash>
2.0264

> <Gold.Chemscore.DEInternal>
2.0900

> <Gold.Chemscore.Rot>
2.5162

> <Gold.Chemscore.Internal.Correction>
   9.000000E+99

> <Gold.Chemscore.Hbonds>
donor molecule, donor type, donor heavy atom, donor atom, acceptor molecule, acceptor atom, score
      P1  H  7997  8009       L1    10  0.61

> <Gold.Chemscore.Hbond.Weighted>
-2.6647

> <Gold.Chemscore.Metal.Weighted>
-0.0000

> <Gold.Chemscore.Lipo.Weighted>
-15.7685

> <Gold.Chemscore.Internal_Hbond.Weighted>
0.0000

> <Gold.Chemscore.DEClash.Weighted>
2.0264

> <Gold.Chemscore.DEInternal.Weighted>
2.0900

> <Gold.Chemscore.Rot.Weighted>
6.4414

> <Gold.Chemscore.Internal.Correction.Weighted>
   9.000000E+99

> <Gold.Protein.RotatedTorsions>
[ 6907 6896 6895 6894 ] final   97.43 input  -60.11 | X-H torsion
[ 7974 7965 7964 7962 ] final   38.50 input  175.53 | X-H torsion
[ 8008 7997 7996 7995 ] final  153.72 input   59.86 | X-H torsion
[ 10167 10162 10161 10158 ] final  -54.68 input  -65.29 | X-H torsion
[ 10718 10713 10712 10709 ] final  130.04 input   66.30 | X-H torsion
[ 10763 10752 10751 10750 ] final   47.06 input  -60.55 | X-H torsion
[ 11005 11000 10999 10996 ] final  -51.63 input  -57.11 | X-H torsion

> <Gold.Protein.ActiveResidues>
 VAL166  LYS551  ARG553  GLY616  TRP617  ASP618  TYR619  PRO620  LYS621  CYS622 
 ASP623  PHE694  ASN695  SER759  ASP760  ASP761  ALA762  ILE779  LEU786  VAL792 
 PHE793  MET794  SER795  GLU796  ALA797  LYS798  CYS799  TRP800  GLU811  SER814 

> <Gold.Protein.RotatedAtoms>
  152.5423  134.0735  159.8204 H   0  0  0  0  0  0  0  0  0  0  0  0  # atno 6907 bound_to 6896
  151.0846  133.5355  159.2626 H   0  0  0  0  0  0  0  0  0  0  0  0  # atno 6908 bound_to 6896
  151.2170  135.0512  159.8988 H   0  0  0  0  0  0  0  0  0  0  0  0  # atno 6909 bound_to 6896
  146.1057  139.5765  142.9385 H   0  0  0  0  0  0  0  0  0  0  0  0  # atno 7974 bound_to 7965
  156.2567  140.1986  156.6534 H   0  0  0  0  0  0  0  0  0  0  0  0  # atno 8008 bound_to 7997
  154.6519  140.0571  156.9990 H   0  0  0  0  0  0  0  0  0  0  0  0  # atno 8009 bound_to 7997
  155.1405  140.3242  155.4456 H   0  0  0  0  0  0  0  0  0  0  0  0  # atno 8010 bound_to 7997
  140.6417  143.2511  151.4971 H   0  0  0  0  0  0  0  0  0  0  0  0  # atno 10167 bound_to 10162
  157.5098  131.1096  150.9309 H   0  0  0  0  0  0  0  0  0  0  0  0  # atno 10718 bound_to 10713
  152.9804  135.5988  154.3701 H   0  0  0  0  0  0  0  0  0  0  0  0  # atno 10763 bound_to 10752
  154.3375  135.2768  155.2442 H   0  0  0  0  0  0  0  0  0  0  0  0  # atno 10764 bound_to 10752
  154.4538  135.5983  153.6265 H   0  0  0  0  0  0  0  0  0  0  0  0  # atno 10765 bound_to 10752
  141.0881  133.6638  156.3905 H   0  0  0  0  0  0  0  0  0  0  0  0  # atno 11005 bound_to 11000
  145.5765  141.0388  143.2145 LP  0  0  0  0  0  0  0  0  0  0  0  0  # atno 17320 bound_to 7965
  144.7469  139.7296  143.7289 LP  0  0  0  0  0  0  0  0  0  0  0  0  # atno 17321 bound_to 7965
  139.5626  144.2119  152.1715 LP  0  0  0  0  0  0  0  0  0  0  0  0  # atno 17342 bound_to 10162
  140.1392  144.5218  150.6755 LP  0  0  0  0  0  0  0  0  0  0  0  0  # atno 17343 bound_to 10162
  156.9953  130.5579  149.5306 LP  0  0  0  0  0  0  0  0  0  0  0  0  # atno 17370 bound_to 10713
  156.0282  130.5374  150.8463 LP  0  0  0  0  0  0  0  0  0  0  0  0  # atno 17371 bound_to 10713
  140.5316  134.6207  157.5351 LP  0  0  0  0  0  0  0  0  0  0  0  0  # atno 17394 bound_to 11000
  139.9702  134.7305  156.0056 LP  0  0  0  0  0  0  0  0  0  0  0  0  # atno 17395 bound_to 11000

$$$$
