AV-unprocessed.smi:942|AV-procd|sdf|4228|dock2
  -GOLD-   22720 2133D 1   1.00000     0.00000
 Structure written by MMmdl.
 42 44  0  0  0  0  0  0  0  0  1 V2000
  152.4668  140.5195  157.3550 O   0  0  0  0  0  0  0  0  0  0  0  0
  151.4164  141.1509  157.2371 C   0  0  0  0  0  0  0  0  0  0  0  0
  151.2486  142.3949  157.7107 N   0  0  0  0  0  0  0  0  0  0  0  0
  152.2545  143.1652  158.4365 C   0  0  1  0  0  0  0  0  0  0  0  0
  152.1290  144.6761  158.1483 C   0  0  0  0  0  0  0  0  0  0  0  0
  151.6537  145.3247  159.4502 C   0  0  0  0  0  0  0  0  0  0  0  0
  152.2059  144.4190  160.5462 C   0  0  0  0  0  0  0  0  0  0  0  0
  152.0580  143.0102  159.9610 C   0  0  2  0  0  0  0  0  0  0  0  0
  152.9564  142.0381  160.5641 N   0  0  0  0  0  0  0  0  0  0  0  0
  153.2583  140.7597  160.1082 C   0  0  0  0  0  0  0  0  0  0  0  0
  154.1480  140.2187  161.0083 C   0  0  0  0  0  0  0  0  0  0  0  0
  154.4055  141.1379  162.0222 N   0  0  0  0  0  0  0  0  0  0  0  0
  153.6647  142.1881  161.6923 C   0  0  0  0  0  0  0  0  0  0  0  0
  150.2112  140.5277  156.5207 C   0  0  0  0  0  0  0  0  0  0  0  0
  150.5290  139.0970  156.0363 C   0  0  0  0  0  0  0  0  0  0  0  0
  149.3219  138.4709  155.3184 C   0  0  0  0  0  0  0  0  0  0  0  0
  148.8497  139.3506  154.1496 C   0  0  0  0  0  0  0  0  0  0  0  0
  148.5461  140.7831  154.6168 C   0  0  0  0  0  0  0  0  0  0  0  0
  149.7558  141.4042  155.3349 C   0  0  0  0  0  0  0  0  0  0  0  0
  150.3538  142.8392  157.5638 H   0  0  0  0  0  0  0  0  0  0  0  0
  153.2506  142.8302  158.1402 H   0  0  0  0  0  0  0  0  0  0  0  0
  153.1113  145.0716  157.8872 H   0  0  0  0  0  0  0  0  0  0  0  0
  151.4628  144.9070  157.3158 H   0  0  0  0  0  0  0  0  0  0  0  0
  151.9872  146.3580  159.5506 H   0  0  0  0  0  0  0  0  0  0  0  0
  150.5633  145.3206  159.4858 H   0  0  0  0  0  0  0  0  0  0  0  0
  153.2550  144.6624  160.7194 H   0  0  0  0  0  0  0  0  0  0  0  0
  151.6766  144.5362  161.4924 H   0  0  0  0  0  0  0  0  0  0  0  0
  151.0335  142.6884  160.1590 H   0  0  0  0  0  0  0  0  0  0  0  0
  152.8263  140.3510  159.2066 H   0  0  0  0  0  0  0  0  0  0  0  0
  154.6176  139.2461  161.0051 H   0  0  0  0  0  0  0  0  0  0  0  0
  153.6376  143.0892  162.2875 H   0  0  0  0  0  0  0  0  0  0  0  0
  149.3860  140.4671  157.2327 H   0  0  0  0  0  0  0  0  0  0  0  0
  151.3828  139.1095  155.3567 H   0  0  0  0  0  0  0  0  0  0  0  0
  150.8164  138.4693  156.8807 H   0  0  0  0  0  0  0  0  0  0  0  0
  149.5810  137.4764  154.9539 H   0  0  0  0  0  0  0  0  0  0  0  0
  148.5046  138.3367  156.0282 H   0  0  0  0  0  0  0  0  0  0  0  0
  149.6191  139.3741  153.3767 H   0  0  0  0  0  0  0  0  0  0  0  0
  147.9628  138.9137  153.6900 H   0  0  0  0  0  0  0  0  0  0  0  0
  148.2625  141.3999  153.7635 H   0  0  0  0  0  0  0  0  0  0  0  0
  147.6877  140.7737  155.2897 H   0  0  0  0  0  0  0  0  0  0  0  0
  149.4971  142.4046  155.6845 H   0  0  0  0  0  0  0  0  0  0  0  0
  150.5724  141.5281  154.6214 H   0  0  0  0  0  0  0  0  0  0  0  0
  1  2  2  0  0  0  0
  2  3  1  0  0  0  0
  2 14  1  0  0  0  0
  3  4  1  0  0  0  0
  3 20  1  0  0  0  0
  4  8  1  0  0  0  0
  4  5  1  0  0  0  0
  4 21  1  0  0  0  0
  5  6  1  0  0  0  0
  5 22  1  0  0  0  0
  5 23  1  0  0  0  0
  6  7  1  0  0  0  0
  6 24  1  0  0  0  0
  6 25  1  0  0  0  0
  7  8  1  0  0  0  0
  7 26  1  0  0  0  0
  7 27  1  0  0  0  0
  8  9  1  0  0  0  0
  8 28  1  0  0  0  0
  9 13  1  0  0  0  0
  9 10  1  0  0  0  0
 10 11  2  0  0  0  0
 10 29  1  0  0  0  0
 11 12  1  0  0  0  0
 11 30  1  0  0  0  0
 12 13  2  0  0  0  0
 13 31  1  0  0  0  0
 14 19  1  0  0  0  0
 14 15  1  0  0  0  0
 14 32  1  0  0  0  0
 15 16  1  0  0  0  0
 15 33  1  0  0  0  0
 15 34  1  0  0  0  0
 16 17  1  0  0  0  0
 16 35  1  0  0  0  0
 16 36  1  0  0  0  0
 17 18  1  0  0  0  0
 17 37  1  0  0  0  0
 17 38  1  0  0  0  0
 18 19  1  0  0  0  0
 18 39  1  0  0  0  0
 18 40  1  0  0  0  0
 19 41  1  0  0  0  0
 19 42  1  0  0  0  0
M  END
> <s_m_source_file>
AV-unprocessed.smi

> <i_m_source_file_index>
942

> <i_lp_mmshare_version>
43012

> <i_f3d_flags>
0

> <s_epik_input>
W0NIMl0xW0NIMl1bQ0gyXVtDSDJdW0NIMl1bQ0hdMUMoPU8pW05IXVtDQEBIXTJbQ0gyXVtDSDJdW0NIMl1bQ0BIXTJuM1tjSF1bY0hdbltjSF0z

> <s_epik_cmdline>
J2VwaWtfcHl0aG9uJywgJy1waCcsICc3LjAnLCAnLXRuJywgJzgnLCAnLW1hJywgJzIwMCcsICctbWV0YWxfYmluZGluZycsICctaW1hZScsICc8aW5maWxlLm1hZT4nLCAnLW9tYWUnLCAnPG91dGZpbGUubWFlPic=

> <r_lp_tautomer_probability>
1

> <r_epik_Ionization_Penalty>
0.778458

> <r_epik_Ionization_Penalty_Charging>
0.778458

> <r_epik_Ionization_Penalty_Neutral>
2.79355e-08

> <r_epik_State_Penalty>
0.807804

> <r_epik_Charging_Adjusted_Penalty>
1.58626

> <i_epik_Tot_Q>
0

> <i_epik_Tot_abs_Q>
0

> <r_epik_Metal_State_Penalty>
0.343007

> <b_epik_Metal_Only>
0

> <s_lp_Force_Field>
OPLS_2005

> <r_lp_Energy>
31.6658

> <b_lp_Chiralities_Consistent>
1

> <s_lp_Variant>
AV-unprocessed.smi:942-8

> <Gold.Version>
5.8.1

> <Gold.Id.Protein>
6NUR|6NUR_protein|mol2

> <Gold.PLP.Fitness>
46.8513

> <Gold.PLP.PLP>
-45.5995

> <Gold.PLP.part.hbond>
-1.7987

> <Gold.PLP.part.metal>
0.0000

> <Gold.PLP.part.buried>
-2.8648

> <Gold.PLP.part.nonpolar>
-39.9731

> <Gold.PLP.part.repulsive>
0.0364

> <Gold.PLP.ligand.clash>
0.0000

> <Gold.PLP.ligand.torsion>
0.6903

> <Gold.PLP.Chemscore.Hbond>
0.8723

> <Gold.PLP.Chemscore.CHOScore>
0.0000

> <Gold.PLP.Chemscore.Metal>
0.0000

> <Gold.Chemscore.Hbonds>
donor molecule, donor type, donor heavy atom, donor atom, acceptor molecule, acceptor atom, score
      P1  H  7997  8008       L1     1  0.77

> <Gold.PLP.Chemscore.Internal.Correction>
0.0155

> <Gold.Rescore>
     Score         DG    S(hbond)    S(metal)    S(lipo)     H(rot)  DE(clash)    DE(int)     intcor
     17.17     -18.11       0.94        0.00     112.53       1.44       0.17       0.78       ----

> <Gold.Chemscore.Fitness>
17.1719

> <Gold.Chemscore.DG>
-18.1144

> <Gold.Chemscore.ZeroCoef>
-5.4800

> <Gold.Chemscore.Hbond>
0.9443

> <Gold.Chemscore.Metal>
0.0000

> <Gold.Chemscore.Lipo>
112.5266

> <Gold.Chemscore.Internal_Hbond>
0.0000

> <Gold.Chemscore.DEClash>
0.1667

> <Gold.Chemscore.DEInternal>
0.7758

> <Gold.Chemscore.Rot>
1.4395

> <Gold.Chemscore.Internal.Correction>
   9.000000E+99

> <Gold.Chemscore.Hbonds>
donor molecule, donor type, donor heavy atom, donor atom, acceptor molecule, acceptor atom, score
      P1  H  7997  8008       L1     1  0.74

> <Gold.Chemscore.Hbond.Weighted>
-3.1540

> <Gold.Chemscore.Metal.Weighted>
-0.0000

> <Gold.Chemscore.Lipo.Weighted>
-13.1656

> <Gold.Chemscore.Internal_Hbond.Weighted>
0.0000

> <Gold.Chemscore.DEClash.Weighted>
0.1667

> <Gold.Chemscore.DEInternal.Weighted>
0.7758

> <Gold.Chemscore.Rot.Weighted>
3.6852

> <Gold.Chemscore.Internal.Correction.Weighted>
   9.000000E+99

> <Gold.Protein.RotatedTorsions>
[ 6907 6896 6895 6894 ] final  175.98 input  -60.11 | X-H torsion
[ 7974 7965 7964 7962 ] final  -53.10 input  175.53 | X-H torsion
[ 8008 7997 7996 7995 ] final  -61.77 input   59.86 | X-H torsion
[ 10167 10162 10161 10158 ] final  -59.24 input  -65.29 | X-H torsion
[ 10718 10713 10712 10709 ] final -171.57 input   66.30 | X-H torsion
[ 10763 10752 10751 10750 ] final   -6.13 input  -60.55 | X-H torsion
[ 11005 11000 10999 10996 ] final  -19.98 input  -57.11 | X-H torsion

> <Gold.Protein.ActiveResidues>
 VAL166  LYS551  ARG553  GLY616  TRP617  ASP618  TYR619  PRO620  LYS621  CYS622 
 ASP623  PHE694  ASN695  SER759  ASP760  ASP761  ALA762  ILE779  LEU786  VAL792 
 PHE793  MET794  SER795  GLU796  ALA797  LYS798  CYS799  TRP800  GLU811  SER814 

> <Gold.Protein.RotatedAtoms>
  151.7274  133.3316  159.3331 H   0  0  0  0  0  0  0  0  0  0  0  0  # atno 6907 bound_to 6896
  150.7627  134.6393  159.6238 H   0  0  0  0  0  0  0  0  0  0  0  0  # atno 6908 bound_to 6896
  152.3613  134.6870  160.0258 H   0  0  0  0  0  0  0  0  0  0  0  0  # atno 6909 bound_to 6896
  145.9006  140.7997  142.9745 H   0  0  0  0  0  0  0  0  0  0  0  0  # atno 7974 bound_to 7965
  154.4465  140.1010  156.6483 H   0  0  0  0  0  0  0  0  0  0  0  0  # atno 8008 bound_to 7997
  155.5425  140.3484  155.4431 H   0  0  0  0  0  0  0  0  0  0  0  0  # atno 8009 bound_to 7997
  156.0586  140.1321  156.9956 H   0  0  0  0  0  0  0  0  0  0  0  0  # atno 8010 bound_to 7997
  140.6147  143.2398  151.5625 H   0  0  0  0  0  0  0  0  0  0  0  0  # atno 10167 bound_to 10162
  156.7428  130.9349  151.3111 H   0  0  0  0  0  0  0  0  0  0  0  0  # atno 10718 bound_to 10713
  153.4082  135.7007  153.6378 H   0  0  0  0  0  0  0  0  0  0  0  0  # atno 10763 bound_to 10752
  153.4883  135.3678  155.2479 H   0  0  0  0  0  0  0  0  0  0  0  0  # atno 10764 bound_to 10752
  154.8715  135.4083  154.3429 H   0  0  0  0  0  0  0  0  0  0  0  0  # atno 10765 bound_to 10752
  140.8420  133.7919  155.9871 H   0  0  0  0  0  0  0  0  0  0  0  0  # atno 11005 bound_to 11000
  144.6735  140.1671  143.7417 LP  0  0  0  0  0  0  0  0  0  0  0  0  # atno 17320 bound_to 7965
  145.8796  139.2316  143.1613 LP  0  0  0  0  0  0  0  0  0  0  0  0  # atno 17321 bound_to 7965
  139.5389  144.2702  152.1310 LP  0  0  0  0  0  0  0  0  0  0  0  0  # atno 17342 bound_to 10162
  140.1909  144.4753  150.6479 LP  0  0  0  0  0  0  0  0  0  0  0  0  # atno 17343 bound_to 10162
  157.6811  130.9141  150.0269 LP  0  0  0  0  0  0  0  0  0  0  0  0  # atno 17370 bound_to 10713
  156.1453  130.3642  149.9520 LP  0  0  0  0  0  0  0  0  0  0  0  0  # atno 17371 bound_to 10713
  140.8885  134.2525  157.5107 LP  0  0  0  0  0  0  0  0  0  0  0  0  # atno 17394 bound_to 11000
  139.8703  134.9650  156.4513 LP  0  0  0  0  0  0  0  0  0  0  0  0  # atno 17395 bound_to 11000

$$$$
