AV-unprocessed.smi:2185|AV-procd|sdf|8875|dock7
  -GOLD-   2272012 73D 1   1.00000     0.00000
 Structure written by MMmdl.
 38 39  0  0  0  0  0  0  0  0  1 V2000
  149.5859  141.7279  156.5528 C   0  0  0  0  0  0  0  0  0  0  0  0
  149.1581  141.4666  154.7833 S   0  0  0  0  0  0  0  0  0  0  0  0
  148.9075  142.7818  154.1742 O   0  0  0  0  0  0  0  0  0  0  0  0
  150.1651  140.5705  154.1948 O   0  0  0  0  0  0  0  0  0  0  0  0
  147.6451  140.6081  154.8351 N   0  0  0  0  0  0  0  0  0  0  0  0
  146.7351  140.6436  153.6727 C   0  0  0  0  0  0  0  0  0  0  0  0
  146.8258  139.3531  152.8400 C   0  0  0  0  0  0  0  0  0  0  0  0
  146.5947  138.1086  153.7091 C   0  0  0  0  0  0  0  0  0  0  0  0
  146.7429  136.9040  152.8975 N   0  0  0  0  0  0  0  0  0  0  0  0
  145.7421  136.0919  152.5281 C   0  0  0  0  0  0  0  0  0  0  0  0
  144.5677  136.2754  152.8464 O   0  0  0  0  0  0  0  0  0  0  0  0
  146.1956  135.0823  151.7653 N   0  0  0  0  0  0  0  0  0  0  0  0
  145.4660  134.0181  151.1684 C   0  0  0  0  0  0  0  0  0  0  0  0
  146.0039  133.1010  150.2326 C   0  0  0  0  0  0  0  0  0  0  0  0
  145.1663  132.1003  149.7030 C   0  0  0  0  0  0  0  0  0  0  0  0
  143.8224  132.0557  150.1219 C   0  0  0  0  0  0  0  0  0  0  0  0
  143.2932  132.9294  151.0037 N   0  0  0  0  0  0  0  0  0  0  0  0
  144.1021  133.8860  151.5068 C   0  0  0  0  0  0  0  0  0  0  0  0
  147.5967  138.1114  154.8758 C   0  0  0  0  0  0  0  0  0  0  0  0
  147.5047  139.4132  155.6919 C   0  0  0  0  0  0  0  0  0  0  0  0
  150.5330  142.2633  156.6134 H   0  0  0  0  0  0  0  0  0  0  0  0
  149.6898  140.7682  157.0557 H   0  0  0  0  0  0  0  0  0  0  0  0
  148.8130  142.3224  157.0369 H   0  0  0  0  0  0  0  0  0  0  0  0
  145.7154  140.7697  154.0387 H   0  0  0  0  0  0  0  0  0  0  0  0
  146.9462  141.5123  153.0500 H   0  0  0  0  0  0  0  0  0  0  0  0
  146.0880  139.3874  152.0375 H   0  0  0  0  0  0  0  0  0  0  0  0
  147.7997  139.2927  152.3548 H   0  0  0  0  0  0  0  0  0  0  0  0
  145.5792  138.1514  154.1079 H   0  0  0  0  0  0  0  0  0  0  0  0
  147.6768  136.6771  152.5886 H   0  0  0  0  0  0  0  0  0  0  0  0
  147.1789  135.1081  151.5387 H   0  0  0  0  0  0  0  0  0  0  0  0
  147.0286  133.1499  149.8997 H   0  0  0  0  0  0  0  0  0  0  0  0
  145.5452  131.3853  148.9877 H   0  0  0  0  0  0  0  0  0  0  0  0
  143.1534  131.3020  149.7338 H   0  0  0  0  0  0  0  0  0  0  0  0
  143.6434  134.5688  152.2073 H   0  0  0  0  0  0  0  0  0  0  0  0
  147.4092  137.2615  155.5329 H   0  0  0  0  0  0  0  0  0  0  0  0
  148.6092  137.9818  154.4947 H   0  0  0  0  0  0  0  0  0  0  0  0
  148.2572  139.4206  156.4797 H   0  0  0  0  0  0  0  0  0  0  0  0
  146.5365  139.4608  156.1914 H   0  0  0  0  0  0  0  0  0  0  0  0
  1  2  1  0  0  0  0
  1 21  1  0  0  0  0
  1 22  1  0  0  0  0
  1 23  1  0  0  0  0
  2  3  2  0  0  0  0
  2  4  2  0  0  0  0
  2  5  1  0  0  0  0
  5 20  1  0  0  0  0
  5  6  1  0  0  0  0
  6  7  1  0  0  0  0
  6 24  1  0  0  0  0
  6 25  1  0  0  0  0
  7  8  1  0  0  0  0
  7 26  1  0  0  0  0
  7 27  1  0  0  0  0
  8  9  1  0  0  0  0
  8 19  1  0  0  0  0
  8 28  1  0  0  0  0
  9 10  1  0  0  0  0
  9 29  1  0  0  0  0
 10 11  2  0  0  0  0
 10 12  1  0  0  0  0
 12 13  1  0  0  0  0
 12 30  1  0  0  0  0
 13 18  1  0  0  0  0
 13 14  2  0  0  0  0
 14 15  1  0  0  0  0
 14 31  1  0  0  0  0
 15 16  2  0  0  0  0
 15 32  1  0  0  0  0
 16 17  1  0  0  0  0
 16 33  1  0  0  0  0
 17 18  2  0  0  0  0
 18 34  1  0  0  0  0
 19 20  1  0  0  0  0
 19 35  1  0  0  0  0
 19 36  1  0  0  0  0
 20 37  1  0  0  0  0
 20 38  1  0  0  0  0
M  END
> <s_m_source_file>
AV-unprocessed.smi

> <i_m_source_file_index>
2185

> <i_lp_mmshare_version>
43012

> <i_f3d_flags>
0

> <s_epik_input>
W0NIM11TKD1PKSg9TylOMVtDSDJdW0NIMl1bQ0hdKFtDSDJdW0NIMl0xKVtOSF1DKD1PKVtOSF1jMltjSF1bY0hdW2NIXW5bY0hdMg==

> <s_epik_cmdline>
J2VwaWtfcHl0aG9uJywgJy1waCcsICc3LjAnLCAnLXRuJywgJzgnLCAnLW1hJywgJzIwMCcsICctbWV0YWxfYmluZGluZycsICctaW1hZScsICc8aW5maWxlLm1hZT4nLCAnLW9tYWUnLCAnPG91dGZpbGUubWFlPic=

> <r_epik_Ionization_Penalty>
0.00480481

> <r_epik_Ionization_Penalty_Charging>
0

> <r_epik_Ionization_Penalty_Neutral>
0.00480481

> <r_epik_State_Penalty>
0.00345682

> <r_epik_Charging_Adjusted_Penalty>
0.00345682

> <i_epik_Tot_Q>
0

> <i_epik_Tot_abs_Q>
0

> <r_epik_Metal_State_Penalty>
-0

> <b_epik_Metal_Only>
0

> <s_lp_Force_Field>
OPLS_2005

> <r_lp_Energy>
2.72974

> <b_lp_Chiralities_Consistent>
1

> <s_lp_Variant>
AV-unprocessed.smi:2185-1

> <Gold.Version>
5.8.1

> <Gold.Id.Protein>
6NUR|6NUR_protein|mol2

> <Gold.PLP.Fitness>
37.9706

> <Gold.PLP.PLP>
-25.0231

> <Gold.PLP.part.hbond>
-4.4276

> <Gold.PLP.part.metal>
0.0000

> <Gold.PLP.part.buried>
-1.8826

> <Gold.PLP.part.nonpolar>
-23.3822

> <Gold.PLP.part.repulsive>
5.5055

> <Gold.PLP.ligand.clash>
0.0000

> <Gold.PLP.ligand.torsion>
1.2720

> <Gold.PLP.Chemscore.Hbond>
3.4803

> <Gold.PLP.Chemscore.CHOScore>
1.0000

> <Gold.PLP.Chemscore.Metal>
0.0000

> <Gold.Chemscore.Hbonds>
donor molecule, donor type, donor heavy atom, donor atom, acceptor molecule, acceptor atom, score
      L1  H     9    29       P1  7948  1.00
      L1  H    12    30       P1  7948  0.79
      P1  H  7989  7998       L1     4  0.80
      P1  H  8022  8030       L1     3  0.88
      L1  C    16    33       P1 10952  1.00

> <Gold.PLP.Chemscore.Internal.Correction>
2.0507

> <Gold.Rescore>
     Score         DG    S(hbond)    S(metal)    S(lipo)     H(rot)  DE(clash)    DE(int)     intcor
     17.94     -22.70       3.56        0.00      67.36       1.00       2.13       2.63       ----

> <Gold.Chemscore.Fitness>
17.9406

> <Gold.Chemscore.DG>
-22.7030

> <Gold.Chemscore.ZeroCoef>
-5.4800

> <Gold.Chemscore.Hbond>
3.5634

> <Gold.Chemscore.Metal>
0.0000

> <Gold.Chemscore.Lipo>
67.3618

> <Gold.Chemscore.Internal_Hbond>
0.0000

> <Gold.Chemscore.DEClash>
2.1323

> <Gold.Chemscore.DEInternal>
2.6301

> <Gold.Chemscore.Rot>
1.0000

> <Gold.Chemscore.Internal.Correction>
   9.000000E+99

> <Gold.Chemscore.Hbonds>
donor molecule, donor type, donor heavy atom, donor atom, acceptor molecule, acceptor atom, score
      L1  H     9    29       P1  7948  0.93
      L1  H    12    30       P1  7948  0.65
      P1  H  7989  7998       L1     4  0.79
      P1  H  8011  8017       L1     3  0.01
      P1  H  8022  8030       L1     3  0.85

> <Gold.Chemscore.Hbond.Weighted>
-11.9017

> <Gold.Chemscore.Metal.Weighted>
-0.0000

> <Gold.Chemscore.Lipo.Weighted>
-7.8813

> <Gold.Chemscore.Internal_Hbond.Weighted>
0.0000

> <Gold.Chemscore.DEClash.Weighted>
2.1323

> <Gold.Chemscore.DEInternal.Weighted>
2.6301

> <Gold.Chemscore.Rot.Weighted>
2.5600

> <Gold.Chemscore.Internal.Correction.Weighted>
   9.000000E+99

> <Gold.Protein.RotatedTorsions>
[ 6907 6896 6895 6894 ] final   71.76 input  -60.11 | X-H torsion
[ 7974 7965 7964 7962 ] final  -94.25 input  175.53 | X-H torsion
[ 8008 7997 7996 7995 ] final  -38.44 input   59.86 | X-H torsion
[ 10167 10162 10161 10158 ] final  158.47 input  -65.29 | X-H torsion
[ 10718 10713 10712 10709 ] final -132.36 input   66.30 | X-H torsion
[ 10763 10752 10751 10750 ] final   33.68 input  -60.55 | X-H torsion
[ 11005 11000 10999 10996 ] final  144.76 input  -57.11 | X-H torsion

> <Gold.Protein.ActiveResidues>
 VAL166  LYS551  ARG553  GLY616  TRP617  ASP618  TYR619  PRO620  LYS621  CYS622 
 ASP623  PHE694  ASN695  SER759  ASP760  ASP761  ALA762  ILE779  LEU786  VAL792 
 PHE793  MET794  SER795  GLU796  ALA797  LYS798  CYS799  TRP800  GLU811  SER814 

> <Gold.Protein.RotatedAtoms>
  152.4829  134.4672  159.9623 H   0  0  0  0  0  0  0  0  0  0  0  0  # atno 6907 bound_to 6896
  151.4674  133.3571  159.2826 H   0  0  0  0  0  0  0  0  0  0  0  0  # atno 6908 bound_to 6896
  150.8915  134.8345  159.7357 H   0  0  0  0  0  0  0  0  0  0  0  0  # atno 6909 bound_to 6896
  145.3758  140.9511  143.2421 H   0  0  0  0  0  0  0  0  0  0  0  0  # atno 7974 bound_to 7965
  154.4037  140.1578  156.2700 H   0  0  0  0  0  0  0  0  0  0  0  0  # atno 8008 bound_to 7997
  155.8961  140.3436  155.5970 H   0  0  0  0  0  0  0  0  0  0  0  0  # atno 8009 bound_to 7997
  155.7502  140.0804  157.2195 H   0  0  0  0  0  0  0  0  0  0  0  0  # atno 8010 bound_to 7997
  139.4827  144.4821  151.8429 H   0  0  0  0  0  0  0  0  0  0  0  0  # atno 10167 bound_to 10162
  156.2338  130.7054  151.0886 H   0  0  0  0  0  0  0  0  0  0  0  0  # atno 10718 bound_to 10713
  153.0200  135.6380  154.1550 H   0  0  0  0  0  0  0  0  0  0  0  0  # atno 10763 bound_to 10752
  154.1286  135.2842  155.3192 H   0  0  0  0  0  0  0  0  0  0  0  0  # atno 10764 bound_to 10752
  154.6211  135.5524  153.7638 H   0  0  0  0  0  0  0  0  0  0  0  0  # atno 10765 bound_to 10752
  140.0658  134.9179  157.1261 H   0  0  0  0  0  0  0  0  0  0  0  0  # atno 11005 bound_to 11000
  144.8543  139.5274  143.6842 LP  0  0  0  0  0  0  0  0  0  0  0  0  # atno 17320 bound_to 7965
  146.2864  139.7017  142.9192 LP  0  0  0  0  0  0  0  0  0  0  0  0  # atno 17321 bound_to 7965
  140.4298  144.2131  150.5888 LP  0  0  0  0  0  0  0  0  0  0  0  0  # atno 17342 bound_to 10162
  140.4790  143.2386  151.8982 LP  0  0  0  0  0  0  0  0  0  0  0  0  # atno 17343 bound_to 10162
  157.7145  131.0717  150.6379 LP  0  0  0  0  0  0  0  0  0  0  0  0  # atno 17370 bound_to 10713
  156.6448  130.4468  149.5740 LP  0  0  0  0  0  0  0  0  0  0  0  0  # atno 17371 bound_to 10713
  140.3701  134.2399  155.7178 LP  0  0  0  0  0  0  0  0  0  0  0  0  # atno 17394 bound_to 11000
  141.1992  133.8017  157.0547 LP  0  0  0  0  0  0  0  0  0  0  0  0  # atno 17395 bound_to 11000

$$$$
