AV-unprocessed.smi:144|AV-procd|sdf|1195|dock9
  -GOLD-   2262018353D 1   1.00000     0.00000
 Structure written by MMmdl.
 46 48  0  0  0  0  0  0  0  0  1 V2000
  150.8455  136.3069  156.7592 O   0  0  0  0  0  0  0  0  0  0  0  0
  150.6083  137.4021  157.2660 C   0  0  0  0  0  0  0  0  0  0  0  0
  151.3637  138.6347  156.7339 C   0  0  0  0  0  0  0  0  0  0  0  0
  151.7779  139.6110  157.7693 N   0  0  0  0  0  0  0  0  0  0  0  0
  152.7541  139.2235  158.7206 C   0  0  0  0  0  0  0  0  0  0  0  0
  153.2544  138.0983  158.6999 O   0  0  0  0  0  0  0  0  0  0  0  0
  153.1235  140.2437  159.6956 C   0  0  0  0  0  0  0  0  0  0  0  0
  154.0338  139.9600  160.6423 F   0  0  0  0  0  0  0  0  0  0  0  0
  152.5700  141.4734  159.6593 C   0  0  0  0  0  0  0  0  0  0  0  0
  151.6312  141.8436  158.7131 N   0  0  0  0  0  0  0  0  0  0  0  0
  151.0380  143.2357  158.6704 C   0  0  2  0  0  0  0  0  0  0  0  0
  152.1091  144.2658  158.2662 C   0  0  0  0  0  0  0  0  0  0  0  0
  151.9575  145.3352  159.3292 C   0  0  0  0  0  0  0  0  0  0  0  0
  151.4854  144.5222  160.5252 C   0  0  0  0  0  0  0  0  0  0  0  0
  150.5780  143.5959  159.9420 O   0  0  0  0  0  0  0  0  0  0  0  0
  151.2093  140.9070  157.7454 C   0  0  0  0  0  0  0  0  0  0  0  0
  150.3782  141.2193  156.8897 O   0  0  0  0  0  0  0  0  0  0  0  0
  149.7392  137.5956  158.2780 N   0  0  0  0  0  0  0  0  0  0  0  0
  148.9520  136.6454  158.9800 C   0  0  0  0  0  0  0  0  0  0  0  0
  148.8355  135.3647  158.4039 C   0  0  0  0  0  0  0  0  0  0  0  0
  148.0761  134.3569  159.0350 C   0  0  0  0  0  0  0  0  0  0  0  0
  147.9440  132.9763  158.4100 C   0  0  0  0  0  0  0  0  0  0  0  0
  148.4383  132.0668  159.2487 F   0  0  0  0  0  0  0  0  0  0  0  0
  146.6618  132.6952  158.1770 F   0  0  0  0  0  0  0  0  0  0  0  0
  148.6051  132.8971  157.2544 F   0  0  0  0  0  0  0  0  0  0  0  0
  147.4489  134.6330  160.2676 C   0  0  0  0  0  0  0  0  0  0  0  0
  147.5779  135.9021  160.8713 C   0  0  0  0  0  0  0  0  0  0  0  0
  146.9061  136.1995  162.2040 C   0  0  0  0  0  0  0  0  0  0  0  0
  147.8043  136.6221  163.0942 F   0  0  0  0  0  0  0  0  0  0  0  0
  145.9917  137.1529  162.0306 F   0  0  0  0  0  0  0  0  0  0  0  0
  146.3065  135.1165  162.6998 F   0  0  0  0  0  0  0  0  0  0  0  0
  148.3283  136.9061  160.2231 C   0  0  0  0  0  0  0  0  0  0  0  0
  152.2320  138.2831  156.1742 H   0  0  0  0  0  0  0  0  0  0  0  0
  150.7413  139.1080  155.9731 H   0  0  0  0  0  0  0  0  0  0  0  0
  152.8879  142.1825  160.4081 H   0  0  0  0  0  0  0  0  0  0  0  0
  150.1900  143.1792  157.9855 H   0  0  0  0  0  0  0  0  0  0  0  0
  153.1028  143.8174  158.3176 H   0  0  0  0  0  0  0  0  0  0  0  0
  151.9376  144.6341  157.2546 H   0  0  0  0  0  0  0  0  0  0  0  0
  152.8809  145.8821  159.5213 H   0  0  0  0  0  0  0  0  0  0  0  0
  151.1881  146.0509  159.0362 H   0  0  0  0  0  0  0  0  0  0  0  0
  152.3198  143.9924  160.9866 H   0  0  0  0  0  0  0  0  0  0  0  0
  151.0005  145.1330  161.2870 H   0  0  0  0  0  0  0  0  0  0  0  0
  149.7046  138.5360  158.6436 H   0  0  0  0  0  0  0  0  0  0  0  0
  149.3289  135.1599  157.4646 H   0  0  0  0  0  0  0  0  0  0  0  0
  146.8711  133.8599  160.7521 H   0  0  0  0  0  0  0  0  0  0  0  0
  148.4251  137.8671  160.7038 H   0  0  0  0  0  0  0  0  0  0  0  0
  1  2  2  0  0  0  0
  2  3  1  0  0  0  0
  2 18  1  0  0  0  0
  3  4  1  0  0  0  0
  3 33  1  0  0  0  0
  3 34  1  0  0  0  0
  4 16  1  0  0  0  0
  4  5  1  0  0  0  0
  5  6  2  0  0  0  0
  5  7  1  0  0  0  0
  7  8  1  0  0  0  0
  7  9  2  0  0  0  0
  9 10  1  0  0  0  0
  9 35  1  0  0  0  0
 10 11  1  0  0  0  0
 10 16  1  0  0  0  0
 11 15  1  0  0  0  0
 11 12  1  0  0  0  0
 11 36  1  0  0  0  0
 12 13  1  0  0  0  0
 12 37  1  0  0  0  0
 12 38  1  0  0  0  0
 13 14  1  0  0  0  0
 13 39  1  0  0  0  0
 13 40  1  0  0  0  0
 14 15  1  0  0  0  0
 14 41  1  0  0  0  0
 14 42  1  0  0  0  0
 16 17  2  0  0  0  0
 18 19  1  0  0  0  0
 18 43  1  0  0  0  0
 19 32  1  0  0  0  0
 19 20  2  0  0  0  0
 20 21  1  0  0  0  0
 20 44  1  0  0  0  0
 21 22  1  0  0  0  0
 21 26  2  0  0  0  0
 22 23  1  0  0  0  0
 22 24  1  0  0  0  0
 22 25  1  0  0  0  0
 26 27  1  0  0  0  0
 26 45  1  0  0  0  0
 27 28  1  0  0  0  0
 27 32  2  0  0  0  0
 28 29  1  0  0  0  0
 28 30  1  0  0  0  0
 28 31  1  0  0  0  0
 32 46  1  0  0  0  0
M  END
> <s_m_source_file>
AV-unprocessed.smi

> <i_m_source_file_index>
144

> <i_lp_mmshare_version>
43012

> <i_f3d_flags>
0

> <s_epik_input>
RkMoRikoRiljKFtjSF0xKVtjSF1jKEMoRikoRilGKVtjSF1jMVtOSF1DKD1PKVtDSDJdbjJjKD1PKWMoRilbY0hdbihjMj1PKVtDQEBIXTNbQ0gyXVtDSDJdW0NIMl1PMw==

> <s_epik_cmdline>
J2VwaWtfcHl0aG9uJywgJy1waCcsICc3LjAnLCAnLXRuJywgJzgnLCAnLW1hJywgJzIwMCcsICctbWV0YWxfYmluZGluZycsICctaW1hZScsICc8aW5maWxlLm1hZT4nLCAnLW9tYWUnLCAnPG91dGZpbGUubWFlPic=

> <r_lp_tautomer_probability>
1

> <r_epik_Ionization_Penalty>
3.68082e-06

> <r_epik_Ionization_Penalty_Charging>
3.88729e-08

> <r_epik_Ionization_Penalty_Neutral>
3.64194e-06

> <r_epik_State_Penalty>
-0

> <r_epik_Charging_Adjusted_Penalty>
3.88729e-08

> <i_epik_Tot_Q>
0

> <i_epik_Tot_abs_Q>
0

> <r_epik_Metal_State_Penalty>
-0

> <b_epik_Metal_Only>
0

> <s_epik_Chemistry_Notes>
This compound contains an acetal/aminal-like group ( X-CH(R)-Y where X, Y are N, S, or O) that may be acid/base labile, releasing an aldehyde.

> <s_lp_Force_Field>
OPLS_2005

> <r_lp_Energy>
34.4133

> <b_lp_Chiralities_Consistent>
1

> <s_lp_Variant>
AV-unprocessed.smi:144-1

> <Gold.Version>
5.8.1

> <Gold.Id.Protein>
6NUR|6NUR_protein|mol2

> <Gold.PLP.Fitness>
52.9368

> <Gold.PLP.PLP>
-53.9918

> <Gold.PLP.part.hbond>
-0.8464

> <Gold.PLP.part.metal>
0.0000

> <Gold.PLP.part.buried>
-4.9841

> <Gold.PLP.part.nonpolar>
-48.6725

> <Gold.PLP.part.repulsive>
0.2693

> <Gold.PLP.ligand.clash>
1.3714

> <Gold.PLP.ligand.torsion>
0.5888

> <Gold.PLP.Chemscore.Hbond>
0.0000

> <Gold.PLP.Chemscore.CHOScore>
0.0000

> <Gold.PLP.Chemscore.Metal>
0.0000

> <Gold.PLP.Chemscore.Internal.Correction>
1.4939

> <Gold.Rescore>
     Score         DG    S(hbond)    S(metal)    S(lipo)     H(rot)  DE(clash)    DE(int)     intcor
     10.42     -12.44       0.00        0.00      99.62       1.83       0.14       1.89       ----

> <Gold.Chemscore.Fitness>
10.4174

> <Gold.Chemscore.DG>
-12.4444

> <Gold.Chemscore.ZeroCoef>
-5.4800

> <Gold.Chemscore.Hbond>
0.0000

> <Gold.Chemscore.Metal>
0.0000

> <Gold.Chemscore.Lipo>
99.6196

> <Gold.Chemscore.Internal_Hbond>
0.0000

> <Gold.Chemscore.DEClash>
0.1406

> <Gold.Chemscore.DEInternal>
1.8864

> <Gold.Chemscore.Rot>
1.8325

> <Gold.Chemscore.Internal.Correction>
   9.000000E+99

> <Gold.Chemscore.Hbond.Weighted>
-0.0000

> <Gold.Chemscore.Metal.Weighted>
-0.0000

> <Gold.Chemscore.Lipo.Weighted>
-11.6555

> <Gold.Chemscore.Internal_Hbond.Weighted>
0.0000

> <Gold.Chemscore.DEClash.Weighted>
0.1406

> <Gold.Chemscore.DEInternal.Weighted>
1.8864

> <Gold.Chemscore.Rot.Weighted>
4.6911

> <Gold.Chemscore.Internal.Correction.Weighted>
   9.000000E+99

> <Gold.Protein.RotatedTorsions>
[ 6907 6896 6895 6894 ] final   86.77 input  -60.11 | X-H torsion
[ 7974 7965 7964 7962 ] final   80.69 input  175.53 | X-H torsion
[ 8008 7997 7996 7995 ] final  117.71 input   59.86 | X-H torsion
[ 10167 10162 10161 10158 ] final  160.60 input  -65.29 | X-H torsion
[ 10718 10713 10712 10709 ] final  174.21 input   66.30 | X-H torsion
[ 10763 10752 10751 10750 ] final -132.47 input  -60.55 | X-H torsion
[ 11005 11000 10999 10996 ] final   50.78 input  -57.11 | X-H torsion

> <Gold.Protein.ActiveResidues>
 VAL166  LYS551  ARG553  GLY616  TRP617  ASP618  TYR619  PRO620  LYS621  CYS622 
 ASP623  PHE694  ASN695  SER759  ASP760  ASP761  ALA762  ILE779  LEU786  VAL792 
 PHE793  MET794  SER795  GLU796  ALA797  LYS798  CYS799  TRP800  GLU811  SER814 

> <Gold.Protein.RotatedAtoms>
  152.5400  134.2380  159.8850 H   0  0  0  0  0  0  0  0  0  0  0  0  # atno 6907 bound_to 6896
  151.2349  133.4423  159.2612 H   0  0  0  0  0  0  0  0  0  0  0  0  # atno 6908 bound_to 6896
  151.0681  134.9794  159.8350 H   0  0  0  0  0  0  0  0  0  0  0  0  # atno 6909 bound_to 6896
  145.6479  139.2440  143.1993 H   0  0  0  0  0  0  0  0  0  0  0  0  # atno 7974 bound_to 7965
  156.2509  140.2890  156.0721 H   0  0  0  0  0  0  0  0  0  0  0  0  # atno 8008 bound_to 7997
  155.1659  140.0400  157.2870 H   0  0  0  0  0  0  0  0  0  0  0  0  # atno 8009 bound_to 7997
  154.6360  140.2511  155.7385 H   0  0  0  0  0  0  0  0  0  0  0  0  # atno 8010 bound_to 7997
  139.4841  144.4618  151.8694 H   0  0  0  0  0  0  0  0  0  0  0  0  # atno 10167 bound_to 10162
  156.9529  131.0037  151.2944 H   0  0  0  0  0  0  0  0  0  0  0  0  # atno 10718 bound_to 10713
  154.8742  135.3797  154.4415 H   0  0  0  0  0  0  0  0  0  0  0  0  # atno 10763 bound_to 10752
  153.5100  135.7029  153.5791 H   0  0  0  0  0  0  0  0  0  0  0  0  # atno 10764 bound_to 10752
  153.4085  135.3930  155.2001 H   0  0  0  0  0  0  0  0  0  0  0  0  # atno 10765 bound_to 10752
  140.0988  134.5109  155.8782 H   0  0  0  0  0  0  0  0  0  0  0  0  # atno 11005 bound_to 11000
  146.1228  140.7287  142.9449 LP  0  0  0  0  0  0  0  0  0  0  0  0  # atno 17320 bound_to 7965
  144.7133  140.4119  143.7063 LP  0  0  0  0  0  0  0  0  0  0  0  0  # atno 17321 bound_to 7965
  140.4081  144.2405  150.5890 LP  0  0  0  0  0  0  0  0  0  0  0  0  # atno 17342 bound_to 10162
  140.4993  143.2323  151.8703 LP  0  0  0  0  0  0  0  0  0  0  0  0  # atno 17343 bound_to 10162
  157.5710  130.8310  149.8391 LP  0  0  0  0  0  0  0  0  0  0  0  0  # atno 17370 bound_to 10713
  156.0355  130.3752  150.1572 LP  0  0  0  0  0  0  0  0  0  0  0  0  # atno 17371 bound_to 10713
  141.2100  133.6689  156.6476 LP  0  0  0  0  0  0  0  0  0  0  0  0  # atno 17394 bound_to 11000
  140.3249  134.7977  157.4281 LP  0  0  0  0  0  0  0  0  0  0  0  0  # atno 17395 bound_to 11000

$$$$
