AV-unprocessed.smi:1672|AV-procd|sdf|6705|dock4
  -GOLD-   22720 7443D 1   1.00000     0.00000
 Structure written by MMmdl.
 49 51  0  0  0  0  0  0  0  0  3 V2000
  144.8125  135.5751  151.1790 C   0  0  0  0  0  0  0  0  0  0  0  0
  145.3703  136.3604  152.3741 C   0  0  2  0  0  0  0  0  0  0  0  0
  146.2755  137.5184  151.9214 C   0  0  0  0  0  0  0  0  0  0  0  0
  146.8544  138.2783  153.1263 C   0  0  0  0  0  0  0  0  0  0  0  0
  147.6015  137.3620  154.0287 N   0  3  1  0  0  0  0  0  0  0  0  0
  148.2882  138.0683  155.1403 C   0  0  0  0  0  0  0  0  0  0  0  0
  149.6726  138.6199  154.7318 C   0  0  2  0  0  0  0  0  0  0  0  0
  150.3627  137.6335  153.9918 O   0  0  0  0  0  0  0  0  0  0  0  0
  150.5626  138.9951  155.9342 C   0  0  0  0  0  0  0  0  0  0  0  0
  150.5565  140.4368  156.2289 N   0  0  0  0  0  0  0  0  0  0  0  0
  149.9258  141.4759  155.6050 C   0  0  0  0  0  0  0  0  0  0  0  0
  149.0440  141.4134  154.3987 C   0  0  0  0  0  0  0  0  0  0  0  0
  148.5466  142.6800  154.0263 O   0  0  0  0  0  0  0  0  0  0  0  0
  150.2518  142.6107  156.2872 N   0  3  0  0  0  0  0  0  0  0  0  0
  151.0932  142.2987  157.3548 C   0  0  0  0  0  0  0  0  0  0  0  0
  151.6807  143.1104  158.3202 C   0  0  0  0  0  0  0  0  0  0  0  0
  152.4907  142.4679  159.2793 C   0  0  0  0  0  0  0  0  0  0  0  0
  152.6907  141.0724  159.2550 C   0  0  0  0  0  0  0  0  0  0  0  0
  152.0904  140.2600  158.2704 C   0  0  0  0  0  0  0  0  0  0  0  0
  151.2912  140.9035  157.3255 C   0  0  0  0  0  0  0  0  0  0  0  0
  146.7379  136.2542  154.5122 C   0  0  0  0  0  0  0  0  0  0  0  0
  146.1536  135.4524  153.3367 C   0  0  0  0  0  0  0  0  0  0  0  0
  145.6127  135.1254  150.5901 H   0  0  0  0  0  0  0  0  0  0  0  0
  144.2371  136.2235  150.5176 H   0  0  0  0  0  0  0  0  0  0  0  0
  144.1518  134.7733  151.5101 H   0  0  0  0  0  0  0  0  0  0  0  0
  144.5237  136.7825  152.9177 H   0  0  0  0  0  0  0  0  0  0  0  0
  147.0912  137.1341  151.3072 H   0  0  0  0  0  0  0  0  0  0  0  0
  145.7125  138.2071  151.2903 H   0  0  0  0  0  0  0  0  0  0  0  0
  147.5060  139.0719  152.7629 H   0  0  0  0  0  0  0  0  0  0  0  0
  146.0505  138.7636  153.6821 H   0  0  0  0  0  0  0  0  0  0  0  0
  147.6347  138.8656  155.4957 H   0  0  0  0  0  0  0  0  0  0  0  0
  148.4242  137.3932  155.9867 H   0  0  0  0  0  0  0  0  0  0  0  0
  149.5639  139.4971  154.0958 H   0  0  0  0  0  0  0  0  0  0  0  0
  149.8080  137.3276  153.2910 H   0  0  0  0  0  0  0  0  0  0  0  0
  150.2388  138.4658  156.8307 H   0  0  0  0  0  0  0  0  0  0  0  0
  151.5953  138.6875  155.7633 H   0  0  0  0  0  0  0  0  0  0  0  0
  149.5894  140.9987  153.5518 H   0  0  0  0  0  0  0  0  0  0  0  0
  148.2067  140.7463  154.6036 H   0  0  0  0  0  0  0  0  0  0  0  0
  148.7094  143.2868  154.7329 H   0  0  0  0  0  0  0  0  0  0  0  0
  151.5275  144.1795  158.3423 H   0  0  0  0  0  0  0  0  0  0  0  0
  152.9667  143.0567  160.0503 H   0  0  0  0  0  0  0  0  0  0  0  0
  153.3164  140.6154  160.0082 H   0  0  0  0  0  0  0  0  0  0  0  0
  152.2487  139.1917  158.2632 H   0  0  0  0  0  0  0  0  0  0  0  0
  147.3194  135.5830  155.1454 H   0  0  0  0  0  0  0  0  0  0  0  0
  145.9349  136.6586  155.1306 H   0  0  0  0  0  0  0  0  0  0  0  0
  145.5040  134.6639  153.7183 H   0  0  0  0  0  0  0  0  0  0  0  0
  146.9617  134.9529  152.8002 H   0  0  0  0  0  0  0  0  0  0  0  0
  148.3261  136.9262  153.4767 H   0  0  0  0  0  0  0  0  0  0  0  0
  149.9194  143.5326  156.0340 H   0  0  0  0  0  0  0  0  0  0  0  0
  1  2  1  0  0  0  0
  1 23  1  0  0  0  0
  1 24  1  0  0  0  0
  1 25  1  0  0  0  0
  2 22  1  0  0  0  0
  2  3  1  0  0  0  0
  2 26  1  0  0  0  0
  3  4  1  0  0  0  0
  3 27  1  0  0  0  0
  3 28  1  0  0  0  0
  4  5  1  0  0  0  0
  4 29  1  0  0  0  0
  4 30  1  0  0  0  0
  5  6  1  0  0  0  0
  5 21  1  0  0  0  0
  5 48  1  0  0  0  0
  6  7  1  0  0  0  0
  6 31  1  0  0  0  0
  6 32  1  0  0  0  0
  7  8  1  0  0  0  0
  7  9  1  0  0  0  0
  7 33  1  0  0  0  0
  8 34  1  0  0  0  0
  9 10  1  0  0  0  0
  9 35  1  0  0  0  0
  9 36  1  0  0  0  0
 10 20  1  0  0  0  0
 10 11  1  0  0  0  0
 11 12  1  0  0  0  0
 11 14  2  0  0  0  0
 12 13  1  0  0  0  0
 12 37  1  0  0  0  0
 12 38  1  0  0  0  0
 13 39  1  0  0  0  0
 14 15  1  0  0  0  0
 14 49  1  0  0  0  0
 15 20  2  0  0  0  0
 15 16  1  0  0  0  0
 16 17  2  0  0  0  0
 16 40  1  0  0  0  0
 17 18  1  0  0  0  0
 17 41  1  0  0  0  0
 18 19  2  0  0  0  0
 18 42  1  0  0  0  0
 19 20  1  0  0  0  0
 19 43  1  0  0  0  0
 21 22  1  0  0  0  0
 21 44  1  0  0  0  0
 21 45  1  0  0  0  0
 22 46  1  0  0  0  0
 22 47  1  0  0  0  0
M  CHG  1   5   1
M  CHG  1  14   1
M  END
> <s_m_source_file>
AV-unprocessed.smi

> <i_m_source_file_index>
1672

> <i_lp_mmshare_version>
43012

> <i_f3d_flags>
0

> <s_epik_input>
W0NIM11bQ0hdMVtDSDJdW0NIMl1OKFtDSDJdW0NIMl0xKVtDSDJdW0NASF0oW09IXSlbQ0gyXW4oYyhuMilbQ0gyXVtPSF0pYyhjMjMpW2NIXVtjSF1bY0hdW2NIXTM=

> <s_epik_cmdline>
J2VwaWtfcHl0aG9uJywgJy1waCcsICc3LjAnLCAnLXRuJywgJzgnLCAnLW1hJywgJzIwMCcsICctbWV0YWxfYmluZGluZycsICctaW1hZScsICc8aW5maWxlLm1hZT4nLCAnLW9tYWUnLCAnPG91dGZpbGUubWFlPic=

> <r_epik_Ionization_Penalty>
1.51642

> <r_epik_Ionization_Penalty_Charging>
1.51557

> <r_epik_Ionization_Penalty_Neutral>
0.000856474

> <r_epik_State_Penalty>
1.6048

> <r_epik_Charging_Adjusted_Penalty>
3.12037

> <i_epik_Tot_Q>
2

> <i_epik_Tot_abs_Q>
2

> <r_epik_Metal_State_Penalty>
5.65673

> <b_epik_Metal_Only>
0

> <s_lp_Force_Field>
OPLS_2005

> <r_lp_Energy>
31.4563

> <b_lp_Chiralities_Consistent>
1

> <s_lp_Variant>
AV-unprocessed.smi:1672-5

> <Gold.Version>
5.8.1

> <Gold.Id.Protein>
6NUR|6NUR_protein|mol2

> <Gold.PLP.Fitness>
53.5641

> <Gold.PLP.PLP>
-41.3946

> <Gold.PLP.part.hbond>
-6.6797

> <Gold.PLP.part.metal>
0.0000

> <Gold.PLP.part.buried>
-0.6087

> <Gold.PLP.part.nonpolar>
-34.4864

> <Gold.PLP.part.repulsive>
0.1025

> <Gold.PLP.ligand.clash>
3.8336

> <Gold.PLP.ligand.torsion>
1.0222

> <Gold.PLP.Chemscore.Hbond>
6.0000

> <Gold.PLP.Chemscore.CHOScore>
0.0000

> <Gold.PLP.Chemscore.Metal>
0.0000

> <Gold.Chemscore.Hbonds>
donor molecule, donor type, donor heavy atom, donor atom, acceptor molecule, acceptor atom, score
      L1  H     5    48       P1  7948  2.00
      L1  H     8    34       P1  7948  1.00
      L1  H    13    39       P1  8028  1.00
      L1  H    14    49       P1  8028  2.00
      P1  H  8011  8017       L1    13  0.01

> <Gold.PLP.Chemscore.Internal.Correction>
0.0475

> <Gold.Rescore>
     Score         DG    S(hbond)    S(metal)    S(lipo)     H(rot)  DE(clash)    DE(int)     intcor
     18.81     -21.05       3.50        0.00      97.84       2.96       0.10       2.14       ----

> <Gold.Chemscore.Fitness>
18.8058

> <Gold.Chemscore.DG>
-21.0467

> <Gold.Chemscore.ZeroCoef>
-5.4800

> <Gold.Chemscore.Hbond>
3.4986

> <Gold.Chemscore.Metal>
0.0000

> <Gold.Chemscore.Lipo>
97.8405

> <Gold.Chemscore.Internal_Hbond>
0.0000

> <Gold.Chemscore.DEClash>
0.1042

> <Gold.Chemscore.DEInternal>
2.1367

> <Gold.Chemscore.Rot>
2.9555

> <Gold.Chemscore.Internal.Correction>
   9.000000E+99

> <Gold.Chemscore.Hbonds>
donor molecule, donor type, donor heavy atom, donor atom, acceptor molecule, acceptor atom, score
      L1  H     5    48       P1  7948  0.96
      L1  H     8    34       P1  7948  0.55
      L1  H    13    39       P1  8028  1.00
      L1  H    14    49       P1  8028  0.98

> <Gold.Chemscore.Hbond.Weighted>
-11.6853

> <Gold.Chemscore.Metal.Weighted>
-0.0000

> <Gold.Chemscore.Lipo.Weighted>
-11.4473

> <Gold.Chemscore.Internal_Hbond.Weighted>
0.0000

> <Gold.Chemscore.DEClash.Weighted>
0.1042

> <Gold.Chemscore.DEInternal.Weighted>
2.1367

> <Gold.Chemscore.Rot.Weighted>
7.5660

> <Gold.Chemscore.Internal.Correction.Weighted>
   9.000000E+99

> <Gold.Protein.RotatedTorsions>
[ 6907 6896 6895 6894 ] final   49.06 input  -60.11 | X-H torsion
[ 7974 7965 7964 7962 ] final  -86.73 input  175.53 | X-H torsion
[ 8008 7997 7996 7995 ] final -146.52 input   59.86 | X-H torsion
[ 10167 10162 10161 10158 ] final  -11.34 input  -65.29 | X-H torsion
[ 10718 10713 10712 10709 ] final  132.14 input   66.30 | X-H torsion
[ 10763 10752 10751 10750 ] final  164.39 input  -60.55 | X-H torsion
[ 11005 11000 10999 10996 ] final  -78.28 input  -57.11 | X-H torsion

> <Gold.Protein.ActiveResidues>
 VAL166  LYS551  ARG553  GLY616  TRP617  ASP618  TYR619  PRO620  LYS621  CYS622 
 ASP623  PHE694  ASN695  SER759  ASP760  ASP761  ALA762  ILE779  LEU786  VAL792 
 PHE793  MET794  SER795  GLU796  ALA797  LYS798  CYS799  TRP800  GLU811  SER814 

> <Gold.Protein.RotatedAtoms>
  152.2866  134.7769  160.0386 H   0  0  0  0  0  0  0  0  0  0  0  0  # atno 6907 bound_to 6896
  151.8330  133.3406  159.3627 H   0  0  0  0  0  0  0  0  0  0  0  0  # atno 6908 bound_to 6896
  150.7212  134.5393  159.5784 H   0  0  0  0  0  0  0  0  0  0  0  0  # atno 6909 bound_to 6896
  145.4760  140.9558  143.1890 H   0  0  0  0  0  0  0  0  0  0  0  0  # atno 7974 bound_to 7965
  155.5607  140.0625  157.2829 H   0  0  0  0  0  0  0  0  0  0  0  0  # atno 8008 bound_to 7997
  154.4391  140.1886  156.0824 H   0  0  0  0  0  0  0  0  0  0  0  0  # atno 8009 bound_to 7997
  156.0449  140.3291  155.7289 H   0  0  0  0  0  0  0  0  0  0  0  0  # atno 8010 bound_to 7997
  140.7136  143.5650  150.9154 H   0  0  0  0  0  0  0  0  0  0  0  0  # atno 10167 bound_to 10162
  157.4900  131.1090  150.9569 H   0  0  0  0  0  0  0  0  0  0  0  0  # atno 10718 bound_to 10713
  154.3082  135.2758  155.2578 H   0  0  0  0  0  0  0  0  0  0  0  0  # atno 10763 bound_to 10752
  154.4985  135.5814  153.6516 H   0  0  0  0  0  0  0  0  0  0  0  0  # atno 10764 bound_to 10752
  152.9891  135.6152  154.3258 H   0  0  0  0  0  0  0  0  0  0  0  0  # atno 10765 bound_to 10752
  141.1664  133.7057  156.7949 H   0  0  0  0  0  0  0  0  0  0  0  0  # atno 11005 bound_to 11000
  144.7917  139.6316  143.7110 LP  0  0  0  0  0  0  0  0  0  0  0  0  # atno 17320 bound_to 7965
  146.2369  139.5923  142.9518 LP  0  0  0  0  0  0  0  0  0  0  0  0  # atno 17321 bound_to 7965
  139.9376  143.6419  152.3061 LP  0  0  0  0  0  0  0  0  0  0  0  0  # atno 17342 bound_to 10162
  139.6893  144.7648  151.1468 LP  0  0  0  0  0  0  0  0  0  0  0  0  # atno 17343 bound_to 10162
  157.0273  130.5697  149.5339 LP  0  0  0  0  0  0  0  0  0  0  0  0  # atno 17370 bound_to 10713
  156.0168  130.5262  150.8159 LP  0  0  0  0  0  0  0  0  0  0  0  0  # atno 17371 bound_to 10713
  140.2299  134.8694  157.3465 LP  0  0  0  0  0  0  0  0  0  0  0  0  # atno 17394 bound_to 11000
  140.1902  134.4381  155.7720 LP  0  0  0  0  0  0  0  0  0  0  0  0  # atno 17395 bound_to 11000

$$$$
