#       Name:                AV-unprocessed.smi:2636
#       Creating user name   scv26
#       Creation time:       Fri Mar 27 14:26:55 2020


#       File generated by GOLD software.
#

@<TRIPOS>MOLECULE
AV-unprocessed.smi:2636
    42    43     1
SMALL
NO_CHARGES


@<TRIPOS>ATOM
      1 ****        -3.6161   1.2420  -0.5813 C.3            1 S1                 0.0000
      2 ****        -2.4770   1.3510   0.4183 C.2            1 S1                 0.0000
      3 ****        -2.1597   0.3444   1.2720 C.2            1 S1                 0.0000
      4 ****        -1.1202   0.4158   2.1853 N.am           1 S1                 0.0000
      5 ****        -0.7295  -0.7108   3.0232 C.3            1 S1                 0.0000
      6 ****         0.4841  -1.2606   2.5998 O.3            1 S1                 0.0000
      7 ****         0.4701  -1.8492   1.3048 C.3            1 S1                 0.0000
      8 ****         1.8548  -2.3478   0.9401 C.2            1 S1                 0.0000
      9 ****         2.5776  -2.0384  -0.1548 C.2            1 S1                 0.0000
     10 ****         2.1818  -1.2050  -1.3033 C.ar           1 S1                 0.0000
     11 ****         0.8959  -1.2816  -1.8857 C.ar           1 S1                 0.0000
     12 ****         0.5485  -0.4490  -2.9672 C.ar           1 S1                 0.0000
     13 ****         1.4865   0.4654  -3.4812 C.ar           1 S1                 0.0000
     14 ****         2.7726   0.5426  -2.9146 C.ar           1 S1                 0.0000
     15 ****         3.1170  -0.2898  -1.8317 C.ar           1 S1                 0.0000
     16 ****        -0.3221   1.5765   2.2510 C.2            1 S1                 0.0000
     17 ****         0.6276   1.6975   3.0247 O.2            1 S1                 0.0000
     18 ****        -0.6514   2.6117   1.3776 N.am           1 S1                 0.0000
     19 ****        -1.6919   2.5892   0.4444 C.2            1 S1                 0.0000
     20 ****        -1.8822   3.5679  -0.2758 O.2            1 S1                 0.0000
     21 ****        -0.0855   3.4467   1.4178 H              1 S1                 0.0000
     22 ****        -4.1203   0.2773  -0.5164 H              1 S1                 0.0000
     23 ****        -3.2405   1.3544  -1.5990 H              1 S1                 0.0000
     24 ****        -4.3581   2.0205  -0.4008 H              1 S1                 0.0000
     25 ****        -2.7403  -0.5664   1.2345 H              1 S1                 0.0000
     26 ****        -0.6324  -0.3686   4.0553 H              1 S1                 0.0000
     27 ****        -1.5123  -1.4710   3.0037 H              1 S1                 0.0000
     28 ****        -0.2264  -2.6880   1.2845 H              1 S1                 0.0000
     29 ****         0.1320  -1.1207   0.5735 H              1 S1                 0.0000
     30 ****         2.3000  -3.0129   1.6655 H              1 S1                 0.0000
     31 ****         3.5654  -2.4698  -0.2277 H              1 S1                 0.0000
     32 ****         0.1685  -1.9880  -1.5141 H              1 S1                 0.0000
     33 ****        -0.4370  -0.5144  -3.4039 H              1 S1                 0.0000
     34 ****         1.2212   1.1039  -4.3109 H              1 S1                 0.0000
     35 ****         3.4949   1.2421  -3.3088 H              1 S1                 0.0000
     36 ****         4.1048  -0.2170  -1.4000 H              1 S1                 0.0000
     37 ****         0.7484  -1.9669   3.2566 LP             1 S1                 0.0000
     38 ****         1.1692  -0.5322   2.6000 LP             1 S1                 0.0000
     39 ****         0.8643   0.9508   3.6464 LP             1 S1                 0.0000
     40 ****         1.1624   2.5425   3.0316 LP             1 S1                 0.0000
     41 ****        -2.6232   3.5581  -0.9472 LP             1 S1                 0.0000
     42 ****        -1.2960   4.3735  -0.1898 LP             1 S1                 0.0000
@<TRIPOS>BOND
    1    1    2 1     
    2    1   22 1     
    3    1   23 1     
    4    1   24 1     
    5    2   19 1     
    6    2    3 2     
    7    3    4 1     
    8    3   25 1     
    9    4    5 1     
   10    4   16 1     
   11    5    6 1     
   12    5   26 1     
   13    5   27 1     
   14    6    7 1     
   15    7    8 1     
   16    7   28 1     
   17    7   29 1     
   18    8    9 2     
   19    8   30 1     
   20    9   10 1     
   21    9   31 1     
   22   10   15 ar    
   23   10   11 ar    
   24   11   12 ar    
   25   11   32 1     
   26   12   13 ar    
   27   12   33 1     
   28   13   14 ar    
   29   13   34 1     
   30   14   15 ar    
   31   14   35 1     
   32   15   36 1     
   33   16   17 2     
   34   16   18 1     
   35   18   21 1     
   36   18   19 1     
   37   19   20 2     
   38    6   37 1     
   39    6   38 1     
   40   17   39 1     
   41   17   40 1     
   42   20   41 1     
   43   20   42 1     
@<TRIPOS>SUBSTRUCTURE
      1 S1             1
@<TRIPOS>SET
LONE_PAIRS      STATIC     ATOMS    <user>   **** ""
6 37 38 39 40 41 42
DONOR_HYDROGENS      STATIC     ATOMS    <user>   **** ""
1 21
ATOM$BLUE        STATIC     ATOMS    COLORGROUP SYSTEM
6 37 38 39 40 41 42
ATOM$RED        STATIC     ATOMS    COLORGROUP SYSTEM
1 21
