AV-unprocessed.smi:69|AV-procd|sdf|654|dock8
  -GOLD-   2262016553D 1   1.00000     0.00000
 Structure written by MMmdl.
 32 34  0  0  0  0  0  0  0  0  1 V2000
  144.4988  140.9697  155.2470 N   0  0  0  0  0  0  0  0  0  0  0  0
  145.7813  140.7255  155.5498 C   0  0  0  0  0  0  0  0  0  0  0  0
  146.2479  141.1396  156.7507 N   0  0  0  0  0  0  0  0  0  0  0  0
  147.5239  140.9093  157.0747 C   0  0  0  0  0  0  0  0  0  0  0  0
  148.4699  140.2979  156.3575 N   0  0  0  0  0  0  0  0  0  0  0  0
  148.0013  139.8799  155.1453 C   0  0  0  0  0  0  0  0  0  0  0  0
  146.6706  140.0560  154.6712 C   0  0  0  0  0  0  0  0  0  0  0  0
  146.5418  139.5088  153.4028 N   0  0  0  0  0  0  0  0  0  0  0  0
  147.7316  139.0380  153.1443 C   0  0  0  0  0  0  0  0  0  0  0  0
  148.6738  139.2201  154.1332 N   0  0  0  0  0  0  0  0  0  0  0  0
  150.1032  138.7762  154.0909 C   0  0  1  0  0  0  0  0  0  0  0  0
  150.9334  139.8389  154.4431 O   0  0  0  0  0  0  0  0  0  0  0  0
  151.9798  139.4156  155.3212 C   0  0  1  0  0  0  0  0  0  0  0  0
  151.8139  140.1677  156.6589 C   0  0  0  0  0  0  0  0  0  0  0  0
  152.8134  139.7577  157.5678 O   0  0  0  0  0  0  0  0  0  0  0  0
  151.8220  137.8840  155.4063 C   0  0  1  0  0  0  0  0  0  0  0  0
  152.1749  137.3404  156.6643 O   0  0  0  0  0  0  0  0  0  0  0  0
  150.3519  137.6533  155.0956 C   0  0  2  0  0  0  0  0  0  0  0  0
  150.1918  136.3751  154.5109 O   0  0  0  0  0  0  0  0  0  0  0  0
  150.2924  138.4943  153.0534 H   0  0  0  0  0  0  0  0  0  0  0  0
  152.9506  139.6565  154.8855 H   0  0  0  0  0  0  0  0  0  0  0  0
  152.4433  137.4271  154.6337 H   0  0  0  0  0  0  0  0  0  0  0  0
  149.7232  137.7906  155.9774 H   0  0  0  0  0  0  0  0  0  0  0  0
  144.1270  140.6717  154.3566 H   0  0  0  0  0  0  0  0  0  0  0  0
  143.9081  141.4528  155.9080 H   0  0  0  0  0  0  0  0  0  0  0  0
  147.8315  141.2657  158.0466 H   0  0  0  0  0  0  0  0  0  0  0  0
  147.9585  138.5364  152.2147 H   0  0  0  0  0  0  0  0  0  0  0  0
  151.8328  141.2481  156.5229 H   0  0  0  0  0  0  0  0  0  0  0  0
  150.8605  139.9237  157.1272 H   0  0  0  0  0  0  0  0  0  0  0  0
  152.7277  140.2679  158.3585 H   0  0  0  0  0  0  0  0  0  0  0  0
  151.4403  136.8467  156.9960 H   0  0  0  0  0  0  0  0  0  0  0  0
  149.8799  136.4857  153.6260 H   0  0  0  0  0  0  0  0  0  0  0  0
  1  2  1  0  0  0  0
  1 24  1  0  0  0  0
  1 25  1  0  0  0  0
  2  7  1  0  0  0  0
  2  3  2  0  0  0  0
  3  4  1  0  0  0  0
  4  5  2  0  0  0  0
  4 26  1  0  0  0  0
  5  6  1  0  0  0  0
  6 10  1  0  0  0  0
  6  7  2  0  0  0  0
  7  8  1  0  0  0  0
  8  9  2  0  0  0  0
  9 10  1  0  0  0  0
  9 27  1  0  0  0  0
 10 11  1  0  0  0  0
 11 20  1  0  0  0  0
 11 18  1  0  0  0  0
 11 12  1  0  0  0  0
 12 13  1  0  0  0  0
 13 21  1  0  0  0  0
 13 14  1  0  0  0  0
 13 16  1  0  0  0  0
 14 15  1  0  0  0  0
 14 28  1  0  0  0  0
 14 29  1  0  0  0  0
 15 30  1  0  0  0  0
 16 22  1  0  0  0  0
 16 17  1  0  0  0  0
 16 18  1  0  0  0  0
 17 31  1  0  0  0  0
 18 23  1  0  0  0  0
 18 19  1  0  0  0  0
 19 32  1  0  0  0  0
M  END
> <s_m_source_file>
AV-unprocessed.smi

> <i_m_source_file_index>
69

> <i_lp_mmshare_version>
43012

> <i_f3d_flags>
0

> <s_epik_input>
bjFbY0hdbmMoW05IMl0pYyhjMTIpbltjSF1uMltDQEBIXTNPW0NASF0oW0NIMl1bT0hdKVtDQEBIXShbT0hdKVtDQEhdM1tPSF0=

> <s_epik_cmdline>
J2VwaWtfcHl0aG9uJywgJy1waCcsICc3LjAnLCAnLXRuJywgJzgnLCAnLW1hJywgJzIwMCcsICctbWV0YWxfYmluZGluZycsICctaW1hZScsICc8aW5maWxlLm1hZT4nLCAnLW9tYWUnLCAnPG91dGZpbGUubWFlPic=

> <r_lp_tautomer_probability>
1

> <r_epik_Ionization_Penalty>
0.000428445

> <r_epik_Ionization_Penalty_Charging>
0

> <r_epik_Ionization_Penalty_Neutral>
0.000428445

> <r_epik_State_Penalty>
-0

> <r_epik_Charging_Adjusted_Penalty>
0

> <i_epik_Tot_Q>
0

> <i_epik_Tot_abs_Q>
0

> <r_epik_Metal_State_Penalty>
-0

> <b_epik_Metal_Only>
0

> <s_epik_Chemistry_Notes>
This compound contains an acetal/aminal-like group ( X-CH(R)-Y where X, Y are N, S, or O) that may be acid/base labile, releasing an aldehyde.

> <s_lp_Force_Field>
OPLS_2005

> <r_lp_Energy>
41.5942

> <b_lp_Chiralities_Consistent>
1

> <s_lp_Variant>
AV-unprocessed.smi:69-12

> <Gold.Version>
5.8.1

> <Gold.Id.Protein>
6NUR|6NUR_protein|mol2

> <Gold.PLP.Fitness>
37.6440

> <Gold.PLP.PLP>
-21.5233

> <Gold.PLP.part.hbond>
-4.4302

> <Gold.PLP.part.metal>
0.0000

> <Gold.PLP.part.buried>
-1.1163

> <Gold.PLP.part.nonpolar>
-16.4099

> <Gold.PLP.part.repulsive>
0.3632

> <Gold.PLP.ligand.clash>
0.0000

> <Gold.PLP.ligand.torsion>
0.1612

> <Gold.PLP.Chemscore.Hbond>
4.0000

> <Gold.PLP.Chemscore.CHOScore>
1.4787

> <Gold.PLP.Chemscore.Metal>
0.0000

> <Gold.Chemscore.Hbonds>
donor molecule, donor type, donor heavy atom, donor atom, acceptor molecule, acceptor atom, score
      L1  H     1    24       P1 10175  1.00
      L1  H    19    32       P1  7948  1.00
      P1  H  7989  7998       L1    12  1.00
      P1  H  7997  8010       L1    15  1.00
      L1  C     9    27       P1  7948  0.99
      L1  C     9    27       P1  7957  0.48

> <Gold.PLP.Chemscore.Internal.Correction>
0.0070

> <Gold.Rescore>
     Score         DG    S(hbond)    S(metal)    S(lipo)     H(rot)  DE(clash)    DE(int)     intcor
      8.76      -9.62       3.39        0.00      26.67       4.03       0.54       0.32       ----

> <Gold.Chemscore.Fitness>
8.7619

> <Gold.Chemscore.DG>
-9.6175

> <Gold.Chemscore.ZeroCoef>
-5.4800

> <Gold.Chemscore.Hbond>
3.3918

> <Gold.Chemscore.Metal>
0.0000

> <Gold.Chemscore.Lipo>
26.6666

> <Gold.Chemscore.Internal_Hbond>
0.0000

> <Gold.Chemscore.DEClash>
0.5367

> <Gold.Chemscore.DEInternal>
0.3190

> <Gold.Chemscore.Rot>
4.0277

> <Gold.Chemscore.Internal.Correction>
   9.000000E+99

> <Gold.Chemscore.Hbonds>
donor molecule, donor type, donor heavy atom, donor atom, acceptor molecule, acceptor atom, score
      L1  H     1    24       P1 10175  0.99
      L1  H    19    32       P1  7948  0.25
      P1  H  7989  7998       L1    12  0.43
      P1  H  7997  8010       L1    15  0.35

> <Gold.Chemscore.Hbond.Weighted>
-11.3285

> <Gold.Chemscore.Metal.Weighted>
-0.0000

> <Gold.Chemscore.Lipo.Weighted>
-3.1200

> <Gold.Chemscore.Internal_Hbond.Weighted>
0.0000

> <Gold.Chemscore.DEClash.Weighted>
0.5367

> <Gold.Chemscore.DEInternal.Weighted>
0.3190

> <Gold.Chemscore.Rot.Weighted>
10.3110

> <Gold.Chemscore.Internal.Correction.Weighted>
   9.000000E+99

> <Gold.Protein.RotatedTorsions>
[ 6907 6896 6895 6894 ] final -140.48 input  -60.11 | X-H torsion
[ 7974 7965 7964 7962 ] final   -4.81 input  175.53 | X-H torsion
[ 8008 7997 7996 7995 ] final   61.25 input   59.86 | X-H torsion
[ 10167 10162 10161 10158 ] final  104.56 input  -65.29 | X-H torsion
[ 10718 10713 10712 10709 ] final   83.88 input   66.30 | X-H torsion
[ 10763 10752 10751 10750 ] final   47.01 input  -60.55 | X-H torsion
[ 11005 11000 10999 10996 ] final   59.03 input  -57.11 | X-H torsion

> <Gold.Protein.ActiveResidues>
 VAL166  LYS551  ARG553  GLY616  TRP617  ASP618  TYR619  PRO620  LYS621  CYS622 
 ASP623  PHE694  ASN695  SER759  ASP760  ASP761  ALA762  ILE779  LEU786  VAL792 
 PHE793  MET794  SER795  GLU796  ALA797  LYS798  CYS799  TRP800  GLU811  SER814 

> <Gold.Protein.RotatedAtoms>
  151.0612  133.5542  159.2633 H   0  0  0  0  0  0  0  0  0  0  0  0  # atno 6907 bound_to 6896
  151.2517  135.0623  159.9074 H   0  0  0  0  0  0  0  0  0  0  0  0  # atno 6908 bound_to 6896
  152.5398  134.0372  159.8105 H   0  0  0  0  0  0  0  0  0  0  0  0  # atno 6909 bound_to 6896
  146.2365  140.1927  142.8333 H   0  0  0  0  0  0  0  0  0  0  0  0  # atno 7974 bound_to 7965
  155.5954  140.3493  155.4578 H   0  0  0  0  0  0  0  0  0  0  0  0  # atno 8008 bound_to 7997
  156.0269  140.1266  157.0324 H   0  0  0  0  0  0  0  0  0  0  0  0  # atno 8009 bound_to 7997
  154.4337  140.1051  156.6030 H   0  0  0  0  0  0  0  0  0  0  0  0  # atno 8010 bound_to 7997
  139.7167  144.7067  151.0939 H   0  0  0  0  0  0  0  0  0  0  0  0  # atno 10167 bound_to 10162
  157.6887  131.0109  150.2589 H   0  0  0  0  0  0  0  0  0  0  0  0  # atno 10718 bound_to 10713
  152.9804  135.5990  154.3692 H   0  0  0  0  0  0  0  0  0  0  0  0  # atno 10763 bound_to 10752
  154.3367  135.2768  155.2446 H   0  0  0  0  0  0  0  0  0  0  0  0  # atno 10764 bound_to 10752
  154.4545  135.5981  153.6269 H   0  0  0  0  0  0  0  0  0  0  0  0  # atno 10765 bound_to 10752
  140.0333  134.5979  155.9477 H   0  0  0  0  0  0  0  0  0  0  0  0  # atno 11005 bound_to 11000
  144.9845  140.8490  143.5377 LP  0  0  0  0  0  0  0  0  0  0  0  0  # atno 17320 bound_to 7965
  145.1925  139.2294  143.5235 LP  0  0  0  0  0  0  0  0  0  0  0  0  # atno 17321 bound_to 7965
  140.7745  143.5220  150.9525 LP  0  0  0  0  0  0  0  0  0  0  0  0  # atno 17342 bound_to 10162
  139.8907  143.6957  152.3145 LP  0  0  0  0  0  0  0  0  0  0  0  0  # atno 17343 bound_to 10162
  156.3172  130.3780  149.7608 LP  0  0  0  0  0  0  0  0  0  0  0  0  # atno 17370 bound_to 10713
  156.5190  130.8206  151.3196 LP  0  0  0  0  0  0  0  0  0  0  0  0  # atno 17371 bound_to 10713
  141.1843  133.6552  156.5153 LP  0  0  0  0  0  0  0  0  0  0  0  0  # atno 17394 bound_to 11000
  140.4188  134.7206  157.4878 LP  0  0  0  0  0  0  0  0  0  0  0  0  # atno 17395 bound_to 11000

$$$$
