AV-unprocessed.smi:213|AV-procd|sdf|1634|dock10
  -GOLD-   2262019593D 1   1.00000     0.00000
 Structure written by MMmdl.
 59 62  0  0  0  0  0  0  0  0  2 V2000
  144.2250  136.6218  152.7309 C   0  0  0  0  0  0  0  0  0  0  0  0
  145.6929  136.6810  152.2686 C   0  0  1  0  0  0  0  0  0  0  0  0
  145.8513  136.3083  150.7758 C   0  0  0  0  0  0  0  0  0  0  0  0
  145.6886  134.8534  150.5309 N   0  3  0  0  0  0  0  0  0  0  0  0
  146.6456  134.0344  151.3119 C   0  0  0  0  0  0  0  0  0  0  0  0
  146.4696  132.5419  150.9839 C   0  0  0  0  0  0  0  0  0  0  0  0
  145.1271  132.1515  151.2434 O   0  0  0  0  0  0  0  0  0  0  0  0
  144.1998  132.8677  150.4375 C   0  0  0  0  0  0  0  0  0  0  0  0
  144.3009  134.3715  150.7439 C   0  0  0  0  0  0  0  0  0  0  0  0
  146.2830  137.9948  152.5597 N   0  0  0  0  0  0  0  0  0  0  0  0
  146.5041  138.9514  151.4771 C   0  0  0  0  0  0  0  0  0  0  0  0
  147.0145  138.1740  153.6964 C   0  0  0  0  0  0  0  0  0  0  0  0
  147.2804  137.1041  154.4947 N   0  0  0  0  0  0  0  0  0  0  0  0
  148.0026  137.2456  155.6093 C   0  0  0  0  0  0  0  0  0  0  0  0
  148.5496  138.3520  156.1124 N   0  0  0  0  0  0  0  0  0  0  0  0
  148.2863  139.4335  155.3251 C   0  0  0  0  0  0  0  0  0  0  0  0
  147.5344  139.4360  154.1149 C   0  0  0  0  0  0  0  0  0  0  0  0
  147.4736  140.7305  153.6088 N   0  0  0  0  0  0  0  0  0  0  0  0
  148.1657  141.4428  154.4545 C   0  0  0  0  0  0  0  0  0  0  0  0
  148.6971  140.7418  155.5119 N   0  0  0  0  0  0  0  0  0  0  0  0
  149.5123  141.2755  156.5908 C   0  0  0  0  0  0  0  0  0  0  0  0
  150.9255  141.7219  156.1522 C   0  0  2  0  0  0  0  0  0  0  0  0
  151.6187  140.6600  155.5249 O   0  0  0  0  0  0  0  0  0  0  0  0
  151.7942  142.3531  157.2648 C   0  0  2  0  0  0  0  0  0  0  0  0
  151.8648  141.5757  158.5797 C   0  0  0  0  0  0  0  0  0  0  0  0
  152.3493  142.6495  159.5285 C   0  0  0  0  0  0  0  0  0  0  0  0
  151.6125  143.8864  159.0177 C   0  0  0  0  0  0  0  0  0  0  0  0
  151.3747  143.6646  157.6307 O   0  0  0  0  0  0  0  0  0  0  0  0
  143.8213  135.6143  152.6311 H   0  0  0  0  0  0  0  0  0  0  0  0
  143.5853  137.2882  152.1525 H   0  0  0  0  0  0  0  0  0  0  0  0
  144.1359  136.9029  153.7807 H   0  0  0  0  0  0  0  0  0  0  0  0
  146.2146  135.9436  152.8772 H   0  0  0  0  0  0  0  0  0  0  0  0
  145.1073  136.8571  150.1970 H   0  0  0  0  0  0  0  0  0  0  0  0
  146.8222  136.6263  150.3931 H   0  0  0  0  0  0  0  0  0  0  0  0
  147.6676  134.3393  151.0841 H   0  0  0  0  0  0  0  0  0  0  0  0
  146.4888  134.2052  152.3782 H   0  0  0  0  0  0  0  0  0  0  0  0
  146.7260  132.3382  149.9429 H   0  0  0  0  0  0  0  0  0  0  0  0
  147.1381  131.9403  151.5998 H   0  0  0  0  0  0  0  0  0  0  0  0
  144.3887  132.6710  149.3809 H   0  0  0  0  0  0  0  0  0  0  0  0
  143.1939  132.5072  150.6534 H   0  0  0  0  0  0  0  0  0  0  0  0
  144.0023  134.5596  151.7766 H   0  0  0  0  0  0  0  0  0  0  0  0
  143.6041  134.9162  150.1079 H   0  0  0  0  0  0  0  0  0  0  0  0
  147.5293  139.3244  151.4787 H   0  0  0  0  0  0  0  0  0  0  0  0
  145.8273  139.7996  151.5814 H   0  0  0  0  0  0  0  0  0  0  0  0
  146.3263  138.5040  150.5001 H   0  0  0  0  0  0  0  0  0  0  0  0
  148.1670  136.3430  156.1791 H   0  0  0  0  0  0  0  0  0  0  0  0
  148.3133  142.5053  154.3266 H   0  0  0  0  0  0  0  0  0  0  0  0
  148.9770  142.1135  157.0388 H   0  0  0  0  0  0  0  0  0  0  0  0
  149.5925  140.5172  157.3702 H   0  0  0  0  0  0  0  0  0  0  0  0
  150.7920  142.4817  155.3815 H   0  0  0  0  0  0  0  0  0  0  0  0
  152.5270  140.7008  155.7819 H   0  0  0  0  0  0  0  0  0  0  0  0
  152.8121  142.4552  156.8845 H   0  0  0  0  0  0  0  0  0  0  0  0
  150.8790  141.2275  158.8896 H   0  0  0  0  0  0  0  0  0  0  0  0
  152.5328  140.7157  158.5306 H   0  0  0  0  0  0  0  0  0  0  0  0
  152.1368  142.4282  160.5746 H   0  0  0  0  0  0  0  0  0  0  0  0
  153.4264  142.7837  159.4197 H   0  0  0  0  0  0  0  0  0  0  0  0
  150.6501  143.9931  159.5189 H   0  0  0  0  0  0  0  0  0  0  0  0
  152.1817  144.8018  159.1788 H   0  0  0  0  0  0  0  0  0  0  0  0
  145.9126  134.6979  149.5584 H   0  0  0  0  0  0  0  0  0  0  0  0
  1  2  1  0  0  0  0
  1 29  1  0  0  0  0
  1 30  1  0  0  0  0
  1 31  1  0  0  0  0
  2  3  1  0  0  0  0
  2 10  1  0  0  0  0
  2 32  1  0  0  0  0
  3  4  1  0  0  0  0
  3 33  1  0  0  0  0
  3 34  1  0  0  0  0
  4  9  1  0  0  0  0
  4  5  1  0  0  0  0
  4 59  1  0  0  0  0
  5  6  1  0  0  0  0
  5 35  1  0  0  0  0
  5 36  1  0  0  0  0
  6  7  1  0  0  0  0
  6 37  1  0  0  0  0
  6 38  1  0  0  0  0
  7  8  1  0  0  0  0
  8  9  1  0  0  0  0
  8 39  1  0  0  0  0
  8 40  1  0  0  0  0
  9 41  1  0  0  0  0
  9 42  1  0  0  0  0
 10 11  1  0  0  0  0
 10 12  1  0  0  0  0
 11 43  1  0  0  0  0
 11 44  1  0  0  0  0
 11 45  1  0  0  0  0
 12 17  1  0  0  0  0
 12 13  2  0  0  0  0
 13 14  1  0  0  0  0
 14 15  2  0  0  0  0
 14 46  1  0  0  0  0
 15 16  1  0  0  0  0
 16 20  1  0  0  0  0
 16 17  2  0  0  0  0
 17 18  1  0  0  0  0
 18 19  2  0  0  0  0
 19 20  1  0  0  0  0
 19 47  1  0  0  0  0
 20 21  1  0  0  0  0
 21 22  1  0  0  0  0
 21 48  1  0  0  0  0
 21 49  1  0  0  0  0
 22 23  1  0  0  0  0
 22 24  1  0  0  0  0
 22 50  1  0  0  0  0
 23 51  1  0  0  0  0
 24 28  1  0  0  0  0
 24 25  1  0  0  0  0
 24 52  1  0  0  0  0
 25 26  1  0  0  0  0
 25 53  1  0  0  0  0
 25 54  1  0  0  0  0
 26 27  1  0  0  0  0
 26 55  1  0  0  0  0
 26 56  1  0  0  0  0
 27 28  1  0  0  0  0
 27 57  1  0  0  0  0
 27 58  1  0  0  0  0
M  CHG  1   4   1
M  END
> <s_m_source_file>
AV-unprocessed.smi

> <i_m_source_file_index>
213

> <i_lp_mmshare_version>
43012

> <i_f3d_flags>
0

> <s_epik_input>
W0NIMl0xW0NIMl1PW0NIMl1bQ0gyXU4xW0NIMl1bQ0BASF0oW0NIM10pTihbQ0gzXSljKG5bY0hdbjIpYyhjMjMpbltjSF1uM1tDSDJdW0NASF0oW09IXSlbQ0BASF00W0NIMl1bQ0gyXVtDSDJdTzQ=

> <s_epik_cmdline>
J2VwaWtfcHl0aG9uJywgJy1waCcsICc3LjAnLCAnLXRuJywgJzgnLCAnLW1hJywgJzIwMCcsICctbWV0YWxfYmluZGluZycsICctaW1hZScsICc8aW5maWxlLm1hZT4nLCAnLW9tYWUnLCAnPG91dGZpbGUubWFlPic=

> <r_lp_tautomer_probability>
1

> <r_epik_Ionization_Penalty>
0.399679

> <r_epik_Ionization_Penalty_Charging>
0.399433

> <r_epik_Ionization_Penalty_Neutral>
0.000246213

> <r_epik_State_Penalty>
0.286032

> <r_epik_Charging_Adjusted_Penalty>
0.685465

> <i_epik_Tot_Q>
1

> <i_epik_Tot_abs_Q>
1

> <r_epik_Metal_State_Penalty>
0.286072

> <b_epik_Metal_Only>
0

> <s_lp_Force_Field>
OPLS_2005

> <r_lp_Energy>
46.153

> <b_lp_Chiralities_Consistent>
1

> <s_lp_Variant>
AV-unprocessed.smi:213-2

> <Gold.Version>
5.8.1

> <Gold.Id.Protein>
6NUR|6NUR_protein|mol2

> <Gold.PLP.Fitness>
50.7496

> <Gold.PLP.PLP>
-44.6985

> <Gold.PLP.part.hbond>
-2.0000

> <Gold.PLP.part.metal>
0.0000

> <Gold.PLP.part.buried>
-4.7602

> <Gold.PLP.part.nonpolar>
-39.2327

> <Gold.PLP.part.repulsive>
0.6060

> <Gold.PLP.ligand.clash>
0.0000

> <Gold.PLP.ligand.torsion>
1.1614

> <Gold.PLP.Chemscore.Hbond>
1.6903

> <Gold.PLP.Chemscore.CHOScore>
0.8025

> <Gold.PLP.Chemscore.Metal>
0.0000

> <Gold.Chemscore.Hbonds>
donor molecule, donor type, donor heavy atom, donor atom, acceptor molecule, acceptor atom, score
      L1  H     4    59       P1  7921  1.00
      P1  H  7989  7998       L1    23  0.70
      L1  C    19    47       P1  8028  0.78

> <Gold.PLP.Chemscore.Internal.Correction>
0.8955

> <Gold.Rescore>
     Score         DG    S(hbond)    S(metal)    S(lipo)     H(rot)  DE(clash)    DE(int)     intcor
     12.52     -16.30       1.42        0.00     113.79       2.83       1.66       2.12       ----

> <Gold.Chemscore.Fitness>
12.5210

> <Gold.Chemscore.DG>
-16.2956

> <Gold.Chemscore.ZeroCoef>
-5.4800

> <Gold.Chemscore.Hbond>
1.4177

> <Gold.Chemscore.Metal>
0.0000

> <Gold.Chemscore.Lipo>
113.7909

> <Gold.Chemscore.Internal_Hbond>
0.0000

> <Gold.Chemscore.DEClash>
1.6567

> <Gold.Chemscore.DEInternal>
2.1180

> <Gold.Chemscore.Rot>
2.8254

> <Gold.Chemscore.Internal.Correction>
   9.000000E+99

> <Gold.Chemscore.Hbonds>
donor molecule, donor type, donor heavy atom, donor atom, acceptor molecule, acceptor atom, score
      L1  H     4    59       P1  7921  0.74
      P1  H  7989  7998       L1    23  0.24

> <Gold.Chemscore.Hbond.Weighted>
-4.7351

> <Gold.Chemscore.Metal.Weighted>
-0.0000

> <Gold.Chemscore.Lipo.Weighted>
-13.3135

> <Gold.Chemscore.Internal_Hbond.Weighted>
0.0000

> <Gold.Chemscore.DEClash.Weighted>
1.6567

> <Gold.Chemscore.DEInternal.Weighted>
2.1180

> <Gold.Chemscore.Rot.Weighted>
7.2330

> <Gold.Chemscore.Internal.Correction.Weighted>
   9.000000E+99

> <Gold.Protein.RotatedTorsions>
[ 6907 6896 6895 6894 ] final -101.91 input  -60.11 | X-H torsion
[ 7974 7965 7964 7962 ] final   23.37 input  175.53 | X-H torsion
[ 8008 7997 7996 7995 ] final   93.97 input   59.86 | X-H torsion
[ 10167 10162 10161 10158 ] final  131.73 input  -65.29 | X-H torsion
[ 10718 10713 10712 10709 ] final   44.47 input   66.30 | X-H torsion
[ 10763 10752 10751 10750 ] final -162.41 input  -60.55 | X-H torsion
[ 11005 11000 10999 10996 ] final -101.89 input  -57.11 | X-H torsion

> <Gold.Protein.ActiveResidues>
 VAL166  LYS551  ARG553  GLY616  TRP617  ASP618  TYR619  PRO620  LYS621  CYS622 
 ASP623  PHE694  ASN695  SER759  ASP760  ASP761  ALA762  ILE779  LEU786  VAL792 
 PHE793  MET794  SER795  GLU796  ALA797  LYS798  CYS799  TRP800  GLU811  SER814 

> <Gold.Protein.RotatedAtoms>
  150.7174  134.0663  159.3848 H   0  0  0  0  0  0  0  0  0  0  0  0  # atno 6907 bound_to 6896
  151.8644  135.0510  160.0482 H   0  0  0  0  0  0  0  0  0  0  0  0  # atno 6908 bound_to 6896
  152.2692  133.5331  159.5465 H   0  0  0  0  0  0  0  0  0  0  0  0  # atno 6909 bound_to 6896
  146.1987  139.7754  142.8778 H   0  0  0  0  0  0  0  0  0  0  0  0  # atno 7974 bound_to 7965
  156.0527  140.3306  155.7370 H   0  0  0  0  0  0  0  0  0  0  0  0  # atno 8008 bound_to 7997
  155.5576  140.0616  157.2853 H   0  0  0  0  0  0  0  0  0  0  0  0  # atno 8009 bound_to 7997
  154.4443  140.1883  156.0738 H   0  0  0  0  0  0  0  0  0  0  0  0  # atno 8010 bound_to 7997
  139.5371  144.6693  151.4750 H   0  0  0  0  0  0  0  0  0  0  0  0  # atno 10167 bound_to 10162
  157.4271  130.8003  149.7569 H   0  0  0  0  0  0  0  0  0  0  0  0  # atno 10718 bound_to 10713
  154.7216  135.3027  154.9038 H   0  0  0  0  0  0  0  0  0  0  0  0  # atno 10763 bound_to 10752
  153.9908  135.6719  153.4758 H   0  0  0  0  0  0  0  0  0  0  0  0  # atno 10764 bound_to 10752
  153.0839  135.4994  154.8475 H   0  0  0  0  0  0  0  0  0  0  0  0  # atno 10765 bound_to 10752
  141.1212  133.8514  157.1290 H   0  0  0  0  0  0  0  0  0  0  0  0  # atno 11005 bound_to 11000
  145.3556  141.0316  143.3313 LP  0  0  0  0  0  0  0  0  0  0  0  0  # atno 17320 bound_to 7965
  144.8636  139.5140  143.6800 LP  0  0  0  0  0  0  0  0  0  0  0  0  # atno 17321 bound_to 7965
  140.6583  143.8553  150.6859 LP  0  0  0  0  0  0  0  0  0  0  0  0  # atno 17342 bound_to 10162
  140.1940  143.4013  152.1842 LP  0  0  0  0  0  0  0  0  0  0  0  0  # atno 17343 bound_to 10162
  155.9900  130.3947  150.3047 LP  0  0  0  0  0  0  0  0  0  0  0  0  # atno 17370 bound_to 10713
  157.1200  131.0244  151.3013 LP  0  0  0  0  0  0  0  0  0  0  0  0  # atno 17371 bound_to 10713
  140.0171  134.9962  157.0515 LP  0  0  0  0  0  0  0  0  0  0  0  0  # atno 17394 bound_to 11000
  140.4502  134.1590  155.7181 LP  0  0  0  0  0  0  0  0  0  0  0  0  # atno 17395 bound_to 11000

$$$$
