#       Name:                AV-unprocessed.smi:625
#       Creating user name   scv26
#       Creation time:       Fri Mar 27 00:03:04 2020


#       File generated by GOLD software.
#

@<TRIPOS>MOLECULE
AV-unprocessed.smi:625
    55    57     1
SMALL
NO_CHARGES


@<TRIPOS>ATOM
      1 ****        -4.8614   6.1106   0.8132 C.3            1 S1                 0.0000
      2 ****        -4.3154   4.7641   0.8928 N.am           1 S1                 0.0000
      3 ****        -3.7131   4.1252  -0.1238 C.2            1 S1                 0.0000
      4 ****        -3.5791   4.6518  -1.2297 O.2            1 S1                 0.0000
      5 ****        -3.2486   2.7778   0.2158 C.2            1 S1                 0.0000
      6 ****        -3.4276   2.1823   1.5319 C.2            1 S1                 0.0000
      7 ****        -2.9706   0.9414   1.7908 C.2            1 S1                 0.0000
      8 ****        -2.2833   0.1435   0.7717 C.2            1 S1                 0.0000
      9 ****        -1.8604  -0.9896   1.0046 O.2            1 S1                 0.0000
     10 ****        -2.1415   0.7376  -0.4526 N.am           1 S1                 0.0000
     11 ****        -1.4623   0.0331  -1.5527 C.3            1 S1                 0.0000
     12 ****         0.0649   0.0637  -1.4126 C.2            1 S1                 0.0000
     13 ****         0.6336   1.0829  -1.0195 O.2            1 S1                 0.0000
     14 ****         0.7093  -1.0657  -1.7438 N.am           1 S1                 0.0000
     15 ****         2.1447  -1.3041  -1.6107 C.3            1 S1                 0.0000
     16 ****         2.7659  -1.4208  -3.0112 C.3            1 S1                 0.0000
     17 ****         2.3839  -2.5721  -0.7572 C.3            1 S1                 0.0000
     18 ****         3.8544  -2.8142  -0.3488 C.3            1 S1                 0.0000
     19 ****         3.7553  -3.0728   1.1666 C.3            1 S1                 0.0000
     20 ****         3.4811  -1.7404   1.8876 C.3            1 S1                 0.0000
     21 ****         2.0151  -1.4522   1.5173 C.3            1 S1                 0.0000
     22 ****         1.6509  -2.6435   0.6072 C.3            1 S1                 0.0000
     23 ****         2.4093  -3.7780   1.2884 C.3            1 S1                 0.0000
     24 ****        -2.6181   2.0367  -0.7165 C.2            1 S1                 0.0000
     25 ****        -5.3046   6.3881   1.7694 H              1 S1                 0.0000
     26 ****        -5.6359   6.1718   0.0478 H              1 S1                 0.0000
     27 ****        -4.0792   6.8331   0.5771 H              1 S1                 0.0000
     28 ****        -4.3973   4.2849   1.7776 H              1 S1                 0.0000
     29 ****        -3.9262   2.7159   2.3276 H              1 S1                 0.0000
     30 ****        -3.1140   0.5210   2.7753 H              1 S1                 0.0000
     31 ****        -1.8125  -1.0001  -1.6023 H              1 S1                 0.0000
     32 ****        -1.7231   0.4699  -2.5175 H              1 S1                 0.0000
     33 ****         0.1528  -1.8437  -2.0671 H              1 S1                 0.0000
     34 ****         2.6220  -0.4581  -1.1146 H              1 S1                 0.0000
     35 ****         3.8439  -1.5731  -2.9559 H              1 S1                 0.0000
     36 ****         2.5947  -0.5137  -3.5918 H              1 S1                 0.0000
     37 ****         2.3403  -2.2567  -3.5676 H              1 S1                 0.0000
     38 ****         2.0513  -3.4309  -1.3435 H              1 S1                 0.0000
     39 ****         4.2566  -3.6839  -0.8696 H              1 S1                 0.0000
     40 ****         4.5053  -1.9675  -0.5703 H              1 S1                 0.0000
     41 ****         4.6046  -3.6226   1.5733 H              1 S1                 0.0000
     42 ****         3.5884  -1.8518   2.9674 H              1 S1                 0.0000
     43 ****         4.1558  -0.9469   1.5643 H              1 S1                 0.0000
     44 ****         1.3916  -1.4545   2.4122 H              1 S1                 0.0000
     45 ****         1.8851  -0.4831   1.0377 H              1 S1                 0.0000
     46 ****         0.5767  -2.8097   0.5188 H              1 S1                 0.0000
     47 ****         2.3640  -4.7222   0.7430 H              1 S1                 0.0000
     48 ****         2.1008  -3.9476   2.3217 H              1 S1                 0.0000
     49 ****        -2.4268   2.3858  -1.7217 H              1 S1                 0.0000
     50 ****        -3.9228   5.5775  -1.3877 LP             1 S1                 0.0000
     51 ****        -3.1267   4.1534  -1.9693 LP             1 S1                 0.0000
     52 ****        -1.9818  -1.3919   1.9120 LP             1 S1                 0.0000
     53 ****        -1.3957  -1.5073   0.2863 LP             1 S1                 0.0000
     54 ****         0.0994   1.8964  -0.7897 LP             1 S1                 0.0000
     55 ****         1.6295   1.0969  -0.9302 LP             1 S1                 0.0000
@<TRIPOS>BOND
    1    1    2 1     
    2    1   25 1     
    3    1   26 1     
    4    1   27 1     
    5    2    3 am    
    6    2   28 1     
    7    3    4 2     
    8    3    5 1     
    9    5   24 2     
   10    5    6 1     
   11    6    7 2     
   12    6   29 1     
   13    7    8 1     
   14    7   30 1     
   15    8    9 2     
   16    8   10 am    
   17   10   11 1     
   18   10   24 1     
   19   11   12 1     
   20   11   31 1     
   21   11   32 1     
   22   12   13 2     
   23   12   14 am    
   24   14   15 1     
   25   14   33 1     
   26   15   16 1     
   27   15   17 1     
   28   15   34 1     
   29   16   35 1     
   30   16   36 1     
   31   16   37 1     
   32   17   22 1     
   33   17   18 1     
   34   17   38 1     
   35   18   19 1     
   36   18   39 1     
   37   18   40 1     
   38   19   23 1     
   39   19   20 1     
   40   19   41 1     
   41   20   21 1     
   42   20   42 1     
   43   20   43 1     
   44   21   22 1     
   45   21   44 1     
   46   21   45 1     
   47   22   23 1     
   48   22   46 1     
   49   23   47 1     
   50   23   48 1     
   51   24   49 1     
   52    4   50 1     
   53    4   51 1     
   54    9   52 1     
   55    9   53 1     
   56   13   54 1     
   57   13   55 1     
@<TRIPOS>SUBSTRUCTURE
      1 S1             1
@<TRIPOS>SET
LONE_PAIRS      STATIC     ATOMS    <user>   **** ""
6 50 51 52 53 54 55
DONOR_HYDROGENS      STATIC     ATOMS    <user>   **** ""
2 28 33
ATOM$BLUE        STATIC     ATOMS    COLORGROUP SYSTEM
6 50 51 52 53 54 55
ATOM$RED        STATIC     ATOMS    COLORGROUP SYSTEM
2 28 33
