#       Name:                AV-unprocessed.smi:3014
#       Creating user name   scv26
#       Creation time:       Fri Mar 27 16:40:37 2020


#       File generated by GOLD software.
#

@<TRIPOS>MOLECULE
AV-unprocessed.smi:3014
    51    52     1
SMALL
NO_CHARGES


@<TRIPOS>ATOM
      1 ****        -3.5299   2.9045  -2.7407 C.3            1 S1                 0.0000
      2 ****        -3.1287   2.1944  -1.4398 C.3            1 S1                 0.0000
      3 ****        -3.5588   3.0057  -0.2026 C.3            1 S1                 0.0000
      4 ****        -3.1690   2.2963   1.1035 C.3            1 S1                 0.0000
      5 ****        -3.7400   0.8696   1.1575 C.3            1 S1                 0.0000
      6 ****        -3.3199   0.0395  -0.0682 C.3            1 S1                 0.0000
      7 ****        -1.9155  -0.1738   0.0172 O.3            1 S1                 0.0000
      8 ****        -1.4307  -1.2717  -0.7467 C.3            1 S1                 0.0000
      9 ****         0.0755  -1.4278  -0.5275 C.2            1 S1                 0.0000
     10 ****         0.7520  -1.9732  -1.3993 O.2            1 S1                 0.0000
     11 ****         0.5636  -0.9601   0.6375 N.am           1 S1                 0.0000
     12 ****         1.9041  -0.9854   1.1021 C.ar           1 S1                 0.0000
     13 ****         2.1308  -0.3879   2.3606 C.ar           1 S1                 0.0000
     14 ****         3.4519  -0.4008   2.8480 C.ar           1 S1                 0.0000
     15 ****         4.4611  -0.9593   2.1496 N.ar           1 S1                 0.0000
     16 ****         4.1608  -1.5058   0.9651 C.ar           1 S1                 0.0000
     17 ****         5.2037  -2.0885   0.2393 N.pl3          1 S1                 0.0000
     18 ****         6.5745  -2.0762   0.7417 C.3            1 S1                 0.0000
     19 ****         4.9607  -2.7277  -1.0509 C.3            1 S1                 0.0000
     20 ****         2.9372  -1.5394   0.4216 N.ar           1 S1                 0.0000
     21 ****        -3.7065   0.7661  -1.3750 C.3            1 S1                 0.0000
     22 ****        -4.6123   3.0146  -2.8161 H              1 S1                 0.0000
     23 ****        -3.1903   2.3470  -3.6139 H              1 S1                 0.0000
     24 ****        -3.0896   3.9005  -2.7952 H              1 S1                 0.0000
     25 ****        -2.0403   2.1183  -1.4317 H              1 S1                 0.0000
     26 ****        -3.1035   3.9963  -0.2290 H              1 S1                 0.0000
     27 ****        -4.6382   3.1625  -0.2212 H              1 S1                 0.0000
     28 ****        -2.0822   2.2610   1.1895 H              1 S1                 0.0000
     29 ****        -3.5266   2.8711   1.9582 H              1 S1                 0.0000
     30 ****        -3.4182   0.3735   2.0737 H              1 S1                 0.0000
     31 ****        -4.8286   0.9201   1.2028 H              1 S1                 0.0000
     32 ****        -3.8334  -0.9222  -0.0179 H              1 S1                 0.0000
     33 ****        -1.9252  -2.1954  -0.4434 H              1 S1                 0.0000
     34 ****        -1.6207  -1.1226  -1.8096 H              1 S1                 0.0000
     35 ****        -0.1068  -0.5292   1.2575 H              1 S1                 0.0000
     36 ****         1.3310   0.0620   2.9306 H              1 S1                 0.0000
     37 ****         3.6992   0.0383   3.8031 H              1 S1                 0.0000
     38 ****         6.9015  -1.0538   0.9341 H              1 S1                 0.0000
     39 ****         7.2730  -2.5188   0.0316 H              1 S1                 0.0000
     40 ****         6.6415  -2.6403   1.6725 H              1 S1                 0.0000
     41 ****         4.6020  -1.9957  -1.7752 H              1 S1                 0.0000
     42 ****         4.2088  -3.5115  -0.9533 H              1 S1                 0.0000
     43 ****         5.8634  -3.1848  -1.4560 H              1 S1                 0.0000
     44 ****        -4.7942   0.8176  -1.4393 H              1 S1                 0.0000
     45 ****        -3.3882   0.1926  -2.2449 H              1 S1                 0.0000
     46 ****        -1.6833  -0.3356   0.9763 LP             1 S1                 0.0000
     47 ****        -1.4551   0.6546  -0.3020 LP             1 S1                 0.0000
     48 ****         0.3159  -2.3064  -2.2352 LP             1 S1                 0.0000
     49 ****         1.7377  -2.0831  -1.2716 LP             1 S1                 0.0000
     50 ****         5.3968  -0.9650   2.5025 LP             1 S1                 0.0000
     51 ****         2.7884  -1.9657  -0.4706 LP             1 S1                 0.0000
@<TRIPOS>BOND
    1    1    2 1     
    2    1   22 1     
    3    1   23 1     
    4    1   24 1     
    5    2   21 1     
    6    2    3 1     
    7    2   25 1     
    8    3    4 1     
    9    3   26 1     
   10    3   27 1     
   11    4    5 1     
   12    4   28 1     
   13    4   29 1     
   14    5    6 1     
   15    5   30 1     
   16    5   31 1     
   17    6    7 1     
   18    6   21 1     
   19    6   32 1     
   20    7    8 1     
   21    8    9 1     
   22    8   33 1     
   23    8   34 1     
   24    9   10 2     
   25    9   11 am    
   26   11   12 1     
   27   11   35 1     
   28   12   20 ar    
   29   12   13 ar    
   30   13   14 ar    
   31   13   36 1     
   32   14   15 ar    
   33   14   37 1     
   34   15   16 ar    
   35   16   17 1     
   36   16   20 ar    
   37   17   18 1     
   38   17   19 1     
   39   18   38 1     
   40   18   39 1     
   41   18   40 1     
   42   19   41 1     
   43   19   42 1     
   44   19   43 1     
   45   21   44 1     
   46   21   45 1     
   47    7   46 1     
   48    7   47 1     
   49   10   48 1     
   50   10   49 1     
   51   15   50 1     
   52   20   51 1     
@<TRIPOS>SUBSTRUCTURE
      1 S1             1
@<TRIPOS>SET
LONE_PAIRS      STATIC     ATOMS    <user>   **** ""
6 46 47 48 49 50 51
DONOR_HYDROGENS      STATIC     ATOMS    <user>   **** ""
1 35
ATOM$BLUE        STATIC     ATOMS    COLORGROUP SYSTEM
6 46 47 48 49 50 51
ATOM$RED        STATIC     ATOMS    COLORGROUP SYSTEM
1 35
