#       Name:                AV-unprocessed.smi:2384
#       Creating user name   scv26
#       Creation time:       Fri Mar 27 13:09:00 2020


#       File generated by GOLD software.
#

@<TRIPOS>MOLECULE
AV-unprocessed.smi:2384
    48    49     1
SMALL
NO_CHARGES


@<TRIPOS>ATOM
      1 ****        -5.9421   0.9480   1.6195 C.3            1 S1                 0.0000
      2 ****        -4.5242   1.4800   1.6233 C.ar           1 S1                 0.0000
      3 ****        -4.2719   2.8643   1.5709 C.ar           1 S1                 0.0000
      4 ****        -2.9310   3.2961   1.5733 C.ar           1 S1                 0.0000
      5 ****        -2.5859   4.7695   1.5219 C.3            1 S1                 0.0000
      6 ****        -1.8834   2.4460   1.6211 N.ar           1 S1                 0.0000
      7 ****        -2.1140   1.1107   1.6719 C.ar           1 S1                 0.0000
      8 ****        -1.0820   0.1366   1.7299 N.am           1 S1                 0.0000
      9 ****         0.2470   0.3305   1.6597 C.2            1 S1                 0.0000
     10 ****         0.8018   1.4178   1.4967 O.2            1 S1                 0.0000
     11 ****         0.9127  -0.8271   1.7785 N.am           1 S1                 0.0000
     12 ****         2.3637  -0.9698   1.7165 C.3            1 S1                 0.0000
     13 ****         2.8924  -0.9682   0.2709 C.3            1 S1                 0.0000
     14 ****         2.3327  -2.1174  -0.5886 C.3            1 S1                 0.0000
     15 ****         2.8797  -2.0947  -1.9425 N.am           1 S1                 0.0000
     16 ****         2.0805  -1.6168  -3.0585 C.3            1 S1                 0.0000
     17 ****         2.9123  -1.9260  -4.3123 C.3            1 S1                 0.0000
     18 ****         4.2993  -2.3398  -3.8084 C.3            1 S1                 0.0000
     19 ****         4.1002  -2.5003  -2.3112 C.2            1 S1                 0.0000
     20 ****         4.9707  -2.9498  -1.5672 O.2            1 S1                 0.0000
     21 ****        -3.4293   0.5937   1.6773 C.ar           1 S1                 0.0000
     22 ****        -6.6705   1.7597   1.6212 H              1 S1                 0.0000
     23 ****        -6.1181   0.3309   2.5008 H              1 S1                 0.0000
     24 ****        -6.1135   0.3384   0.7321 H              1 S1                 0.0000
     25 ****        -5.0836   3.5759   1.5303 H              1 S1                 0.0000
     26 ****        -3.4843   5.3869   1.5050 H              1 S1                 0.0000
     27 ****        -2.0039   4.9909   0.6270 H              1 S1                 0.0000
     28 ****        -1.9964   5.0514   2.3948 H              1 S1                 0.0000
     29 ****        -1.3914  -0.8179   1.8369 H              1 S1                 0.0000
     30 ****         0.3783  -1.6730   1.9123 H              1 S1                 0.0000
     31 ****         2.8403  -0.1740   2.2912 H              1 S1                 0.0000
     32 ****         2.6342  -1.9047   2.2077 H              1 S1                 0.0000
     33 ****         2.6623  -0.0128  -0.2026 H              1 S1                 0.0000
     34 ****         3.9806  -1.0330   0.3023 H              1 S1                 0.0000
     35 ****         2.5594  -3.0784  -0.1243 H              1 S1                 0.0000
     36 ****         1.2455  -2.0528  -0.6439 H              1 S1                 0.0000
     37 ****         1.1088  -2.1112  -3.0910 H              1 S1                 0.0000
     38 ****         1.9149  -0.5439  -2.9509 H              1 S1                 0.0000
     39 ****         2.4599  -2.7456  -4.8722 H              1 S1                 0.0000
     40 ****         2.9657  -1.0648  -4.9791 H              1 S1                 0.0000
     41 ****         4.6415  -3.2700  -4.2631 H              1 S1                 0.0000
     42 ****         5.0411  -1.5631  -3.9966 H              1 S1                 0.0000
     43 ****        -3.6002  -0.4725   1.7190 H              1 S1                 0.0000
     44 ****        -0.9471   2.7973   1.6191 LP             1 S1                 0.0000
     45 ****         0.2544   2.2496   1.4045 LP             1 S1                 0.0000
     46 ****         1.7997   1.4689   1.4566 LP             1 S1                 0.0000
     47 ****         4.7938  -3.0384  -0.5870 LP             1 S1                 0.0000
     48 ****         5.8553  -3.2265  -1.9426 LP             1 S1                 0.0000
@<TRIPOS>BOND
    1    1    2 1     
    2    1   22 1     
    3    1   23 1     
    4    1   24 1     
    5    2   21 ar    
    6    2    3 ar    
    7    3    4 ar    
    8    3   25 1     
    9    4    5 1     
   10    4    6 ar    
   11    5   26 1     
   12    5   27 1     
   13    5   28 1     
   14    6    7 ar    
   15    7    8 1     
   16    7   21 ar    
   17    8    9 am    
   18    8   29 1     
   19    9   10 2     
   20    9   11 am    
   21   11   12 1     
   22   11   30 1     
   23   12   13 1     
   24   12   31 1     
   25   12   32 1     
   26   13   14 1     
   27   13   33 1     
   28   13   34 1     
   29   14   15 1     
   30   14   35 1     
   31   14   36 1     
   32   15   19 am    
   33   15   16 1     
   34   16   17 1     
   35   16   37 1     
   36   16   38 1     
   37   17   18 1     
   38   17   39 1     
   39   17   40 1     
   40   18   19 1     
   41   18   41 1     
   42   18   42 1     
   43   19   20 2     
   44   21   43 1     
   45    6   44 1     
   46   10   45 1     
   47   10   46 1     
   48   20   47 1     
   49   20   48 1     
@<TRIPOS>SUBSTRUCTURE
      1 S1             1
@<TRIPOS>SET
LONE_PAIRS      STATIC     ATOMS    <user>   **** ""
5 44 45 46 47 48
DONOR_HYDROGENS      STATIC     ATOMS    <user>   **** ""
2 29 30
ATOM$BLUE        STATIC     ATOMS    COLORGROUP SYSTEM
5 44 45 46 47 48
ATOM$RED        STATIC     ATOMS    COLORGROUP SYSTEM
2 29 30
