#       Name:                AV-unprocessed.smi:3029
#       Creating user name   scv26
#       Creation time:       Fri Mar 27 16:47:43 2020


#       File generated by GOLD software.
#

@<TRIPOS>MOLECULE
AV-unprocessed.smi:3029
    46    47     1
SMALL
NO_CHARGES


@<TRIPOS>ATOM
      1 ****        -2.3916   1.5252   2.0885 O.2            1 S1                 0.0000
      2 ****        -2.5060   2.2558   1.1043 C.2            1 S1                 0.0000
      3 ****        -3.0103   3.6287   1.2100 C.2            1 S1                 0.0000
      4 ****        -3.1127   4.4308   0.1320 C.2            1 S1                 0.0000
      5 ****        -2.7202   3.9535  -1.1800 C.2            1 S1                 0.0000
      6 ****        -2.8071   4.8130  -2.3402 N.pl3          1 S1                 1.0000
      7 ****        -2.4856   4.3669  -3.4375 O.2            1 S1                 0.0000
      8 ****        -3.2004   5.9654  -2.1904 O.2            1 S1                -1.0000
      9 ****        -2.2675   2.6879  -1.2765 C.2            1 S1                 0.0000
     10 ****        -2.1697   1.8416  -0.1551 N.am           1 S1                 0.0000
     11 ****        -1.6563   0.4853  -0.3857 C.3            1 S1                 0.0000
     12 ****        -0.1410   0.4201  -0.1413 C.3            1 S1                 0.0000
     13 ****         0.3260  -0.9440  -0.3340 N.3            1 S1                 0.0000
     14 ****         1.7504  -1.0788  -0.0394 C.3            1 S1                 0.0000
     15 ****         2.4336  -1.7793  -1.2331 C.3            1 S1                 0.0000
     16 ****         2.1036  -3.2804  -1.3124 C.3            1 S1                 0.0000
     17 ****         2.4062  -3.9951   0.0111 C.3            1 S1                 0.0000
     18 ****         1.6710  -3.3290   1.1836 C.3            1 S1                 0.0000
     19 ****         2.0194  -1.8289   1.2963 C.3            1 S1                 0.0000
     20 ****         1.4072  -1.1672   2.5528 C.3            1 S1                 0.0000
     21 ****         0.0756  -1.2360   2.5509 F              1 S1                 0.0000
     22 ****         1.8573  -1.7853   3.6450 F              1 S1                 0.0000
     23 ****         1.7791   0.1111   2.6237 F              1 S1                 0.0000
     24 ****        -3.3083   4.0048   2.1779 H              1 S1                 0.0000
     25 ****        -3.4917   5.4341   0.2598 H              1 S1                 0.0000
     26 ****        -1.9445   2.2397  -2.2054 H              1 S1                 0.0000
     27 ****        -2.1729  -0.2309   0.2564 H              1 S1                 0.0000
     28 ****        -1.8815   0.1656  -1.4046 H              1 S1                 0.0000
     29 ****         0.3806   1.0853  -0.8306 H              1 S1                 0.0000
     30 ****         0.0888   0.7534   0.8702 H              1 S1                 0.0000
     31 ****         0.1517  -1.2210  -1.2896 H              1 S1                 0.0000
     32 ****         2.1899  -0.0825   0.0338 H              1 S1                 0.0000
     33 ****         2.1679  -1.2865  -2.1695 H              1 S1                 0.0000
     34 ****         3.5138  -1.6657  -1.1333 H              1 S1                 0.0000
     35 ****         1.0508  -3.4129  -1.5648 H              1 S1                 0.0000
     36 ****         2.6717  -3.7415  -2.1207 H              1 S1                 0.0000
     37 ****         2.1167  -5.0440  -0.0597 H              1 S1                 0.0000
     38 ****         3.4810  -3.9828   0.1971 H              1 S1                 0.0000
     39 ****         0.5944  -3.4516   1.0597 H              1 S1                 0.0000
     40 ****         1.9324  -3.8446   2.1079 H              1 S1                 0.0000
     41 ****         3.0999  -1.7818   1.4436 H              1 S1                 0.0000
     42 ****        -2.0426   0.5942   1.9822 LP             1 S1                 0.0000
     43 ****        -2.6477   1.8628   2.9943 LP             1 S1                 0.0000
     44 ****        -2.1692   3.4219  -3.5199 LP             1 S1                 0.0000
     45 ****        -2.5401   4.9485  -4.2492 LP             1 S1                 0.0000
     46 ****        -0.1726  -1.5355   0.2996 LP             1 S1                 0.0000
@<TRIPOS>BOND
    1    1    2 2     
    2    2   10 am    
    3    2    3 1     
    4    3    4 2     
    5    3   24 1     
    6    4    5 1     
    7    4   25 1     
    8    5    6 1     
    9    5    9 2     
   10    6    7 2     
   11    6    8 1     
   12    9   10 1     
   13    9   26 1     
   14   10   11 1     
   15   11   12 1     
   16   11   27 1     
   17   11   28 1     
   18   12   13 1     
   19   12   29 1     
   20   12   30 1     
   21   13   14 1     
   22   13   31 1     
   23   14   19 1     
   24   14   15 1     
   25   14   32 1     
   26   15   16 1     
   27   15   33 1     
   28   15   34 1     
   29   16   17 1     
   30   16   35 1     
   31   16   36 1     
   32   17   18 1     
   33   17   37 1     
   34   17   38 1     
   35   18   19 1     
   36   18   39 1     
   37   18   40 1     
   38   19   20 1     
   39   19   41 1     
   40   20   21 1     
   41   20   22 1     
   42   20   23 1     
   43    1   42 1     
   44    1   43 1     
   45    7   44 1     
   46    7   45 1     
   47   13   46 1     
@<TRIPOS>SUBSTRUCTURE
      1 S1             1
@<TRIPOS>SET
LONE_PAIRS      STATIC     ATOMS    <user>   **** ""
6 42 43 44 45 8 46
DONOR_HYDROGENS      STATIC     ATOMS    <user>   **** ""
1 31
ATOM$BLUE        STATIC     ATOMS    COLORGROUP SYSTEM
6 42 43 44 45 8 46
ATOM$RED        STATIC     ATOMS    COLORGROUP SYSTEM
1 31
