AV-unprocessed.smi:1591|AV-procd|sdf|6397|dock2
  -GOLD-   22720 7 33D 1   1.00000     0.00000
 Structure written by MMmdl.
 52 55  0  0  0  0  0  0  0  0  1 V2000
  147.0123  142.1798  154.0742 C   0  0  0  0  0  0  0  0  0  0  0  0
  146.7099  140.6871  153.8729 C   0  0  0  0  0  0  0  0  0  0  0  0
  147.9034  139.8768  153.3086 C   0  0  2  0  0  0  0  0  0  0  0  0
  147.3885  138.6694  152.6582 N   0  0  0  0  0  0  0  0  0  0  0  0
  146.3490  137.9256  153.0677 C   0  0  0  0  0  0  0  0  0  0  0  0
  145.7343  138.1272  154.1146 O   0  0  0  0  0  0  0  0  0  0  0  0
  145.9248  136.7916  152.1309 C   0  0  0  0  0  0  0  0  0  0  0  0
  144.6335  136.2365  152.5566 N   0  0  0  0  0  0  0  0  0  0  0  0
  143.4866  137.0123  152.4620 C   0  0  0  0  0  0  0  0  0  0  0  0
  142.2667  136.5963  152.8763 C   0  0  0  0  0  0  0  0  0  0  0  0
  142.0990  135.2704  153.4608 C   0  0  0  0  0  0  0  0  0  0  0  0
  141.0373  134.8043  153.8683 O   0  0  0  0  0  0  0  0  0  0  0  0
  143.2749  134.5195  153.5388 N   0  0  0  0  0  0  0  0  0  0  0  0
  144.5354  134.9429  153.1143 C   0  0  0  0  0  0  0  0  0  0  0  0
  145.5089  134.2011  153.2382 O   0  0  0  0  0  0  0  0  0  0  0  0
  149.0183  139.5075  154.3472 C   0  0  0  0  0  0  0  0  0  0  0  0
  149.7704  140.7648  154.8740 C   0  0  0  0  0  0  0  0  0  0  0  0
  150.8446  140.3649  155.9096 C   0  0  1  0  0  0  0  0  0  0  0  0
  150.1757  139.6603  157.1075 C   0  0  0  0  0  0  0  0  0  0  0  0
  149.4575  138.3898  156.6093 C   0  0  2  0  0  0  0  0  0  0  0  0
  150.4746  137.4330  155.9587 C   0  0  0  0  0  0  0  0  0  0  0  0
  151.1397  138.1450  154.7650 C   0  0  2  0  0  0  0  0  0  0  0  0
  151.8679  139.4133  155.2560 C   0  0  0  0  0  0  0  0  0  0  0  0
  150.0664  138.5376  153.7273 C   0  0  0  0  0  0  0  0  0  0  0  0
  148.3840  138.7832  155.5748 C   0  0  0  0  0  0  0  0  0  0  0  0
  143.2087  133.5954  153.9401 H   0  0  0  0  0  0  0  0  0  0  0  0
  146.1666  142.6838  154.5421 H   0  0  0  0  0  0  0  0  0  0  0  0
  147.2099  142.6848  153.1285 H   0  0  0  0  0  0  0  0  0  0  0  0
  147.8801  142.3213  154.7190 H   0  0  0  0  0  0  0  0  0  0  0  0
  146.4110  140.2899  154.8415 H   0  0  0  0  0  0  0  0  0  0  0  0
  145.8420  140.5916  153.2209 H   0  0  0  0  0  0  0  0  0  0  0  0
  148.3701  140.5146  152.5557 H   0  0  0  0  0  0  0  0  0  0  0  0
  147.8277  138.4122  151.7865 H   0  0  0  0  0  0  0  0  0  0  0  0
  145.8572  137.1541  151.1033 H   0  0  0  0  0  0  0  0  0  0  0  0
  146.7052  136.0290  152.1133 H   0  0  0  0  0  0  0  0  0  0  0  0
  143.5663  138.0057  152.0430 H   0  0  0  0  0  0  0  0  0  0  0  0
  141.4117  137.2492  152.7777 H   0  0  0  0  0  0  0  0  0  0  0  0
  150.2479  141.2992  154.0530 H   0  0  0  0  0  0  0  0  0  0  0  0
  149.0748  141.4683  155.3327 H   0  0  0  0  0  0  0  0  0  0  0  0
  151.3580  141.2609  156.2600 H   0  0  0  0  0  0  0  0  0  0  0  0
  150.9215  139.4025  157.8605 H   0  0  0  0  0  0  0  0  0  0  0  0
  149.4653  140.3308  157.5930 H   0  0  0  0  0  0  0  0  0  0  0  0
  148.9803  137.8905  157.4531 H   0  0  0  0  0  0  0  0  0  0  0  0
  151.2278  137.1281  156.6864 H   0  0  0  0  0  0  0  0  0  0  0  0
  149.9777  136.5205  155.6264 H   0  0  0  0  0  0  0  0  0  0  0  0
  151.8612  137.4717  154.3009 H   0  0  0  0  0  0  0  0  0  0  0  0
  152.3684  139.9094  154.4232 H   0  0  0  0  0  0  0  0  0  0  0  0
  152.6478  139.1481  155.9709 H   0  0  0  0  0  0  0  0  0  0  0  0
  149.5739  137.6430  153.3438 H   0  0  0  0  0  0  0  0  0  0  0  0
  150.5719  138.9976  152.8793 H   0  0  0  0  0  0  0  0  0  0  0  0
  147.6517  139.4197  156.0712 H   0  0  0  0  0  0  0  0  0  0  0  0
  147.8407  137.8951  155.2492 H   0  0  0  0  0  0  0  0  0  0  0  0
  1  2  1  0  0  0  0
  1 27  1  0  0  0  0
  1 28  1  0  0  0  0
  1 29  1  0  0  0  0
  2  3  1  0  0  0  0
  2 30  1  0  0  0  0
  2 31  1  0  0  0  0
  3  4  1  0  0  0  0
  3 16  1  0  0  0  0
  3 32  1  0  0  0  0
  4  5  1  0  0  0  0
  4 33  1  0  0  0  0
  5  6  2  0  0  0  0
  5  7  1  0  0  0  0
  7  8  1  0  0  0  0
  7 34  1  0  0  0  0
  7 35  1  0  0  0  0
  8 14  1  0  0  0  0
  8  9  1  0  0  0  0
  9 10  2  0  0  0  0
  9 36  1  0  0  0  0
 10 11  1  0  0  0  0
 10 37  1  0  0  0  0
 11 12  2  0  0  0  0
 11 13  1  0  0  0  0
 13 26  1  0  0  0  0
 13 14  1  0  0  0  0
 14 15  2  0  0  0  0
 16 24  1  0  0  0  0
 16 25  1  0  0  0  0
 16 17  1  0  0  0  0
 17 18  1  0  0  0  0
 17 38  1  0  0  0  0
 17 39  1  0  0  0  0
 18 23  1  0  0  0  0
 18 19  1  0  0  0  0
 18 40  1  0  0  0  0
 19 20  1  0  0  0  0
 19 41  1  0  0  0  0
 19 42  1  0  0  0  0
 20 21  1  0  0  0  0
 20 25  1  0  0  0  0
 20 43  1  0  0  0  0
 21 22  1  0  0  0  0
 21 44  1  0  0  0  0
 21 45  1  0  0  0  0
 22 23  1  0  0  0  0
 22 24  1  0  0  0  0
 22 46  1  0  0  0  0
 23 47  1  0  0  0  0
 23 48  1  0  0  0  0
 24 49  1  0  0  0  0
 24 50  1  0  0  0  0
 25 51  1  0  0  0  0
 25 52  1  0  0  0  0
M  END
> <s_m_source_file>
AV-unprocessed.smi

> <i_m_source_file_index>
1591

> <i_lp_mmshare_version>
43012

> <i_f3d_flags>
0

> <s_epik_input>
W0NIMl0xW0NASF0oW0NIMl0yKVtDSDJdW0NASF0oW0NIMl0zKVtDSDJdW0NAQEhdMVtDSDJdQzIzW0NASF0oW0NIMl1bQ0gzXSlbTkhdQyg9TylbQ0gyXW40W2NIXVtjSF1jKD1PKVtuSF1jND1P

> <s_epik_cmdline>
J2VwaWtfcHl0aG9uJywgJy1waCcsICc3LjAnLCAnLXRuJywgJzgnLCAnLW1hJywgJzIwMCcsICctbWV0YWxfYmluZGluZycsICctaW1hZScsICc8aW5maWxlLm1hZT4nLCAnLW9tYWUnLCAnPG91dGZpbGUubWFlPic=

> <r_lp_tautomer_probability>
0.999537

> <r_epik_Ionization_Penalty>
0.00297067

> <r_epik_Ionization_Penalty_Charging>
0.00297065

> <r_epik_Ionization_Penalty_Neutral>
1.95363e-08

> <r_epik_State_Penalty>
0.00208437

> <r_epik_Charging_Adjusted_Penalty>
0.00505502

> <i_epik_Tot_Q>
0

> <i_epik_Tot_abs_Q>
0

> <r_epik_Metal_State_Penalty>
0.36072

> <b_epik_Metal_Only>
0

> <s_lp_Force_Field>
OPLS_2005

> <r_lp_Energy>
39.079

> <b_lp_Chiralities_Consistent>
1

> <s_lp_Variant>
AV-unprocessed.smi:1591-1

> <Gold.Version>
5.8.1

> <Gold.Id.Protein>
6NUR|6NUR_protein|mol2

> <Gold.PLP.Fitness>
47.6621

> <Gold.PLP.PLP>
-37.5366

> <Gold.PLP.part.hbond>
-4.2643

> <Gold.PLP.part.metal>
0.0000

> <Gold.PLP.part.buried>
-0.7301

> <Gold.PLP.part.nonpolar>
-33.2176

> <Gold.PLP.part.repulsive>
0.4136

> <Gold.PLP.ligand.clash>
0.0000

> <Gold.PLP.ligand.torsion>
0.8448

> <Gold.PLP.Chemscore.Hbond>
1.9588

> <Gold.PLP.Chemscore.CHOScore>
1.8921

> <Gold.PLP.Chemscore.Metal>
0.0000

> <Gold.Chemscore.Hbonds>
donor molecule, donor type, donor heavy atom, donor atom, acceptor molecule, acceptor atom, score
      L1  H     4    33       P1  7948  0.01
      L1  H    13    26       P1 10957  0.86
      P1  H 11000 11005       L1    12  0.94
      L1  C     9    36       P1 10171  0.96
      L1  C     9    36       P1 10175  1.00

> <Gold.PLP.Chemscore.Internal.Correction>
0.2625

> <Gold.Rescore>
     Score         DG    S(hbond)    S(metal)    S(lipo)     H(rot)  DE(clash)    DE(int)     intcor
     14.33     -18.12       2.58        0.00      78.93       2.04       0.26       3.53       ----

> <Gold.Chemscore.Fitness>
14.3273

> <Gold.Chemscore.DG>
-18.1217

> <Gold.Chemscore.ZeroCoef>
-5.4800

> <Gold.Chemscore.Hbond>
2.5843

> <Gold.Chemscore.Metal>
0.0000

> <Gold.Chemscore.Lipo>
78.9287

> <Gold.Chemscore.Internal_Hbond>
0.0000

> <Gold.Chemscore.DEClash>
0.2603

> <Gold.Chemscore.DEInternal>
3.5341

> <Gold.Chemscore.Rot>
2.0409

> <Gold.Chemscore.Internal.Correction>
   9.000000E+99

> <Gold.Chemscore.Hbonds>
donor molecule, donor type, donor heavy atom, donor atom, acceptor molecule, acceptor atom, score
      L1  H     4    33       P1  7948  0.03
      L1  H    13    26       P1 10957  0.84
      P1  H 11000 11005       L1    12  0.89

> <Gold.Chemscore.Hbond.Weighted>
-8.6316

> <Gold.Chemscore.Metal.Weighted>
-0.0000

> <Gold.Chemscore.Lipo.Weighted>
-9.2347

> <Gold.Chemscore.Internal_Hbond.Weighted>
0.0000

> <Gold.Chemscore.DEClash.Weighted>
0.2603

> <Gold.Chemscore.DEInternal.Weighted>
3.5341

> <Gold.Chemscore.Rot.Weighted>
5.2246

> <Gold.Chemscore.Internal.Correction.Weighted>
   9.000000E+99

> <Gold.Protein.RotatedTorsions>
[ 6907 6896 6895 6894 ] final   64.54 input  -60.11 | X-H torsion
[ 7974 7965 7964 7962 ] final  133.97 input  175.53 | X-H torsion
[ 8008 7997 7996 7995 ] final  169.48 input   59.86 | X-H torsion
[ 10167 10162 10161 10158 ] final -107.87 input  -65.29 | X-H torsion
[ 10718 10713 10712 10709 ] final   97.64 input   66.30 | X-H torsion
[ 10763 10752 10751 10750 ] final -178.59 input  -60.55 | X-H torsion
[ 11005 11000 10999 10996 ] final   32.49 input  -57.11 | X-H torsion

> <Gold.Protein.ActiveResidues>
 VAL166  LYS551  ARG553  GLY616  TRP617  ASP618  TYR619  PRO620  LYS621  CYS622 
 ASP623  PHE694  ASN695  SER759  ASP760  ASP761  ALA762  ILE779  LEU786  VAL792 
 PHE793  MET794  SER795  GLU796  ALA797  LYS798  CYS799  TRP800  GLU811  SER814 

> <Gold.Protein.RotatedAtoms>
  152.4339  134.5724  159.9924 H   0  0  0  0  0  0  0  0  0  0  0  0  # atno 6907 bound_to 6896
  151.5840  133.3368  159.3022 H   0  0  0  0  0  0  0  0  0  0  0  0  # atno 6908 bound_to 6896
  150.8235  134.7490  159.6857 H   0  0  0  0  0  0  0  0  0  0  0  0  # atno 6909 bound_to 6896
  144.9811  139.4503  143.5385 H   0  0  0  0  0  0  0  0  0  0  0  0  # atno 7974 bound_to 7965
  156.1453  140.1563  156.8856 H   0  0  0  0  0  0  0  0  0  0  0  0  # atno 8008 bound_to 7997
  154.5023  140.0822  156.7861 H   0  0  0  0  0  0  0  0  0  0  0  0  # atno 8009 bound_to 7997
  155.4000  140.3414  155.4258 H   0  0  0  0  0  0  0  0  0  0  0  0  # atno 8010 bound_to 7997
  140.1722  143.4033  152.1345 H   0  0  0  0  0  0  0  0  0  0  0  0  # atno 10167 bound_to 10162
  157.6909  131.0615  150.4674 H   0  0  0  0  0  0  0  0  0  0  0  0  # atno 10718 bound_to 10713
  154.5458  135.2809  155.1054 H   0  0  0  0  0  0  0  0  0  0  0  0  # atno 10763 bound_to 10752
  154.2518  135.6338  153.5247 H   0  0  0  0  0  0  0  0  0  0  0  0  # atno 10764 bound_to 10752
  152.9990  135.5584  154.6010 H   0  0  0  0  0  0  0  0  0  0  0  0  # atno 10765 bound_to 10752
  140.2730  134.3061  155.7822 H   0  0  0  0  0  0  0  0  0  0  0  0  # atno 11005 bound_to 11000
  146.3408  139.9085  142.8784 LP  0  0  0  0  0  0  0  0  0  0  0  0  # atno 17320 bound_to 7965
  145.2419  141.0012  143.3931 LP  0  0  0  0  0  0  0  0  0  0  0  0  # atno 17321 bound_to 7965
  139.5333  144.7182  151.4981 LP  0  0  0  0  0  0  0  0  0  0  0  0  # atno 17342 bound_to 10162
  140.6574  143.8570  150.6850 LP  0  0  0  0  0  0  0  0  0  0  0  0  # atno 17343 bound_to 10162
  156.5014  130.4118  149.6351 LP  0  0  0  0  0  0  0  0  0  0  0  0  # atno 17370 bound_to 10713
  156.3324  130.7339  151.2270 LP  0  0  0  0  0  0  0  0  0  0  0  0  # atno 17371 bound_to 10713
  141.2174  133.7478  156.9363 LP  0  0  0  0  0  0  0  0  0  0  0  0  # atno 17394 bound_to 11000
  140.1355  134.9328  157.2396 LP  0  0  0  0  0  0  0  0  0  0  0  0  # atno 17395 bound_to 11000

$$$$
