AV-unprocessed.smi:3068|AV-procd|sdf|11701|dock9
  -GOLD-   2272017103D 1   1.00000     0.00000
 Structure written by MMmdl.
 40 42  0  0  0  0  0  0  0  0  2 V2000
  149.7019  136.2850  159.2258 N   0  0  0  0  0  0  0  0  0  0  0  0
  149.6934  136.7982  158.1885 C   0  0  0  0  0  0  0  0  0  0  0  0
  149.6821  137.4435  156.8818 C   0  0  0  0  0  0  0  0  0  0  0  0
  150.6998  138.2949  156.6165 N   0  0  0  0  0  0  0  0  0  0  0  0
  150.7024  138.8988  155.4092 C   0  0  0  0  0  0  0  0  0  0  0  0
  149.6894  138.6568  154.4613 C   0  0  0  0  0  0  0  0  0  0  0  0
  148.6695  137.8103  154.7178 N   0  0  0  0  0  0  0  0  0  0  0  0
  148.6544  137.1965  155.9278 C   0  0  0  0  0  0  0  0  0  0  0  0
  147.5973  136.3111  156.2105 N   0  0  0  0  0  0  0  0  0  0  0  0
  146.3298  136.3657  155.4916 C   0  0  0  0  0  0  0  0  0  0  0  0
  146.5117  136.2468  153.9689 C   0  0  1  0  0  0  0  0  0  0  0  0
  146.5627  134.7765  153.5168 C   0  0  0  0  0  0  0  0  0  0  0  0
  146.6467  134.6876  152.0379 N   0  3  1  0  0  0  0  0  0  0  0  0
  146.7558  133.2973  151.5239 C   0  0  0  0  0  0  0  0  0  0  0  0
  145.4132  132.5439  151.5906 C   0  0  0  0  0  0  0  0  0  0  0  0
  144.3040  133.3276  150.8757 C   0  0  0  0  0  0  0  0  0  0  0  0
  144.2118  134.7550  151.4336 C   0  0  0  0  0  0  0  0  0  0  0  0
  145.5783  135.4713  151.3585 C   0  0  1  0  0  0  0  0  0  0  0  0
  145.5301  136.9046  151.9229 C   0  0  0  0  0  0  0  0  0  0  0  0
  145.3985  136.8714  153.3385 O   0  0  0  0  0  0  0  0  0  0  0  0
  151.5151  139.5783  155.1993 H   0  0  0  0  0  0  0  0  0  0  0  0
  149.6968  139.1429  153.4971 H   0  0  0  0  0  0  0  0  0  0  0  0
  147.6744  135.6844  156.9993 H   0  0  0  0  0  0  0  0  0  0  0  0
  145.6702  135.5785  155.8585 H   0  0  0  0  0  0  0  0  0  0  0  0
  145.8376  137.3081  155.7333 H   0  0  0  0  0  0  0  0  0  0  0  0
  147.4337  136.7472  153.6680 H   0  0  0  0  0  0  0  0  0  0  0  0
  147.4317  134.2853  153.9564 H   0  0  0  0  0  0  0  0  0  0  0  0
  145.6827  134.2463  153.8815 H   0  0  0  0  0  0  0  0  0  0  0  0
  147.0931  133.3425  150.4876 H   0  0  0  0  0  0  0  0  0  0  0  0
  147.5266  132.7559  152.0737 H   0  0  0  0  0  0  0  0  0  0  0  0
  145.5202  131.5583  151.1369 H   0  0  0  0  0  0  0  0  0  0  0  0
  145.1300  132.3699  152.6289 H   0  0  0  0  0  0  0  0  0  0  0  0
  144.5115  133.3634  149.8054 H   0  0  0  0  0  0  0  0  0  0  0  0
  143.3481  132.8159  150.9907 H   0  0  0  0  0  0  0  0  0  0  0  0
  143.4658  135.3176  150.8711 H   0  0  0  0  0  0  0  0  0  0  0  0
  143.8540  134.7236  152.4632 H   0  0  0  0  0  0  0  0  0  0  0  0
  145.8531  135.5433  150.3050 H   0  0  0  0  0  0  0  0  0  0  0  0
  146.4311  137.4569  151.6506 H   0  0  0  0  0  0  0  0  0  0  0  0
  144.6889  137.4538  151.4992 H   0  0  0  0  0  0  0  0  0  0  0  0
  147.5170  135.1402  151.7969 H   0  0  0  0  0  0  0  0  0  0  0  0
  1  2  3  0  0  0  0
  2  3  1  0  0  0  0
  3  8  1  0  0  0  0
  3  4  2  0  0  0  0
  4  5  1  0  0  0  0
  5  6  2  0  0  0  0
  5 21  1  0  0  0  0
  6  7  1  0  0  0  0
  6 22  1  0  0  0  0
  7  8  2  0  0  0  0
  8  9  1  0  0  0  0
  9 10  1  0  0  0  0
  9 23  1  0  0  0  0
 10 11  1  0  0  0  0
 10 24  1  0  0  0  0
 10 25  1  0  0  0  0
 11 20  1  0  0  0  0
 11 12  1  0  0  0  0
 11 26  1  0  0  0  0
 12 13  1  0  0  0  0
 12 27  1  0  0  0  0
 12 28  1  0  0  0  0
 13 18  1  0  0  0  0
 13 14  1  0  0  0  0
 13 40  1  0  0  0  0
 14 15  1  0  0  0  0
 14 29  1  0  0  0  0
 14 30  1  0  0  0  0
 15 16  1  0  0  0  0
 15 31  1  0  0  0  0
 15 32  1  0  0  0  0
 16 17  1  0  0  0  0
 16 33  1  0  0  0  0
 16 34  1  0  0  0  0
 17 18  1  0  0  0  0
 17 35  1  0  0  0  0
 17 36  1  0  0  0  0
 18 19  1  0  0  0  0
 18 37  1  0  0  0  0
 19 20  1  0  0  0  0
 19 38  1  0  0  0  0
 19 39  1  0  0  0  0
M  CHG  1  13   1
M  END
> <s_m_source_file>
AV-unprocessed.smi

> <i_m_source_file_index>
3068

> <i_lp_mmshare_version>
43012

> <i_f3d_flags>
0

> <s_epik_input>
TiNDYzFuW2NIXVtjSF1uYzFbTkhdW0NIMl1bQ0BIXShbQ0gyXTIpT1tDSDJdW0NAQEhdKE4yMylbQ0gyXVtDSDJdW0NIMl1bQ0gyXTM=

> <s_epik_cmdline>
J2VwaWtfcHl0aG9uJywgJy1waCcsICc3LjAnLCAnLXRuJywgJzgnLCAnLW1hJywgJzIwMCcsICctbWV0YWxfYmluZGluZycsICctaW1hZScsICc8aW5maWxlLm1hZT4nLCAnLW9tYWUnLCAnPG91dGZpbGUubWFlPic=

> <r_epik_Ionization_Penalty>
0.0804321

> <r_epik_Ionization_Penalty_Charging>
0.0803403

> <r_epik_Ionization_Penalty_Neutral>
9.17277e-05

> <r_epik_State_Penalty>
0.0711481

> <r_epik_Charging_Adjusted_Penalty>
0.151488

> <i_epik_Tot_Q>
1

> <i_epik_Tot_abs_Q>
1

> <r_epik_Metal_State_Penalty>
0.0711481

> <b_epik_Metal_Only>
0

> <s_lp_Force_Field>
OPLS_2005

> <r_lp_Energy>
39.2156

> <b_lp_Chiralities_Consistent>
1

> <s_lp_Variant>
AV-unprocessed.smi:3068-4

> <Gold.Version>
5.8.1

> <Gold.Id.Protein>
6NUR|6NUR_protein|mol2

> <Gold.PLP.Fitness>
34.1078

> <Gold.PLP.PLP>
-22.8975

> <Gold.PLP.part.hbond>
-2.0000

> <Gold.PLP.part.metal>
0.0000

> <Gold.PLP.part.buried>
-2.7468

> <Gold.PLP.part.nonpolar>
-18.4087

> <Gold.PLP.part.repulsive>
0.3383

> <Gold.PLP.ligand.clash>
0.0000

> <Gold.PLP.ligand.torsion>
0.3950

> <Gold.PLP.Chemscore.Hbond>
3.0000

> <Gold.PLP.Chemscore.CHOScore>
1.0000

> <Gold.PLP.Chemscore.Metal>
0.0000

> <Gold.Chemscore.Hbonds>
donor molecule, donor type, donor heavy atom, donor atom, acceptor molecule, acceptor atom, score
      L1  H    13    40       P1  7948  2.00
      P1  H  6896  6908       L1     1  1.00
      L1  C     6    22       P1  7957  1.00

> <Gold.PLP.Chemscore.Internal.Correction>
0.0003

> <Gold.Rescore>
     Score         DG    S(hbond)    S(metal)    S(lipo)     H(rot)  DE(clash)    DE(int)     intcor
     13.19     -14.97       1.94        0.00      54.62       1.32       0.02       1.77       ----

> <Gold.Chemscore.Fitness>
13.1880

> <Gold.Chemscore.DG>
-14.9747

> <Gold.Chemscore.ZeroCoef>
-5.4800

> <Gold.Chemscore.Hbond>
1.9404

> <Gold.Chemscore.Metal>
0.0000

> <Gold.Chemscore.Lipo>
54.6242

> <Gold.Chemscore.Internal_Hbond>
0.0000

> <Gold.Chemscore.DEClash>
0.0155

> <Gold.Chemscore.DEInternal>
1.7711

> <Gold.Chemscore.Rot>
1.3193

> <Gold.Chemscore.Internal.Correction>
   9.000000E+99

> <Gold.Chemscore.Hbonds>
donor molecule, donor type, donor heavy atom, donor atom, acceptor molecule, acceptor atom, score
      L1  H    13    40       P1  7948  0.88
      P1  H  6896  6908       L1     1  0.98

> <Gold.Chemscore.Hbond.Weighted>
-6.4810

> <Gold.Chemscore.Metal.Weighted>
-0.0000

> <Gold.Chemscore.Lipo.Weighted>
-6.3910

> <Gold.Chemscore.Internal_Hbond.Weighted>
0.0000

> <Gold.Chemscore.DEClash.Weighted>
0.0155

> <Gold.Chemscore.DEInternal.Weighted>
1.7711

> <Gold.Chemscore.Rot.Weighted>
3.3774

> <Gold.Chemscore.Internal.Correction.Weighted>
   9.000000E+99

> <Gold.Protein.RotatedTorsions>
[ 6907 6896 6895 6894 ] final -152.14 input  -60.11 | X-H torsion
[ 7974 7965 7964 7962 ] final  -45.10 input  175.53 | X-H torsion
[ 8008 7997 7996 7995 ] final  -90.45 input   59.86 | X-H torsion
[ 10167 10162 10161 10158 ] final  -53.88 input  -65.29 | X-H torsion
[ 10718 10713 10712 10709 ] final   38.33 input   66.30 | X-H torsion
[ 10763 10752 10751 10750 ] final  174.45 input  -60.55 | X-H torsion
[ 11005 11000 10999 10996 ] final  172.27 input  -57.11 | X-H torsion

> <Gold.Protein.ActiveResidues>
 VAL166  LYS551  ARG553  GLY616  TRP617  ASP618  TYR619  PRO620  LYS621  CYS622 
 ASP623  PHE694  ASN695  SER759  ASP760  ASP761  ALA762  ILE779  LEU786  VAL792 
 PHE793  MET794  SER795  GLU796  ALA797  LYS798  CYS799  TRP800  GLU811  SER814 

> <Gold.Protein.RotatedAtoms>
  151.2234  133.4490  159.2601 H   0  0  0  0  0  0  0  0  0  0  0  0  # atno 6907 bound_to 6896
  151.0863  134.9889  159.8391 H   0  0  0  0  0  0  0  0  0  0  0  0  # atno 6908 bound_to 6896
  152.5430  134.2171  159.8825 H   0  0  0  0  0  0  0  0  0  0  0  0  # atno 6909 bound_to 6896
  145.9855  140.7238  142.9343 H   0  0  0  0  0  0  0  0  0  0  0  0  # atno 7974 bound_to 7965
  154.6987  140.0530  157.0437 H   0  0  0  0  0  0  0  0  0  0  0  0  # atno 8008 bound_to 7997
  155.0714  140.3200  155.4610 H   0  0  0  0  0  0  0  0  0  0  0  0  # atno 8009 bound_to 7997
  156.2753  140.2081  156.5842 H   0  0  0  0  0  0  0  0  0  0  0  0  # atno 8010 bound_to 7997
  140.6461  143.2536  151.4856 H   0  0  0  0  0  0  0  0  0  0  0  0  # atno 10167 bound_to 10162
  157.3575  130.7632  149.7023 H   0  0  0  0  0  0  0  0  0  0  0  0  # atno 10718 bound_to 10713
  154.4540  135.2765  155.1760 H   0  0  0  0  0  0  0  0  0  0  0  0  # atno 10763 bound_to 10752
  154.3575  135.6136  153.5677 H   0  0  0  0  0  0  0  0  0  0  0  0  # atno 10764 bound_to 10752
  152.9849  135.5826  154.4890 H   0  0  0  0  0  0  0  0  0  0  0  0  # atno 10765 bound_to 10752
  140.3279  134.7382  157.4113 H   0  0  0  0  0  0  0  0  0  0  0  0  # atno 11005 bound_to 11000
  144.6873  140.2980  143.7267 LP  0  0  0  0  0  0  0  0  0  0  0  0  # atno 17320 bound_to 7965
  145.7707  139.1856  143.2214 LP  0  0  0  0  0  0  0  0  0  0  0  0  # atno 17321 bound_to 7965
  139.5671  144.2015  152.1782 LP  0  0  0  0  0  0  0  0  0  0  0  0  # atno 17342 bound_to 10162
  140.1300  144.5296  150.6808 LP  0  0  0  0  0  0  0  0  0  0  0  0  # atno 17343 bound_to 10162
  155.9732  130.4123  150.4025 LP  0  0  0  0  0  0  0  0  0  0  0  0  # atno 17370 bound_to 10713
  157.2097  131.0457  151.2606 LP  0  0  0  0  0  0  0  0  0  0  0  0  # atno 17371 bound_to 10713
  140.0886  134.5633  155.8467 LP  0  0  0  0  0  0  0  0  0  0  0  0  # atno 17394 bound_to 11000
  141.2071  133.6661  156.6282 LP  0  0  0  0  0  0  0  0  0  0  0  0  # atno 17395 bound_to 11000

$$$$
