#       Name:                AV-unprocessed.smi:2649
#       Creating user name   scv26
#       Creation time:       Fri Mar 27 14:30:24 2020


#       File generated by GOLD software.
#

@<TRIPOS>MOLECULE
AV-unprocessed.smi:2649
    41    42     1
SMALL
NO_CHARGES


@<TRIPOS>ATOM
      1 ****        -3.2116   2.5268  -2.0109 C.3            1 S1                 0.0000
      2 ****        -3.8133   1.4986  -3.3786 S.3            1 S1                 0.0000
      3 ****        -3.2818  -0.1528  -2.8331 C.3            1 S1                 0.0000
      4 ****        -1.7654  -0.2440  -2.7698 C.ar           1 S1                 0.0000
      5 ****        -1.2305  -0.1490  -1.5321 N.ar           1 S1                 0.0000
      6 ****         0.1144  -0.2103  -1.3762 C.ar           1 S1                 0.0000
      7 ****         0.7646  -0.1134  -0.1180 N.am           1 S1                 0.0000
      8 ****         0.2141   0.0878   1.0952 C.2            1 S1                 0.0000
      9 ****        -0.9900   0.2622   1.2884 O.2            1 S1                 0.0000
     10 ****         1.1905   0.1267   2.2812 C.3            1 S1                 0.0000
     11 ****         0.5433  -0.3546   3.6008 C.3            1 S1                 0.0000
     12 ****         1.5131  -0.3288   4.6400 O.3            1 S1                 0.0000
     13 ****         2.6180  -1.1695   4.3395 C.3            1 S1                 0.0000
     14 ****         3.2735  -0.6826   3.0375 C.3            1 S1                 0.0000
     15 ****         2.3081  -0.7126   1.9950 O.3            1 S1                 0.0000
     16 ****         0.9721  -0.3826  -2.4844 C.ar           1 S1                 0.0000
     17 ****         0.4208  -0.4883  -3.7754 C.ar           1 S1                 0.0000
     18 ****        -0.9759  -0.4184  -3.9292 C.ar           1 S1                 0.0000
     19 ****        -1.6738  -0.5481  -5.5050 Cl             1 S1                 0.0000
     20 ****        -3.5419   3.5568  -2.1451 H              1 S1                 0.0000
     21 ****        -2.1224   2.5208  -1.9720 H              1 S1                 0.0000
     22 ****        -3.5977   2.1606  -1.0594 H              1 S1                 0.0000
     23 ****        -3.7203  -0.3652  -1.8569 H              1 S1                 0.0000
     24 ****        -3.6711  -0.9035  -3.5212 H              1 S1                 0.0000
     25 ****         1.7685  -0.2197  -0.1357 H              1 S1                 0.0000
     26 ****         1.5329   1.1570   2.3924 H              1 S1                 0.0000
     27 ****        -0.2814   0.2983   3.8882 H              1 S1                 0.0000
     28 ****         0.1350  -1.3615   3.4966 H              1 S1                 0.0000
     29 ****         3.3317  -1.1281   5.1625 H              1 S1                 0.0000
     30 ****         2.2910  -2.2065   4.2480 H              1 S1                 0.0000
     31 ****         3.6717   0.3263   3.1548 H              1 S1                 0.0000
     32 ****         4.1086  -1.3293   2.7683 H              1 S1                 0.0000
     33 ****         2.0431  -0.4333  -2.3518 H              1 S1                 0.0000
     34 ****         1.0622  -0.6207  -4.6341 H              1 S1                 0.0000
     35 ****        -1.8241  -0.0341  -0.7355 LP             1 S1                 0.0000
     36 ****        -1.6257   0.2599   0.5165 LP             1 S1                 0.0000
     37 ****        -1.3317   0.4061   2.2172 LP             1 S1                 0.0000
     38 ****         1.0880  -0.6415   5.4894 LP             1 S1                 0.0000
     39 ****         1.8401   0.6090   4.7565 LP             1 S1                 0.0000
     40 ****         2.7377  -0.4012   1.1474 LP             1 S1                 0.0000
     41 ****         1.9858  -1.6522   1.8797 LP             1 S1                 0.0000
@<TRIPOS>BOND
    1    1    2 1     
    2    1   20 1     
    3    1   21 1     
    4    1   22 1     
    5    2    3 1     
    6    3    4 1     
    7    3   23 1     
    8    3   24 1     
    9    4   18 ar    
   10    4    5 ar    
   11    5    6 ar    
   12    6    7 1     
   13    6   16 ar    
   14    7    8 am    
   15    7   25 1     
   16    8    9 2     
   17    8   10 1     
   18   10   15 1     
   19   10   11 1     
   20   10   26 1     
   21   11   12 1     
   22   11   27 1     
   23   11   28 1     
   24   12   13 1     
   25   13   14 1     
   26   13   29 1     
   27   13   30 1     
   28   14   15 1     
   29   14   31 1     
   30   14   32 1     
   31   16   17 ar    
   32   16   33 1     
   33   17   18 ar    
   34   17   34 1     
   35   18   19 1     
   36    5   35 1     
   37    9   36 1     
   38    9   37 1     
   39   12   38 1     
   40   12   39 1     
   41   15   40 1     
   42   15   41 1     
@<TRIPOS>SUBSTRUCTURE
      1 S1             1
@<TRIPOS>SET
LONE_PAIRS      STATIC     ATOMS    <user>   **** ""
7 35 36 37 38 39 40 41
DONOR_HYDROGENS      STATIC     ATOMS    <user>   **** ""
1 25
ATOM$BLUE        STATIC     ATOMS    COLORGROUP SYSTEM
7 35 36 37 38 39 40 41
ATOM$RED        STATIC     ATOMS    COLORGROUP SYSTEM
1 25
