AV-unprocessed.smi:1414|AV-procd|sdf|5761|dock9
  -GOLD-   22720 5403D 1   1.00000     0.00000
 Structure written by MMmdl.
 45 46  0  0  0  0  0  0  0  0  1 V2000
  153.5903  138.0870  155.5695 C   0  0  0  0  0  0  0  0  0  0  0  0
  152.2236  138.6934  155.9051 C   0  0  2  0  0  0  0  0  0  0  0  0
  151.3592  138.9037  154.6460 C   0  0  0  0  0  0  0  0  0  0  0  0
  150.1173  139.6278  154.9657 N   0  0  0  0  0  0  0  0  0  0  0  0
  148.6116  138.7643  155.0683 S   0  0  0  0  0  0  0  0  0  0  0  0
  148.9055  137.3280  154.9479 O   0  0  0  0  0  0  0  0  0  0  0  0
  147.8868  139.2569  156.2498 O   0  0  0  0  0  0  0  0  0  0  0  0
  147.6867  139.2889  153.5637 C   0  0  0  0  0  0  0  0  0  0  0  0
  146.3615  138.5220  153.4436 C   0  0  0  0  0  0  0  0  0  0  0  0
  146.5482  137.2211  152.8104 N   0  0  0  0  0  0  0  0  0  0  0  0
  145.5672  136.3477  152.5424 C   0  0  0  0  0  0  0  0  0  0  0  0
  144.3836  136.5574  152.8064 O   0  0  0  0  0  0  0  0  0  0  0  0
  146.0532  135.2319  151.9715 N   0  0  0  0  0  0  0  0  0  0  0  0
  145.3469  134.0802  151.5287 C   0  0  0  0  0  0  0  0  0  0  0  0
  145.9384  132.9985  150.8317 C   0  0  0  0  0  0  0  0  0  0  0  0
  145.1313  131.9056  150.4616 C   0  0  0  0  0  0  0  0  0  0  0  0
  143.7661  131.9298  150.8063 C   0  0  0  0  0  0  0  0  0  0  0  0
  143.1918  132.9471  151.4821 N   0  0  0  0  0  0  0  0  0  0  0  0
  143.9721  133.9911  151.8344 C   0  0  0  0  0  0  0  0  0  0  0  0
  150.3259  140.8366  155.7800 C   0  0  0  0  0  0  0  0  0  0  0  0
  151.2300  140.5414  156.9930 C   0  0  2  0  0  0  0  0  0  0  0  0
  151.5853  141.8145  157.7685 C   0  0  0  0  0  0  0  0  0  0  0  0
  152.4401  139.9433  156.5469 O   0  0  0  0  0  0  0  0  0  0  0  0
  153.4805  137.1169  155.0846 H   0  0  0  0  0  0  0  0  0  0  0  0
  154.1835  137.9413  156.4725 H   0  0  0  0  0  0  0  0  0  0  0  0
  154.1566  138.7347  154.8997 H   0  0  0  0  0  0  0  0  0  0  0  0
  151.7187  138.0216  156.5990 H   0  0  0  0  0  0  0  0  0  0  0  0
  151.9147  139.4913  153.9140 H   0  0  0  0  0  0  0  0  0  0  0  0
  151.1329  137.9494  154.1708 H   0  0  0  0  0  0  0  0  0  0  0  0
  147.5007  140.3594  153.6348 H   0  0  0  0  0  0  0  0  0  0  0  0
  148.3147  139.1068  152.6929 H   0  0  0  0  0  0  0  0  0  0  0  0
  145.9379  138.3582  154.4346 H   0  0  0  0  0  0  0  0  0  0  0  0
  145.6290  139.1081  152.8860 H   0  0  0  0  0  0  0  0  0  0  0  0
  147.4942  136.9650  152.5673 H   0  0  0  0  0  0  0  0  0  0  0  0
  147.0579  135.1788  151.8895 H   0  0  0  0  0  0  0  0  0  0  0  0
  146.9884  132.9758  150.5865 H   0  0  0  0  0  0  0  0  0  0  0  0
  145.5510  131.0656  149.9283 H   0  0  0  0  0  0  0  0  0  0  0  0
  143.1199  131.1074  150.5373 H   0  0  0  0  0  0  0  0  0  0  0  0
  143.4793  134.7851  152.3765 H   0  0  0  0  0  0  0  0  0  0  0  0
  150.7930  141.5940  155.1495 H   0  0  0  0  0  0  0  0  0  0  0  0
  149.3699  141.2479  156.1036 H   0  0  0  0  0  0  0  0  0  0  0  0
  150.7278  139.8578  157.6777 H   0  0  0  0  0  0  0  0  0  0  0  0
  150.6888  142.3100  158.1418 H   0  0  0  0  0  0  0  0  0  0  0  0
  152.1231  142.5240  157.1389 H   0  0  0  0  0  0  0  0  0  0  0  0
  152.2185  141.5838  158.6253 H   0  0  0  0  0  0  0  0  0  0  0  0
  1  2  1  0  0  0  0
  1 24  1  0  0  0  0
  1 25  1  0  0  0  0
  1 26  1  0  0  0  0
  2 23  1  0  0  0  0
  2  3  1  0  0  0  0
  2 27  1  0  0  0  0
  3  4  1  0  0  0  0
  3 28  1  0  0  0  0
  3 29  1  0  0  0  0
  4  5  1  0  0  0  0
  4 20  1  0  0  0  0
  5  6  2  0  0  0  0
  5  7  2  0  0  0  0
  5  8  1  0  0  0  0
  8  9  1  0  0  0  0
  8 30  1  0  0  0  0
  8 31  1  0  0  0  0
  9 10  1  0  0  0  0
  9 32  1  0  0  0  0
  9 33  1  0  0  0  0
 10 11  1  0  0  0  0
 10 34  1  0  0  0  0
 11 12  2  0  0  0  0
 11 13  1  0  0  0  0
 13 14  1  0  0  0  0
 13 35  1  0  0  0  0
 14 19  1  0  0  0  0
 14 15  2  0  0  0  0
 15 16  1  0  0  0  0
 15 36  1  0  0  0  0
 16 17  2  0  0  0  0
 16 37  1  0  0  0  0
 17 18  1  0  0  0  0
 17 38  1  0  0  0  0
 18 19  2  0  0  0  0
 19 39  1  0  0  0  0
 20 21  1  0  0  0  0
 20 40  1  0  0  0  0
 20 41  1  0  0  0  0
 21 22  1  0  0  0  0
 21 23  1  0  0  0  0
 21 42  1  0  0  0  0
 22 43  1  0  0  0  0
 22 44  1  0  0  0  0
 22 45  1  0  0  0  0
M  END
> <s_m_source_file>
AV-unprocessed.smi

> <i_m_source_file_index>
1414

> <i_lp_mmshare_version>
43012

> <i_f3d_flags>
0

> <s_epik_input>
W0NIM11bQ0BASF0xW0NIMl1OKFtDSDJdW0NASF0oTzEpW0NIM10pUyg9TykoPU8pW0NIMl1bQ0gyXVtOSF1DKD1PKVtOSF1jMltjSF1bY0hdW2NIXW5bY0hdMg==

> <s_epik_cmdline>
J2VwaWtfcHl0aG9uJywgJy1waCcsICc3LjAnLCAnLXRuJywgJzgnLCAnLW1hJywgJzIwMCcsICctbWV0YWxfYmluZGluZycsICctaW1hZScsICc8aW5maWxlLm1hZT4nLCAnLW9tYWUnLCAnPG91dGZpbGUubWFlPic=

> <r_epik_Ionization_Penalty>
0.00437531

> <r_epik_Ionization_Penalty_Charging>
0

> <r_epik_Ionization_Penalty_Neutral>
0.00437531

> <r_epik_State_Penalty>
0.00312896

> <r_epik_Charging_Adjusted_Penalty>
0.00312896

> <i_epik_Tot_Q>
0

> <i_epik_Tot_abs_Q>
0

> <r_epik_Metal_State_Penalty>
-0

> <b_epik_Metal_Only>
0

> <s_lp_Force_Field>
OPLS_2005

> <r_lp_Energy>
4.57438

> <b_lp_Chiralities_Consistent>
1

> <s_lp_Variant>
AV-unprocessed.smi:1414-2

> <Gold.Version>
5.8.1

> <Gold.Id.Protein>
6NUR|6NUR_protein|mol2

> <Gold.PLP.Fitness>
46.8162

> <Gold.PLP.PLP>
-35.6983

> <Gold.PLP.part.hbond>
-3.0000

> <Gold.PLP.part.metal>
0.0000

> <Gold.PLP.part.buried>
-1.4197

> <Gold.PLP.part.nonpolar>
-33.4133

> <Gold.PLP.part.repulsive>
1.9419

> <Gold.PLP.ligand.clash>
0.0000

> <Gold.PLP.ligand.torsion>
1.2265

> <Gold.PLP.Chemscore.Hbond>
2.9920

> <Gold.PLP.Chemscore.CHOScore>
0.8212

> <Gold.PLP.Chemscore.Metal>
0.0000

> <Gold.Chemscore.Hbonds>
donor molecule, donor type, donor heavy atom, donor atom, acceptor molecule, acceptor atom, score
      L1  H    10    34       P1  7948  1.00
      L1  H    13    35       P1  7948  0.73
      P1  H  7997  8008       L1    23  1.00
      L1  C    17    38       P1 10952  0.81

> <Gold.PLP.Chemscore.Internal.Correction>
2.1313

> <Gold.Rescore>
     Score         DG    S(hbond)    S(metal)    S(lipo)     H(rot)  DE(clash)    DE(int)     intcor
     18.30     -21.62       2.80        0.00      92.29       1.57       0.71       2.61       ----

> <Gold.Chemscore.Fitness>
18.3019

> <Gold.Chemscore.DG>
-21.6151

> <Gold.Chemscore.ZeroCoef>
-5.4800

> <Gold.Chemscore.Hbond>
2.8004

> <Gold.Chemscore.Metal>
0.0000

> <Gold.Chemscore.Lipo>
92.2882

> <Gold.Chemscore.Internal_Hbond>
0.0000

> <Gold.Chemscore.DEClash>
0.7053

> <Gold.Chemscore.DEInternal>
2.6080

> <Gold.Chemscore.Rot>
1.5687

> <Gold.Chemscore.Internal.Correction>
   9.000000E+99

> <Gold.Chemscore.Hbonds>
donor molecule, donor type, donor heavy atom, donor atom, acceptor molecule, acceptor atom, score
      L1  H    10    34       P1  7948  1.00
      L1  H    13    35       P1  7948  0.69
      P1  H  7997  8008       L1    23  0.35

> <Gold.Chemscore.Hbond.Weighted>
-9.3534

> <Gold.Chemscore.Metal.Weighted>
-0.0000

> <Gold.Chemscore.Lipo.Weighted>
-10.7977

> <Gold.Chemscore.Internal_Hbond.Weighted>
0.0000

> <Gold.Chemscore.DEClash.Weighted>
0.7053

> <Gold.Chemscore.DEInternal.Weighted>
2.6080

> <Gold.Chemscore.Rot.Weighted>
4.0160

> <Gold.Chemscore.Internal.Correction.Weighted>
   9.000000E+99

> <Gold.Protein.RotatedTorsions>
[ 6907 6896 6895 6894 ] final  123.40 input  -60.11 | X-H torsion
[ 7974 7965 7964 7962 ] final   76.86 input  175.53 | X-H torsion
[ 8008 7997 7996 7995 ] final  -44.93 input   59.86 | X-H torsion
[ 10167 10162 10161 10158 ] final  167.49 input  -65.29 | X-H torsion
[ 10718 10713 10712 10709 ] final  -45.99 input   66.30 | X-H torsion
[ 10763 10752 10751 10750 ] final -134.29 input  -60.55 | X-H torsion
[ 11005 11000 10999 10996 ] final  -32.64 input  -57.11 | X-H torsion

> <Gold.Protein.ActiveResidues>
 VAL166  LYS551  ARG553  GLY616  TRP617  ASP618  TYR619  PRO620  LYS621  CYS622 
 ASP623  PHE694  ASN695  SER759  ASP760  ASP761  ALA762  ILE779  LEU786  VAL792 
 PHE793  MET794  SER795  GLU796  ALA797  LYS798  CYS799  TRP800  GLU811  SER814 

> <Gold.Protein.RotatedAtoms>
  152.4164  133.7045  159.6442 H   0  0  0  0  0  0  0  0  0  0  0  0  # atno 6907 bound_to 6896
  150.8041  133.8531  159.3220 H   0  0  0  0  0  0  0  0  0  0  0  0  # atno 6908 bound_to 6896
  151.6260  135.1029  160.0163 H   0  0  0  0  0  0  0  0  0  0  0  0  # atno 6909 bound_to 6896
  145.6974  139.2571  143.1725 H   0  0  0  0  0  0  0  0  0  0  0  0  # atno 7974 bound_to 7965
  154.3999  140.1409  156.3764 H   0  0  0  0  0  0  0  0  0  0  0  0  # atno 8008 bound_to 7997
  155.8044  140.3475  155.5401 H   0  0  0  0  0  0  0  0  0  0  0  0  # atno 8009 bound_to 7997
  155.8450  140.0932  157.1701 H   0  0  0  0  0  0  0  0  0  0  0  0  # atno 8010 bound_to 7997
  139.4946  144.3915  151.9511 H   0  0  0  0  0  0  0  0  0  0  0  0  # atno 10167 bound_to 10162
  156.2228  130.4167  149.8972 H   0  0  0  0  0  0  0  0  0  0  0  0  # atno 10718 bound_to 10713
  154.8721  135.3739  154.4711 H   0  0  0  0  0  0  0  0  0  0  0  0  # atno 10763 bound_to 10752
  153.5371  135.7027  153.5659 H   0  0  0  0  0  0  0  0  0  0  0  0  # atno 10764 bound_to 10752
  153.3838  135.3990  155.1840 H   0  0  0  0  0  0  0  0  0  0  0  0  # atno 10765 bound_to 10752
  140.9569  133.7187  156.1307 H   0  0  0  0  0  0  0  0  0  0  0  0  # atno 11005 bound_to 11000
  146.0828  140.7745  142.9633 LP  0  0  0  0  0  0  0  0  0  0  0  0  # atno 17320 bound_to 7965
  144.6978  140.3515  143.7181 LP  0  0  0  0  0  0  0  0  0  0  0  0  # atno 17321 bound_to 7965
  140.3353  144.3268  150.5978 LP  0  0  0  0  0  0  0  0  0  0  0  0  # atno 17342 bound_to 10162
  140.5611  143.2192  151.7763 LP  0  0  0  0  0  0  0  0  0  0  0  0  # atno 17343 bound_to 10162
  156.6613  130.8783  151.3548 LP  0  0  0  0  0  0  0  0  0  0  0  0  # atno 17370 bound_to 10713
  157.7095  130.9424  150.1043 LP  0  0  0  0  0  0  0  0  0  0  0  0  # atno 17371 bound_to 10713
  140.7523  134.4031  157.5539 LP  0  0  0  0  0  0  0  0  0  0  0  0  # atno 17394 bound_to 11000
  139.8865  134.8908  156.2581 LP  0  0  0  0  0  0  0  0  0  0  0  0  # atno 17395 bound_to 11000

$$$$
