#       Name:                AV-unprocessed.smi:3323
#       Creating user name   scv26
#       Creation time:       Fri Mar 27 19:12:20 2020


#       File generated by GOLD software.
#

@<TRIPOS>MOLECULE
AV-unprocessed.smi:3323
    42    43     1
SMALL
NO_CHARGES


@<TRIPOS>ATOM
      1 ****        -2.4752  -2.5373   0.2210 C.3            1 S1                 0.0000
      2 ****        -1.8967  -1.7256  -0.9428 C.3            1 S1                 0.0000
      3 ****        -2.0748  -0.2092  -0.7329 C.3            1 S1                 0.0000
      4 ****        -1.5572   0.5971  -1.9411 C.3            1 S1                 0.0000
      5 ****        -0.0157   0.6554  -2.0572 C.3            1 S1                 0.0000
      6 ****         0.6028   1.2963  -0.8995 N.am           1 S1                 0.0000
      7 ****         1.2511   0.6627   0.0889 C.2            1 S1                 0.0000
      8 ****         1.4153  -0.5564   0.1203 O.2            1 S1                 0.0000
      9 ****         1.6870   1.5343   1.0151 N.am           1 S1                 0.0000
     10 ****         2.3873   1.2850   2.2277 C.ar           1 S1                 0.0000
     11 ****         2.5477   0.0091   2.8224 C.ar           1 S1                 0.0000
     12 ****         3.2555  -0.0914   4.0360 C.ar           1 S1                 0.0000
     13 ****         3.7717   1.0842   4.6142 C.ar           1 S1                 0.0000
     14 ****         3.6195   2.3068   4.0643 N.ar           1 S1                 0.0000
     15 ****         2.9404   2.3953   2.9009 C.ar           1 S1                 0.0000
     16 ****        -2.2123   0.0328  -3.2144 C.3            1 S1                 0.0000
     17 ****        -2.0516  -1.4954  -3.3070 C.3            1 S1                 0.0000
     18 ****        -2.5714  -2.1153  -2.1355 O.3            1 S1                 0.0000
     19 ****        -1.9770  -2.2870   1.1580 H              1 S1                 0.0000
     20 ****        -2.3466  -3.6066   0.0523 H              1 S1                 0.0000
     21 ****        -3.5412  -2.3451   0.3459 H              1 S1                 0.0000
     22 ****        -0.8375  -1.9698  -1.0348 H              1 S1                 0.0000
     23 ****        -3.1358   0.0047  -0.5972 H              1 S1                 0.0000
     24 ****        -1.5908   0.1083   0.1902 H              1 S1                 0.0000
     25 ****        -1.9015   1.6256  -1.8234 H              1 S1                 0.0000
     26 ****         0.4057  -0.3363  -2.2245 H              1 S1                 0.0000
     27 ****         0.2580   1.2434  -2.9336 H              1 S1                 0.0000
     28 ****         0.5212   2.3010  -0.8433 H              1 S1                 0.0000
     29 ****         1.5145   2.5087   0.8153 H              1 S1                 0.0000
     30 ****         2.1400  -0.8896   2.3884 H              1 S1                 0.0000
     31 ****         3.3966  -1.0490   4.5148 H              1 S1                 0.0000
     32 ****         4.3174   1.0418   5.5452 H              1 S1                 0.0000
     33 ****         2.8361   3.3901   2.4928 H              1 S1                 0.0000
     34 ****        -3.2766   0.2719  -3.2043 H              1 S1                 0.0000
     35 ****        -1.8019   0.5120  -4.1037 H              1 S1                 0.0000
     36 ****        -2.5965  -1.8742  -4.1718 H              1 S1                 0.0000
     37 ****        -1.0074  -1.7768  -3.4479 H              1 S1                 0.0000
     38 ****         1.0566  -1.1284  -0.6173 LP             1 S1                 0.0000
     39 ****         1.9074  -0.9752   0.8835 LP             1 S1                 0.0000
     40 ****         3.9976   3.1212   4.5044 LP             1 S1                 0.0000
     41 ****        -3.5368  -1.8695  -2.0484 LP             1 S1                 0.0000
     42 ****        -2.4878  -3.1066  -2.2376 LP             1 S1                 0.0000
@<TRIPOS>BOND
    1    1    2 1     
    2    1   19 1     
    3    1   20 1     
    4    1   21 1     
    5    2   18 1     
    6    2    3 1     
    7    2   22 1     
    8    3    4 1     
    9    3   23 1     
   10    3   24 1     
   11    4    5 1     
   12    4   16 1     
   13    4   25 1     
   14    5    6 1     
   15    5   26 1     
   16    5   27 1     
   17    6    7 am    
   18    6   28 1     
   19    7    8 2     
   20    7    9 am    
   21    9   10 1     
   22    9   29 1     
   23   10   15 ar    
   24   10   11 ar    
   25   11   12 ar    
   26   11   30 1     
   27   12   13 ar    
   28   12   31 1     
   29   13   14 ar    
   30   13   32 1     
   31   14   15 ar    
   32   15   33 1     
   33   16   17 1     
   34   16   34 1     
   35   16   35 1     
   36   17   18 1     
   37   17   36 1     
   38   17   37 1     
   39    8   38 1     
   40    8   39 1     
   41   14   40 1     
   42   18   41 1     
   43   18   42 1     
@<TRIPOS>SUBSTRUCTURE
      1 S1             1
@<TRIPOS>SET
LONE_PAIRS      STATIC     ATOMS    <user>   **** ""
5 38 39 40 41 42
DONOR_HYDROGENS      STATIC     ATOMS    <user>   **** ""
2 28 29
ATOM$BLUE        STATIC     ATOMS    COLORGROUP SYSTEM
5 38 39 40 41 42
ATOM$RED        STATIC     ATOMS    COLORGROUP SYSTEM
2 28 29
