AV-unprocessed.smi:3208|AV-procd|sdf|12261|dock2
  -GOLD-   2272018 93D 1   1.00000     0.00000
 Structure written by MMmdl.
 30 30  0  0  0  0  0  0  0  0  1 V2000
  147.3944  141.4611  153.7658 C   0  0  0  0  0  0  0  0  0  0  0  0
  148.6923  141.3177  154.0725 C   0  0  0  0  0  0  0  0  0  0  0  0
  149.3153  140.0406  154.5907 C   0  0  0  0  0  0  0  0  0  0  0  0
  150.7295  140.1766  154.6612 O   0  0  0  0  0  0  0  0  0  0  0  0
  151.4028  139.1958  155.4471 C   0  0  1  0  0  0  0  0  0  0  0  0
  152.4459  138.5169  154.5466 C   0  0  0  0  0  0  0  0  0  0  0  0
  152.0588  139.8489  156.6748 C   0  0  0  0  0  0  0  0  0  0  0  0
  153.0588  139.3360  157.1782 O   0  0  0  0  0  0  0  0  0  0  0  0
  151.4771  140.9814  157.1115 N   0  0  0  0  0  0  0  0  0  0  0  0
  151.8575  141.8113  158.2020 C   0  0  0  0  0  0  0  0  0  0  0  0
  152.7905  141.4490  159.1181 N   0  0  0  0  0  0  0  0  0  0  0  0
  153.0958  142.2955  160.1232 C   0  0  0  0  0  0  0  0  0  0  0  0
  152.4905  143.5552  160.2787 C   0  0  0  0  0  0  0  0  0  0  0  0
  151.5214  143.9445  159.3378 C   0  0  0  0  0  0  0  0  0  0  0  0
  151.1983  143.0645  158.2854 C   0  0  0  0  0  0  0  0  0  0  0  0
  150.2569  143.4376  157.3660 O   0  0  0  0  0  0  0  0  0  0  0  0
  146.6973  140.6433  153.8749 H   0  0  0  0  0  0  0  0  0  0  0  0
  147.0123  142.4027  153.3998 H   0  0  0  0  0  0  0  0  0  0  0  0
  149.3599  142.1582  153.9512 H   0  0  0  0  0  0  0  0  0  0  0  0
  148.8914  139.8332  155.5736 H   0  0  0  0  0  0  0  0  0  0  0  0
  149.0499  139.2099  153.9348 H   0  0  0  0  0  0  0  0  0  0  0  0
  150.6866  138.4371  155.7692 H   0  0  0  0  0  0  0  0  0  0  0  0
  153.0119  137.7623  155.0941 H   0  0  0  0  0  0  0  0  0  0  0  0
  153.1549  139.2380  154.1383 H   0  0  0  0  0  0  0  0  0  0  0  0
  151.9635  138.0194  153.7050 H   0  0  0  0  0  0  0  0  0  0  0  0
  150.6654  141.2937  156.5983 H   0  0  0  0  0  0  0  0  0  0  0  0
  153.8449  141.9578  160.8241 H   0  0  0  0  0  0  0  0  0  0  0  0
  152.7630  144.2045  161.0976 H   0  0  0  0  0  0  0  0  0  0  0  0
  151.0343  144.9049  159.4233 H   0  0  0  0  0  0  0  0  0  0  0  0
  150.3091  144.3520  157.1328 H   0  0  0  0  0  0  0  0  0  0  0  0
  1  2  2  0  0  0  0
  1 17  1  0  0  0  0
  1 18  1  0  0  0  0
  2  3  1  0  0  0  0
  2 19  1  0  0  0  0
  3  4  1  0  0  0  0
  3 20  1  0  0  0  0
  3 21  1  0  0  0  0
  4  5  1  0  0  0  0
  5  6  1  0  0  0  0
  5  7  1  0  0  0  0
  5 22  1  0  0  0  0
  6 23  1  0  0  0  0
  6 24  1  0  0  0  0
  6 25  1  0  0  0  0
  7  8  2  0  0  0  0
  7  9  1  0  0  0  0
  9 10  1  0  0  0  0
  9 26  1  0  0  0  0
 10 15  1  0  0  0  0
 10 11  2  0  0  0  0
 11 12  1  0  0  0  0
 12 13  2  0  0  0  0
 12 27  1  0  0  0  0
 13 14  1  0  0  0  0
 13 28  1  0  0  0  0
 14 15  2  0  0  0  0
 14 29  1  0  0  0  0
 15 16  1  0  0  0  0
 16 30  1  0  0  0  0
M  END
> <s_m_source_file>
AV-unprocessed.smi

> <i_m_source_file_index>
3208

> <i_lp_mmshare_version>
43012

> <i_f3d_flags>
0

> <s_epik_input>
W0NIMl09W0NIXVtDSDJdT1tDQEhdKFtDSDNdKUMoPU8pW05IXWMxbltjSF1bY0hdW2NIXWMxW09IXQ==

> <s_epik_cmdline>
J2VwaWtfcHl0aG9uJywgJy1waCcsICc3LjAnLCAnLXRuJywgJzgnLCAnLW1hJywgJzIwMCcsICctbWV0YWxfYmluZGluZycsICctaW1hZScsICc8aW5maWxlLm1hZT4nLCAnLW9tYWUnLCAnPG91dGZpbGUubWFlPic=

> <r_lp_tautomer_probability>
0.43658

> <r_epik_Ionization_Penalty>
0.0201706

> <r_epik_Ionization_Penalty_Charging>
0

> <r_epik_Ionization_Penalty_Neutral>
0.0201706

> <r_epik_State_Penalty>
0.426656

> <r_epik_Charging_Adjusted_Penalty>
0.426656

> <i_epik_Tot_Q>
0

> <i_epik_Tot_abs_Q>
0

> <r_epik_Metal_State_Penalty>
0.386934

> <b_epik_Metal_Only>
0

> <s_lp_Force_Field>
OPLS_2005

> <r_lp_Energy>
5.92965

> <b_lp_Chiralities_Consistent>
1

> <s_lp_Variant>
AV-unprocessed.smi:3208-2

> <Gold.Version>
5.8.1

> <Gold.Id.Protein>
6NUR|6NUR_protein|mol2

> <Gold.PLP.Fitness>
40.3107

> <Gold.PLP.PLP>
-36.8929

> <Gold.PLP.part.hbond>
-3.0000

> <Gold.PLP.part.metal>
0.0000

> <Gold.PLP.part.buried>
-5.3332

> <Gold.PLP.part.nonpolar>
-29.4590

> <Gold.PLP.part.repulsive>
0.1718

> <Gold.PLP.ligand.clash>
0.0000

> <Gold.PLP.ligand.torsion>
1.5777

> <Gold.PLP.Chemscore.Hbond>
2.1747

> <Gold.PLP.Chemscore.CHOScore>
0.0000

> <Gold.PLP.Chemscore.Metal>
0.0000

> <Gold.Chemscore.Hbonds>
donor molecule, donor type, donor heavy atom, donor atom, acceptor molecule, acceptor atom, score
      L1  H    16    30       P1  8028  0.18
      P1  H  7989  7998       L1     4  1.00
      P1  H  7997  8010       L1     8  1.00

> <Gold.PLP.Chemscore.Internal.Correction>
0.0491

> <Gold.Rescore>
     Score         DG    S(hbond)    S(metal)    S(lipo)     H(rot)  DE(clash)    DE(int)     intcor
     14.07     -16.97       2.36        0.00      80.00       2.24       0.03       2.87       ----

> <Gold.Chemscore.Fitness>
14.0650

> <Gold.Chemscore.DG>
-16.9709

> <Gold.Chemscore.ZeroCoef>
-5.4800

> <Gold.Chemscore.Hbond>
2.3584

> <Gold.Chemscore.Metal>
0.0000

> <Gold.Chemscore.Lipo>
79.9969

> <Gold.Chemscore.Internal_Hbond>
0.0000

> <Gold.Chemscore.DEClash>
0.0324

> <Gold.Chemscore.DEInternal>
2.8734

> <Gold.Chemscore.Rot>
2.2445

> <Gold.Chemscore.Internal.Correction>
   9.000000E+99

> <Gold.Chemscore.Hbonds>
donor molecule, donor type, donor heavy atom, donor atom, acceptor molecule, acceptor atom, score
      L1  H    16    30       P1  8028  0.13
      P1  H  7989  7998       L1     4  0.90
      P1  H  7997  8010       L1     8  0.65

> <Gold.Chemscore.Hbond.Weighted>
-7.8770

> <Gold.Chemscore.Metal.Weighted>
-0.0000

> <Gold.Chemscore.Lipo.Weighted>
-9.3596

> <Gold.Chemscore.Internal_Hbond.Weighted>
0.0000

> <Gold.Chemscore.DEClash.Weighted>
0.0324

> <Gold.Chemscore.DEInternal.Weighted>
2.8734

> <Gold.Chemscore.Rot.Weighted>
5.7458

> <Gold.Chemscore.Internal.Correction.Weighted>
   9.000000E+99

> <Gold.Protein.RotatedTorsions>
[ 6907 6896 6895 6894 ] final -175.44 input  -60.11 | X-H torsion
[ 7974 7965 7964 7962 ] final -170.02 input  175.53 | X-H torsion
[ 8008 7997 7996 7995 ] final   64.34 input   59.86 | X-H torsion
[ 10167 10162 10161 10158 ] final -104.62 input  -65.29 | X-H torsion
[ 10718 10713 10712 10709 ] final -158.44 input   66.30 | X-H torsion
[ 10763 10752 10751 10750 ] final -128.04 input  -60.55 | X-H torsion
[ 11005 11000 10999 10996 ] final   29.90 input  -57.11 | X-H torsion

> <Gold.Protein.ActiveResidues>
 VAL166  LYS551  ARG553  GLY616  TRP617  ASP618  TYR619  PRO620  LYS621  CYS622 
 ASP623  PHE694  ASN695  SER759  ASP760  ASP761  ALA762  ILE779  LEU786  VAL792 
 PHE793  MET794  SER795  GLU796  ALA797  LYS798  CYS799  TRP800  GLU811  SER814 

> <Gold.Protein.RotatedAtoms>
  151.5886  133.3369  159.3022 H   0  0  0  0  0  0  0  0  0  0  0  0  # atno 6907 bound_to 6896
  150.8273  134.7513  159.6835 H   0  0  0  0  0  0  0  0  0  0  0  0  # atno 6908 bound_to 6896
  152.4361  134.5690  159.9967 H   0  0  0  0  0  0  0  0  0  0  0  0  # atno 6909 bound_to 6896
  144.7176  140.2134  143.6325 H   0  0  0  0  0  0  0  0  0  0  0  0  # atno 7974 bound_to 7965
  155.6444  140.3497  155.4726 H   0  0  0  0  0  0  0  0  0  0  0  0  # atno 8008 bound_to 7997
  155.9899  140.1191  157.0671 H   0  0  0  0  0  0  0  0  0  0  0  0  # atno 8009 bound_to 7997
  154.4216  140.1121  156.5537 H   0  0  0  0  0  0  0  0  0  0  0  0  # atno 8010 bound_to 7997
  140.2074  143.3773  152.1079 H   0  0  0  0  0  0  0  0  0  0  0  0  # atno 10167 bound_to 10162
  156.5542  130.8619  151.2789 H   0  0  0  0  0  0  0  0  0  0  0  0  # atno 10718 bound_to 10713
  154.8755  135.3942  154.3691 H   0  0  0  0  0  0  0  0  0  0  0  0  # atno 10763 bound_to 10752
  153.4453  135.7027  153.6148 H   0  0  0  0  0  0  0  0  0  0  0  0  # atno 10764 bound_to 10752
  153.4711  135.3790  155.2360 H   0  0  0  0  0  0  0  0  0  0  0  0  # atno 10765 bound_to 10752
  140.3000  134.2767  155.7756 H   0  0  0  0  0  0  0  0  0  0  0  0  # atno 11005 bound_to 11000
  145.8569  139.2203  143.1739 LP  0  0  0  0  0  0  0  0  0  0  0  0  # atno 17320 bound_to 7965
  146.0209  140.8349  142.9924 LP  0  0  0  0  0  0  0  0  0  0  0  0  # atno 17321 bound_to 7965
  139.5193  144.7018  151.5471 LP  0  0  0  0  0  0  0  0  0  0  0  0  # atno 17342 bound_to 10162
  140.6348  143.9006  150.6637 LP  0  0  0  0  0  0  0  0  0  0  0  0  # atno 17343 bound_to 10162
  157.7381  130.9808  150.2234 LP  0  0  0  0  0  0  0  0  0  0  0  0  # atno 17370 bound_to 10713
  156.2857  130.3739  149.7891 LP  0  0  0  0  0  0  0  0  0  0  0  0  # atno 17371 bound_to 10713
  141.2130  133.7640  156.9753 LP  0  0  0  0  0  0  0  0  0  0  0  0  # atno 17394 bound_to 11000
  140.1118  134.9472  157.2076 LP  0  0  0  0  0  0  0  0  0  0  0  0  # atno 17395 bound_to 11000

$$$$
