AV-unprocessed.smi:104|AV-procd|sdf|995|dock5
  -GOLD-   2262017573D 1   1.00000     0.00000
 Structure written by MMmdl.
 47 49  0  0  0  0  0  0  0  0  1 V2000
  155.5674  134.1541  158.2823 C   0  0  0  0  0  0  0  0  0  0  0  0
  155.0153  135.4192  157.6387 C   0  0  0  0  0  0  0  0  0  0  0  0
  155.6872  136.0824  156.8482 O   0  0  0  0  0  0  0  0  0  0  0  0
  153.7618  135.6902  158.0364 O   0  0  0  0  0  0  0  0  0  0  0  0
  153.1003  136.8516  157.5594 C   0  0  0  0  0  0  0  0  0  0  0  0
  152.6125  137.6846  158.7522 C   0  0  2  0  0  0  0  0  0  0  0  0
  151.6123  136.9367  159.4507 O   0  0  0  0  0  0  0  0  0  0  0  0
  150.4037  137.6279  159.4418 C   0  0  2  0  0  0  0  0  0  0  0  0
  149.2740  136.6627  159.2930 N   0  0  0  0  0  0  0  0  0  0  0  0
  149.0222  135.7858  158.2630 C   0  0  0  0  0  0  0  0  0  0  0  0
  150.1700  135.6415  156.7500 Br  0  0  0  0  0  0  0  0  0  0  0  0
  147.9637  135.0321  158.3669 N   0  0  0  0  0  0  0  0  0  0  0  0
  147.4358  135.4146  159.5941 C   0  0  0  0  0  0  0  0  0  0  0  0
  146.3025  135.0152  160.3467 C   0  0  0  0  0  0  0  0  0  0  0  0
  145.4399  134.0783  159.9290 N   0  0  0  0  0  0  0  0  0  0  0  0
  146.0800  135.6051  161.5446 N   0  0  0  0  0  0  0  0  0  0  0  0
  146.9264  136.5410  161.9861 C   0  0  0  0  0  0  0  0  0  0  0  0
  148.0249  137.0180  161.3955 N   0  0  0  0  0  0  0  0  0  0  0  0
  148.2478  136.4266  160.1858 C   0  0  0  0  0  0  0  0  0  0  0  0
  150.4592  138.5757  158.2565 C   0  0  1  0  0  0  0  0  0  0  0  0
  149.5530  139.6581  158.4239 O   0  0  0  0  0  0  0  0  0  0  0  0
  149.6493  140.7409  157.6376 C   0  0  0  0  0  0  0  0  0  0  0  0
  148.5688  141.7718  157.9353 C   0  0  0  0  0  0  0  0  0  0  0  0
  150.4983  140.9305  156.7667 O   0  0  0  0  0  0  0  0  0  0  0  0
  151.9234  138.9820  158.2946 C   0  0  1  0  0  0  0  0  0  0  0  0
  152.1346  140.0113  159.2580 O   0  0  0  0  0  0  0  0  0  0  0  0
  153.3811  140.4108  159.5629 C   0  0  0  0  0  0  0  0  0  0  0  0
  153.3922  141.5940  160.5211 C   0  0  0  0  0  0  0  0  0  0  0  0
  154.4255  139.9092  159.1471 O   0  0  0  0  0  0  0  0  0  0  0  0
  154.8065  133.3735  158.3043 H   0  0  0  0  0  0  0  0  0  0  0  0
  155.8854  134.3586  159.3048 H   0  0  0  0  0  0  0  0  0  0  0  0
  156.4249  133.7828  157.7208 H   0  0  0  0  0  0  0  0  0  0  0  0
  153.8056  137.4296  156.9614 H   0  0  0  0  0  0  0  0  0  0  0  0
  152.2595  136.6018  156.9112 H   0  0  0  0  0  0  0  0  0  0  0  0
  153.4521  137.8969  159.4155 H   0  0  0  0  0  0  0  0  0  0  0  0
  150.2580  138.1284  160.3995 H   0  0  0  0  0  0  0  0  0  0  0  0
  145.5840  133.6221  159.0396 H   0  0  0  0  0  0  0  0  0  0  0  0
  144.6466  133.8319  160.5031 H   0  0  0  0  0  0  0  0  0  0  0  0
  146.6910  136.9693  162.9494 H   0  0  0  0  0  0  0  0  0  0  0  0
  150.2480  138.0048  157.3504 H   0  0  0  0  0  0  0  0  0  0  0  0
  147.5997  141.2856  158.0516 H   0  0  0  0  0  0  0  0  0  0  0  0
  148.4964  142.4950  157.1227 H   0  0  0  0  0  0  0  0  0  0  0  0
  148.8017  142.3072  158.8559 H   0  0  0  0  0  0  0  0  0  0  0  0
  152.2578  139.3080  157.3083 H   0  0  0  0  0  0  0  0  0  0  0  0
  152.7169  142.3742  160.1689 H   0  0  0  0  0  0  0  0  0  0  0  0
  154.3950  142.0148  160.5980 H   0  0  0  0  0  0  0  0  0  0  0  0
  153.0716  141.2789  161.5141 H   0  0  0  0  0  0  0  0  0  0  0  0
  1  2  1  0  0  0  0
  1 30  1  0  0  0  0
  1 31  1  0  0  0  0
  1 32  1  0  0  0  0
  2  3  2  0  0  0  0
  2  4  1  0  0  0  0
  4  5  1  0  0  0  0
  5  6  1  0  0  0  0
  5 33  1  0  0  0  0
  5 34  1  0  0  0  0
  6 25  1  0  0  0  0
  6  7  1  0  0  0  0
  6 35  1  0  0  0  0
  7  8  1  0  0  0  0
  8  9  1  0  0  0  0
  8 20  1  0  0  0  0
  8 36  1  0  0  0  0
  9 19  1  0  0  0  0
  9 10  1  0  0  0  0
 10 11  1  0  0  0  0
 10 12  2  0  0  0  0
 12 13  1  0  0  0  0
 13 19  2  0  0  0  0
 13 14  1  0  0  0  0
 14 15  1  0  0  0  0
 14 16  2  0  0  0  0
 15 37  1  0  0  0  0
 15 38  1  0  0  0  0
 16 17  1  0  0  0  0
 17 18  2  0  0  0  0
 17 39  1  0  0  0  0
 18 19  1  0  0  0  0
 20 21  1  0  0  0  0
 20 25  1  0  0  0  0
 20 40  1  0  0  0  0
 21 22  1  0  0  0  0
 22 23  1  0  0  0  0
 22 24  2  0  0  0  0
 23 41  1  0  0  0  0
 23 42  1  0  0  0  0
 23 43  1  0  0  0  0
 25 26  1  0  0  0  0
 25 44  1  0  0  0  0
 26 27  1  0  0  0  0
 27 28  1  0  0  0  0
 27 29  2  0  0  0  0
 28 45  1  0  0  0  0
 28 46  1  0  0  0  0
 28 47  1  0  0  0  0
M  END
> <s_m_source_file>
AV-unprocessed.smi

> <i_m_source_file_index>
104

> <i_lp_mmshare_version>
43012

> <i_f3d_flags>
0

> <s_epik_input>
W0NIM11DKD1PKU9bQ0gyXVtDQEBIXTFPW0NASF0oW0NAQEhdKE9DKD1PKVtDSDNdKVtDQEhdMU9DKD1PKVtDSDNdKW4oYyhCciluMiljKGMyMyluW2NIXW5jM1tOSDJd

> <s_epik_cmdline>
J2VwaWtfcHl0aG9uJywgJy1waCcsICc3LjAnLCAnLXRuJywgJzgnLCAnLW1hJywgJzIwMCcsICctbWV0YWxfYmluZGluZycsICctaW1hZScsICc8aW5maWxlLm1hZT4nLCAnLW9tYWUnLCAnPG91dGZpbGUubWFlPic=

> <r_lp_tautomer_probability>
1

> <r_epik_Ionization_Penalty>
7.36622e-05

> <r_epik_Ionization_Penalty_Charging>
0

> <r_epik_Ionization_Penalty_Neutral>
7.36622e-05

> <r_epik_State_Penalty>
-0

> <r_epik_Charging_Adjusted_Penalty>
0

> <i_epik_Tot_Q>
0

> <i_epik_Tot_abs_Q>
0

> <r_epik_Metal_State_Penalty>
-0

> <b_epik_Metal_Only>
0

> <s_epik_Chemistry_Notes>
This compound has an ester and may undergo hydrolysis at high or low pH. This compound contains an acetal/aminal-like group ( X-CH(R)-Y where X, Y are N, S, or O) that may be acid/base labile, releasing an aldehyde.

> <s_lp_Force_Field>
OPLS_2005

> <r_lp_Energy>
18.6996

> <b_lp_Chiralities_Consistent>
1

> <s_lp_Variant>
AV-unprocessed.smi:104-3

> <Gold.Version>
5.8.1

> <Gold.Id.Protein>
6NUR|6NUR_protein|mol2

> <Gold.PLP.Fitness>
44.9046

> <Gold.PLP.PLP>
-31.7640

> <Gold.PLP.part.hbond>
-6.3061

> <Gold.PLP.part.metal>
0.0000

> <Gold.PLP.part.buried>
-4.4340

> <Gold.PLP.part.nonpolar>
-20.3569

> <Gold.PLP.part.repulsive>
0.0339

> <Gold.PLP.ligand.clash>
0.0000

> <Gold.PLP.ligand.torsion>
0.5026

> <Gold.PLP.Chemscore.Hbond>
4.6720

> <Gold.PLP.Chemscore.CHOScore>
0.0000

> <Gold.PLP.Chemscore.Metal>
0.0000

> <Gold.Chemscore.Hbonds>
donor molecule, donor type, donor heavy atom, donor atom, acceptor molecule, acceptor atom, score
      P1  H  6896  6907       L1     7  0.80
      P1  H  6931  6943       L1    18  1.00
      P1  H  6934  6947       L1    18  0.30
      P1  H  7997  8010       L1    29  1.00
      P1  H 10752 10765       L1     3  0.45

> <Gold.PLP.Chemscore.Internal.Correction>
0.1297

> <Gold.Rescore>
     Score         DG    S(hbond)    S(metal)    S(lipo)     H(rot)  DE(clash)    DE(int)     intcor
      8.67     -10.74       3.67        0.00      34.54       4.31       0.43       1.64       ----

> <Gold.Chemscore.Fitness>
8.6732

> <Gold.Chemscore.DG>
-10.7434

> <Gold.Chemscore.ZeroCoef>
-5.4800

> <Gold.Chemscore.Hbond>
3.6671

> <Gold.Chemscore.Metal>
0.0000

> <Gold.Chemscore.Lipo>
34.5408

> <Gold.Chemscore.Internal_Hbond>
0.0000

> <Gold.Chemscore.DEClash>
0.4307

> <Gold.Chemscore.DEInternal>
1.6395

> <Gold.Chemscore.Rot>
4.3070

> <Gold.Chemscore.Internal.Correction>
   9.000000E+99

> <Gold.Chemscore.Hbonds>
donor molecule, donor type, donor heavy atom, donor atom, acceptor molecule, acceptor atom, score
      P1  H  6896  6907       L1     7  0.39
      P1  H  6931  6943       L1    18  0.96
      P1  H  6934  6947       L1    18  0.02
      P1  H  7997  8010       L1    29  0.94
      P1  H 10752 10765       L1     3  0.06

> <Gold.Chemscore.Hbond.Weighted>
-12.2480

> <Gold.Chemscore.Metal.Weighted>
-0.0000

> <Gold.Chemscore.Lipo.Weighted>
-4.0413

> <Gold.Chemscore.Internal_Hbond.Weighted>
0.0000

> <Gold.Chemscore.DEClash.Weighted>
0.4307

> <Gold.Chemscore.DEInternal.Weighted>
1.6395

> <Gold.Chemscore.Rot.Weighted>
11.0259

> <Gold.Chemscore.Internal.Correction.Weighted>
   9.000000E+99

> <Gold.Protein.RotatedTorsions>
[ 6907 6896 6895 6894 ] final  -30.28 input  -60.11 | X-H torsion
[ 7974 7965 7964 7962 ] final -174.02 input  175.53 | X-H torsion
[ 8008 7997 7996 7995 ] final   -5.86 input   59.86 | X-H torsion
[ 10167 10162 10161 10158 ] final   93.55 input  -65.29 | X-H torsion
[ 10718 10713 10712 10709 ] final  -98.35 input   66.30 | X-H torsion
[ 10763 10752 10751 10750 ] final  -50.40 input  -60.55 | X-H torsion
[ 11005 11000 10999 10996 ] final   -9.82 input  -57.11 | X-H torsion

> <Gold.Protein.ActiveResidues>
 VAL166  LYS551  ARG553  GLY616  TRP617  ASP618  TYR619  PRO620  LYS621  CYS622 
 ASP623  PHE694  ASN695  SER759  ASP760  ASP761  ALA762  ILE779  LEU786  VAL792 
 PHE793  MET794  SER795  GLU796  ALA797  LYS798  CYS799  TRP800  GLU811  SER814 

> <Gold.Protein.RotatedAtoms>
  151.1077  135.0009  159.8478 H   0  0  0  0  0  0  0  0  0  0  0  0  # atno 6907 bound_to 6896
  152.5441  134.1873  159.8670 H   0  0  0  0  0  0  0  0  0  0  0  0  # atno 6908 bound_to 6896
  151.1921  133.4616  159.2628 H   0  0  0  0  0  0  0  0  0  0  0  0  # atno 6909 bound_to 6896
  144.7134  140.1535  143.6382 H   0  0  0  0  0  0  0  0  0  0  0  0  # atno 7974 bound_to 7965
  154.5996  140.2447  155.7811 H   0  0  0  0  0  0  0  0  0  0  0  0  # atno 8008 bound_to 7997
  156.2302  140.2969  156.0121 H   0  0  0  0  0  0  0  0  0  0  0  0  # atno 8009 bound_to 7997
  155.2235  140.0401  157.2942 H   0  0  0  0  0  0  0  0  0  0  0  0  # atno 8010 bound_to 7997
  139.8169  144.6748  150.9568 H   0  0  0  0  0  0  0  0  0  0  0  0  # atno 10167 bound_to 10162
  156.0105  130.5234  150.6510 H   0  0  0  0  0  0  0  0  0  0  0  0  # atno 10718 bound_to 10713
  154.1098  135.6551  153.4883 H   0  0  0  0  0  0  0  0  0  0  0  0  # atno 10763 bound_to 10752
  153.0260  135.5245  154.7203 H   0  0  0  0  0  0  0  0  0  0  0  0  # atno 10764 bound_to 10752
  154.6380  135.2984  155.0107 H   0  0  0  0  0  0  0  0  0  0  0  0  # atno 10765 bound_to 10752
  140.7382  133.8692  155.8946 H   0  0  0  0  0  0  0  0  0  0  0  0  # atno 11005 bound_to 11000
  145.9095  139.2478  143.1446 LP  0  0  0  0  0  0  0  0  0  0  0  0  # atno 17320 bound_to 7965
  145.9730  140.8745  143.0153 LP  0  0  0  0  0  0  0  0  0  0  0  0  # atno 17321 bound_to 7965
  140.7815  143.4129  151.0963 LP  0  0  0  0  0  0  0  0  0  0  0  0  # atno 17342 bound_to 10162
  139.7792  143.8380  152.3135 LP  0  0  0  0  0  0  0  0  0  0  0  0  # atno 17343 bound_to 10162
  157.4271  131.0844  151.1074 LP  0  0  0  0  0  0  0  0  0  0  0  0  # atno 17370 bound_to 10713
  157.1658  130.6246  149.5625 LP  0  0  0  0  0  0  0  0  0  0  0  0  # atno 17371 bound_to 10713
  140.9860  134.1341  157.4451 LP  0  0  0  0  0  0  0  0  0  0  0  0  # atno 17394 bound_to 11000
  139.8811  135.0026  156.6134 LP  0  0  0  0  0  0  0  0  0  0  0  0  # atno 17395 bound_to 11000

$$$$
