AV-unprocessed.smi:1606|AV-procd|sdf|6462|dock9
  -GOLD-   22720 7113D 1   1.00000     0.00000
 Structure written by MMmdl.
 36 37  0  0  0  0  0  0  0  0  2 V2000
  148.9885  141.3846  153.7716 O   0  0  0  0  0  0  0  0  0  0  0  0
  149.0733  140.2844  154.3175 C   0  0  0  0  0  0  0  0  0  0  0  0
  149.9055  140.0353  155.3402 N   0  0  0  0  0  0  0  0  0  0  0  0
  150.8183  141.0040  155.9414 C   0  0  0  0  0  0  0  0  0  0  0  0
  150.5107  141.3153  157.4221 C   0  0  0  0  0  0  0  0  0  0  0  0
  151.2329  142.5382  157.9617 C   0  0  0  0  0  0  0  0  0  0  0  0
  152.1773  142.4507  159.0074 C   0  0  0  0  0  0  0  0  0  0  0  0
  152.8034  143.6271  159.4706 C   0  0  0  0  0  0  0  0  0  0  0  0
  152.4713  144.8646  158.8807 C   0  0  0  0  0  0  0  0  0  0  0  0
  151.5206  144.8947  157.8401 C   0  0  0  0  0  0  0  0  0  0  0  0
  150.9442  143.7461  157.4237 N   0  3  0  0  0  0  0  0  0  0  0  0
  148.1899  139.1181  153.8562 C   0  0  0  0  0  0  0  0  0  0  0  0
  147.2497  139.5397  152.7123 C   0  0  0  0  0  0  0  0  0  0  0  0
  146.3063  138.3850  152.3368 C   0  0  0  0  0  0  0  0  0  0  0  0
  145.5695  137.9672  153.4814 O   0  0  0  0  0  0  0  0  0  0  0  0
  146.3977  137.4648  154.5245 C   0  0  0  0  0  0  0  0  0  0  0  0
  147.3455  138.5691  155.0201 C   0  0  0  0  0  0  0  0  0  0  0  0
  149.9137  139.1020  155.7261 H   0  0  0  0  0  0  0  0  0  0  0  0
  151.8228  140.5868  155.8651 H   0  0  0  0  0  0  0  0  0  0  0  0
  150.8237  141.9239  155.3545 H   0  0  0  0  0  0  0  0  0  0  0  0
  149.4365  141.4545  157.5482 H   0  0  0  0  0  0  0  0  0  0  0  0
  150.7716  140.4560  158.0415 H   0  0  0  0  0  0  0  0  0  0  0  0
  152.4183  141.4958  159.4518 H   0  0  0  0  0  0  0  0  0  0  0  0
  153.5286  143.5809  160.2698 H   0  0  0  0  0  0  0  0  0  0  0  0
  152.9390  145.7767  159.2219 H   0  0  0  0  0  0  0  0  0  0  0  0
  151.2056  145.7947  157.3323 H   0  0  0  0  0  0  0  0  0  0  0  0
  148.8335  138.3152  153.4911 H   0  0  0  0  0  0  0  0  0  0  0  0
  146.6522  140.4038  153.0075 H   0  0  0  0  0  0  0  0  0  0  0  0
  147.8274  139.8438  151.8384 H   0  0  0  0  0  0  0  0  0  0  0  0
  145.6059  138.7098  151.5674 H   0  0  0  0  0  0  0  0  0  0  0  0
  146.8653  137.5438  151.9238 H   0  0  0  0  0  0  0  0  0  0  0  0
  145.7639  137.1207  155.3420 H   0  0  0  0  0  0  0  0  0  0  0  0
  146.9595  136.5984  154.1719 H   0  0  0  0  0  0  0  0  0  0  0  0
  147.9924  138.1743  155.8045 H   0  0  0  0  0  0  0  0  0  0  0  0
  146.7561  139.3681  155.4733 H   0  0  0  0  0  0  0  0  0  0  0  0
  150.2573  143.7906  156.6703 H   0  0  0  0  0  0  0  0  0  0  0  0
  1  2  2  0  0  0  0
  2  3  1  0  0  0  0
  2 12  1  0  0  0  0
  3  4  1  0  0  0  0
  3 18  1  0  0  0  0
  4  5  1  0  0  0  0
  4 19  1  0  0  0  0
  4 20  1  0  0  0  0
  5  6  1  0  0  0  0
  5 21  1  0  0  0  0
  5 22  1  0  0  0  0
  6 11  1  0  0  0  0
  6  7  2  0  0  0  0
  7  8  1  0  0  0  0
  7 23  1  0  0  0  0
  8  9  2  0  0  0  0
  8 24  1  0  0  0  0
  9 10  1  0  0  0  0
  9 25  1  0  0  0  0
 10 11  2  0  0  0  0
 10 26  1  0  0  0  0
 11 36  1  0  0  0  0
 12 17  1  0  0  0  0
 12 13  1  0  0  0  0
 12 27  1  0  0  0  0
 13 14  1  0  0  0  0
 13 28  1  0  0  0  0
 13 29  1  0  0  0  0
 14 15  1  0  0  0  0
 14 30  1  0  0  0  0
 14 31  1  0  0  0  0
 15 16  1  0  0  0  0
 16 17  1  0  0  0  0
 16 32  1  0  0  0  0
 16 33  1  0  0  0  0
 17 34  1  0  0  0  0
 17 35  1  0  0  0  0
M  CHG  1  11   1
M  END
> <s_m_source_file>
AV-unprocessed.smi

> <i_m_source_file_index>
1606

> <i_lp_mmshare_version>
43012

> <i_f3d_flags>
0

> <s_epik_input>
W0NIMl0xW0NIMl1PW0NIMl1bQ0gyXVtDSF0xQyg9TylbTkhdW0NIMl1bQ0gyXWMyW2NIXVtjSF1bY0hdW2NIXW4y

> <s_epik_cmdline>
J2VwaWtfcHl0aG9uJywgJy1waCcsICc3LjAnLCAnLXRuJywgJzgnLCAnLW1hJywgJzIwMCcsICctbWV0YWxfYmluZGluZycsICctaW1hZScsICc8aW5maWxlLm1hZT4nLCAnLW9tYWUnLCAnPG91dGZpbGUubWFlPic=

> <r_epik_Ionization_Penalty>
1.82741

> <r_epik_Ionization_Penalty_Charging>
1.82741

> <r_epik_Ionization_Penalty_Neutral>
1.59153e-08

> <r_epik_State_Penalty>
1.94311

> <r_epik_Charging_Adjusted_Penalty>
3.77052

> <i_epik_Tot_Q>
1

> <i_epik_Tot_abs_Q>
1

> <r_epik_Metal_State_Penalty>
1.96982

> <b_epik_Metal_Only>
0

> <s_lp_Force_Field>
OPLS_2005

> <r_lp_Energy>
14.6238

> <b_lp_Chiralities_Consistent>
1

> <s_lp_Variant>
AV-unprocessed.smi:1606-2

> <Gold.Version>
5.8.1

> <Gold.Id.Protein>
6NUR|6NUR_protein|mol2

> <Gold.PLP.Fitness>
42.0080

> <Gold.PLP.PLP>
-33.8496

> <Gold.PLP.part.hbond>
-2.4258

> <Gold.PLP.part.metal>
0.0000

> <Gold.PLP.part.buried>
-1.3996

> <Gold.PLP.part.nonpolar>
-30.3088

> <Gold.PLP.part.repulsive>
0.9885

> <Gold.PLP.ligand.clash>
0.0000

> <Gold.PLP.ligand.torsion>
0.0755

> <Gold.PLP.Chemscore.Hbond>
2.7680

> <Gold.PLP.Chemscore.CHOScore>
0.0000

> <Gold.PLP.Chemscore.Metal>
0.0000

> <Gold.Chemscore.Hbonds>
donor molecule, donor type, donor heavy atom, donor atom, acceptor molecule, acceptor atom, score
      L1  H    11    36       P1  8028  2.00
      P1  H  8011  8017       L1     1  0.80

> <Gold.PLP.Chemscore.Internal.Correction>
0.0055

> <Gold.Rescore>
     Score         DG    S(hbond)    S(metal)    S(lipo)     H(rot)  DE(clash)    DE(int)     intcor
     17.62     -18.17       1.63        0.00      95.86       1.56       0.40       0.15       ----

> <Gold.Chemscore.Fitness>
17.6179

> <Gold.Chemscore.DG>
-18.1665

> <Gold.Chemscore.ZeroCoef>
-5.4800

> <Gold.Chemscore.Hbond>
1.6338

> <Gold.Chemscore.Metal>
0.0000

> <Gold.Chemscore.Lipo>
95.8572

> <Gold.Chemscore.Internal_Hbond>
0.0000

> <Gold.Chemscore.DEClash>
0.3974

> <Gold.Chemscore.DEInternal>
0.1512

> <Gold.Chemscore.Rot>
1.5569

> <Gold.Chemscore.Internal.Correction>
   9.000000E+99

> <Gold.Chemscore.Hbonds>
donor molecule, donor type, donor heavy atom, donor atom, acceptor molecule, acceptor atom, score
      L1  H    11    36       P1  8028  0.95
      P1  H  8011  8017       L1     1  0.79

> <Gold.Chemscore.Hbond.Weighted>
-5.4569

> <Gold.Chemscore.Metal.Weighted>
-0.0000

> <Gold.Chemscore.Lipo.Weighted>
-11.2153

> <Gold.Chemscore.Internal_Hbond.Weighted>
0.0000

> <Gold.Chemscore.DEClash.Weighted>
0.3974

> <Gold.Chemscore.DEInternal.Weighted>
0.1512

> <Gold.Chemscore.Rot.Weighted>
3.9857

> <Gold.Chemscore.Internal.Correction.Weighted>
   9.000000E+99

> <Gold.Protein.RotatedTorsions>
[ 6907 6896 6895 6894 ] final  -22.61 input  -60.11 | X-H torsion
[ 7974 7965 7964 7962 ] final  -43.53 input  175.53 | X-H torsion
[ 8008 7997 7996 7995 ] final  -15.44 input   59.86 | X-H torsion
[ 10167 10162 10161 10158 ] final   50.65 input  -65.29 | X-H torsion
[ 10718 10713 10712 10709 ] final   59.92 input   66.30 | X-H torsion
[ 10763 10752 10751 10750 ] final   73.82 input  -60.55 | X-H torsion
[ 11005 11000 10999 10996 ] final   42.36 input  -57.11 | X-H torsion

> <Gold.Protein.ActiveResidues>
 VAL166  LYS551  ARG553  GLY616  TRP617  ASP618  TYR619  PRO620  LYS621  CYS622 
 ASP623  PHE694  ASN695  SER759  ASP760  ASP761  ALA762  ILE779  LEU786  VAL792 
 PHE793  MET794  SER795  GLU796  ALA797  LYS798  CYS799  TRP800  GLU811  SER814 

> <Gold.Protein.RotatedAtoms>
  151.2161  135.0500  159.8930 H   0  0  0  0  0  0  0  0  0  0  0  0  # atno 6907 bound_to 6896
  152.5420  134.0691  159.8196 H   0  0  0  0  0  0  0  0  0  0  0  0  # atno 6908 bound_to 6896
  151.0851  133.5311  159.2650 H   0  0  0  0  0  0  0  0  0  0  0  0  # atno 6909 bound_to 6896
  146.0010  140.7075  142.9271 H   0  0  0  0  0  0  0  0  0  0  0  0  # atno 7974 bound_to 7965
  154.5130  140.2196  155.9119 H   0  0  0  0  0  0  0  0  0  0  0  0  # atno 8008 bound_to 7997
  156.1575  140.3149  155.8716 H   0  0  0  0  0  0  0  0  0  0  0  0  # atno 8009 bound_to 7997
  155.3818  140.0473  157.3034 H   0  0  0  0  0  0  0  0  0  0  0  0  # atno 8010 bound_to 7997
  140.2702  144.3274  150.6292 H   0  0  0  0  0  0  0  0  0  0  0  0  # atno 10167 bound_to 10162
  157.5713  130.8909  149.9271 H   0  0  0  0  0  0  0  0  0  0  0  0  # atno 10718 bound_to 10713
  153.0546  135.5048  154.7951 H   0  0  0  0  0  0  0  0  0  0  0  0  # atno 10763 bound_to 10752
  154.6786  135.2964  154.9646 H   0  0  0  0  0  0  0  0  0  0  0  0  # atno 10764 bound_to 10752
  154.0440  135.6713  153.4845 H   0  0  0  0  0  0  0  0  0  0  0  0  # atno 10765 bound_to 10752
  140.1747  134.4178  155.8236 H   0  0  0  0  0  0  0  0  0  0  0  0  # atno 11005 bound_to 11000
  144.6919  140.3232  143.7228 LP  0  0  0  0  0  0  0  0  0  0  0  0  # atno 17320 bound_to 7965
  145.7488  139.1787  143.2333 LP  0  0  0  0  0  0  0  0  0  0  0  0  # atno 17321 bound_to 7965
  140.5896  143.2168  151.7278 LP  0  0  0  0  0  0  0  0  0  0  0  0  # atno 17342 bound_to 10162
  139.4991  144.3959  152.0232 LP  0  0  0  0  0  0  0  0  0  0  0  0  # atno 17343 bound_to 10162
  156.0758  130.3679  150.0681 LP  0  0  0  0  0  0  0  0  0  0  0  0  # atno 17370 bound_to 10713
  156.8833  130.9564  151.3597 LP  0  0  0  0  0  0  0  0  0  0  0  0  # atno 17371 bound_to 10713
  141.2219  133.6972  156.7825 LP  0  0  0  0  0  0  0  0  0  0  0  0  # atno 17394 bound_to 11000
  140.2337  134.8666  157.3502 LP  0  0  0  0  0  0  0  0  0  0  0  0  # atno 17395 bound_to 11000

$$$$
