#       Name:                AV-unprocessed.smi:1795
#       Creating user name   scv26
#       Creation time:       Fri Mar 27 08:49:14 2020


#       File generated by GOLD software.
#

@<TRIPOS>MOLECULE
AV-unprocessed.smi:1795
    54    55     1
SMALL
NO_CHARGES


@<TRIPOS>ATOM
      1 ****        -1.5684  -4.6710   2.3862 C.3            1 S1                 0.0000
      2 ****        -1.9633  -3.1914   2.4370 C.3            1 S1                 0.0000
      3 ****        -1.4587  -2.4152   1.2068 C.3            1 S1                 0.0000
      4 ****        -1.8998  -1.0171   1.1949 N.3            1 S1                 0.0000
      5 ****        -1.3962  -0.2632   0.0222 C.3            1 S1                 0.0000
      6 ****        -1.8993   1.2034  -0.0073 C.3            1 S1                 0.0000
      7 ****         0.1542  -0.2607  -0.0847 C.3            1 S1                 0.0000
      8 ****         0.6304   0.4427  -1.2722 N.am           1 S1                 0.0000
      9 ****         1.7875   1.1145  -1.3610 C.2            1 S1                 0.0000
     10 ****         2.5915   1.1994  -0.4316 O.2            1 S1                 0.0000
     11 ****         2.0579   1.7974  -2.7101 C.3            1 S1                 0.0000
     12 ****         3.3792   2.4423  -2.7929 N.am           1 S1                 0.0000
     13 ****         3.4389   3.8177  -2.4919 C.2            1 S1                 0.0000
     14 ****         4.5911   4.5050  -2.5348 C.2            1 S1                 0.0000
     15 ****         5.7946   3.7970  -2.9020 C.2            1 S1                 0.0000
     16 ****         5.7497   2.4805  -3.1876 C.2            1 S1                 0.0000
     17 ****         4.4924   1.7247  -3.1394 C.2            1 S1                 0.0000
     18 ****         4.4433   0.5213  -3.3951 O.2            1 S1                 0.0000
     19 ****        -3.3645  -1.0066   1.2870 C.3            1 S1                 0.0000
     20 ****        -3.9136  -1.7953   2.4924 C.3            1 S1                 0.0000
     21 ****        -3.6998  -1.0806   3.8381 C.3            1 S1                 0.0000
     22 ****        -3.3835  -3.1185   2.5008 O.3            1 S1                 0.0000
     23 ****        -0.4851  -4.7880   2.3470 H              1 S1                 0.0000
     24 ****        -1.9909  -5.1619   1.5090 H              1 S1                 0.0000
     25 ****        -1.9280  -5.1999   3.2692 H              1 S1                 0.0000
     26 ****        -1.5362  -2.7559   3.3406 H              1 S1                 0.0000
     27 ****        -0.3728  -2.4770   1.2241 H              1 S1                 0.0000
     28 ****        -1.7907  -2.9141   0.2950 H              1 S1                 0.0000
     29 ****        -1.7768  -0.7485  -0.8781 H              1 S1                 0.0000
     30 ****        -1.4875   1.7711  -0.8408 H              1 S1                 0.0000
     31 ****        -1.6311   1.7295   0.9095 H              1 S1                 0.0000
     32 ****        -2.9791   1.2692  -0.1312 H              1 S1                 0.0000
     33 ****         0.5793   0.1743   0.8217 H              1 S1                 0.0000
     34 ****         0.5550  -1.2691  -0.1714 H              1 S1                 0.0000
     35 ****         0.0287   0.4251  -2.0828 H              1 S1                 0.0000
     36 ****         1.9442   1.0613  -3.5082 H              1 S1                 0.0000
     37 ****         1.2700   2.5312  -2.8868 H              1 S1                 0.0000
     38 ****         2.4963   4.2704  -2.2200 H              1 S1                 0.0000
     39 ****         4.6176   5.5583  -2.2973 H              1 S1                 0.0000
     40 ****         6.7356   4.3253  -2.9463 H              1 S1                 0.0000
     41 ****         6.6602   1.9671  -3.4593 H              1 S1                 0.0000
     42 ****        -3.7423   0.0106   1.3705 H              1 S1                 0.0000
     43 ****        -3.7864  -1.4227   0.3707 H              1 S1                 0.0000
     44 ****        -4.9905  -1.9009   2.3590 H              1 S1                 0.0000
     45 ****        -4.2168  -0.1209   3.8528 H              1 S1                 0.0000
     46 ****        -2.6464  -0.8841   4.0370 H              1 S1                 0.0000
     47 ****        -4.0905  -1.6780   4.6620 H              1 S1                 0.0000
     48 ****        -1.5094  -0.5388   1.9816 LP             1 S1                 0.0000
     49 ****         2.3947   0.7544   0.4420 LP             1 S1                 0.0000
     50 ****         3.4410   1.7134  -0.5507 LP             1 S1                 0.0000
     51 ****         3.5697   0.0365  -3.3531 LP             1 S1                 0.0000
     52 ****         5.2770   0.0288  -3.6448 LP             1 S1                 0.0000
     53 ****        -3.6808  -3.5677   3.3433 LP             1 S1                 0.0000
     54 ****        -3.7561  -3.6082   1.7126 LP             1 S1                 0.0000
@<TRIPOS>BOND
    1    1    2 1     
    2    1   23 1     
    3    1   24 1     
    4    1   25 1     
    5    2   22 1     
    6    2    3 1     
    7    2   26 1     
    8    3    4 1     
    9    3   27 1     
   10    3   28 1     
   11    4    5 1     
   12    4   19 1     
   13    5    6 1     
   14    5    7 1     
   15    5   29 1     
   16    6   30 1     
   17    6   31 1     
   18    6   32 1     
   19    7    8 1     
   20    7   33 1     
   21    7   34 1     
   22    8    9 am    
   23    8   35 1     
   24    9   10 2     
   25    9   11 1     
   26   11   12 1     
   27   11   36 1     
   28   11   37 1     
   29   12   17 am    
   30   12   13 1     
   31   13   14 2     
   32   13   38 1     
   33   14   15 1     
   34   14   39 1     
   35   15   16 2     
   36   15   40 1     
   37   16   17 1     
   38   16   41 1     
   39   17   18 2     
   40   19   20 1     
   41   19   42 1     
   42   19   43 1     
   43   20   21 1     
   44   20   22 1     
   45   20   44 1     
   46   21   45 1     
   47   21   46 1     
   48   21   47 1     
   49    4   48 1     
   50   10   49 1     
   51   10   50 1     
   52   18   51 1     
   53   18   52 1     
   54   22   53 1     
   55   22   54 1     
@<TRIPOS>SUBSTRUCTURE
      1 S1             1
@<TRIPOS>SET
LONE_PAIRS      STATIC     ATOMS    <user>   **** ""
7 48 49 50 51 52 53 54
DONOR_HYDROGENS      STATIC     ATOMS    <user>   **** ""
1 35
ATOM$BLUE        STATIC     ATOMS    COLORGROUP SYSTEM
7 48 49 50 51 52 53 54
ATOM$RED        STATIC     ATOMS    COLORGROUP SYSTEM
1 35
