#       Name:                AV-unprocessed.smi:2351
#       Creating user name   scv26
#       Creation time:       Fri Mar 27 13:00:18 2020


#       File generated by GOLD software.
#

@<TRIPOS>MOLECULE
AV-unprocessed.smi:2351
    52    54     1
SMALL
NO_CHARGES


@<TRIPOS>ATOM
      1 ****        -0.8625   3.1139  -1.8397 O.2            1 S1                 0.0000
      2 ****        -1.3951   2.0048  -1.8406 C.2            1 S1                 0.0000
      3 ****        -2.7182   1.7724  -1.8842 N.am           1 S1                 0.0000
      4 ****        -3.7903   2.7067  -1.9128 C.ar           1 S1                 0.0000
      5 ****        -3.6589   4.0628  -2.2992 C.ar           1 S1                 0.0000
      6 ****        -4.8074   4.8798  -2.2952 C.ar           1 S1                 0.0000
      7 ****        -6.0346   4.4377  -1.9481 N.ar           1 S1                 0.0000
      8 ****        -6.1585   3.1415  -1.5928 C.ar           1 S1                 0.0000
      9 ****        -5.0754   2.2402  -1.5633 C.ar           1 S1                 0.0000
     10 ****        -5.2697   0.9491  -1.2003 F              1 S1                 0.0000
     11 ****        -0.7044   0.8568  -1.7763 N.am           1 S1                 0.0000
     12 ****         0.7530   0.7480  -1.7074 C.3            1 S1                 0.0000
     13 ****         1.2041  -0.6772  -2.0698 C.3            1 S1                 0.0000
     14 ****         0.8505  -1.6936  -0.9681 C.3            1 S1                 0.0000
     15 ****         1.4087  -1.2853   0.3472 N.4            1 S1                 1.0000
     16 ****         1.1939  -2.3202   1.3911 C.3            1 S1                 0.0000
     17 ****         2.1783  -2.1940   2.5707 C.3            1 S1                 0.0000
     18 ****         3.6360  -2.3802   2.1962 C.3            1 S1                 0.0000
     19 ****         4.2738  -2.7049   3.5440 C.3            1 S1                 0.0000
     20 ****         3.2604  -3.3498   4.3106 O.3            1 S1                 0.0000
     21 ****         2.0141  -3.2882   3.6251 C.3            1 S1                 0.0000
     22 ****         0.9319   0.0652   0.7475 C.3            1 S1                 0.0000
     23 ****         1.2958   1.1191  -0.3127 C.3            1 S1                 0.0000
     24 ****        -3.0002   0.8053  -1.8202 H              1 S1                 0.0000
     25 ****        -2.7168   4.4889  -2.6065 H              1 S1                 0.0000
     26 ****        -4.7381   5.9181  -2.5844 H              1 S1                 0.0000
     27 ****        -7.1514   2.8115  -1.3246 H              1 S1                 0.0000
     28 ****        -1.2256  -0.0078  -1.7863 H              1 S1                 0.0000
     29 ****         1.1730   1.4350  -2.4445 H              1 S1                 0.0000
     30 ****         0.7646  -0.9847  -3.0196 H              1 S1                 0.0000
     31 ****         2.2843  -0.6815  -2.2222 H              1 S1                 0.0000
     32 ****        -0.2317  -1.8055  -0.8865 H              1 S1                 0.0000
     33 ****         1.2474  -2.6700  -1.2486 H              1 S1                 0.0000
     34 ****         0.1638  -2.2718   1.7474 H              1 S1                 0.0000
     35 ****         1.3160  -3.3098   0.9481 H              1 S1                 0.0000
     36 ****         2.0612  -1.2318   3.0699 H              1 S1                 0.0000
     37 ****         3.7511  -3.2253   1.5159 H              1 S1                 0.0000
     38 ****         4.0737  -1.5003   1.7237 H              1 S1                 0.0000
     39 ****         5.1587  -3.3337   3.4434 H              1 S1                 0.0000
     40 ****         4.5659  -1.7886   4.0585 H              1 S1                 0.0000
     41 ****         1.1912  -3.0880   4.3119 H              1 S1                 0.0000
     42 ****         1.8338  -4.2568   3.1561 H              1 S1                 0.0000
     43 ****        -0.1475   0.0426   0.9036 H              1 S1                 0.0000
     44 ****         1.3788   0.3608   1.6957 H              1 S1                 0.0000
     45 ****         2.3818   1.2075  -0.3658 H              1 S1                 0.0000
     46 ****         0.9331   2.0999  -0.0037 H              1 S1                 0.0000
     47 ****         2.4081  -1.2170   0.2175 H              1 S1                 0.0000
     48 ****        -1.4261   3.9392  -1.8734 LP             1 S1                 0.0000
     49 ****         0.1340   3.1900  -1.8053 LP             1 S1                 0.0000
     50 ****        -6.8253   5.0498  -1.9540 LP             1 S1                 0.0000
     51 ****         3.1739  -2.8925   5.1957 LP             1 S1                 0.0000
     52 ****         3.5124  -4.3070   4.4532 LP             1 S1                 0.0000
@<TRIPOS>BOND
    1    1    2 2     
    2    2    3 am    
    3    2   11 am    
    4    3    4 1     
    5    3   24 1     
    6    4    9 ar    
    7    4    5 ar    
    8    5    6 ar    
    9    5   25 1     
   10    6    7 ar    
   11    6   26 1     
   12    7    8 ar    
   13    8    9 ar    
   14    8   27 1     
   15    9   10 1     
   16   11   12 1     
   17   11   28 1     
   18   12   23 1     
   19   12   13 1     
   20   12   29 1     
   21   13   14 1     
   22   13   30 1     
   23   13   31 1     
   24   14   15 1     
   25   14   32 1     
   26   14   33 1     
   27   15   16 1     
   28   15   22 1     
   29   15   47 1     
   30   16   17 1     
   31   16   34 1     
   32   16   35 1     
   33   17   21 1     
   34   17   18 1     
   35   17   36 1     
   36   18   19 1     
   37   18   37 1     
   38   18   38 1     
   39   19   20 1     
   40   19   39 1     
   41   19   40 1     
   42   20   21 1     
   43   21   41 1     
   44   21   42 1     
   45   22   23 1     
   46   22   43 1     
   47   22   44 1     
   48   23   45 1     
   49   23   46 1     
   50    1   48 1     
   51    1   49 1     
   52    7   50 1     
   53   20   51 1     
   54   20   52 1     
@<TRIPOS>SUBSTRUCTURE
      1 S1             1
@<TRIPOS>SET
LONE_PAIRS      STATIC     ATOMS    <user>   **** ""
5 48 49 50 51 52
DONOR_HYDROGENS      STATIC     ATOMS    <user>   **** ""
3 24 28 47
ATOM$BLUE        STATIC     ATOMS    COLORGROUP SYSTEM
5 48 49 50 51 52
ATOM$RED        STATIC     ATOMS    COLORGROUP SYSTEM
3 24 28 47
