AV-unprocessed.smi:688|AV-procd|sdf|3354|dock9
  -GOLD-   22720 0333D 1   1.00000     0.00000
 Structure written by MMmdl.
 36 37  0  0  0  0  0  0  0  0  1 V2000
  140.6688  135.1037  154.0090 O   0  0  0  0  0  0  0  0  0  0  0  0
  141.7738  135.4430  153.5904 C   0  0  0  0  0  0  0  0  0  0  0  0
  142.8125  134.5088  153.5309 N   0  0  0  0  0  0  0  0  0  0  0  0
  144.1077  134.7621  153.0778 C   0  0  0  0  0  0  0  0  0  0  0  0
  144.9469  133.8611  153.0804 O   0  0  0  0  0  0  0  0  0  0  0  0
  144.3815  136.0767  152.6343 N   0  0  0  0  0  0  0  0  0  0  0  0
  145.7156  136.3727  152.1695 C   0  0  0  0  0  0  0  0  0  0  0  0
  145.8423  137.7691  151.5200 C   0  0  2  0  0  0  0  0  0  0  0  0
  147.0610  137.8061  150.8028 O   0  0  0  0  0  0  0  0  0  0  0  0
  145.8999  138.8846  152.5770 C   0  0  0  0  0  0  0  0  0  0  0  0
  147.2278  139.0006  153.0613 O   0  0  0  0  0  0  0  0  0  0  0  0
  147.5607  140.3261  153.4428 C   0  0  0  0  0  0  0  0  0  0  0  0
  148.7179  140.3679  154.4233 C   0  0  0  0  0  0  0  0  0  0  0  0
  149.4505  139.1978  154.7179 C   0  0  0  0  0  0  0  0  0  0  0  0
  150.5125  139.2403  155.6422 C   0  0  0  0  0  0  0  0  0  0  0  0
  150.8424  140.4510  156.2820 C   0  0  0  0  0  0  0  0  0  0  0  0
  152.1432  140.5033  157.4143 Cl  0  0  0  0  0  0  0  0  0  0  0  0
  150.1072  141.6186  155.9989 C   0  0  0  0  0  0  0  0  0  0  0  0
  149.0455  141.5761  155.0742 C   0  0  0  0  0  0  0  0  0  0  0  0
  143.3837  137.0378  152.6832 C   0  0  0  0  0  0  0  0  0  0  0  0
  142.1295  136.7846  153.1289 C   0  0  0  0  0  0  0  0  0  0  0  0
  140.9399  138.0367  153.1597 Cl  0  0  0  0  0  0  0  0  0  0  0  0
  142.6087  133.5715  153.8463 H   0  0  0  0  0  0  0  0  0  0  0  0
  146.3762  136.2574  153.0317 H   0  0  0  0  0  0  0  0  0  0  0  0
  145.9945  135.5745  151.4789 H   0  0  0  0  0  0  0  0  0  0  0  0
  145.0078  137.9534  150.8421 H   0  0  0  0  0  0  0  0  0  0  0  0
  147.6817  137.2401  151.2353 H   0  0  0  0  0  0  0  0  0  0  0  0
  145.6235  139.8375  152.1229 H   0  0  0  0  0  0  0  0  0  0  0  0
  145.1930  138.6975  153.3875 H   0  0  0  0  0  0  0  0  0  0  0  0
  147.8183  140.9083  152.5565 H   0  0  0  0  0  0  0  0  0  0  0  0
  146.6997  140.8067  153.9098 H   0  0  0  0  0  0  0  0  0  0  0  0
  149.2020  138.2630  154.2367 H   0  0  0  0  0  0  0  0  0  0  0  0
  151.0724  138.3426  155.8604 H   0  0  0  0  0  0  0  0  0  0  0  0
  150.3551  142.5477  156.4907 H   0  0  0  0  0  0  0  0  0  0  0  0
  148.4843  142.4751  154.8654 H   0  0  0  0  0  0  0  0  0  0  0  0
  143.6145  138.0408  152.3529 H   0  0  0  0  0  0  0  0  0  0  0  0
  1  2  2  0  0  0  0
  2 21  1  0  0  0  0
  2  3  1  0  0  0  0
  3 23  1  0  0  0  0
  3  4  1  0  0  0  0
  4  5  2  0  0  0  0
  4  6  1  0  0  0  0
  6  7  1  0  0  0  0
  6 20  1  0  0  0  0
  7  8  1  0  0  0  0
  7 24  1  0  0  0  0
  7 25  1  0  0  0  0
  8  9  1  0  0  0  0
  8 10  1  0  0  0  0
  8 26  1  0  0  0  0
  9 27  1  0  0  0  0
 10 11  1  0  0  0  0
 10 28  1  0  0  0  0
 10 29  1  0  0  0  0
 11 12  1  0  0  0  0
 12 13  1  0  0  0  0
 12 30  1  0  0  0  0
 12 31  1  0  0  0  0
 13 19  1  0  0  0  0
 13 14  2  0  0  0  0
 14 15  1  0  0  0  0
 14 32  1  0  0  0  0
 15 16  2  0  0  0  0
 15 33  1  0  0  0  0
 16 17  1  0  0  0  0
 16 18  1  0  0  0  0
 18 19  2  0  0  0  0
 18 34  1  0  0  0  0
 19 35  1  0  0  0  0
 20 21  2  0  0  0  0
 20 36  1  0  0  0  0
 21 22  1  0  0  0  0
M  END
> <s_m_source_file>
AV-unprocessed.smi

> <i_m_source_file_index>
688

> <i_lp_mmshare_version>
43012

> <i_f3d_flags>
0

> <s_epik_input>
Tz1jMVtuSF1jKD1PKW4oW2NIXWMxQ2wpW0NIMl1bQ0BIXShbT0hdKVtDSDJdT1tDSDJdYzJbY0hdW2NIXWMoQ2wpW2NIXVtjSF0y

> <s_epik_cmdline>
J2VwaWtfcHl0aG9uJywgJy1waCcsICc3LjAnLCAnLXRuJywgJzgnLCAnLW1hJywgJzIwMCcsICctbWV0YWxfYmluZGluZycsICctaW1hZScsICc8aW5maWxlLm1hZT4nLCAnLW9tYWUnLCAnPG91dGZpbGUubWFlPic=

> <r_lp_tautomer_probability>
0.999537

> <r_epik_Ionization_Penalty>
0.0280571

> <r_epik_Ionization_Penalty_Charging>
0.028057

> <r_epik_Ionization_Penalty_Neutral>
6.25502e-08

> <r_epik_State_Penalty>
0.0230008

> <r_epik_Charging_Adjusted_Penalty>
0.0510579

> <i_epik_Tot_Q>
0

> <i_epik_Tot_abs_Q>
0

> <r_epik_Metal_State_Penalty>
2.1942

> <b_epik_Metal_Only>
0

> <s_lp_Force_Field>
OPLS_2005

> <r_lp_Energy>
17.1949

> <b_lp_Chiralities_Consistent>
1

> <s_lp_Variant>
AV-unprocessed.smi:688-1

> <Gold.Version>
5.8.1

> <Gold.Id.Protein>
6NUR|6NUR_protein|mol2

> <Gold.PLP.Fitness>
48.1203

> <Gold.PLP.PLP>
-35.8049

> <Gold.PLP.part.hbond>
-4.3127

> <Gold.PLP.part.metal>
0.0000

> <Gold.PLP.part.buried>
2.3256

> <Gold.PLP.part.nonpolar>
-34.1318

> <Gold.PLP.part.repulsive>
0.5241

> <Gold.PLP.ligand.clash>
0.0000

> <Gold.PLP.ligand.torsion>
0.8541

> <Gold.PLP.Chemscore.Hbond>
3.0000

> <Gold.PLP.Chemscore.CHOScore>
1.6544

> <Gold.PLP.Chemscore.Metal>
0.0000

> <Gold.Chemscore.Hbonds>
donor molecule, donor type, donor heavy atom, donor atom, acceptor molecule, acceptor atom, score
      L1  H     3    23       P1 10957  1.00
      L1  H     9    27       P1  7948  1.00
      P1  H 11000 11005       L1     1  1.00
      L1  C    20    36       P1 10171  0.69
      L1  C    20    36       P1 10175  1.00

> <Gold.PLP.Chemscore.Internal.Correction>
0.0604

> <Gold.Rescore>
     Score         DG    S(hbond)    S(metal)    S(lipo)     H(rot)  DE(clash)    DE(int)     intcor
     14.60     -18.32       2.99        0.00      88.65       2.94       2.88       0.84       ----

> <Gold.Chemscore.Fitness>
14.5965

> <Gold.Chemscore.DG>
-18.3159

> <Gold.Chemscore.ZeroCoef>
-5.4800

> <Gold.Chemscore.Hbond>
2.9934

> <Gold.Chemscore.Metal>
0.0000

> <Gold.Chemscore.Lipo>
88.6477

> <Gold.Chemscore.Internal_Hbond>
0.0000

> <Gold.Chemscore.DEClash>
2.8822

> <Gold.Chemscore.DEInternal>
0.8373

> <Gold.Chemscore.Rot>
2.9429

> <Gold.Chemscore.Internal.Correction>
   9.000000E+99

> <Gold.Chemscore.Hbonds>
donor molecule, donor type, donor heavy atom, donor atom, acceptor molecule, acceptor atom, score
      L1  H     3    23       P1 10957  0.93
      L1  H     9    27       P1  7948  1.00
      P1  H 11000 11005       L1     1  0.95

> <Gold.Chemscore.Hbond.Weighted>
-9.9979

> <Gold.Chemscore.Metal.Weighted>
-0.0000

> <Gold.Chemscore.Lipo.Weighted>
-10.3718

> <Gold.Chemscore.Internal_Hbond.Weighted>
0.0000

> <Gold.Chemscore.DEClash.Weighted>
2.8822

> <Gold.Chemscore.DEInternal.Weighted>
0.8373

> <Gold.Chemscore.Rot.Weighted>
7.5337

> <Gold.Chemscore.Internal.Correction.Weighted>
   9.000000E+99

> <Gold.Protein.RotatedTorsions>
[ 6907 6896 6895 6894 ] final  -83.60 input  -60.11 | X-H torsion
[ 7974 7965 7964 7962 ] final  -36.00 input  175.53 | X-H torsion
[ 8008 7997 7996 7995 ] final -171.78 input   59.86 | X-H torsion
[ 10167 10162 10161 10158 ] final -157.62 input  -65.29 | X-H torsion
[ 10718 10713 10712 10709 ] final  150.80 input   66.30 | X-H torsion
[ 10763 10752 10751 10750 ] final -158.03 input  -60.55 | X-H torsion
[ 11005 11000 10999 10996 ] final   47.96 input  -57.11 | X-H torsion

> <Gold.Protein.ActiveResidues>
 VAL166  LYS551  ARG553  GLY616  TRP617  ASP618  TYR619  PRO620  LYS621  CYS622 
 ASP623  PHE694  ASN695  SER759  ASP760  ASP761  ALA762  ILE779  LEU786  VAL792 
 PHE793  MET794  SER795  GLU796  ALA797  LYS798  CYS799  TRP800  GLU811  SER814 

> <Gold.Protein.RotatedAtoms>
  150.6884  134.3487  159.4899 H   0  0  0  0  0  0  0  0  0  0  0  0  # atno 6907 bound_to 6896
  152.1331  134.9117  160.0567 H   0  0  0  0  0  0  0  0  0  0  0  0  # atno 6908 bound_to 6896
  152.0279  133.3890  159.4322 H   0  0  0  0  0  0  0  0  0  0  0  0  # atno 6909 bound_to 6896
  146.0699  140.6226  142.8957 H   0  0  0  0  0  0  0  0  0  0  0  0  # atno 7974 bound_to 7965
  155.9361  140.1100  157.1094 H   0  0  0  0  0  0  0  0  0  0  0  0  # atno 8008 bound_to 7997
  154.4080  140.1228  156.4931 H   0  0  0  0  0  0  0  0  0  0  0  0  # atno 8009 bound_to 7997
  155.7020  140.3472  155.4939 H   0  0  0  0  0  0  0  0  0  0  0  0  # atno 8010 bound_to 7997
  139.6756  143.9669  152.2308 H   0  0  0  0  0  0  0  0  0  0  0  0  # atno 10167 bound_to 10162
  157.2788  131.0831  151.1546 H   0  0  0  0  0  0  0  0  0  0  0  0  # atno 10718 bound_to 10713
  154.7589  135.3112  154.8416 H   0  0  0  0  0  0  0  0  0  0  0  0  # atno 10763 bound_to 10752
  153.9183  135.6798  153.4753 H   0  0  0  0  0  0  0  0  0  0  0  0  # atno 10764 bound_to 10752
  153.1188  135.4832  154.9091 H   0  0  0  0  0  0  0  0  0  0  0  0  # atno 10765 bound_to 10752
  140.1233  134.4801  155.8580 H   0  0  0  0  0  0  0  0  0  0  0  0  # atno 11005 bound_to 11000
  144.7225  140.4420  143.6997 LP  0  0  0  0  0  0  0  0  0  0  0  0  # atno 17320 bound_to 7965
  145.6410  139.1550  143.2915 LP  0  0  0  0  0  0  0  0  0  0  0  0  # atno 17321 bound_to 7965
  139.9446  144.6660  150.8232 LP  0  0  0  0  0  0  0  0  0  0  0  0  # atno 17342 bound_to 10162
  140.7634  143.3222  151.2596 LP  0  0  0  0  0  0  0  0  0  0  0  0  # atno 17343 bound_to 10162
  157.2989  130.6833  149.6153 LP  0  0  0  0  0  0  0  0  0  0  0  0  # atno 17370 bound_to 10713
  155.9664  130.4398  150.5274 LP  0  0  0  0  0  0  0  0  0  0  0  0  # atno 17371 bound_to 10713
  141.2156  133.6768  156.6930 LP  0  0  0  0  0  0  0  0  0  0  0  0  # atno 17394 bound_to 11000
  140.2937  134.8220  157.4038 LP  0  0  0  0  0  0  0  0  0  0  0  0  # atno 17395 bound_to 11000

$$$$
