AV-unprocessed.smi:155|AV-procd|sdf|1267|dock5
  -GOLD-   2262018523D 1   1.00000     0.00000
 Structure written by MMmdl.
 63 66  0  0  0  0  0  0  0  0  2 V2000
  152.8707  142.4066  160.3268 C   0  0  0  0  0  0  0  0  0  0  0  0
  152.3867  142.6336  158.9694 N   0  0  0  0  0  0  0  0  0  0  0  0
  151.5929  143.8553  158.9673 C   0  0  0  0  0  0  0  0  0  0  0  0
  151.5595  141.5248  158.4937 C   0  0  0  0  0  0  0  0  0  0  0  0
  150.8459  141.8047  157.1474 C   0  0  0  0  0  0  0  0  0  0  0  0
  150.6914  140.6245  156.2551 N   0  3  2  0  0  0  0  0  0  0  0  0
  151.9748  140.0837  155.7271 C   0  0  0  0  0  0  0  0  0  0  0  0
  151.8089  138.8558  154.8070 C   0  0  0  0  0  0  0  0  0  0  0  0
  150.8750  137.7589  155.3558 C   0  0  0  0  0  0  0  0  0  0  0  0
  149.5198  138.2458  155.6276 N   0  0  0  0  0  0  0  0  0  0  0  0
  148.7877  137.6549  156.6079 C   0  0  0  0  0  0  0  0  0  0  0  0
  147.5493  137.1913  156.2941 N   0  0  0  0  0  0  0  0  0  0  0  0
  146.7860  136.6097  157.2236 C   0  0  0  0  0  0  0  0  0  0  0  0
  147.0630  136.3866  158.5090 N   0  0  0  0  0  0  0  0  0  0  0  0
  148.3096  136.8354  158.8298 C   0  0  0  0  0  0  0  0  0  0  0  0
  149.2321  137.4728  157.9513 C   0  0  0  0  0  0  0  0  0  0  0  0
  150.4061  137.7622  158.6395 N   0  0  0  0  0  0  0  0  0  0  0  0
  150.1815  137.3426  159.8547 C   0  0  0  0  0  0  0  0  0  0  0  0
  148.9453  136.7743  160.0561 N   0  0  0  0  0  0  0  0  0  0  0  0
  148.4263  136.2278  161.2982 C   0  0  0  0  0  0  0  0  0  0  0  0
  146.8928  136.3865  161.4146 C   0  0  2  0  0  0  0  0  0  0  0  0
  146.6204  137.7685  161.5565 O   0  0  0  0  0  0  0  0  0  0  0  0
  146.2696  135.6732  162.6366 C   0  0  2  0  0  0  0  0  0  0  0  0
  146.4811  134.1482  162.6880 C   0  0  0  0  0  0  0  0  0  0  0  0
  145.2021  133.5884  162.1085 C   0  0  0  0  0  0  0  0  0  0  0  0
  144.1850  134.5842  162.6376 C   0  0  0  0  0  0  0  0  0  0  0  0
  144.8504  135.8356  162.5392 O   0  0  0  0  0  0  0  0  0  0  0  0
  148.9738  139.3735  154.8691 C   0  0  0  0  0  0  0  0  0  0  0  0
  149.5917  140.7405  155.2582 C   0  0  0  0  0  0  0  0  0  0  0  0
  153.5386  141.5479  160.3766 H   0  0  0  0  0  0  0  0  0  0  0  0
  152.0461  142.2410  161.0218 H   0  0  0  0  0  0  0  0  0  0  0  0
  153.4380  143.2702  160.6764 H   0  0  0  0  0  0  0  0  0  0  0  0
  151.2349  144.0807  157.9621 H   0  0  0  0  0  0  0  0  0  0  0  0
  152.1933  144.7035  159.2990 H   0  0  0  0  0  0  0  0  0  0  0  0
  150.7280  143.7706  159.6272 H   0  0  0  0  0  0  0  0  0  0  0  0
  152.1934  140.6429  158.3870 H   0  0  0  0  0  0  0  0  0  0  0  0
  150.8211  141.2641  159.2522 H   0  0  0  0  0  0  0  0  0  0  0  0
  149.8817  142.2928  157.2836 H   0  0  0  0  0  0  0  0  0  0  0  0
  151.4480  142.5295  156.5981 H   0  0  0  0  0  0  0  0  0  0  0  0
  152.5072  140.8524  155.1695 H   0  0  0  0  0  0  0  0  0  0  0  0
  152.6066  139.8174  156.5753 H   0  0  0  0  0  0  0  0  0  0  0  0
  151.4640  139.1774  153.8240 H   0  0  0  0  0  0  0  0  0  0  0  0
  152.7927  138.4205  154.6284 H   0  0  0  0  0  0  0  0  0  0  0  0
  150.8147  136.9343  154.6447 H   0  0  0  0  0  0  0  0  0  0  0  0
  151.3122  137.3554  156.2704 H   0  0  0  0  0  0  0  0  0  0  0  0
  145.8142  136.2766  156.8899 H   0  0  0  0  0  0  0  0  0  0  0  0
  150.9134  137.4390  160.6436 H   0  0  0  0  0  0  0  0  0  0  0  0
  148.7216  135.1806  161.3356 H   0  0  0  0  0  0  0  0  0  0  0  0
  148.9246  136.7227  162.1331 H   0  0  0  0  0  0  0  0  0  0  0  0
  146.4196  136.0290  160.4989 H   0  0  0  0  0  0  0  0  0  0  0  0
  145.9898  137.8755  162.2528 H   0  0  0  0  0  0  0  0  0  0  0  0
  146.6329  136.1227  163.5623 H   0  0  0  0  0  0  0  0  0  0  0  0
  147.3649  133.7841  162.1689 H   0  0  0  0  0  0  0  0  0  0  0  0
  146.5691  133.8320  163.7284 H   0  0  0  0  0  0  0  0  0  0  0  0
  145.2340  133.6204  161.0185 H   0  0  0  0  0  0  0  0  0  0  0  0
  145.0008  132.5632  162.4199 H   0  0  0  0  0  0  0  0  0  0  0  0
  143.2528  134.5789  162.0721 H   0  0  0  0  0  0  0  0  0  0  0  0
  143.9548  134.3812  163.6846 H   0  0  0  0  0  0  0  0  0  0  0  0
  149.1626  139.1831  153.8122 H   0  0  0  0  0  0  0  0  0  0  0  0
  147.8871  139.4090  154.9510 H   0  0  0  0  0  0  0  0  0  0  0  0
  148.7959  141.3551  155.6806 H   0  0  0  0  0  0  0  0  0  0  0  0
  149.9426  141.2688  154.3708 H   0  0  0  0  0  0  0  0  0  0  0  0
  150.3642  139.9007  156.8793 H   0  0  0  0  0  0  0  0  0  0  0  0
  1  2  1  0  0  0  0
  1 30  1  0  0  0  0
  1 31  1  0  0  0  0
  1 32  1  0  0  0  0
  2  3  1  0  0  0  0
  2  4  1  0  0  0  0
  3 33  1  0  0  0  0
  3 34  1  0  0  0  0
  3 35  1  0  0  0  0
  4  5  1  0  0  0  0
  4 36  1  0  0  0  0
  4 37  1  0  0  0  0
  5  6  1  0  0  0  0
  5 38  1  0  0  0  0
  5 39  1  0  0  0  0
  6 29  1  0  0  0  0
  6  7  1  0  0  0  0
  6 63  1  0  0  0  0
  7  8  1  0  0  0  0
  7 40  1  0  0  0  0
  7 41  1  0  0  0  0
  8  9  1  0  0  0  0
  8 42  1  0  0  0  0
  8 43  1  0  0  0  0
  9 10  1  0  0  0  0
  9 44  1  0  0  0  0
  9 45  1  0  0  0  0
 10 11  1  0  0  0  0
 10 28  1  0  0  0  0
 11 16  1  0  0  0  0
 11 12  2  0  0  0  0
 12 13  1  0  0  0  0
 13 14  2  0  0  0  0
 13 46  1  0  0  0  0
 14 15  1  0  0  0  0
 15 19  1  0  0  0  0
 15 16  2  0  0  0  0
 16 17  1  0  0  0  0
 17 18  2  0  0  0  0
 18 19  1  0  0  0  0
 18 47  1  0  0  0  0
 19 20  1  0  0  0  0
 20 21  1  0  0  0  0
 20 48  1  0  0  0  0
 20 49  1  0  0  0  0
 21 22  1  0  0  0  0
 21 23  1  0  0  0  0
 21 50  1  0  0  0  0
 22 51  1  0  0  0  0
 23 27  1  0  0  0  0
 23 24  1  0  0  0  0
 23 52  1  0  0  0  0
 24 25  1  0  0  0  0
 24 53  1  0  0  0  0
 24 54  1  0  0  0  0
 25 26  1  0  0  0  0
 25 55  1  0  0  0  0
 25 56  1  0  0  0  0
 26 27  1  0  0  0  0
 26 57  1  0  0  0  0
 26 58  1  0  0  0  0
 28 29  1  0  0  0  0
 28 59  1  0  0  0  0
 28 60  1  0  0  0  0
 29 61  1  0  0  0  0
 29 62  1  0  0  0  0
M  CHG  1   6   1
M  END
> <s_m_source_file>
AV-unprocessed.smi

> <i_m_source_file_index>
155

> <i_lp_mmshare_version>
43012

> <i_f3d_flags>
0

> <s_epik_input>
W0NIM11OKFtDSDNdKVtDSDJdW0NIMl1OMVtDSDJdW0NIMl1bQ0gyXU4oW0NIMl1bQ0gyXTEpYyhuW2NIXW4yKWMoYzIzKW5bY0hdbjNbQ0gyXVtDQEhdKFtPSF0pW0NAQEhdNFtDSDJdW0NIMl1bQ0gyXU80

> <s_epik_cmdline>
J2VwaWtfcHl0aG9uJywgJy1waCcsICc3LjAnLCAnLXRuJywgJzgnLCAnLW1hJywgJzIwMCcsICctbWV0YWxfYmluZGluZycsICctaW1hZScsICc8aW5maWxlLm1hZT4nLCAnLW9tYWUnLCAnPG91dGZpbGUubWFlPic=

> <r_epik_Ionization_Penalty>
0.0619615

> <r_epik_Ionization_Penalty_Charging>
0.0161638

> <r_epik_Ionization_Penalty_Neutral>
0.0457976

> <r_epik_State_Penalty>
0.403408

> <r_epik_Charging_Adjusted_Penalty>
0.419572

> <i_epik_Tot_Q>
1

> <i_epik_Tot_abs_Q>
1

> <r_epik_Metal_State_Penalty>
0.404222

> <b_epik_Metal_Only>
0

> <s_lp_Force_Field>
OPLS_2005

> <r_lp_Energy>
58.592

> <b_lp_Chiralities_Consistent>
1

> <s_lp_Variant>
AV-unprocessed.smi:155-1

> <Gold.Version>
5.8.1

> <Gold.Id.Protein>
6NUR|6NUR_protein|mol2

> <Gold.PLP.Fitness>
45.9011

> <Gold.PLP.PLP>
-45.5317

> <Gold.PLP.part.hbond>
-1.7732

> <Gold.PLP.part.metal>
0.0000

> <Gold.PLP.part.buried>
-3.7492

> <Gold.PLP.part.nonpolar>
-40.3074

> <Gold.PLP.part.repulsive>
0.1292

> <Gold.PLP.ligand.clash>
0.0000

> <Gold.PLP.ligand.torsion>
1.7921

> <Gold.PLP.Chemscore.Hbond>
1.2597

> <Gold.PLP.Chemscore.CHOScore>
0.0000

> <Gold.PLP.Chemscore.Metal>
0.0000

> <Gold.Chemscore.Hbonds>
donor molecule, donor type, donor heavy atom, donor atom, acceptor molecule, acceptor atom, score
      P1  H  6934  6947       L1    22  0.89

> <Gold.PLP.Chemscore.Internal.Correction>
0.1744

> <Gold.Rescore>
     Score         DG    S(hbond)    S(metal)    S(lipo)     H(rot)  DE(clash)    DE(int)     intcor
     11.71     -14.76       0.86        0.00     112.24       2.63       0.10       2.95       ----

> <Gold.Chemscore.Fitness>
11.7060

> <Gold.Chemscore.DG>
-14.7598

> <Gold.Chemscore.ZeroCoef>
-5.4800

> <Gold.Chemscore.Hbond>
0.8642

> <Gold.Chemscore.Metal>
0.0000

> <Gold.Chemscore.Lipo>
112.2421

> <Gold.Chemscore.Internal_Hbond>
0.0000

> <Gold.Chemscore.DEClash>
0.1020

> <Gold.Chemscore.DEInternal>
2.9518

> <Gold.Chemscore.Rot>
2.6324

> <Gold.Chemscore.Internal.Correction>
   9.000000E+99

> <Gold.Chemscore.Hbonds>
donor molecule, donor type, donor heavy atom, donor atom, acceptor molecule, acceptor atom, score
      P1  H  6934  6947       L1    22  0.77

> <Gold.Chemscore.Hbond.Weighted>
-2.8864

> <Gold.Chemscore.Metal.Weighted>
-0.0000

> <Gold.Chemscore.Lipo.Weighted>
-13.1323

> <Gold.Chemscore.Internal_Hbond.Weighted>
0.0000

> <Gold.Chemscore.DEClash.Weighted>
0.1020

> <Gold.Chemscore.DEInternal.Weighted>
2.9518

> <Gold.Chemscore.Rot.Weighted>
6.7389

> <Gold.Chemscore.Internal.Correction.Weighted>
   9.000000E+99

> <Gold.Protein.RotatedTorsions>
[ 6907 6896 6895 6894 ] final -108.87 input  -60.11 | X-H torsion
[ 7974 7965 7964 7962 ] final   85.21 input  175.53 | X-H torsion
[ 8008 7997 7996 7995 ] final  178.63 input   59.86 | X-H torsion
[ 10167 10162 10161 10158 ] final  161.48 input  -65.29 | X-H torsion
[ 10718 10713 10712 10709 ] final  -83.19 input   66.30 | X-H torsion
[ 10763 10752 10751 10750 ] final   40.16 input  -60.55 | X-H torsion
[ 11005 11000 10999 10996 ] final   28.04 input  -57.11 | X-H torsion

> <Gold.Protein.ActiveResidues>
 VAL166  LYS551  ARG553  GLY616  TRP617  ASP618  TYR619  PRO620  LYS621  CYS622 
 ASP623  PHE694  ASN695  SER759  ASP760  ASP761  ALA762  ILE779  LEU786  VAL792 
 PHE793  MET794  SER795  GLU796  ALA797  LYS798  CYS799  TRP800  GLU811  SER814 

> <Gold.Protein.RotatedAtoms>
  150.7527  133.9614  159.3516 H   0  0  0  0  0  0  0  0  0  0  0  0  # atno 6907 bound_to 6896
  151.7540  135.0824  160.0344 H   0  0  0  0  0  0  0  0  0  0  0  0  # atno 6908 bound_to 6896
  152.3447  133.6071  159.5938 H   0  0  0  0  0  0  0  0  0  0  0  0  # atno 6909 bound_to 6896
  145.5885  139.2335  143.2312 H   0  0  0  0  0  0  0  0  0  0  0  0  # atno 7974 bound_to 7965
  156.0525  140.1328  157.0034 H   0  0  0  0  0  0  0  0  0  0  0  0  # atno 8008 bound_to 7997
  154.4441  140.1008  156.6467 H   0  0  0  0  0  0  0  0  0  0  0  0  # atno 8009 bound_to 7997
  155.5502  140.3463  155.4469 H   0  0  0  0  0  0  0  0  0  0  0  0  # atno 8010 bound_to 7997
  139.4850  144.4532  151.8802 H   0  0  0  0  0  0  0  0  0  0  0  0  # atno 10167 bound_to 10162
  156.0022  130.4658  150.4220 H   0  0  0  0  0  0  0  0  0  0  0  0  # atno 10718 bound_to 10713
  152.9944  135.6199  154.2582 H   0  0  0  0  0  0  0  0  0  0  0  0  # atno 10763 bound_to 10752
  154.2319  135.2792  155.2888 H   0  0  0  0  0  0  0  0  0  0  0  0  # atno 10764 bound_to 10752
  154.5442  135.5752  153.6924 H   0  0  0  0  0  0  0  0  0  0  0  0  # atno 10765 bound_to 10752
  140.3199  134.2555  155.7719 H   0  0  0  0  0  0  0  0  0  0  0  0  # atno 11005 bound_to 11000
  146.1664  140.6712  142.9253 LP  0  0  0  0  0  0  0  0  0  0  0  0  # atno 17320 bound_to 7965
  144.7362  140.4814  143.6902 LP  0  0  0  0  0  0  0  0  0  0  0  0  # atno 17321 bound_to 7965
  140.3990  144.2518  150.5894 LP  0  0  0  0  0  0  0  0  0  0  0  0  # atno 17342 bound_to 10162
  140.5075  143.2300  151.8586 LP  0  0  0  0  0  0  0  0  0  0  0  0  # atno 17343 bound_to 10162
  157.2275  131.0496  151.2511 LP  0  0  0  0  0  0  0  0  0  0  0  0  # atno 17370 bound_to 10713
  157.3742  130.7197  149.6586 LP  0  0  0  0  0  0  0  0  0  0  0  0  # atno 17371 bound_to 10713
  141.2089  133.7764  157.0030 LP  0  0  0  0  0  0  0  0  0  0  0  0  # atno 17394 bound_to 11000
  140.0951  134.9569  157.1837 LP  0  0  0  0  0  0  0  0  0  0  0  0  # atno 17395 bound_to 11000

$$$$
