AV-unprocessed.smi:1383|AV-procd|sdf|5622|dock4
  -GOLD-   22720 5233D 1   1.00000     0.00000
 Structure written by MMmdl.
 31 31  0  0  0  0  0  0  0  0  1 V2000
  153.8325  141.6265  160.4215 C   0  0  0  0  0  0  0  0  0  0  0  0
  152.8730  142.8267  160.4535 C   0  0  0  0  0  0  0  0  0  0  0  0
  152.3709  143.2758  159.0635 C   0  0  2  0  0  0  0  0  0  0  0  0
  151.3482  144.4180  159.1910 C   0  0  0  0  0  0  0  0  0  0  0  0
  151.7649  142.1088  158.2682 C   0  0  0  0  0  0  0  0  0  0  0  0
  151.6896  140.9935  158.7853 O   0  0  0  0  0  0  0  0  0  0  0  0
  151.3504  142.4020  157.0211 N   0  0  0  0  0  0  0  0  0  0  0  0
  150.7610  141.5373  156.0628 C   0  0  0  0  0  0  0  0  0  0  0  0
  149.5434  141.7109  155.5371 N   0  0  0  0  0  0  0  0  0  0  0  0
  149.2180  140.7140  154.6108 C   0  0  0  0  0  0  0  0  0  0  0  0
  147.8889  140.7420  153.9115 C   0  0  0  0  0  0  0  0  0  0  0  0
  147.4864  139.3377  153.4533 C   0  0  0  0  0  0  0  0  0  0  0  0
  148.1932  138.7891  152.4607 N   0  0  0  0  0  0  0  0  0  0  0  0
  146.5548  138.7483  153.9966 O   0  0  0  0  0  0  0  0  0  0  0  0
  150.2102  139.7754  154.4562 C   0  0  0  0  0  0  0  0  0  0  0  0
  151.5961  140.1160  155.4571 S   0  0  0  0  0  0  0  0  0  0  0  0
  154.1989  141.3999  161.4229 H   0  0  0  0  0  0  0  0  0  0  0  0
  154.6978  141.8310  159.7906 H   0  0  0  0  0  0  0  0  0  0  0  0
  153.3441  140.7287  160.0423 H   0  0  0  0  0  0  0  0  0  0  0  0
  152.0259  142.5937  161.1005 H   0  0  0  0  0  0  0  0  0  0  0  0
  153.3881  143.6620  160.9293 H   0  0  0  0  0  0  0  0  0  0  0  0
  153.2251  143.6653  158.5068 H   0  0  0  0  0  0  0  0  0  0  0  0
  150.9682  144.7234  158.2151 H   0  0  0  0  0  0  0  0  0  0  0  0
  151.8004  145.2961  159.6526 H   0  0  0  0  0  0  0  0  0  0  0  0
  150.4945  144.1264  159.8042 H   0  0  0  0  0  0  0  0  0  0  0  0
  151.4747  143.3586  156.7238 H   0  0  0  0  0  0  0  0  0  0  0  0
  147.1139  141.1370  154.5696 H   0  0  0  0  0  0  0  0  0  0  0  0
  147.9250  141.4068  153.0474 H   0  0  0  0  0  0  0  0  0  0  0  0
  147.9685  137.8612  152.1328 H   0  0  0  0  0  0  0  0  0  0  0  0
  148.9577  139.3038  152.0480 H   0  0  0  0  0  0  0  0  0  0  0  0
  150.2102  138.9077  153.8135 H   0  0  0  0  0  0  0  0  0  0  0  0
  1  2  1  0  0  0  0
  1 17  1  0  0  0  0
  1 18  1  0  0  0  0
  1 19  1  0  0  0  0
  2  3  1  0  0  0  0
  2 20  1  0  0  0  0
  2 21  1  0  0  0  0
  3  4  1  0  0  0  0
  3  5  1  0  0  0  0
  3 22  1  0  0  0  0
  4 23  1  0  0  0  0
  4 24  1  0  0  0  0
  4 25  1  0  0  0  0
  5  6  2  0  0  0  0
  5  7  1  0  0  0  0
  7  8  1  0  0  0  0
  7 26  1  0  0  0  0
  8 16  1  0  0  0  0
  8  9  2  0  0  0  0
  9 10  1  0  0  0  0
 10 11  1  0  0  0  0
 10 15  2  0  0  0  0
 11 12  1  0  0  0  0
 11 27  1  0  0  0  0
 11 28  1  0  0  0  0
 12 13  1  0  0  0  0
 12 14  2  0  0  0  0
 13 29  1  0  0  0  0
 13 30  1  0  0  0  0
 15 16  1  0  0  0  0
 15 31  1  0  0  0  0
M  END
> <s_m_source_file>
AV-unprocessed.smi

> <i_m_source_file_index>
1383

> <i_lp_mmshare_version>
43012

> <i_f3d_flags>
0

> <s_epik_input>
W0NIM11bQ0gyXVtDQEhdKFtDSDNdKUMoPU8pW05IXWMxbmMoW2NIXXMxKVtDSDJdQyg9TylbTkgyXQ==

> <s_epik_cmdline>
J2VwaWtfcHl0aG9uJywgJy1waCcsICc3LjAnLCAnLXRuJywgJzgnLCAnLW1hJywgJzIwMCcsICctbWV0YWxfYmluZGluZycsICctaW1hZScsICc8aW5maWxlLm1hZT4nLCAnLW9tYWUnLCAnPG91dGZpbGUubWFlPic=

> <r_lp_tautomer_probability>
1

> <r_epik_Ionization_Penalty>
0.00017492

> <r_epik_Ionization_Penalty_Charging>
0

> <r_epik_Ionization_Penalty_Neutral>
0.00017492

> <r_epik_State_Penalty>
-0

> <r_epik_Charging_Adjusted_Penalty>
0

> <i_epik_Tot_Q>
0

> <i_epik_Tot_abs_Q>
0

> <r_epik_Metal_State_Penalty>
0.109333

> <b_epik_Metal_Only>
0

> <s_lp_Force_Field>
OPLS_2005

> <r_lp_Energy>
2.98053

> <b_lp_Chiralities_Consistent>
1

> <s_lp_Variant>
AV-unprocessed.smi:1383-1

> <Gold.Version>
5.8.1

> <Gold.Id.Protein>
6NUR|6NUR_protein|mol2

> <Gold.PLP.Fitness>
38.8088

> <Gold.PLP.PLP>
-36.1968

> <Gold.PLP.part.hbond>
-1.7986

> <Gold.PLP.part.metal>
0.0000

> <Gold.PLP.part.buried>
-3.1970

> <Gold.PLP.part.nonpolar>
-31.7169

> <Gold.PLP.part.repulsive>
0.6199

> <Gold.PLP.ligand.clash>
0.0000

> <Gold.PLP.ligand.torsion>
1.0218

> <Gold.PLP.Chemscore.Hbond>
1.5280

> <Gold.PLP.Chemscore.CHOScore>
0.0000

> <Gold.PLP.Chemscore.Metal>
0.0000

> <Gold.Chemscore.Hbonds>
donor molecule, donor type, donor heavy atom, donor atom, acceptor molecule, acceptor atom, score
      L1  H    13    29       P1  7948  0.70
      L1  H    13    30       P1  7957  0.44

> <Gold.PLP.Chemscore.Internal.Correction>
0.0717

> <Gold.Rescore>
     Score         DG    S(hbond)    S(metal)    S(lipo)     H(rot)  DE(clash)    DE(int)     intcor
     10.58     -14.15       1.70        0.00      73.54       2.19       0.08       3.49       ----

> <Gold.Chemscore.Fitness>
10.5830

> <Gold.Chemscore.DG>
-14.1475

> <Gold.Chemscore.ZeroCoef>
-5.4800

> <Gold.Chemscore.Hbond>
1.7013

> <Gold.Chemscore.Metal>
0.0000

> <Gold.Chemscore.Lipo>
73.5374

> <Gold.Chemscore.Internal_Hbond>
0.0000

> <Gold.Chemscore.DEClash>
0.0776

> <Gold.Chemscore.DEInternal>
3.4868

> <Gold.Chemscore.Rot>
2.1948

> <Gold.Chemscore.Internal.Correction>
   9.000000E+99

> <Gold.Chemscore.Hbonds>
donor molecule, donor type, donor heavy atom, donor atom, acceptor molecule, acceptor atom, score
      L1  H    13    29       P1  7948  0.70
      L1  H    13    30       P1  7957  0.45

> <Gold.Chemscore.Hbond.Weighted>
-5.6822

> <Gold.Chemscore.Metal.Weighted>
-0.0000

> <Gold.Chemscore.Lipo.Weighted>
-8.6039

> <Gold.Chemscore.Internal_Hbond.Weighted>
0.0000

> <Gold.Chemscore.DEClash.Weighted>
0.0776

> <Gold.Chemscore.DEInternal.Weighted>
3.4868

> <Gold.Chemscore.Rot.Weighted>
5.6186

> <Gold.Chemscore.Internal.Correction.Weighted>
   9.000000E+99

> <Gold.Protein.RotatedTorsions>
[ 6907 6896 6895 6894 ] final -145.47 input  -60.11 | X-H torsion
[ 7974 7965 7964 7962 ] final    9.19 input  175.53 | X-H torsion
[ 8008 7997 7996 7995 ] final  -49.88 input   59.86 | X-H torsion
[ 10167 10162 10161 10158 ] final -114.71 input  -65.29 | X-H torsion
[ 10718 10713 10712 10709 ] final -173.41 input   66.30 | X-H torsion
[ 10763 10752 10751 10750 ] final -142.25 input  -60.55 | X-H torsion
[ 11005 11000 10999 10996 ] final   92.87 input  -57.11 | X-H torsion

> <Gold.Protein.ActiveResidues>
 VAL166  LYS551  ARG553  GLY616  TRP617  ASP618  TYR619  PRO620  LYS621  CYS622 
 ASP623  PHE694  ASN695  SER759  ASP760  ASP761  ALA762  ILE779  LEU786  VAL792 
 PHE793  MET794  SER795  GLU796  ALA797  LYS798  CYS799  TRP800  GLU811  SER814 

> <Gold.Protein.RotatedAtoms>
  151.1283  133.5055  159.2599 H   0  0  0  0  0  0  0  0  0  0  0  0  # atno 6907 bound_to 6896
  151.1786  135.0350  159.8792 H   0  0  0  0  0  0  0  0  0  0  0  0  # atno 6908 bound_to 6896
  152.5459  134.1138  159.8423 H   0  0  0  0  0  0  0  0  0  0  0  0  # atno 6909 bound_to 6896
  146.2407  139.9821  142.8435 H   0  0  0  0  0  0  0  0  0  0  0  0  # atno 7974 bound_to 7965
  154.4052  140.1286  156.4576 H   0  0  0  0  0  0  0  0  0  0  0  0  # atno 8008 bound_to 7997
  155.7305  140.3491  155.5037 H   0  0  0  0  0  0  0  0  0  0  0  0  # atno 8009 bound_to 7997
  155.9132  140.1039  157.1254 H   0  0  0  0  0  0  0  0  0  0  0  0  # atno 8010 bound_to 7997
  140.0980  143.4639  152.1829 H   0  0  0  0  0  0  0  0  0  0  0  0  # atno 10167 bound_to 10162
  156.7699  130.9445  151.3119 H   0  0  0  0  0  0  0  0  0  0  0  0  # atno 10718 bound_to 10713
  154.8516  135.3501  154.5998 H   0  0  0  0  0  0  0  0  0  0  0  0  # atno 10763 bound_to 10752
  153.6607  135.6990  153.5183 H   0  0  0  0  0  0  0  0  0  0  0  0  # atno 10764 bound_to 10752
  153.2820  135.4260  155.1045 H   0  0  0  0  0  0  0  0  0  0  0  0  # atno 10765 bound_to 10752
  139.8817  134.8758  156.3636 H   0  0  0  0  0  0  0  0  0  0  0  0  # atno 11005 bound_to 11000
  145.1582  140.9659  143.4392 LP  0  0  0  0  0  0  0  0  0  0  0  0  # atno 17320 bound_to 7965
  145.0141  139.3483  143.6105 LP  0  0  0  0  0  0  0  0  0  0  0  0  # atno 17321 bound_to 7965
  139.5687  144.7450  151.3951 LP  0  0  0  0  0  0  0  0  0  0  0  0  # atno 17342 bound_to 10162
  140.6993  143.7672  150.7377 LP  0  0  0  0  0  0  0  0  0  0  0  0  # atno 17343 bound_to 10162
  157.6696  130.9038  150.0009 LP  0  0  0  0  0  0  0  0  0  0  0  0  # atno 17370 bound_to 10713
  156.1284  130.3644  149.9771 LP  0  0  0  0  0  0  0  0  0  0  0  0  # atno 17371 bound_to 10713
  140.9512  133.7449  156.0275 LP  0  0  0  0  0  0  0  0  0  0  0  0  # atno 17394 bound_to 11000
  140.8103  134.3407  157.5414 LP  0  0  0  0  0  0  0  0  0  0  0  0  # atno 17395 bound_to 11000

$$$$
