AV-unprocessed.smi:104|AV-procd|sdf|1005|dock8
  -GOLD-   2262018 03D 1   1.00000     0.00000
 Structure written by MMmdl.
 47 49  0  0  0  0  0  0  0  0  1 V2000
  147.6862  140.4002  153.4197 C   0  0  0  0  0  0  0  0  0  0  0  0
  148.6024  140.7287  154.5910 C   0  0  0  0  0  0  0  0  0  0  0  0
  148.3815  141.6897  155.3273 O   0  0  0  0  0  0  0  0  0  0  0  0
  149.6269  139.8650  154.6969 O   0  0  0  0  0  0  0  0  0  0  0  0
  150.6782  140.0943  155.6256 C   0  0  0  0  0  0  0  0  0  0  0  0
  150.8486  138.8882  156.5664 C   0  0  2  0  0  0  0  0  0  0  0  0
  149.6959  138.7029  157.3866 O   0  0  0  0  0  0  0  0  0  0  0  0
  150.0743  138.1211  158.5997 C   0  0  1  0  0  0  0  0  0  0  0  0
  149.3317  136.8403  158.8041 N   0  0  0  0  0  0  0  0  0  0  0  0
  149.2747  135.7422  157.9767 C   0  0  0  0  0  0  0  0  0  0  0  0
  150.1919  135.6781  156.3088 Br  0  0  0  0  0  0  0  0  0  0  0  0
  148.5442  134.7366  158.3690 N   0  0  0  0  0  0  0  0  0  0  0  0
  148.0331  135.1852  159.5803 C   0  0  0  0  0  0  0  0  0  0  0  0
  147.1640  134.6241  160.5497 C   0  0  0  0  0  0  0  0  0  0  0  0
  146.6318  133.3996  160.4337 N   0  0  0  0  0  0  0  0  0  0  0  0
  146.8531  135.3587  161.6431 N   0  0  0  0  0  0  0  0  0  0  0  0
  147.3681  136.5843  161.7816 C   0  0  0  0  0  0  0  0  0  0  0  0
  148.1939  137.2409  160.9628 N   0  0  0  0  0  0  0  0  0  0  0  0
  148.5109  136.4993  159.8613 C   0  0  0  0  0  0  0  0  0  0  0  0
  151.5765  137.8557  158.5323 C   0  0  2  0  0  0  0  0  0  0  0  0
  152.1686  137.9517  159.8210 O   0  0  0  0  0  0  0  0  0  0  0  0
  153.2595  137.2284  160.1174 C   0  0  0  0  0  0  0  0  0  0  0  0
  153.9614  137.7290  161.3723 C   0  0  0  0  0  0  0  0  0  0  0  0
  153.6891  136.2683  159.4780 O   0  0  0  0  0  0  0  0  0  0  0  0
  152.0253  138.9277  157.5484 C   0  0  2  0  0  0  0  0  0  0  0  0
  152.0974  140.2144  158.1612 O   0  0  0  0  0  0  0  0  0  0  0  0
  153.1685  140.5659  158.8959 C   0  0  0  0  0  0  0  0  0  0  0  0
  153.0031  141.9340  159.5424 C   0  0  0  0  0  0  0  0  0  0  0  0
  154.1879  139.8958  159.0600 O   0  0  0  0  0  0  0  0  0  0  0  0
  148.1319  140.7426  152.4859 H   0  0  0  0  0  0  0  0  0  0  0  0
  146.7196  140.8895  153.5420 H   0  0  0  0  0  0  0  0  0  0  0  0
  147.5217  139.3248  153.3523 H   0  0  0  0  0  0  0  0  0  0  0  0
  151.6142  140.3737  155.1402 H   0  0  0  0  0  0  0  0  0  0  0  0
  150.3791  140.9577  156.2200 H   0  0  0  0  0  0  0  0  0  0  0  0
  150.9389  137.9877  155.9576 H   0  0  0  0  0  0  0  0  0  0  0  0
  149.7776  138.7768  159.4183 H   0  0  0  0  0  0  0  0  0  0  0  0
  146.8461  132.8321  159.6262 H   0  0  0  0  0  0  0  0  0  0  0  0
  146.0181  133.0466  161.1537 H   0  0  0  0  0  0  0  0  0  0  0  0
  147.0773  137.1149  162.6764 H   0  0  0  0  0  0  0  0  0  0  0  0
  151.7271  136.8684  158.0908 H   0  0  0  0  0  0  0  0  0  0  0  0
  153.2903  137.6720  162.2295 H   0  0  0  0  0  0  0  0  0  0  0  0
  154.2722  138.7658  161.2427 H   0  0  0  0  0  0  0  0  0  0  0  0
  154.8453  137.1270  161.5835 H   0  0  0  0  0  0  0  0  0  0  0  0
  152.9612  138.6673  157.0519 H   0  0  0  0  0  0  0  0  0  0  0  0
  152.1293  141.9417  160.1940 H   0  0  0  0  0  0  0  0  0  0  0  0
  152.8739  142.6998  158.7773 H   0  0  0  0  0  0  0  0  0  0  0  0
  153.8812  142.1848  160.1381 H   0  0  0  0  0  0  0  0  0  0  0  0
  1  2  1  0  0  0  0
  1 30  1  0  0  0  0
  1 31  1  0  0  0  0
  1 32  1  0  0  0  0
  2  3  2  0  0  0  0
  2  4  1  0  0  0  0
  4  5  1  0  0  0  0
  5  6  1  0  0  0  0
  5 33  1  0  0  0  0
  5 34  1  0  0  0  0
  6 25  1  0  0  0  0
  6  7  1  0  0  0  0
  6 35  1  0  0  0  0
  7  8  1  0  0  0  0
  8  9  1  0  0  0  0
  8 20  1  0  0  0  0
  8 36  1  0  0  0  0
  9 19  1  0  0  0  0
  9 10  1  0  0  0  0
 10 11  1  0  0  0  0
 10 12  2  0  0  0  0
 12 13  1  0  0  0  0
 13 19  2  0  0  0  0
 13 14  1  0  0  0  0
 14 15  1  0  0  0  0
 14 16  2  0  0  0  0
 15 37  1  0  0  0  0
 15 38  1  0  0  0  0
 16 17  1  0  0  0  0
 17 18  2  0  0  0  0
 17 39  1  0  0  0  0
 18 19  1  0  0  0  0
 20 21  1  0  0  0  0
 20 25  1  0  0  0  0
 20 40  1  0  0  0  0
 21 22  1  0  0  0  0
 22 23  1  0  0  0  0
 22 24  2  0  0  0  0
 23 41  1  0  0  0  0
 23 42  1  0  0  0  0
 23 43  1  0  0  0  0
 25 26  1  0  0  0  0
 25 44  1  0  0  0  0
 26 27  1  0  0  0  0
 27 28  1  0  0  0  0
 27 29  2  0  0  0  0
 28 45  1  0  0  0  0
 28 46  1  0  0  0  0
 28 47  1  0  0  0  0
M  END
> <s_m_source_file>
AV-unprocessed.smi

> <i_m_source_file_index>
104

> <i_lp_mmshare_version>
43012

> <i_f3d_flags>
0

> <s_epik_input>
W0NIM11DKD1PKU9bQ0gyXVtDQEBIXTFPW0NASF0oW0NAQEhdKE9DKD1PKVtDSDNdKVtDQEhdMU9DKD1PKVtDSDNdKW4oYyhCciluMiljKGMyMyluW2NIXW5jM1tOSDJd

> <s_epik_cmdline>
J2VwaWtfcHl0aG9uJywgJy1waCcsICc3LjAnLCAnLXRuJywgJzgnLCAnLW1hJywgJzIwMCcsICctbWV0YWxfYmluZGluZycsICctaW1hZScsICc8aW5maWxlLm1hZT4nLCAnLW9tYWUnLCAnPG91dGZpbGUubWFlPic=

> <r_lp_tautomer_probability>
1

> <r_epik_Ionization_Penalty>
7.36622e-05

> <r_epik_Ionization_Penalty_Charging>
0

> <r_epik_Ionization_Penalty_Neutral>
7.36622e-05

> <r_epik_State_Penalty>
-0

> <r_epik_Charging_Adjusted_Penalty>
0

> <i_epik_Tot_Q>
0

> <i_epik_Tot_abs_Q>
0

> <r_epik_Metal_State_Penalty>
-0

> <b_epik_Metal_Only>
0

> <s_epik_Chemistry_Notes>
This compound has an ester and may undergo hydrolysis at high or low pH. This compound contains an acetal/aminal-like group ( X-CH(R)-Y where X, Y are N, S, or O) that may be acid/base labile, releasing an aldehyde.

> <s_lp_Force_Field>
OPLS_2005

> <r_lp_Energy>
18.0917

> <b_lp_Chiralities_Consistent>
1

> <s_lp_Variant>
AV-unprocessed.smi:104-13

> <Gold.Version>
5.8.1

> <Gold.Id.Protein>
6NUR|6NUR_protein|mol2

> <Gold.PLP.Fitness>
44.5470

> <Gold.PLP.PLP>
-36.0409

> <Gold.PLP.part.hbond>
-3.9585

> <Gold.PLP.part.metal>
0.0000

> <Gold.PLP.part.buried>
-5.1466

> <Gold.PLP.part.nonpolar>
-27.5937

> <Gold.PLP.part.repulsive>
0.6308

> <Gold.PLP.ligand.clash>
0.0000

> <Gold.PLP.ligand.torsion>
1.2179

> <Gold.PLP.Chemscore.Hbond>
3.5432

> <Gold.PLP.Chemscore.CHOScore>
0.0000

> <Gold.PLP.Chemscore.Metal>
0.0000

> <Gold.Chemscore.Hbonds>
donor molecule, donor type, donor heavy atom, donor atom, acceptor molecule, acceptor atom, score
      P1  H  6896  6909       L1    24  0.94
      P1  H  6931  6943       L1    18  0.93
      P1  H  6934  6947       L1    18  0.56
      P1  H  7997  8008       L1    29  1.00

> <Gold.PLP.Chemscore.Internal.Correction>
0.3122

> <Gold.Rescore>
     Score         DG    S(hbond)    S(metal)    S(lipo)     H(rot)  DE(clash)    DE(int)     intcor
      8.88     -10.66       3.07        0.00      50.81       4.31       0.17       1.62       ----

> <Gold.Chemscore.Fitness>
8.8768

> <Gold.Chemscore.DG>
-10.6614

> <Gold.Chemscore.ZeroCoef>
-5.4800

> <Gold.Chemscore.Hbond>
3.0725

> <Gold.Chemscore.Metal>
0.0000

> <Gold.Chemscore.Lipo>
50.8131

> <Gold.Chemscore.Internal_Hbond>
0.0000

> <Gold.Chemscore.DEClash>
0.1683

> <Gold.Chemscore.DEInternal>
1.6163

> <Gold.Chemscore.Rot>
4.3070

> <Gold.Chemscore.Internal.Correction>
   9.000000E+99

> <Gold.Chemscore.Hbonds>
donor molecule, donor type, donor heavy atom, donor atom, acceptor molecule, acceptor atom, score
      P1  H  6896  6909       L1    24  0.27
      P1  H  6931  6943       L1    18  0.49
      P1  H  6934  6947       L1    18  0.10
      P1  H  7997  8008       L1    29  0.42

> <Gold.Chemscore.Hbond.Weighted>
-10.2621

> <Gold.Chemscore.Metal.Weighted>
-0.0000

> <Gold.Chemscore.Lipo.Weighted>
-5.9451

> <Gold.Chemscore.Internal_Hbond.Weighted>
0.0000

> <Gold.Chemscore.DEClash.Weighted>
0.1683

> <Gold.Chemscore.DEInternal.Weighted>
1.6163

> <Gold.Chemscore.Rot.Weighted>
11.0259

> <Gold.Chemscore.Internal.Correction.Weighted>
   9.000000E+99

> <Gold.Protein.RotatedTorsions>
[ 6907 6896 6895 6894 ] final  170.73 input  -60.11 | X-H torsion
[ 7974 7965 7964 7962 ] final  -72.28 input  175.53 | X-H torsion
[ 8008 7997 7996 7995 ] final -121.01 input   59.86 | X-H torsion
[ 10167 10162 10161 10158 ] final    2.37 input  -65.29 | X-H torsion
[ 10718 10713 10712 10709 ] final   99.97 input   66.30 | X-H torsion
[ 10763 10752 10751 10750 ] final   -5.29 input  -60.55 | X-H torsion
[ 11005 11000 10999 10996 ] final  -18.46 input  -57.11 | X-H torsion

> <Gold.Protein.ActiveResidues>
 VAL166  LYS551  ARG553  GLY616  TRP617  ASP618  TYR619  PRO620  LYS621  CYS622 
 ASP623  PHE694  ASN695  SER759  ASP760  ASP761  ALA762  ILE779  LEU786  VAL792 
 PHE793  MET794  SER795  GLU796  ALA797  LYS798  CYS799  TRP800  GLU811  SER814 

> <Gold.Protein.RotatedAtoms>
  151.8114  133.3382  159.3556 H   0  0  0  0  0  0  0  0  0  0  0  0  # atno 6907 bound_to 6896
  150.7325  134.5660  159.5875 H   0  0  0  0  0  0  0  0  0  0  0  0  # atno 6908 bound_to 6896
  152.3072  134.7542  160.0396 H   0  0  0  0  0  0  0  0  0  0  0  0  # atno 6909 bound_to 6896
  145.6672  140.9233  143.0902 H   0  0  0  0  0  0  0  0  0  0  0  0  # atno 7974 bound_to 7965
  155.1410  140.0402  157.2798 H   0  0  0  0  0  0  0  0  0  0  0  0  # atno 8008 bound_to 7997
  154.6473  140.2561  155.7227 H   0  0  0  0  0  0  0  0  0  0  0  0  # atno 8009 bound_to 7997
  156.2561  140.2843  156.0892 H   0  0  0  0  0  0  0  0  0  0  0  0  # atno 8010 bound_to 7997
  140.6638  143.7233  150.7789 H   0  0  0  0  0  0  0  0  0  0  0  0  # atno 10167 bound_to 10162
  157.6864  131.0685  150.5029 H   0  0  0  0  0  0  0  0  0  0  0  0  # atno 10718 bound_to 10713
  153.3965  135.7003  153.6457 H   0  0  0  0  0  0  0  0  0  0  0  0  # atno 10763 bound_to 10752
  153.5007  135.3653  155.2539 H   0  0  0  0  0  0  0  0  0  0  0  0  # atno 10764 bound_to 10752
  154.8707  135.4111  154.3292 H   0  0  0  0  0  0  0  0  0  0  0  0  # atno 10765 bound_to 10752
  140.8270  133.8025  155.9719 H   0  0  0  0  0  0  0  0  0  0  0  0  # atno 11005 bound_to 11000
  144.7069  139.8525  143.7427 LP  0  0  0  0  0  0  0  0  0  0  0  0  # atno 17320 bound_to 7965
  146.1076  139.4077  143.0308 LP  0  0  0  0  0  0  0  0  0  0  0  0  # atno 17321 bound_to 7965
  140.0906  143.4881  152.2480 LP  0  0  0  0  0  0  0  0  0  0  0  0  # atno 17342 bound_to 10162
  139.5880  144.7539  151.3470 LP  0  0  0  0  0  0  0  0  0  0  0  0  # atno 17343 bound_to 10162
  156.5350  130.4194  149.6182 LP  0  0  0  0  0  0  0  0  0  0  0  0  # atno 17370 bound_to 10713
  156.3035  130.7190  151.2067 LP  0  0  0  0  0  0  0  0  0  0  0  0  # atno 17371 bound_to 10713
  140.9038  134.2345  157.5026 LP  0  0  0  0  0  0  0  0  0  0  0  0  # atno 17394 bound_to 11000
  139.8706  134.9719  156.4753 LP  0  0  0  0  0  0  0  0  0  0  0  0  # atno 17395 bound_to 11000

$$$$
