AV-unprocessed.smi:1536|AV-procd|sdf|6186|dock5
  -GOLD-   22720 6343D 1   1.00000     0.00000
 Structure written by MMmdl.
 48 49  0  0  0  0  0  0  0  0  2 V2000
  151.9942  145.1349  160.0677 C   0  0  0  0  0  0  0  0  0  0  0  0
  151.6160  144.1325  158.9684 C   0  0  2  0  0  0  0  0  0  0  0  0
  150.0975  143.8941  158.9135 C   0  0  0  0  0  0  0  0  0  0  0  0
  149.7378  142.8703  157.8255 C   0  0  0  0  0  0  0  0  0  0  0  0
  150.4473  141.5806  158.0556 N   0  3  1  0  0  0  0  0  0  0  0  0
  150.0088  140.4234  157.2122 C   0  0  2  0  0  0  0  0  0  0  0  0
  150.2605  139.0387  157.8706 C   0  0  0  0  0  0  0  0  0  0  0  0
  149.0107  138.3923  158.2573 N   0  0  0  0  0  0  0  0  0  0  0  0
  148.9008  137.2306  158.9215 C   0  0  0  0  0  0  0  0  0  0  0  0
  149.8579  136.6194  159.3948 O   0  0  0  0  0  0  0  0  0  0  0  0
  147.4938  136.6446  159.0247 C   0  0  0  0  0  0  0  0  0  0  0  0
  147.2139  136.2602  160.3953 N   0  0  0  0  0  0  0  0  0  0  0  0
  146.9595  135.0674  160.9367 C   0  0  0  0  0  0  0  0  0  0  0  0
  146.7099  135.1632  162.2337 N   0  0  0  0  0  0  0  0  0  0  0  0
  146.8287  136.5209  162.4783 N   0  0  0  0  0  0  0  0  0  0  0  0
  147.1271  137.1773  161.3914 N   0  0  0  0  0  0  0  0  0  0  0  0
  150.5275  140.5640  155.7507 C   0  0  0  0  0  0  0  0  0  0  0  0
  149.5631  140.0377  154.6741 C   0  0  0  0  0  0  0  0  0  0  0  0
  151.9269  139.9485  155.5782 C   0  0  0  0  0  0  0  0  0  0  0  0
  151.9218  141.7713  158.0721 C   0  0  0  0  0  0  0  0  0  0  0  0
  152.3352  142.7854  159.1528 C   0  0  0  0  0  0  0  0  0  0  0  0
  151.7064  144.7706  161.0543 H   0  0  0  0  0  0  0  0  0  0  0  0
  151.5008  146.0945  159.9105 H   0  0  0  0  0  0  0  0  0  0  0  0
  153.0692  145.3167  160.0806 H   0  0  0  0  0  0  0  0  0  0  0  0
  151.9288  144.5558  158.0125 H   0  0  0  0  0  0  0  0  0  0  0  0
  149.7392  143.5398  159.8813 H   0  0  0  0  0  0  0  0  0  0  0  0
  149.5795  144.8336  158.7173 H   0  0  0  0  0  0  0  0  0  0  0  0
  148.6593  142.7217  157.8207 H   0  0  0  0  0  0  0  0  0  0  0  0
  150.0055  143.2753  156.8485 H   0  0  0  0  0  0  0  0  0  0  0  0
  148.9237  140.4914  157.1185 H   0  0  0  0  0  0  0  0  0  0  0  0
  150.8385  138.3847  157.2172 H   0  0  0  0  0  0  0  0  0  0  0  0
  150.8541  139.1650  158.7766 H   0  0  0  0  0  0  0  0  0  0  0  0
  148.1591  138.8176  157.9190 H   0  0  0  0  0  0  0  0  0  0  0  0
  146.7543  137.3805  158.7063 H   0  0  0  0  0  0  0  0  0  0  0  0
  147.3923  135.7758  158.3725 H   0  0  0  0  0  0  0  0  0  0  0  0
  146.9444  134.1401  160.3834 H   0  0  0  0  0  0  0  0  0  0  0  0
  150.6588  141.6272  155.5501 H   0  0  0  0  0  0  0  0  0  0  0  0
  149.4705  138.9525  154.7121 H   0  0  0  0  0  0  0  0  0  0  0  0
  149.9229  140.2941  153.6772 H   0  0  0  0  0  0  0  0  0  0  0  0
  148.5673  140.4677  154.7764 H   0  0  0  0  0  0  0  0  0  0  0  0
  151.9129  138.8674  155.7188 H   0  0  0  0  0  0  0  0  0  0  0  0
  152.6344  140.3694  156.2933 H   0  0  0  0  0  0  0  0  0  0  0  0
  152.3193  140.1449  154.5800 H   0  0  0  0  0  0  0  0  0  0  0  0
  152.4192  140.8231  158.2799 H   0  0  0  0  0  0  0  0  0  0  0  0
  152.2598  142.1008  157.0885 H   0  0  0  0  0  0  0  0  0  0  0  0
  153.4156  142.9316  159.1239 H   0  0  0  0  0  0  0  0  0  0  0  0
  152.1062  142.3768  160.1382 H   0  0  0  0  0  0  0  0  0  0  0  0
  150.2148  141.3062  158.9996 H   0  0  0  0  0  0  0  0  0  0  0  0
  1  2  1  0  0  0  0
  1 22  1  0  0  0  0
  1 23  1  0  0  0  0
  1 24  1  0  0  0  0
  2 21  1  0  0  0  0
  2  3  1  0  0  0  0
  2 25  1  0  0  0  0
  3  4  1  0  0  0  0
  3 26  1  0  0  0  0
  3 27  1  0  0  0  0
  4  5  1  0  0  0  0
  4 28  1  0  0  0  0
  4 29  1  0  0  0  0
  5  6  1  0  0  0  0
  5 20  1  0  0  0  0
  5 48  1  0  0  0  0
  6  7  1  0  0  0  0
  6 17  1  0  0  0  0
  6 30  1  0  0  0  0
  7  8  1  0  0  0  0
  7 31  1  0  0  0  0
  7 32  1  0  0  0  0
  8  9  1  0  0  0  0
  8 33  1  0  0  0  0
  9 10  2  0  0  0  0
  9 11  1  0  0  0  0
 11 12  1  0  0  0  0
 11 34  1  0  0  0  0
 11 35  1  0  0  0  0
 12 16  1  0  0  0  0
 12 13  1  0  0  0  0
 13 14  2  0  0  0  0
 13 36  1  0  0  0  0
 14 15  1  0  0  0  0
 15 16  2  0  0  0  0
 17 18  1  0  0  0  0
 17 19  1  0  0  0  0
 17 37  1  0  0  0  0
 18 38  1  0  0  0  0
 18 39  1  0  0  0  0
 18 40  1  0  0  0  0
 19 41  1  0  0  0  0
 19 42  1  0  0  0  0
 19 43  1  0  0  0  0
 20 21  1  0  0  0  0
 20 44  1  0  0  0  0
 20 45  1  0  0  0  0
 21 46  1  0  0  0  0
 21 47  1  0  0  0  0
M  CHG  1   5   1
M  END
> <s_m_source_file>
AV-unprocessed.smi

> <i_m_source_file_index>
1536

> <i_lp_mmshare_version>
43012

> <i_f3d_flags>
0

> <s_epik_input>
W0NIM11bQ0hdMVtDSDJdW0NIMl1OKFtDSDJdW0NIMl0xKVtDQEBIXShbQ0hdKFtDSDNdKVtDSDNdKVtDSDJdW05IXUMoPU8pW0NIMl1uMltjSF1ubm4y

> <s_epik_cmdline>
J2VwaWtfcHl0aG9uJywgJy1waCcsICc3LjAnLCAnLXRuJywgJzgnLCAnLW1hJywgJzIwMCcsICctbWV0YWxfYmluZGluZycsICctaW1hZScsICc8aW5maWxlLm1hZT4nLCAnLW9tYWUnLCAnPG91dGZpbGUubWFlPic=

> <r_lp_tautomer_probability>
1

> <r_epik_Ionization_Penalty>
0.00109671

> <r_epik_Ionization_Penalty_Charging>
0.00109273

> <r_epik_Ionization_Penalty_Neutral>
3.97951e-06

> <r_epik_State_Penalty>
0.000716588

> <r_epik_Charging_Adjusted_Penalty>
0.00180932

> <i_epik_Tot_Q>
1

> <i_epik_Tot_abs_Q>
1

> <r_epik_Metal_State_Penalty>
-0

> <b_epik_Metal_Only>
0

> <s_lp_Force_Field>
OPLS_2005

> <r_lp_Energy>
28.917

> <b_lp_Chiralities_Consistent>
1

> <s_lp_Variant>
AV-unprocessed.smi:1536-1

> <Gold.Version>
5.8.1

> <Gold.Id.Protein>
6NUR|6NUR_protein|mol2

> <Gold.PLP.Fitness>
43.2041

> <Gold.PLP.PLP>
-37.8169

> <Gold.PLP.part.hbond>
-3.0000

> <Gold.PLP.part.metal>
0.0000

> <Gold.PLP.part.buried>
-5.3085

> <Gold.PLP.part.nonpolar>
-29.7422

> <Gold.PLP.part.repulsive>
0.2739

> <Gold.PLP.ligand.clash>
0.0000

> <Gold.PLP.ligand.torsion>
1.7324

> <Gold.PLP.Chemscore.Hbond>
2.7691

> <Gold.PLP.Chemscore.CHOScore>
0.0000

> <Gold.PLP.Chemscore.Metal>
0.0000

> <Gold.Chemscore.Hbonds>
donor molecule, donor type, donor heavy atom, donor atom, acceptor molecule, acceptor atom, score
      P1  H  6896  6909       L1    10  1.00
      P1  H  6931  6943       L1    16  0.39
      P1  H  6934  6947       L1    16  1.00

> <Gold.PLP.Chemscore.Internal.Correction>
0.5446

> <Gold.Rescore>
     Score         DG    S(hbond)    S(metal)    S(lipo)     H(rot)  DE(clash)    DE(int)     intcor
     13.74     -15.82       2.31        0.00      83.18       2.77       0.16       1.92       ----

> <Gold.Chemscore.Fitness>
13.7392

> <Gold.Chemscore.DG>
-15.8212

> <Gold.Chemscore.ZeroCoef>
-5.4800

> <Gold.Chemscore.Hbond>
2.3061

> <Gold.Chemscore.Metal>
0.0000

> <Gold.Chemscore.Lipo>
83.1827

> <Gold.Chemscore.Internal_Hbond>
0.0000

> <Gold.Chemscore.DEClash>
0.1611

> <Gold.Chemscore.DEInternal>
1.9209

> <Gold.Chemscore.Rot>
2.7709

> <Gold.Chemscore.Internal.Correction>
   9.000000E+99

> <Gold.Chemscore.Hbonds>
donor molecule, donor type, donor heavy atom, donor atom, acceptor molecule, acceptor atom, score
      P1  H  6896  6909       L1    10  0.95
      P1  H  6931  6943       L1    16  0.16
      P1  H  6934  6947       L1    16  0.94

> <Gold.Chemscore.Hbond.Weighted>
-7.7024

> <Gold.Chemscore.Metal.Weighted>
-0.0000

> <Gold.Chemscore.Lipo.Weighted>
-9.7324

> <Gold.Chemscore.Internal_Hbond.Weighted>
0.0000

> <Gold.Chemscore.DEClash.Weighted>
0.1611

> <Gold.Chemscore.DEInternal.Weighted>
1.9209

> <Gold.Chemscore.Rot.Weighted>
7.0935

> <Gold.Chemscore.Internal.Correction.Weighted>
   9.000000E+99

> <Gold.Protein.RotatedTorsions>
[ 6907 6896 6895 6894 ] final   80.79 input  -60.11 | X-H torsion
[ 7974 7965 7964 7962 ] final  -14.15 input  175.53 | X-H torsion
[ 8008 7997 7996 7995 ] final   71.51 input   59.86 | X-H torsion
[ 10167 10162 10161 10158 ] final  136.52 input  -65.29 | X-H torsion
[ 10718 10713 10712 10709 ] final -163.27 input   66.30 | X-H torsion
[ 10763 10752 10751 10750 ] final -144.43 input  -60.55 | X-H torsion
[ 11005 11000 10999 10996 ] final  -63.47 input  -57.11 | X-H torsion

> <Gold.Protein.ActiveResidues>
 VAL166  LYS551  ARG553  GLY616  TRP617  ASP618  TYR619  PRO620  LYS621  CYS622 
 ASP623  PHE694  ASN695  SER759  ASP760  ASP761  ALA762  ILE779  LEU786  VAL792 
 PHE793  MET794  SER795  GLU796  ALA797  LYS798  CYS799  TRP800  GLU811  SER814 

> <Gold.Protein.RotatedAtoms>
  152.5247  134.3304  159.9180 H   0  0  0  0  0  0  0  0  0  0  0  0  # atno 6907 bound_to 6896
  151.3253  133.4017  159.2665 H   0  0  0  0  0  0  0  0  0  0  0  0  # atno 6908 bound_to 6896
  150.9925  134.9274  159.7965 H   0  0  0  0  0  0  0  0  0  0  0  0  # atno 6909 bound_to 6896
  146.2086  140.3306  142.8398 H   0  0  0  0  0  0  0  0  0  0  0  0  # atno 7974 bound_to 7965
  155.7549  140.3488  155.5169 H   0  0  0  0  0  0  0  0  0  0  0  0  # atno 8008 bound_to 7997
  155.8969  140.1027  157.1399 H   0  0  0  0  0  0  0  0  0  0  0  0  # atno 8009 bound_to 7997
  154.4039  140.1293  156.4373 H   0  0  0  0  0  0  0  0  0  0  0  0  # atno 8010 bound_to 7997
  139.5177  144.6460  151.5438 H   0  0  0  0  0  0  0  0  0  0  0  0  # atno 10167 bound_to 10162
  156.6223  130.8895  151.2960 H   0  0  0  0  0  0  0  0  0  0  0  0  # atno 10718 bound_to 10713
  154.8428  135.3440  154.6344 H   0  0  0  0  0  0  0  0  0  0  0  0  # atno 10763 bound_to 10752
  153.6954  135.6972  153.5082 H   0  0  0  0  0  0  0  0  0  0  0  0  # atno 10764 bound_to 10752
  153.2563  135.4337  155.0804 H   0  0  0  0  0  0  0  0  0  0  0  0  # atno 10765 bound_to 10752
  141.1394  133.6652  156.5685 H   0  0  0  0  0  0  0  0  0  0  0  0  # atno 11005 bound_to 11000
  144.8855  140.7456  143.5959 LP  0  0  0  0  0  0  0  0  0  0  0  0  # atno 17320 bound_to 7965
  145.3227  139.1783  143.4579 LP  0  0  0  0  0  0  0  0  0  0  0  0  # atno 17321 bound_to 7965
  140.6245  143.9194  150.6553 LP  0  0  0  0  0  0  0  0  0  0  0  0  # atno 17342 bound_to 10162
  140.2479  143.3615  152.1431 LP  0  0  0  0  0  0  0  0  0  0  0  0  # atno 17343 bound_to 10162
  157.7224  130.9576  150.1493 LP  0  0  0  0  0  0  0  0  0  0  0  0  # atno 17370 bound_to 10713
  156.2302  130.3681  149.8454 LP  0  0  0  0  0  0  0  0  0  0  0  0  # atno 17371 bound_to 10713
  140.3931  134.7422  157.4734 LP  0  0  0  0  0  0  0  0  0  0  0  0  # atno 17394 bound_to 11000
  140.0551  134.6075  155.8815 LP  0  0  0  0  0  0  0  0  0  0  0  0  # atno 17395 bound_to 11000

$$$$
