AV-unprocessed.smi:2391|AV-procd|sdf|9482|dock2
  -GOLD-   2272013113D 1   1.00000     0.00000
 Structure written by MMmdl.
 35 36  0  0  0  0  0  0  0  0  1 V2000
  150.2407  141.1374  158.3464 O   0  0  0  0  0  0  0  0  0  0  0  0
  151.4151  141.2205  157.9864 C   0  0  0  0  0  0  0  0  0  0  0  0
  151.9956  140.4509  157.0493 N   0  0  0  0  0  0  0  0  0  0  0  0
  151.4104  139.4013  156.2933 C   0  0  0  0  0  0  0  0  0  0  0  0
  152.2154  138.8824  155.2568 C   0  0  0  0  0  0  0  0  0  0  0  0
  151.6986  137.8390  154.4700 C   0  0  0  0  0  0  0  0  0  0  0  0
  150.4045  137.3836  154.7748 C   0  0  0  0  0  0  0  0  0  0  0  0
  149.6683  137.9107  155.7768 N   0  0  0  0  0  0  0  0  0  0  0  0
  150.1669  138.9032  156.5219 N   0  0  0  0  0  0  0  0  0  0  0  0
  152.2876  142.1035  158.4940 N   0  0  0  0  0  0  0  0  0  0  0  0
  151.9993  143.1072  159.5210 C   0  0  1  0  0  0  0  0  0  0  0  0
  153.0456  143.0013  160.6611 C   0  0  0  0  0  0  0  0  0  0  0  0
  153.4579  141.5655  161.0110 C   0  0  0  0  0  0  0  0  0  0  0  0
  154.1247  141.6763  162.3822 C   0  0  0  0  0  0  0  0  0  0  0  0
  153.4441  142.8599  163.0810 C   0  0  0  0  0  0  0  0  0  0  0  0
  152.5883  143.5601  162.0160 C   0  0  0  0  0  0  0  0  0  0  0  0
  151.9440  144.4980  158.8488 C   0  0  0  0  0  0  0  0  0  0  0  0
  153.0466  144.6924  158.1239 F   0  0  0  0  0  0  0  0  0  0  0  0
  150.8981  144.5938  158.0291 F   0  0  0  0  0  0  0  0  0  0  0  0
  151.8630  145.4609  159.7681 F   0  0  0  0  0  0  0  0  0  0  0  0
  152.9688  140.6350  156.8559 H   0  0  0  0  0  0  0  0  0  0  0  0
  153.2051  139.2717  155.0673 H   0  0  0  0  0  0  0  0  0  0  0  0
  152.2719  137.4043  153.6647 H   0  0  0  0  0  0  0  0  0  0  0  0
  149.9514  136.5843  154.2073 H   0  0  0  0  0  0  0  0  0  0  0  0
  153.2301  142.0949  158.1325 H   0  0  0  0  0  0  0  0  0  0  0  0
  151.0134  142.9167  159.9492 H   0  0  0  0  0  0  0  0  0  0  0  0
  153.9474  143.5392  160.3637 H   0  0  0  0  0  0  0  0  0  0  0  0
  152.5731  140.9314  161.0852 H   0  0  0  0  0  0  0  0  0  0  0  0
  154.1214  141.1222  160.2678 H   0  0  0  0  0  0  0  0  0  0  0  0
  154.0421  140.7518  162.9543 H   0  0  0  0  0  0  0  0  0  0  0  0
  155.1868  141.8899  162.2555 H   0  0  0  0  0  0  0  0  0  0  0  0
  152.8216  142.5246  163.9114 H   0  0  0  0  0  0  0  0  0  0  0  0
  154.1932  143.5392  163.4899 H   0  0  0  0  0  0  0  0  0  0  0  0
  152.6857  144.6447  162.0696 H   0  0  0  0  0  0  0  0  0  0  0  0
  151.5383  143.3163  162.1836 H   0  0  0  0  0  0  0  0  0  0  0  0
  1  2  2  0  0  0  0
  2  3  1  0  0  0  0
  2 10  1  0  0  0  0
  3  4  1  0  0  0  0
  3 21  1  0  0  0  0
  4  9  1  0  0  0  0
  4  5  2  0  0  0  0
  5  6  1  0  0  0  0
  5 22  1  0  0  0  0
  6  7  2  0  0  0  0
  6 23  1  0  0  0  0
  7  8  1  0  0  0  0
  7 24  1  0  0  0  0
  8  9  2  0  0  0  0
 10 11  1  0  0  0  0
 10 25  1  0  0  0  0
 11 12  1  0  0  0  0
 11 17  1  0  0  0  0
 11 26  1  0  0  0  0
 12 16  1  0  0  0  0
 12 13  1  0  0  0  0
 12 27  1  0  0  0  0
 13 14  1  0  0  0  0
 13 28  1  0  0  0  0
 13 29  1  0  0  0  0
 14 15  1  0  0  0  0
 14 30  1  0  0  0  0
 14 31  1  0  0  0  0
 15 16  1  0  0  0  0
 15 32  1  0  0  0  0
 15 33  1  0  0  0  0
 16 34  1  0  0  0  0
 16 35  1  0  0  0  0
 17 18  1  0  0  0  0
 17 19  1  0  0  0  0
 17 20  1  0  0  0  0
M  END
> <s_m_source_file>
AV-unprocessed.smi

> <i_m_source_file_index>
2391

> <i_lp_mmshare_version>
43012

> <i_f3d_flags>
0

> <s_epik_input>
W0NIMl0xW0NIMl1bQ0gyXVtDSDJdW0NIXTFbQ0BIXShDKEYpKEYpRilbTkhdQyg9TylbTkhdYzJbY0hdW2NIXVtjSF1ubjI=

> <s_epik_cmdline>
J2VwaWtfcHl0aG9uJywgJy1waCcsICc3LjAnLCAnLXRuJywgJzgnLCAnLW1hJywgJzIwMCcsICctbWV0YWxfYmluZGluZycsICctaW1hZScsICc8aW5maWxlLm1hZT4nLCAnLW9tYWUnLCAnPG91dGZpbGUubWFlPic=

> <r_lp_tautomer_probability>
1

> <r_epik_Ionization_Penalty>
0.00359591

> <r_epik_Ionization_Penalty_Charging>
0

> <r_epik_Ionization_Penalty_Neutral>
0.00359591

> <r_epik_State_Penalty>
0.0123658

> <r_epik_Charging_Adjusted_Penalty>
0.0123658

> <i_epik_Tot_Q>
0

> <i_epik_Tot_abs_Q>
0

> <r_epik_Metal_State_Penalty>
0.0410426

> <b_epik_Metal_Only>
0

> <s_lp_Force_Field>
OPLS_2005

> <r_lp_Energy>
31.4034

> <b_lp_Chiralities_Consistent>
1

> <s_lp_Variant>
AV-unprocessed.smi:2391-2

> <Gold.Version>
5.8.1

> <Gold.Id.Protein>
6NUR|6NUR_protein|mol2

> <Gold.PLP.Fitness>
51.1500

> <Gold.PLP.PLP>
-49.2122

> <Gold.PLP.part.hbond>
0.0000

> <Gold.PLP.part.metal>
0.0000

> <Gold.PLP.part.buried>
-3.3480

> <Gold.PLP.part.nonpolar>
-45.8365

> <Gold.PLP.part.repulsive>
0.2596

> <Gold.PLP.ligand.clash>
0.0000

> <Gold.PLP.ligand.torsion>
0.6837

> <Gold.PLP.Chemscore.Hbond>
0.0000

> <Gold.PLP.Chemscore.CHOScore>
1.0000

> <Gold.PLP.Chemscore.Metal>
0.0000

> <Gold.Chemscore.Hbonds>
donor molecule, donor type, donor heavy atom, donor atom, acceptor molecule, acceptor atom, score
      L1  C     7    24       P1  7948  0.98

> <Gold.PLP.Chemscore.Internal.Correction>
0.3051

> <Gold.Rescore>
     Score         DG    S(hbond)    S(metal)    S(lipo)     H(rot)  DE(clash)    DE(int)     intcor
     11.67     -14.26       0.00        0.00     104.19       1.33       0.74       1.85       ----

> <Gold.Chemscore.Fitness>
11.6656

> <Gold.Chemscore.DG>
-14.2640

> <Gold.Chemscore.ZeroCoef>
-5.4800

> <Gold.Chemscore.Hbond>
0.0000

> <Gold.Chemscore.Metal>
0.0000

> <Gold.Chemscore.Lipo>
104.1852

> <Gold.Chemscore.Internal_Hbond>
0.0000

> <Gold.Chemscore.DEClash>
0.7434

> <Gold.Chemscore.DEInternal>
1.8549

> <Gold.Chemscore.Rot>
1.3304

> <Gold.Chemscore.Internal.Correction>
   9.000000E+99

> <Gold.Chemscore.Hbond.Weighted>
-0.0000

> <Gold.Chemscore.Metal.Weighted>
-0.0000

> <Gold.Chemscore.Lipo.Weighted>
-12.1897

> <Gold.Chemscore.Internal_Hbond.Weighted>
0.0000

> <Gold.Chemscore.DEClash.Weighted>
0.7434

> <Gold.Chemscore.DEInternal.Weighted>
1.8549

> <Gold.Chemscore.Rot.Weighted>
3.4057

> <Gold.Chemscore.Internal.Correction.Weighted>
   9.000000E+99

> <Gold.Protein.RotatedTorsions>
[ 6907 6896 6895 6894 ] final   57.02 input  -60.11 | X-H torsion
[ 7974 7965 7964 7962 ] final   33.33 input  175.53 | X-H torsion
[ 8008 7997 7996 7995 ] final  130.10 input   59.86 | X-H torsion
[ 10167 10162 10161 10158 ] final   53.23 input  -65.29 | X-H torsion
[ 10718 10713 10712 10709 ] final  -19.31 input   66.30 | X-H torsion
[ 10763 10752 10751 10750 ] final   47.75 input  -60.55 | X-H torsion
[ 11005 11000 10999 10996 ] final  170.88 input  -57.11 | X-H torsion

> <Gold.Protein.ActiveResidues>
 VAL166  LYS551  ARG553  GLY616  TRP617  ASP618  TYR619  PRO620  LYS621  CYS622 
 ASP623  PHE694  ASN695  SER759  ASP760  ASP761  ALA762  ILE779  LEU786  VAL792 
 PHE793  MET794  SER795  GLU796  ALA797  LYS798  CYS799  TRP800  GLU811  SER814 

> <Gold.Protein.RotatedAtoms>
  152.3692  134.6759  160.0181 H   0  0  0  0  0  0  0  0  0  0  0  0  # atno 6907 bound_to 6896
  151.7058  133.3306  159.3286 H   0  0  0  0  0  0  0  0  0  0  0  0  # atno 6908 bound_to 6896
  150.7661  134.6511  159.6333 H   0  0  0  0  0  0  0  0  0  0  0  0  # atno 6909 bound_to 6896
  146.1428  139.6411  142.9151 H   0  0  0  0  0  0  0  0  0  0  0  0  # atno 7974 bound_to 7965
  156.2948  140.2604  156.2707 H   0  0  0  0  0  0  0  0  0  0  0  0  # atno 8008 bound_to 7997
  154.9697  140.0391  157.2247 H   0  0  0  0  0  0  0  0  0  0  0  0  # atno 8009 bound_to 7997
  154.7870  140.2805  155.6025 H   0  0  0  0  0  0  0  0  0  0  0  0  # atno 8010 bound_to 7997
  140.2429  144.3563  150.6374 H   0  0  0  0  0  0  0  0  0  0  0  0  # atno 10167 bound_to 10162
  156.5474  130.4693  149.6469 H   0  0  0  0  0  0  0  0  0  0  0  0  # atno 10718 bound_to 10713
  152.9797  135.5966  154.3813 H   0  0  0  0  0  0  0  0  0  0  0  0  # atno 10763 bound_to 10752
  154.3478  135.2767  155.2390 H   0  0  0  0  0  0  0  0  0  0  0  0  # atno 10764 bound_to 10752
  154.4443  135.6005  153.6205 H   0  0  0  0  0  0  0  0  0  0  0  0  # atno 10765 bound_to 10752
  140.3131  134.7500  157.4006 H   0  0  0  0  0  0  0  0  0  0  0  0  # atno 11005 bound_to 11000
  145.5008  141.0437  143.2542 LP  0  0  0  0  0  0  0  0  0  0  0  0  # atno 17320 bound_to 7965
  144.7811  139.6523  143.7154 LP  0  0  0  0  0  0  0  0  0  0  0  0  # atno 17321 bound_to 7965
  140.6099  143.2169  151.6906 LP  0  0  0  0  0  0  0  0  0  0  0  0  # atno 17342 bound_to 10162
  139.5071  144.3658  152.0518 LP  0  0  0  0  0  0  0  0  0  0  0  0  # atno 17343 bound_to 10162
  156.2916  130.7127  151.1977 LP  0  0  0  0  0  0  0  0  0  0  0  0  # atno 17370 bound_to 10713
  157.7394  131.0529  150.5234 LP  0  0  0  0  0  0  0  0  0  0  0  0  # atno 17371 bound_to 10713
  140.1007  134.5476  155.8355 LP  0  0  0  0  0  0  0  0  0  0  0  0  # atno 17394 bound_to 11000
  141.2104  133.6694  156.6505 LP  0  0  0  0  0  0  0  0  0  0  0  0  # atno 17395 bound_to 11000

$$$$
