AV-unprocessed.smi:405|AV-procd|sdf|2498|dock1
  -GOLD-   2262022443D 1   1.00000     0.00000
 Structure written by MMmdl.
 46 47  0  0  0  0  0  0  0  0  1 V2000
  152.5519  143.1135  160.0714 C   0  0  0  0  0  0  0  0  0  0  0  0
  151.8830  144.1550  159.1495 C   0  0  0  0  0  0  0  0  0  0  0  0
  151.4804  145.3730  160.0032 C   0  0  0  0  0  0  0  0  0  0  0  0
  152.9004  144.6227  158.0870 C   0  0  0  0  0  0  0  0  0  0  0  0
  150.5943  143.5771  158.4982 C   0  0  0  0  0  0  0  0  0  0  0  0
  150.7951  142.3551  157.5915 C   0  0  0  0  0  0  0  0  0  0  0  0
  151.3733  141.3546  158.0151 O   0  0  0  0  0  0  0  0  0  0  0  0
  150.3406  142.4652  156.3343 N   0  0  0  0  0  0  0  0  0  0  0  0
  150.4846  141.4504  155.2966 C   0  0  0  0  0  0  0  0  0  0  0  0
  149.1549  140.9484  154.7432 C   0  0  0  0  0  0  0  0  0  0  0  0
  148.1924  141.8795  154.2985 C   0  0  0  0  0  0  0  0  0  0  0  0
  146.9685  141.4118  153.7864 C   0  0  0  0  0  0  0  0  0  0  0  0
  146.7529  140.0225  153.7382 C   0  0  0  0  0  0  0  0  0  0  0  0
  147.6624  139.1187  154.1579 N   0  0  0  0  0  0  0  0  0  0  0  0
  148.8424  139.5669  154.6514 C   0  0  0  0  0  0  0  0  0  0  0  0
  149.7660  138.6025  155.0841 N   0  0  0  0  0  0  0  0  0  0  0  0
  149.2105  137.2572  155.1553 C   0  0  0  0  0  0  0  0  0  0  0  0
  150.2303  136.3064  155.8041 C   0  0  0  0  0  0  0  0  0  0  0  0
  151.4566  136.3533  155.0789 O   0  0  0  0  0  0  0  0  0  0  0  0
  152.0263  137.6599  155.0678 C   0  0  0  0  0  0  0  0  0  0  0  0
  151.0508  138.6432  154.3988 C   0  0  0  0  0  0  0  0  0  0  0  0
  153.4097  143.5403  160.5922 H   0  0  0  0  0  0  0  0  0  0  0  0
  152.9131  142.2485  159.5144 H   0  0  0  0  0  0  0  0  0  0  0  0
  151.8568  142.7504  160.8291 H   0  0  0  0  0  0  0  0  0  0  0  0
  150.7747  145.0942  160.7866 H   0  0  0  0  0  0  0  0  0  0  0  0
  151.0070  146.1450  159.3952 H   0  0  0  0  0  0  0  0  0  0  0  0
  152.3458  145.8248  160.4894 H   0  0  0  0  0  0  0  0  0  0  0  0
  153.7487  145.1298  158.5480 H   0  0  0  0  0  0  0  0  0  0  0  0
  152.4452  145.3198  157.3825 H   0  0  0  0  0  0  0  0  0  0  0  0
  153.3050  143.7889  157.5132 H   0  0  0  0  0  0  0  0  0  0  0  0
  149.8725  143.3207  159.2758 H   0  0  0  0  0  0  0  0  0  0  0  0
  150.1114  144.3503  157.8988 H   0  0  0  0  0  0  0  0  0  0  0  0
  149.8813  143.3245  156.0695 H   0  0  0  0  0  0  0  0  0  0  0  0
  151.1096  141.8382  154.4905 H   0  0  0  0  0  0  0  0  0  0  0  0
  151.0260  140.6038  155.7194 H   0  0  0  0  0  0  0  0  0  0  0  0
  148.3859  142.9410  154.3507 H   0  0  0  0  0  0  0  0  0  0  0  0
  146.2133  142.1015  153.4398 H   0  0  0  0  0  0  0  0  0  0  0  0
  145.8256  139.6258  153.3521 H   0  0  0  0  0  0  0  0  0  0  0  0
  148.2851  137.2660  155.7322 H   0  0  0  0  0  0  0  0  0  0  0  0
  148.9620  136.9082  154.1521 H   0  0  0  0  0  0  0  0  0  0  0  0
  150.4020  136.5750  156.8477 H   0  0  0  0  0  0  0  0  0  0  0  0
  149.8500  135.2849  155.7957 H   0  0  0  0  0  0  0  0  0  0  0  0
  152.2573  137.9752  156.0865 H   0  0  0  0  0  0  0  0  0  0  0  0
  152.9687  137.6337  154.5207 H   0  0  0  0  0  0  0  0  0  0  0  0
  150.9195  138.3781  153.3488 H   0  0  0  0  0  0  0  0  0  0  0  0
  151.4551  139.6556  154.4302 H   0  0  0  0  0  0  0  0  0  0  0  0
  1  2  1  0  0  0  0
  1 22  1  0  0  0  0
  1 23  1  0  0  0  0
  1 24  1  0  0  0  0
  2  3  1  0  0  0  0
  2  4  1  0  0  0  0
  2  5  1  0  0  0  0
  3 25  1  0  0  0  0
  3 26  1  0  0  0  0
  3 27  1  0  0  0  0
  4 28  1  0  0  0  0
  4 29  1  0  0  0  0
  4 30  1  0  0  0  0
  5  6  1  0  0  0  0
  5 31  1  0  0  0  0
  5 32  1  0  0  0  0
  6  7  2  0  0  0  0
  6  8  1  0  0  0  0
  8  9  1  0  0  0  0
  8 33  1  0  0  0  0
  9 10  1  0  0  0  0
  9 34  1  0  0  0  0
  9 35  1  0  0  0  0
 10 15  1  0  0  0  0
 10 11  2  0  0  0  0
 11 12  1  0  0  0  0
 11 36  1  0  0  0  0
 12 13  2  0  0  0  0
 12 37  1  0  0  0  0
 13 14  1  0  0  0  0
 13 38  1  0  0  0  0
 14 15  2  0  0  0  0
 15 16  1  0  0  0  0
 16 21  1  0  0  0  0
 16 17  1  0  0  0  0
 17 18  1  0  0  0  0
 17 39  1  0  0  0  0
 17 40  1  0  0  0  0
 18 19  1  0  0  0  0
 18 41  1  0  0  0  0
 18 42  1  0  0  0  0
 19 20  1  0  0  0  0
 20 21  1  0  0  0  0
 20 43  1  0  0  0  0
 20 44  1  0  0  0  0
 21 45  1  0  0  0  0
 21 46  1  0  0  0  0
M  END
> <s_m_source_file>
AV-unprocessed.smi

> <i_m_source_file_index>
405

> <i_lp_mmshare_version>
43012

> <i_f3d_flags>
0

> <s_epik_input>
W0NIM11DKFtDSDNdKShbQ0gzXSlbQ0gyXUMoPU8pW05IXVtDSDJdYzFbY0hdW2NIXVtjSF1uYzFOMltDSDJdW0NIMl1PW0NIMl1bQ0gyXTI=

> <s_epik_cmdline>
J2VwaWtfcHl0aG9uJywgJy1waCcsICc3LjAnLCAnLXRuJywgJzgnLCAnLW1hJywgJzIwMCcsICctbWV0YWxfYmluZGluZycsICctaW1hZScsICc8aW5maWxlLm1hZT4nLCAnLW9tYWUnLCAnPG91dGZpbGUubWFlPic=

> <r_lp_tautomer_probability>
1

> <r_epik_Ionization_Penalty>
0.00557636

> <r_epik_Ionization_Penalty_Charging>
0

> <r_epik_Ionization_Penalty_Neutral>
0.00557636

> <r_epik_State_Penalty>
0.00408419

> <r_epik_Charging_Adjusted_Penalty>
0.00408419

> <i_epik_Tot_Q>
0

> <i_epik_Tot_abs_Q>
0

> <r_epik_Metal_State_Penalty>
-0

> <b_epik_Metal_Only>
0

> <s_lp_Force_Field>
OPLS_2005

> <r_lp_Energy>
19.7271

> <b_lp_Chiralities_Consistent>
1

> <s_lp_Variant>
AV-unprocessed.smi:405-1

> <Gold.Version>
5.8.1

> <Gold.Id.Protein>
6NUR|6NUR_protein|mol2

> <Gold.PLP.Fitness>
51.5921

> <Gold.PLP.PLP>
-43.1452

> <Gold.PLP.part.hbond>
-2.0000

> <Gold.PLP.part.metal>
0.0000

> <Gold.PLP.part.buried>
-3.9629

> <Gold.PLP.part.nonpolar>
-37.7767

> <Gold.PLP.part.repulsive>
0.4702

> <Gold.PLP.ligand.clash>
0.0000

> <Gold.PLP.ligand.torsion>
0.2022

> <Gold.PLP.Chemscore.Hbond>
1.8960

> <Gold.PLP.Chemscore.CHOScore>
1.0000

> <Gold.PLP.Chemscore.Metal>
0.0000

> <Gold.Chemscore.Hbonds>
donor molecule, donor type, donor heavy atom, donor atom, acceptor molecule, acceptor atom, score
      L1  H     8    33       P1  8028  1.00
      P1  H 10752 10765       L1    19  0.65
      L1  C    13    38       P1 10175  1.00

> <Gold.PLP.Chemscore.Internal.Correction>
0.1632

> <Gold.Rescore>
     Score         DG    S(hbond)    S(metal)    S(lipo)     H(rot)  DE(clash)    DE(int)     intcor
     17.82     -20.43       1.76        0.00     112.87       1.62       0.51       2.10       ----

> <Gold.Chemscore.Fitness>
17.8192

> <Gold.Chemscore.DG>
-20.4260

> <Gold.Chemscore.ZeroCoef>
-5.4800

> <Gold.Chemscore.Hbond>
1.7600

> <Gold.Chemscore.Metal>
0.0000

> <Gold.Chemscore.Lipo>
112.8701

> <Gold.Chemscore.Internal_Hbond>
0.0000

> <Gold.Chemscore.DEClash>
0.5063

> <Gold.Chemscore.DEInternal>
2.1006

> <Gold.Chemscore.Rot>
1.6164

> <Gold.Chemscore.Internal.Correction>
   9.000000E+99

> <Gold.Chemscore.Hbonds>
donor molecule, donor type, donor heavy atom, donor atom, acceptor molecule, acceptor atom, score
      L1  H     8    33       P1  8028  1.00
      P1  H 10752 10765       L1    19  0.07

> <Gold.Chemscore.Hbond.Weighted>
-5.8783

> <Gold.Chemscore.Metal.Weighted>
-0.0000

> <Gold.Chemscore.Lipo.Weighted>
-13.2058

> <Gold.Chemscore.Internal_Hbond.Weighted>
0.0000

> <Gold.Chemscore.DEClash.Weighted>
0.5063

> <Gold.Chemscore.DEInternal.Weighted>
2.1006

> <Gold.Chemscore.Rot.Weighted>
4.1381

> <Gold.Chemscore.Internal.Correction.Weighted>
   9.000000E+99

> <Gold.Protein.RotatedTorsions>
[ 6907 6896 6895 6894 ] final   87.59 input  -60.11 | X-H torsion
[ 7974 7965 7964 7962 ] final   85.00 input  175.53 | X-H torsion
[ 8008 7997 7996 7995 ] final  -46.85 input   59.86 | X-H torsion
[ 10167 10162 10161 10158 ] final   -8.04 input  -65.29 | X-H torsion
[ 10718 10713 10712 10709 ] final   55.85 input   66.30 | X-H torsion
[ 10763 10752 10751 10750 ] final -154.59 input  -60.55 | X-H torsion
[ 11005 11000 10999 10996 ] final -147.56 input  -57.11 | X-H torsion

> <Gold.Protein.ActiveResidues>
 VAL166  LYS551  ARG553  GLY616  TRP617  ASP618  TYR619  PRO620  LYS621  CYS622 
 ASP623  PHE694  ASN695  SER759  ASP760  ASP761  ALA762  ILE779  LEU786  VAL792 
 PHE793  MET794  SER795  GLU796  ALA797  LYS798  CYS799  TRP800  GLU811  SER814 

> <Gold.Protein.RotatedAtoms>
  152.5413  134.2252  159.8802 H   0  0  0  0  0  0  0  0  0  0  0  0  # atno 6907 bound_to 6896
  151.2227  133.4487  159.2609 H   0  0  0  0  0  0  0  0  0  0  0  0  # atno 6908 bound_to 6896
  151.0790  134.9859  159.8402 H   0  0  0  0  0  0  0  0  0  0  0  0  # atno 6909 bound_to 6896
  145.5913  139.2338  143.2297 H   0  0  0  0  0  0  0  0  0  0  0  0  # atno 7974 bound_to 7965
  154.4011  140.1361  156.4079 H   0  0  0  0  0  0  0  0  0  0  0  0  # atno 8008 bound_to 7997
  155.7761  140.3482  155.5252 H   0  0  0  0  0  0  0  0  0  0  0  0  # atno 8009 bound_to 7997
  155.8719  140.0973  157.1535 H   0  0  0  0  0  0  0  0  0  0  0  0  # atno 8010 bound_to 7997
  140.7047  143.6013  150.8795 H   0  0  0  0  0  0  0  0  0  0  0  0  # atno 10167 bound_to 10162
  157.5380  130.8677  149.8782 H   0  0  0  0  0  0  0  0  0  0  0  0  # atno 10718 bound_to 10713
  154.7847  135.3186  154.7911 H   0  0  0  0  0  0  0  0  0  0  0  0  # atno 10763 bound_to 10752
  153.8614  135.6853  153.4787 H   0  0  0  0  0  0  0  0  0  0  0  0  # atno 10764 bound_to 10752
  153.1495  135.4705  154.9555 H   0  0  0  0  0  0  0  0  0  0  0  0  # atno 10765 bound_to 10752
  140.7704  134.3196  157.5076 H   0  0  0  0  0  0  0  0  0  0  0  0  # atno 11005 bound_to 11000
  146.1644  140.6740  142.9262 LP  0  0  0  0  0  0  0  0  0  0  0  0  # atno 17320 bound_to 7965
  144.7350  140.4781  143.6910 LP  0  0  0  0  0  0  0  0  0  0  0  0  # atno 17321 bound_to 7965
  139.9738  143.6027  152.2965 LP  0  0  0  0  0  0  0  0  0  0  0  0  # atno 17342 bound_to 10162
  139.6624  144.7662  151.1938 LP  0  0  0  0  0  0  0  0  0  0  0  0  # atno 17343 bound_to 10162
  156.0474  130.3725  150.1283 LP  0  0  0  0  0  0  0  0  0  0  0  0  # atno 17370 bound_to 10713
  156.9465  130.9761  151.3506 LP  0  0  0  0  0  0  0  0  0  0  0  0  # atno 17371 bound_to 10713
  139.8757  134.9257  156.3382 LP  0  0  0  0  0  0  0  0  0  0  0  0  # atno 17394 bound_to 11000
  140.9579  133.7408  156.0361 LP  0  0  0  0  0  0  0  0  0  0  0  0  # atno 17395 bound_to 11000

$$$$
