#       Name:                AV-unprocessed.smi:3064
#       Creating user name   scv26
#       Creation time:       Fri Mar 27 17:09:31 2020


#       File generated by GOLD software.
#

@<TRIPOS>MOLECULE
AV-unprocessed.smi:3064
    25    26     1
SMALL
NO_CHARGES


@<TRIPOS>ATOM
      1 ****        -3.6244  -0.4072  -0.3258 C.2            1 S1                 0.0000
      2 ****        -3.9007   0.9339  -0.4053 C.2            1 S1                 0.0000
      3 ****        -2.4456   1.8906  -0.4579 S.3            1 S1                 0.0000
      4 ****        -1.5009   0.4064  -0.3850 C.2            1 S1                 0.0000
      5 ****        -0.0060   0.3978  -0.3480 C.3            1 S1                 0.0000
      6 ****         0.5458   0.3857   1.0900 C.3            1 S1                 0.0000
      7 ****         2.0183   0.2935   1.0624 N.4            1 S1                 1.0000
      8 ****         2.4727  -0.8722   0.2787 C.3            1 S1                 0.0000
      9 ****         1.8554  -0.8383  -1.1309 C.3            1 S1                 0.0000
     10 ****         0.4361  -0.7712  -1.0350 O.3            1 S1                 0.0000
     11 ****        -2.2573  -0.6934  -0.3037 N.2            1 S1                 0.0000
     12 ****        -4.3333  -1.2207  -0.2771 H              1 S1                 0.0000
     13 ****        -4.8675   1.4147  -0.4334 H              1 S1                 0.0000
     14 ****         0.3492   1.2828  -0.8791 H              1 S1                 0.0000
     15 ****         0.2500   1.2880   1.6259 H              1 S1                 0.0000
     16 ****         0.1465  -0.4647   1.6447 H              1 S1                 0.0000
     17 ****         2.3874   1.1327   0.6381 H              1 S1                 0.0000
     18 ****         3.5613  -0.8673   0.2215 H              1 S1                 0.0000
     19 ****         2.1818  -1.7872   0.7963 H              1 S1                 0.0000
     20 ****         2.2320   0.0127  -1.7008 H              1 S1                 0.0000
     21 ****         2.1302  -1.7369  -1.6834 H              1 S1                 0.0000
     22 ****         2.3686   0.2208   2.0072 H              1 S1                 0.0000
     23 ****         0.0514  -0.7664  -1.9580 LP             1 S1                 0.0000
     24 ****         0.1088  -1.5771  -0.5416 LP             1 S1                 0.0000
     25 ****        -1.8851  -1.6190  -0.2346 LP             1 S1                 0.0000
@<TRIPOS>BOND
    1    1   11 1     
    2    1    2 2     
    3    1   12 1     
    4    2    3 1     
    5    2   13 1     
    6    3    4 1     
    7    4    5 1     
    8    4   11 2     
    9    5   10 1     
   10    5    6 1     
   11    5   14 1     
   12    6    7 1     
   13    6   15 1     
   14    6   16 1     
   15    7    8 1     
   16    7   17 1     
   17    7   22 1     
   18    8    9 1     
   19    8   18 1     
   20    8   19 1     
   21    9   10 1     
   22    9   20 1     
   23    9   21 1     
   24   10   23 1     
   25   10   24 1     
   26   11   25 1     
@<TRIPOS>SUBSTRUCTURE
      1 S1             1
@<TRIPOS>SET
LONE_PAIRS      STATIC     ATOMS    <user>   **** ""
3 23 24 25
DONOR_HYDROGENS      STATIC     ATOMS    <user>   **** ""
2 17 22
ATOM$BLUE        STATIC     ATOMS    COLORGROUP SYSTEM
3 23 24 25
ATOM$RED        STATIC     ATOMS    COLORGROUP SYSTEM
2 17 22
