AV-unprocessed.smi:3252|AV-procd|sdf|12442|dock4
  -GOLD-   2272018333D 1   1.00000     0.00000
 Structure written by MMmdl.
 37 38  0  0  0  0  0  0  0  0  2 V2000
  151.7091  137.9020  159.1022 C   0  0  0  0  0  0  0  0  0  0  0  0
  150.2658  138.1297  158.6308 C   0  0  0  0  0  0  0  0  0  0  0  0
  150.1908  138.9510  157.3969 N   0  3  2  0  0  0  0  0  0  0  0  0
  150.7645  138.2527  156.2222 C   0  0  0  0  0  0  0  0  0  0  0  0
  150.6285  139.1189  154.9600 C   0  0  0  0  0  0  0  0  0  0  0  0
  151.2555  140.3756  155.1789 O   0  0  0  0  0  0  0  0  0  0  0  0
  150.6451  141.1065  156.2379 C   0  0  2  0  0  0  0  0  0  0  0  0
  151.3346  142.4745  156.3341 C   0  0  0  0  0  0  0  0  0  0  0  0
  150.7571  143.2943  157.3903 N   0  0  0  0  0  0  0  0  0  0  0  0
  151.3257  143.3155  158.6709 C   0  0  0  0  0  0  0  0  0  0  0  0
  151.1478  144.4644  159.4703 C   0  0  0  0  0  0  0  0  0  0  0  0
  151.7134  144.4891  160.7604 C   0  0  0  0  0  0  0  0  0  0  0  0
  152.4358  143.3644  161.2054 C   0  0  0  0  0  0  0  0  0  0  0  0
  153.0353  143.3398  162.5286 C   0  0  0  0  0  0  0  0  0  0  0  0
  153.5124  143.3199  163.5824 N   0  0  0  0  0  0  0  0  0  0  0  0
  152.5610  142.2630  160.3345 C   0  0  0  0  0  0  0  0  0  0  0  0
  152.0205  142.2335  159.0968 N   0  0  0  0  0  0  0  0  0  0  0  0
  150.7950  140.2988  157.5424 C   0  0  0  0  0  0  0  0  0  0  0  0
  151.7203  137.3783  160.0583 H   0  0  0  0  0  0  0  0  0  0  0  0
  152.2334  138.8481  159.2396 H   0  0  0  0  0  0  0  0  0  0  0  0
  152.2802  137.2978  158.3978 H   0  0  0  0  0  0  0  0  0  0  0  0
  149.7555  137.1775  158.4789 H   0  0  0  0  0  0  0  0  0  0  0  0
  149.7309  138.6433  159.4310 H   0  0  0  0  0  0  0  0  0  0  0  0
  151.8158  138.0272  156.4085 H   0  0  0  0  0  0  0  0  0  0  0  0
  150.2540  137.3012  156.0687 H   0  0  0  0  0  0  0  0  0  0  0  0
  151.1087  138.6279  154.1134 H   0  0  0  0  0  0  0  0  0  0  0  0
  149.5803  139.2610  154.6931 H   0  0  0  0  0  0  0  0  0  0  0  0
  149.5847  141.2538  156.0228 H   0  0  0  0  0  0  0  0  0  0  0  0
  152.3949  142.3338  156.5486 H   0  0  0  0  0  0  0  0  0  0  0  0
  151.2655  142.9993  155.3803 H   0  0  0  0  0  0  0  0  0  0  0  0
  150.0196  143.9440  157.1590 H   0  0  0  0  0  0  0  0  0  0  0  0
  150.5884  145.3140  159.1061 H   0  0  0  0  0  0  0  0  0  0  0  0
  151.5909  145.3575  161.3918 H   0  0  0  0  0  0  0  0  0  0  0  0
  153.1066  141.3796  160.6333 H   0  0  0  0  0  0  0  0  0  0  0  0
  150.3131  140.8405  158.3557 H   0  0  0  0  0  0  0  0  0  0  0  0
  151.8497  140.1995  157.8054 H   0  0  0  0  0  0  0  0  0  0  0  0
  149.2098  139.0855  157.1970 H   0  0  0  0  0  0  0  0  0  0  0  0
  1  2  1  0  0  0  0
  1 19  1  0  0  0  0
  1 20  1  0  0  0  0
  1 21  1  0  0  0  0
  2  3  1  0  0  0  0
  2 22  1  0  0  0  0
  2 23  1  0  0  0  0
  3 18  1  0  0  0  0
  3  4  1  0  0  0  0
  3 37  1  0  0  0  0
  4  5  1  0  0  0  0
  4 24  1  0  0  0  0
  4 25  1  0  0  0  0
  5  6  1  0  0  0  0
  5 26  1  0  0  0  0
  5 27  1  0  0  0  0
  6  7  1  0  0  0  0
  7  8  1  0  0  0  0
  7 18  1  0  0  0  0
  7 28  1  0  0  0  0
  8  9  1  0  0  0  0
  8 29  1  0  0  0  0
  8 30  1  0  0  0  0
  9 10  1  0  0  0  0
  9 31  1  0  0  0  0
 10 17  1  0  0  0  0
 10 11  2  0  0  0  0
 11 12  1  0  0  0  0
 11 32  1  0  0  0  0
 12 13  2  0  0  0  0
 12 33  1  0  0  0  0
 13 14  1  0  0  0  0
 13 16  1  0  0  0  0
 14 15  3  0  0  0  0
 16 17  2  0  0  0  0
 16 34  1  0  0  0  0
 18 35  1  0  0  0  0
 18 36  1  0  0  0  0
M  CHG  1   3   1
M  END
> <s_m_source_file>
AV-unprocessed.smi

> <i_m_source_file_index>
3252

> <i_lp_mmshare_version>
43012

> <i_f3d_flags>
0

> <s_epik_input>
W0NIM11bQ0gyXU4xW0NIMl1bQ0gyXU9bQ0BIXShbQ0gyXTEpW0NIMl1bTkhdYzJbY0hdW2NIXWMoQyNOKVtjSF1uMg==

> <s_epik_cmdline>
J2VwaWtfcHl0aG9uJywgJy1waCcsICc3LjAnLCAnLXRuJywgJzgnLCAnLW1hJywgJzIwMCcsICctbWV0YWxfYmluZGluZycsICctaW1hZScsICc8aW5maWxlLm1hZT4nLCAnLW9tYWUnLCAnPG91dGZpbGUubWFlPic=

> <r_epik_Ionization_Penalty>
0.178512

> <r_epik_Ionization_Penalty_Charging>
0.178504

> <r_epik_Ionization_Penalty_Neutral>
8.15545e-06

> <r_epik_State_Penalty>
0.167974

> <r_epik_Charging_Adjusted_Penalty>
0.346478

> <i_epik_Tot_Q>
1

> <i_epik_Tot_abs_Q>
1

> <r_epik_Metal_State_Penalty>
0.167974

> <b_epik_Metal_Only>
0

> <s_lp_Force_Field>
OPLS_2005

> <r_lp_Energy>
17.709

> <b_lp_Chiralities_Consistent>
1

> <s_lp_Variant>
AV-unprocessed.smi:3252-4

> <Gold.Version>
5.8.1

> <Gold.Id.Protein>
6NUR|6NUR_protein|mol2

> <Gold.PLP.Fitness>
40.7635

> <Gold.PLP.PLP>
-35.6285

> <Gold.PLP.part.hbond>
-2.0000

> <Gold.PLP.part.metal>
0.0000

> <Gold.PLP.part.buried>
-7.5801

> <Gold.PLP.part.nonpolar>
-25.9125

> <Gold.PLP.part.repulsive>
0.1875

> <Gold.PLP.ligand.clash>
0.0000

> <Gold.PLP.ligand.torsion>
0.3417

> <Gold.PLP.Chemscore.Hbond>
1.9357

> <Gold.PLP.Chemscore.CHOScore>
0.0000

> <Gold.PLP.Chemscore.Metal>
0.0000

> <Gold.Chemscore.Hbonds>
donor molecule, donor type, donor heavy atom, donor atom, acceptor molecule, acceptor atom, score
      L1  H     9    31       P1  8028  0.93
      P1  H  7989  7998       L1     6  1.00

> <Gold.PLP.Chemscore.Internal.Correction>
0.0112

> <Gold.Rescore>
     Score         DG    S(hbond)    S(metal)    S(lipo)     H(rot)  DE(clash)    DE(int)     intcor
     14.80     -16.93       1.75        0.00      80.07       1.47       0.60       1.53       ----

> <Gold.Chemscore.Fitness>
14.7975

> <Gold.Chemscore.DG>
-16.9262

> <Gold.Chemscore.ZeroCoef>
-5.4800

> <Gold.Chemscore.Hbond>
1.7473

> <Gold.Chemscore.Metal>
0.0000

> <Gold.Chemscore.Lipo>
80.0735

> <Gold.Chemscore.Internal_Hbond>
0.0000

> <Gold.Chemscore.DEClash>
0.5955

> <Gold.Chemscore.DEInternal>
1.5332

> <Gold.Chemscore.Rot>
1.4681

> <Gold.Chemscore.Internal.Correction>
   9.000000E+99

> <Gold.Chemscore.Hbonds>
donor molecule, donor type, donor heavy atom, donor atom, acceptor molecule, acceptor atom, score
      L1  H     9    31       P1  8028  0.75
      P1  H  7989  7998       L1     6  0.33

> <Gold.Chemscore.Hbond.Weighted>
-5.8361

> <Gold.Chemscore.Metal.Weighted>
-0.0000

> <Gold.Chemscore.Lipo.Weighted>
-9.3686

> <Gold.Chemscore.Internal_Hbond.Weighted>
0.0000

> <Gold.Chemscore.DEClash.Weighted>
0.5955

> <Gold.Chemscore.DEInternal.Weighted>
1.5332

> <Gold.Chemscore.Rot.Weighted>
3.7584

> <Gold.Chemscore.Internal.Correction.Weighted>
   9.000000E+99

> <Gold.Protein.RotatedTorsions>
[ 6907 6896 6895 6894 ] final  -60.03 input  -60.11 | X-H torsion
[ 7974 7965 7964 7962 ] final  -70.48 input  175.53 | X-H torsion
[ 8008 7997 7996 7995 ] final  -53.09 input   59.86 | X-H torsion
[ 10167 10162 10161 10158 ] final   20.20 input  -65.29 | X-H torsion
[ 10718 10713 10712 10709 ] final  -58.63 input   66.30 | X-H torsion
[ 10763 10752 10751 10750 ] final -123.41 input  -60.55 | X-H torsion
[ 11005 11000 10999 10996 ] final   76.23 input  -57.11 | X-H torsion

> <Gold.Protein.ActiveResidues>
 VAL166  LYS551  ARG553  GLY616  TRP617  ASP618  TYR619  PRO620  LYS621  CYS622 
 ASP623  PHE694  ASN695  SER759  ASP760  ASP761  ALA762  ILE779  LEU786  VAL792 
 PHE793  MET794  SER795  GLU796  ALA797  LYS798  CYS799  TRP800  GLU811  SER814 

> <Gold.Protein.RotatedAtoms>
  150.7886  134.6890  159.6485 H   0  0  0  0  0  0  0  0  0  0  0  0  # atno 6907 bound_to 6896
  152.3987  134.6319  160.0087 H   0  0  0  0  0  0  0  0  0  0  0  0  # atno 6908 bound_to 6896
  151.6597  133.3280  159.3207 H   0  0  0  0  0  0  0  0  0  0  0  0  # atno 6909 bound_to 6896
  145.6905  140.9155  143.0784 H   0  0  0  0  0  0  0  0  0  0  0  0  # atno 7974 bound_to 7965
  154.4124  140.1208  156.5097 H   0  0  0  0  0  0  0  0  0  0  0  0  # atno 8008 bound_to 7997
  155.6811  140.3496  155.4836 H   0  0  0  0  0  0  0  0  0  0  0  0  # atno 8009 bound_to 7997
  155.9550  140.1112  157.0934 H   0  0  0  0  0  0  0  0  0  0  0  0  # atno 8010 bound_to 7997
  140.5522  143.9489  150.6585 H   0  0  0  0  0  0  0  0  0  0  0  0  # atno 10167 bound_to 10162
  156.1121  130.4174  150.0604 H   0  0  0  0  0  0  0  0  0  0  0  0  # atno 10718 bound_to 10713
  154.8707  135.4099  154.2939 H   0  0  0  0  0  0  0  0  0  0  0  0  # atno 10763 bound_to 10752
  153.3810  135.7011  153.6571 H   0  0  0  0  0  0  0  0  0  0  0  0  # atno 10764 bound_to 10752
  153.5393  135.3651  155.2683 H   0  0  0  0  0  0  0  0  0  0  0  0  # atno 10765 bound_to 10752
  139.9307  134.7584  156.1370 H   0  0  0  0  0  0  0  0  0  0  0  0  # atno 11005 bound_to 11000
  144.6998  139.8815  143.7447 LP  0  0  0  0  0  0  0  0  0  0  0  0  # atno 17320 bound_to 7965
  146.0886  139.3875  143.0420 LP  0  0  0  0  0  0  0  0  0  0  0  0  # atno 17321 bound_to 7965
  140.2918  143.3319  152.1055 LP  0  0  0  0  0  0  0  0  0  0  0  0  # atno 17342 bound_to 10162
  139.5032  144.6751  151.6149 LP  0  0  0  0  0  0  0  0  0  0  0  0  # atno 17343 bound_to 10162
  156.8565  130.9477  151.3621 LP  0  0  0  0  0  0  0  0  0  0  0  0  # atno 17370 bound_to 10713
  157.6302  130.8723  149.9261 LP  0  0  0  0  0  0  0  0  0  0  0  0  # atno 17371 bound_to 10713
  141.0894  133.6720  156.2508 LP  0  0  0  0  0  0  0  0  0  0  0  0  # atno 17394 bound_to 11000
  140.6209  134.5362  157.5547 LP  0  0  0  0  0  0  0  0  0  0  0  0  # atno 17395 bound_to 11000

$$$$
