AV-unprocessed.smi:1504|AV-procd|sdf|6071|dock6
  -GOLD-   22720 6193D 1   1.00000     0.00000
 Structure written by MMmdl.
 39 40  0  0  0  0  0  0  0  0  1 V2000
  145.7112  138.6326  154.0134 O   0  0  0  0  0  0  0  0  0  0  0  0
  146.5369  138.0974  153.2736 C   0  0  0  0  0  0  0  0  0  0  0  0
  146.3861  136.8778  152.7394 N   0  0  0  0  0  0  0  0  0  0  0  0
  145.2401  136.0015  152.9640 C   0  0  0  0  0  0  0  0  0  0  0  0
  144.4788  135.6556  151.6684 C   0  0  0  0  0  0  0  0  0  0  0  0
  144.8105  134.2801  151.1150 C   0  0  0  0  0  0  0  0  0  0  0  0
  143.7867  133.3528  150.8250 C   0  0  0  0  0  0  0  0  0  0  0  0
  144.1481  132.0927  150.3111 C   0  0  0  0  0  0  0  0  0  0  0  0
  145.5125  131.8091  150.1087 C   0  0  0  0  0  0  0  0  0  0  0  0
  146.4584  132.8027  150.4310 C   0  0  0  0  0  0  0  0  0  0  0  0
  146.1224  134.0147  150.9232 N   0  0  0  0  0  0  0  0  0  0  0  0
  147.6976  138.6602  152.9094 N   0  0  0  0  0  0  0  0  0  0  0  0
  148.1595  139.9842  153.3157 C   0  0  0  0  0  0  0  0  0  0  0  0
  148.9954  139.9437  154.6111 C   0  0  2  0  0  0  0  0  0  0  0  0
  149.5266  141.3212  155.0630 C   0  0  0  0  0  0  0  0  0  0  0  0
  150.5666  141.1098  156.1669 C   0  0  0  0  0  0  0  0  0  0  0  0
  151.4255  139.5518  155.7384 S   0  0  0  0  0  0  0  0  0  0  0  0
  152.6922  139.8618  155.0584 O   0  0  0  0  0  0  0  0  0  0  0  0
  151.3900  138.6495  156.8993 O   0  0  0  0  0  0  0  0  0  0  0  0
  150.2015  138.9976  154.4903 C   0  0  0  0  0  0  0  0  0  0  0  0
  147.1178  136.5248  152.1399 H   0  0  0  0  0  0  0  0  0  0  0  0
  145.6154  135.0845  153.4190 H   0  0  0  0  0  0  0  0  0  0  0  0
  144.5635  136.4504  153.6927 H   0  0  0  0  0  0  0  0  0  0  0  0
  143.4049  135.7133  151.8501 H   0  0  0  0  0  0  0  0  0  0  0  0
  144.6910  136.4052  150.9050 H   0  0  0  0  0  0  0  0  0  0  0  0
  142.7482  133.6011  150.9888 H   0  0  0  0  0  0  0  0  0  0  0  0
  143.3927  131.3573  150.0768 H   0  0  0  0  0  0  0  0  0  0  0  0
  145.8269  130.8529  149.7175 H   0  0  0  0  0  0  0  0  0  0  0  0
  147.5131  132.6187  150.2892 H   0  0  0  0  0  0  0  0  0  0  0  0
  148.3066  138.1365  152.2977 H   0  0  0  0  0  0  0  0  0  0  0  0
  148.7709  140.3778  152.5032 H   0  0  0  0  0  0  0  0  0  0  0  0
  147.3191  140.6725  153.4220 H   0  0  0  0  0  0  0  0  0  0  0  0
  148.3654  139.5604  155.4156 H   0  0  0  0  0  0  0  0  0  0  0  0
  150.0064  141.8150  154.2168 H   0  0  0  0  0  0  0  0  0  0  0  0
  148.7257  141.9777  155.4034 H   0  0  0  0  0  0  0  0  0  0  0  0
  151.2819  141.9286  156.2456 H   0  0  0  0  0  0  0  0  0  0  0  0
  150.0816  140.9730  157.1338 H   0  0  0  0  0  0  0  0  0  0  0  0
  149.9395  137.9533  154.6607 H   0  0  0  0  0  0  0  0  0  0  0  0
  150.6702  139.0803  153.5092 H   0  0  0  0  0  0  0  0  0  0  0  0
  1  2  2  0  0  0  0
  2  3  1  0  0  0  0
  2 12  1  0  0  0  0
  3  4  1  0  0  0  0
  3 21  1  0  0  0  0
  4  5  1  0  0  0  0
  4 22  1  0  0  0  0
  4 23  1  0  0  0  0
  5  6  1  0  0  0  0
  5 24  1  0  0  0  0
  5 25  1  0  0  0  0
  6 11  1  0  0  0  0
  6  7  2  0  0  0  0
  7  8  1  0  0  0  0
  7 26  1  0  0  0  0
  8  9  2  0  0  0  0
  8 27  1  0  0  0  0
  9 10  1  0  0  0  0
  9 28  1  0  0  0  0
 10 11  2  0  0  0  0
 10 29  1  0  0  0  0
 12 13  1  0  0  0  0
 12 30  1  0  0  0  0
 13 14  1  0  0  0  0
 13 31  1  0  0  0  0
 13 32  1  0  0  0  0
 14 20  1  0  0  0  0
 14 15  1  0  0  0  0
 14 33  1  0  0  0  0
 15 16  1  0  0  0  0
 15 34  1  0  0  0  0
 15 35  1  0  0  0  0
 16 17  1  0  0  0  0
 16 36  1  0  0  0  0
 16 37  1  0  0  0  0
 17 18  2  0  0  0  0
 17 19  2  0  0  0  0
 17 20  1  0  0  0  0
 20 38  1  0  0  0  0
 20 39  1  0  0  0  0
M  END
> <s_m_source_file>
AV-unprocessed.smi

> <i_m_source_file_index>
1504

> <i_lp_mmshare_version>
43012

> <i_f3d_flags>
0

> <s_epik_input>
Tz1TMSg9TylbQ0gyXVtDSDJdW0NASF0oW0NIMl0xKVtDSDJdW05IXUMoPU8pW05IXVtDSDJdW0NIMl1jMltjSF1bY0hdW2NIXVtjSF1uMg==

> <s_epik_cmdline>
J2VwaWtfcHl0aG9uJywgJy1waCcsICc3LjAnLCAnLXRuJywgJzgnLCAnLW1hJywgJzIwMCcsICctbWV0YWxfYmluZGluZycsICctaW1hZScsICc8aW5maWxlLm1hZT4nLCAnLW9tYWUnLCAnPG91dGZpbGUubWFlPic=

> <r_epik_Ionization_Penalty>
0.0431785

> <r_epik_Ionization_Penalty_Charging>
0

> <r_epik_Ionization_Penalty_Neutral>
0.0431785

> <r_epik_State_Penalty>
0.0364691

> <r_epik_Charging_Adjusted_Penalty>
0.0364691

> <i_epik_Tot_Q>
0

> <i_epik_Tot_abs_Q>
0

> <r_epik_Metal_State_Penalty>
0.0339827

> <b_epik_Metal_Only>
0

> <s_lp_Force_Field>
OPLS_2005

> <r_lp_Energy>
2.61241

> <b_lp_Chiralities_Consistent>
1

> <s_lp_Variant>
AV-unprocessed.smi:1504-1

> <Gold.Version>
5.8.1

> <Gold.Id.Protein>
6NUR|6NUR_protein|mol2

> <Gold.PLP.Fitness>
48.1030

> <Gold.PLP.PLP>
-37.1356

> <Gold.PLP.part.hbond>
-5.0000

> <Gold.PLP.part.metal>
0.0000

> <Gold.PLP.part.buried>
-0.3943

> <Gold.PLP.part.nonpolar>
-33.1530

> <Gold.PLP.part.repulsive>
0.4370

> <Gold.PLP.ligand.clash>
0.0000

> <Gold.PLP.ligand.torsion>
0.5260

> <Gold.PLP.Chemscore.Hbond>
3.0000

> <Gold.PLP.Chemscore.CHOScore>
1.0000

> <Gold.PLP.Chemscore.Metal>
0.0000

> <Gold.Chemscore.Hbonds>
donor molecule, donor type, donor heavy atom, donor atom, acceptor molecule, acceptor atom, score
      L1  H     3    21       P1  7948  0.99
      L1  H    12    30       P1  7948  0.90
      P1  H  7989  7998       L1    18  0.26
      P1  H  7997  8008       L1    18  0.94
      L1  C    10    29       P1 10747  1.00

> <Gold.PLP.Chemscore.Internal.Correction>
0.0194

> <Gold.Rescore>
     Score         DG    S(hbond)    S(metal)    S(lipo)     H(rot)  DE(clash)    DE(int)     intcor
     17.90     -19.94       2.78        0.00      86.02       1.91       1.51       0.53       ----

> <Gold.Chemscore.Fitness>
17.8988

> <Gold.Chemscore.DG>
-19.9432

> <Gold.Chemscore.ZeroCoef>
-5.4800

> <Gold.Chemscore.Hbond>
2.7814

> <Gold.Chemscore.Metal>
0.0000

> <Gold.Chemscore.Lipo>
86.0175

> <Gold.Chemscore.Internal_Hbond>
0.0000

> <Gold.Chemscore.DEClash>
1.5145

> <Gold.Chemscore.DEInternal>
0.5299

> <Gold.Chemscore.Rot>
1.9105

> <Gold.Chemscore.Internal.Correction>
   9.000000E+99

> <Gold.Chemscore.Hbonds>
donor molecule, donor type, donor heavy atom, donor atom, acceptor molecule, acceptor atom, score
      L1  H     3    21       P1  7948  0.94
      L1  H    12    30       P1  7948  0.82
      P1  H  7989  7998       L1    18  0.02
      P1  H  7997  8008       L1    18  0.85

> <Gold.Chemscore.Hbond.Weighted>
-9.2900

> <Gold.Chemscore.Metal.Weighted>
-0.0000

> <Gold.Chemscore.Lipo.Weighted>
-10.0641

> <Gold.Chemscore.Internal_Hbond.Weighted>
0.0000

> <Gold.Chemscore.DEClash.Weighted>
1.5145

> <Gold.Chemscore.DEInternal.Weighted>
0.5299

> <Gold.Chemscore.Rot.Weighted>
4.8908

> <Gold.Chemscore.Internal.Correction.Weighted>
   9.000000E+99

> <Gold.Protein.RotatedTorsions>
[ 6907 6896 6895 6894 ] final   23.12 input  -60.11 | X-H torsion
[ 7974 7965 7964 7962 ] final -145.42 input  175.53 | X-H torsion
[ 8008 7997 7996 7995 ] final    1.31 input   59.86 | X-H torsion
[ 10167 10162 10161 10158 ] final -155.16 input  -65.29 | X-H torsion
[ 10718 10713 10712 10709 ] final  167.11 input   66.30 | X-H torsion
[ 10763 10752 10751 10750 ] final  165.03 input  -60.55 | X-H torsion
[ 11005 11000 10999 10996 ] final   34.26 input  -57.11 | X-H torsion

> <Gold.Protein.ActiveResidues>
 VAL166  LYS551  ARG553  GLY616  TRP617  ASP618  TYR619  PRO620  LYS621  CYS622 
 ASP623  PHE694  ASN695  SER759  ASP760  ASP761  ALA762  ILE779  LEU786  VAL792 
 PHE793  MET794  SER795  GLU796  ALA797  LYS798  CYS799  TRP800  GLU811  SER814 

> <Gold.Protein.RotatedAtoms>
  151.9375  135.0228  160.0533 H   0  0  0  0  0  0  0  0  0  0  0  0  # atno 6907 bound_to 6896
  152.2065  133.4875  159.5095 H   0  0  0  0  0  0  0  0  0  0  0  0  # atno 6908 bound_to 6896
  150.6966  134.1440  159.4158 H   0  0  0  0  0  0  0  0  0  0  0  0  # atno 6909 bound_to 6896
  144.8228  140.5585  143.5567 H   0  0  0  0  0  0  0  0  0  0  0  0  # atno 7974 bound_to 7965
  154.6783  140.2627  155.6935 H   0  0  0  0  0  0  0  0  0  0  0  0  # atno 8008 bound_to 7997
  156.2686  140.2815  156.1240 H   0  0  0  0  0  0  0  0  0  0  0  0  # atno 8009 bound_to 7997
  155.1069  140.0375  157.2703 H   0  0  0  0  0  0  0  0  0  0  0  0  # atno 8010 bound_to 7997
  139.6954  143.9351  152.2404 H   0  0  0  0  0  0  0  0  0  0  0  0  # atno 10167 bound_to 10162
  157.0562  131.0327  151.2663 H   0  0  0  0  0  0  0  0  0  0  0  0  # atno 10718 bound_to 10713
  154.3178  135.2756  155.2534 H   0  0  0  0  0  0  0  0  0  0  0  0  # atno 10763 bound_to 10752
  154.4901  135.5836  153.6456 H   0  0  0  0  0  0  0  0  0  0  0  0  # atno 10764 bound_to 10752
  152.9880  135.6132  154.3361 H   0  0  0  0  0  0  0  0  0  0  0  0  # atno 10765 bound_to 10752
  140.2547  134.3262  155.7878 H   0  0  0  0  0  0  0  0  0  0  0  0  # atno 11005 bound_to 11000
  145.5066  139.1481  143.3628 LP  0  0  0  0  0  0  0  0  0  0  0  0  # atno 17320 bound_to 7965
  146.2534  140.5206  142.8884 LP  0  0  0  0  0  0  0  0  0  0  0  0  # atno 17321 bound_to 7965
  139.9179  144.6817  150.8492 LP  0  0  0  0  0  0  0  0  0  0  0  0  # atno 17342 bound_to 10162
  140.7695  143.3396  151.2236 LP  0  0  0  0  0  0  0  0  0  0  0  0  # atno 17343 bound_to 10162
  157.4991  130.7869  149.7586 LP  0  0  0  0  0  0  0  0  0  0  0  0  # atno 17370 bound_to 10713
  155.9992  130.3890  150.2672 LP  0  0  0  0  0  0  0  0  0  0  0  0  # atno 17371 bound_to 10713
  141.2197  133.7374  156.9092 LP  0  0  0  0  0  0  0  0  0  0  0  0  # atno 17394 bound_to 11000
  140.1523  134.9221  157.2609 LP  0  0  0  0  0  0  0  0  0  0  0  0  # atno 17395 bound_to 11000

$$$$
