#       Name:                AV-unprocessed.smi:148
#       Creating user name   scv26
#       Creation time:       Thu Mar 26 18:38:30 2020


#       File generated by GOLD software.
#

@<TRIPOS>MOLECULE
AV-unprocessed.smi:148
    73    77     1
SMALL
NO_CHARGES


@<TRIPOS>ATOM
      1 ****        -1.8929  -2.8384  -5.4185 O.3            1 S1                 0.0000
      2 ****        -2.2307  -1.4742  -5.2673 C.3            1 S1                 0.0000
      3 ****        -1.7185  -0.9032  -3.9244 C.3            1 S1                 0.0000
      4 ****        -0.1686  -0.8393  -3.9569 C.3            1 S1                 0.0000
      5 ****         0.4179  -0.1551  -2.8201 N.pl3          1 S1                 0.0000
      6 ****         0.3101   1.1849  -2.5216 C.2            1 S1                 0.0000
      7 ****         0.8956   1.5569  -1.4165 N.2            1 S1                 0.0000
      8 ****         1.4655   0.3874  -0.9308 C.ar           1 S1                 0.0000
      9 ****         2.1997   0.0617   0.2376 C.ar           1 S1                 0.0000
     10 ****         2.4396   0.9767   1.2027 N.3            1 S1                 0.0000
     11 ****         3.8559   1.3397   1.2395 C.3            1 S1                 0.0000
     12 ****         4.0942   2.5561   2.1429 C.3            1 S1                 0.0000
     13 ****         3.5349   2.2933   3.5447 C.3            1 S1                 0.0000
     14 ****         2.0488   1.9202   3.4562 C.3            1 S1                 0.0000
     15 ****         1.8098   0.7119   2.5107 C.3            1 S1                 0.0000
     16 ****         0.3004   0.2991   2.3954 C.3            1 S1                 0.0000
     17 ****        -0.6061   1.3846   1.7678 C.3            1 S1                 0.0000
     18 ****        -1.7416   1.6582   2.7635 C.3            1 S1                 0.0000
     19 ****        -1.2467   1.1222   4.1054 C.3            1 S1                 0.0000
     20 ****        -0.4138  -0.0948   3.7076 C.3            1 S1                 0.0000
     21 ****         0.4303  -0.5581   4.7420 O.3            1 S1                 0.0000
     22 ****         2.6214  -1.2212   0.3932 N.ar           1 S1                 0.0000
     23 ****         2.3229  -2.1348  -0.5358 C.ar           1 S1                 0.0000
     24 ****         1.6188  -1.9834  -1.6604 N.ar           1 S1                 0.0000
     25 ****         1.2046  -0.6929  -1.8169 C.ar           1 S1                 0.0000
     26 ****        -2.3111  -1.6503  -2.6906 C.3            1 S1                 0.0000
     27 ****        -3.8164  -1.8656  -2.7417 C.3            1 S1                 0.0000
     28 ****        -4.1496  -2.1597  -1.2869 C.3            1 S1                 0.0000
     29 ****        -3.3234  -1.2678  -0.5565 O.3            1 S1                 0.0000
     30 ****        -2.1775  -0.9335  -1.3341 C.3            1 S1                 0.0000
     31 ****        -0.9521  -2.9220  -5.3835 H              1 S1                 0.0000
     32 ****        -1.8067  -0.9174  -6.1034 H              1 S1                 0.0000
     33 ****        -3.3120  -1.3689  -5.3536 H              1 S1                 0.0000
     34 ****        -2.0821   0.1243  -3.8823 H              1 S1                 0.0000
     35 ****         0.2489  -1.8449  -4.0124 H              1 S1                 0.0000
     36 ****         0.1661  -0.3201  -4.8557 H              1 S1                 0.0000
     37 ****        -0.2434   1.8769  -3.1397 H              1 S1                 0.0000
     38 ****         4.4388   0.4923   1.6033 H              1 S1                 0.0000
     39 ****         4.2090   1.5604   0.2309 H              1 S1                 0.0000
     40 ****         5.1601   2.7785   2.1984 H              1 S1                 0.0000
     41 ****         3.6128   3.4347   1.7115 H              1 S1                 0.0000
     42 ****         4.0912   1.4842   4.0194 H              1 S1                 0.0000
     43 ****         3.6649   3.1744   4.1734 H              1 S1                 0.0000
     44 ****         1.6908   1.7061   4.4615 H              1 S1                 0.0000
     45 ****         1.4898   2.7904   3.1132 H              1 S1                 0.0000
     46 ****         2.3451  -0.1378   2.9373 H              1 S1                 0.0000
     47 ****         0.2440  -0.5910   1.7682 H              1 S1                 0.0000
     48 ****        -0.0548   2.3020   1.5639 H              1 S1                 0.0000
     49 ****        -1.0107   1.0522   0.8113 H              1 S1                 0.0000
     50 ****        -2.0098   2.7137   2.8109 H              1 S1                 0.0000
     51 ****        -2.6316   1.1065   2.4578 H              1 S1                 0.0000
     52 ****        -0.6292   1.8725   4.5995 H              1 S1                 0.0000
     53 ****        -2.0644   0.8679   4.7806 H              1 S1                 0.0000
     54 ****        -1.1081  -0.9062   3.4829 H              1 S1                 0.0000
     55 ****         0.8772  -1.3339   4.4395 H              1 S1                 0.0000
     56 ****         2.6914  -3.1321  -0.3458 H              1 S1                 0.0000
     57 ****        -1.8382  -2.6302  -2.6070 H              1 S1                 0.0000
     58 ****        -4.3247  -0.9550  -3.0624 H              1 S1                 0.0000
     59 ****        -4.1128  -2.6777  -3.4062 H              1 S1                 0.0000
     60 ****        -5.2046  -2.0120  -1.0553 H              1 S1                 0.0000
     61 ****        -3.8811  -3.1857  -1.0314 H              1 S1                 0.0000
     62 ****        -1.2750  -1.2304  -0.8012 H              1 S1                 0.0000
     63 ****        -2.1601   0.1501  -1.4534 H              1 S1                 0.0000
     64 ****        -2.2283  -3.1729  -6.2992 LP             1 S1                 0.0000
     65 ****        -2.3062  -3.3716  -4.6803 LP             1 S1                 0.0000
     66 ****         0.9267   2.4714  -1.0131 LP             1 S1                 0.0000
     67 ****         1.9448   1.8033   0.9345 LP             1 S1                 0.0000
     68 ****        -0.1160  -0.7771   5.5505 LP             1 S1                 0.0000
     69 ****         1.0994   0.1481   4.9731 LP             1 S1                 0.0000
     70 ****         3.1529  -1.4805   1.1996 LP             1 S1                 0.0000
     71 ****         1.4205  -2.7215  -2.3053 LP             1 S1                 0.0000
     72 ****        -3.0323  -1.7050   0.2945 LP             1 S1                 0.0000
     73 ****        -3.8367  -0.4360  -0.3453 LP             1 S1                 0.0000
@<TRIPOS>BOND
    1    1    2 1     
    2    1   31 1     
    3    2    3 1     
    4    2   32 1     
    5    2   33 1     
    6    3    4 1     
    7    3   26 1     
    8    3   34 1     
    9    4    5 1     
   10    4   35 1     
   11    4   36 1     
   12    5   25 1     
   13    5    6 1     
   14    6    7 2     
   15    6   37 1     
   16    7    8 1     
   17    8   25 ar    
   18    8    9 ar    
   19    9   10 1     
   20    9   22 ar    
   21   10   15 1     
   22   10   11 1     
   23   11   12 1     
   24   11   38 1     
   25   11   39 1     
   26   12   13 1     
   27   12   40 1     
   28   12   41 1     
   29   13   14 1     
   30   13   42 1     
   31   13   43 1     
   32   14   15 1     
   33   14   44 1     
   34   14   45 1     
   35   15   16 1     
   36   15   46 1     
   37   16   20 1     
   38   16   17 1     
   39   16   47 1     
   40   17   18 1     
   41   17   48 1     
   42   17   49 1     
   43   18   19 1     
   44   18   50 1     
   45   18   51 1     
   46   19   20 1     
   47   19   52 1     
   48   19   53 1     
   49   20   21 1     
   50   20   54 1     
   51   21   55 1     
   52   22   23 ar    
   53   23   24 ar    
   54   23   56 1     
   55   24   25 ar    
   56   26   30 1     
   57   26   27 1     
   58   26   57 1     
   59   27   28 1     
   60   27   58 1     
   61   27   59 1     
   62   28   29 1     
   63   28   60 1     
   64   28   61 1     
   65   29   30 1     
   66   30   62 1     
   67   30   63 1     
   68    1   64 1     
   69    1   65 1     
   70    7   66 1     
   71   10   67 1     
   72   21   68 1     
   73   21   69 1     
   74   22   70 1     
   75   24   71 1     
   76   29   72 1     
   77   29   73 1     
@<TRIPOS>SUBSTRUCTURE
      1 S1             1
@<TRIPOS>SET
LONE_PAIRS      STATIC     ATOMS    <user>   **** ""
10 64 65 66 67 68 69 70 71 72 73
DONOR_HYDROGENS      STATIC     ATOMS    <user>   **** ""
2 31 55
ATOM$BLUE        STATIC     ATOMS    COLORGROUP SYSTEM
10 64 65 66 67 68 69 70 71 72 73
ATOM$RED        STATIC     ATOMS    COLORGROUP SYSTEM
2 31 55
