AV-unprocessed.smi:608|AV-procd|sdf|3044|dock1
  -GOLD-   2262023563D 1   1.00000     0.00000
 Structure written by MMmdl.
 40 41  0  0  0  0  0  0  0  0  1 V2000
  153.2672  144.7070  157.8100 C   0  0  0  0  0  0  0  0  0  0  0  0
  153.3370  144.2982  159.2856 C   0  0  0  0  0  0  0  0  0  0  0  0
  153.5227  142.8292  159.4803 C   0  0  0  0  0  0  0  0  0  0  0  0
  153.7773  142.1658  160.6554 C   0  0  0  0  0  0  0  0  0  0  0  0
  153.9082  140.7831  160.5071 N   0  0  0  0  0  0  0  0  0  0  0  0
  153.7704  140.3913  159.2383 C   0  0  0  0  0  0  0  0  0  0  0  0
  153.8464  138.9662  158.8023 C   0  0  0  0  0  0  0  0  0  0  0  0
  152.7429  138.0982  159.4208 C   0  0  0  0  0  0  0  0  0  0  0  0
  153.1369  137.6476  160.7483 N   0  0  0  0  0  0  0  0  0  0  0  0
  153.8107  136.5143  161.0046 C   0  0  0  0  0  0  0  0  0  0  0  0
  154.1613  135.7468  160.1071 O   0  0  0  0  0  0  0  0  0  0  0  0
  154.0726  136.2928  162.3194 N   0  0  0  0  0  0  0  0  0  0  0  0
  153.8719  137.2576  163.4096 C   0  0  0  0  0  0  0  0  0  0  0  0
  152.4512  137.0872  163.9769 C   0  0  0  0  0  0  0  0  0  0  0  0
  152.3881  136.0020  164.9507 N   0  0  0  0  0  0  0  0  0  0  0  0
  152.7159  134.7124  164.7492 C   0  0  0  0  0  0  0  0  0  0  0  0
  152.6506  133.8960  165.6654 O   0  0  0  0  0  0  0  0  0  0  0  0
  153.1556  134.2372  163.3523 C   0  0  0  0  0  0  0  0  0  0  0  0
  154.4141  134.9545  162.8177 C   0  0  0  0  0  0  0  0  0  0  0  0
  153.4302  141.7197  158.1361 S   0  0  0  0  0  0  0  0  0  0  0  0
  153.1432  145.7854  157.7104 H   0  0  0  0  0  0  0  0  0  0  0  0
  152.4262  144.2285  157.3073 H   0  0  0  0  0  0  0  0  0  0  0  0
  154.1782  144.4259  157.2808 H   0  0  0  0  0  0  0  0  0  0  0  0
  154.1536  144.8360  159.7683 H   0  0  0  0  0  0  0  0  0  0  0  0
  152.4257  144.6174  159.7920 H   0  0  0  0  0  0  0  0  0  0  0  0
  153.8827  142.5980  161.6397 H   0  0  0  0  0  0  0  0  0  0  0  0
  153.7822  138.9356  157.7139 H   0  0  0  0  0  0  0  0  0  0  0  0
  154.8280  138.5710  159.0681 H   0  0  0  0  0  0  0  0  0  0  0  0
  151.8134  138.6660  159.4897 H   0  0  0  0  0  0  0  0  0  0  0  0
  152.5473  137.2309  158.7882 H   0  0  0  0  0  0  0  0  0  0  0  0
  152.8808  138.2354  161.5279 H   0  0  0  0  0  0  0  0  0  0  0  0
  154.6193  137.1254  164.1939 H   0  0  0  0  0  0  0  0  0  0  0  0
  154.0149  138.2844  163.0720 H   0  0  0  0  0  0  0  0  0  0  0  0
  152.1636  137.9997  164.4995 H   0  0  0  0  0  0  0  0  0  0  0  0
  151.7112  136.9378  163.1888 H   0  0  0  0  0  0  0  0  0  0  0  0
  152.0889  136.2568  165.8810 H   0  0  0  0  0  0  0  0  0  0  0  0
  153.3645  133.1685  163.4133 H   0  0  0  0  0  0  0  0  0  0  0  0
  152.3238  134.3391  162.6541 H   0  0  0  0  0  0  0  0  0  0  0  0
  154.8740  134.3472  162.0367 H   0  0  0  0  0  0  0  0  0  0  0  0
  155.1746  135.0224  163.5972 H   0  0  0  0  0  0  0  0  0  0  0  0
  1  2  1  0  0  0  0
  1 21  1  0  0  0  0
  1 22  1  0  0  0  0
  1 23  1  0  0  0  0
  2  3  1  0  0  0  0
  2 24  1  0  0  0  0
  2 25  1  0  0  0  0
  3 20  1  0  0  0  0
  3  4  2  0  0  0  0
  4  5  1  0  0  0  0
  4 26  1  0  0  0  0
  5  6  2  0  0  0  0
  6  7  1  0  0  0  0
  6 20  1  0  0  0  0
  7  8  1  0  0  0  0
  7 27  1  0  0  0  0
  7 28  1  0  0  0  0
  8  9  1  0  0  0  0
  8 29  1  0  0  0  0
  8 30  1  0  0  0  0
  9 10  1  0  0  0  0
  9 31  1  0  0  0  0
 10 11  2  0  0  0  0
 10 12  1  0  0  0  0
 12 19  1  0  0  0  0
 12 13  1  0  0  0  0
 13 14  1  0  0  0  0
 13 32  1  0  0  0  0
 13 33  1  0  0  0  0
 14 15  1  0  0  0  0
 14 34  1  0  0  0  0
 14 35  1  0  0  0  0
 15 16  1  0  0  0  0
 15 36  1  0  0  0  0
 16 17  2  0  0  0  0
 16 18  1  0  0  0  0
 18 19  1  0  0  0  0
 18 37  1  0  0  0  0
 18 38  1  0  0  0  0
 19 39  1  0  0  0  0
 19 40  1  0  0  0  0
M  END
> <s_m_source_file>
AV-unprocessed.smi

> <i_m_source_file_index>
608

> <i_lp_mmshare_version>
43012

> <i_f3d_flags>
0

> <s_epik_input>
W0NIM11bQ0gyXWMxW2NIXW5jKHMxKVtDSDJdW0NIMl1bTkhdQyg9TylOMltDSDJdW0NIMl1bTkhdQyg9TylbQ0gyXVtDSDJdMg==

> <s_epik_cmdline>
J2VwaWtfcHl0aG9uJywgJy1waCcsICc3LjAnLCAnLXRuJywgJzgnLCAnLW1hJywgJzIwMCcsICctbWV0YWxfYmluZGluZycsICctaW1hZScsICc8aW5maWxlLm1hZT4nLCAnLW9tYWUnLCAnPG91dGZpbGUubWFlPic=

> <r_epik_Ionization_Penalty>
0.000937608

> <r_epik_Ionization_Penalty_Charging>
0

> <r_epik_Ionization_Penalty_Neutral>
0.000937608

> <r_epik_State_Penalty>
0.000579253

> <r_epik_Charging_Adjusted_Penalty>
0.000579253

> <i_epik_Tot_Q>
0

> <i_epik_Tot_abs_Q>
0

> <r_epik_Metal_State_Penalty>
-0

> <b_epik_Metal_Only>
0

> <s_lp_Force_Field>
OPLS_2005

> <r_lp_Energy>
19.2261

> <b_lp_Chiralities_Consistent>
1

> <s_lp_Variant>
AV-unprocessed.smi:608-1

> <Gold.Version>
5.8.1

> <Gold.Id.Protein>
6NUR|6NUR_protein|mol2

> <Gold.PLP.Fitness>
45.3823

> <Gold.PLP.PLP>
-43.3077

> <Gold.PLP.part.hbond>
-2.0000

> <Gold.PLP.part.metal>
0.0000

> <Gold.PLP.part.buried>
-6.5341

> <Gold.PLP.part.nonpolar>
-35.5055

> <Gold.PLP.part.repulsive>
0.3099

> <Gold.PLP.ligand.clash>
0.0000

> <Gold.PLP.ligand.torsion>
0.4999

> <Gold.PLP.Chemscore.Hbond>
0.9913

> <Gold.PLP.Chemscore.CHOScore>
0.0000

> <Gold.PLP.Chemscore.Metal>
0.0000

> <Gold.Chemscore.Hbonds>
donor molecule, donor type, donor heavy atom, donor atom, acceptor molecule, acceptor atom, score
      P1  H  6896  6909       L1    11  0.94

> <Gold.PLP.Chemscore.Internal.Correction>
0.1006

> <Gold.Rescore>
     Score         DG    S(hbond)    S(metal)    S(lipo)     H(rot)  DE(clash)    DE(int)     intcor
     14.22     -14.92       0.46        0.00     102.91       1.61       0.11       0.58       ----

> <Gold.Chemscore.Fitness>
14.2218

> <Gold.Chemscore.DG>
-14.9175

> <Gold.Chemscore.ZeroCoef>
-5.4800

> <Gold.Chemscore.Hbond>
0.4564

> <Gold.Chemscore.Metal>
0.0000

> <Gold.Chemscore.Lipo>
102.9054

> <Gold.Chemscore.Internal_Hbond>
0.0000

> <Gold.Chemscore.DEClash>
0.1117

> <Gold.Chemscore.DEInternal>
0.5840

> <Gold.Chemscore.Rot>
1.6120

> <Gold.Chemscore.Internal.Correction>
   9.000000E+99

> <Gold.Chemscore.Hbonds>
donor molecule, donor type, donor heavy atom, donor atom, acceptor molecule, acceptor atom, score
      P1  H  6896  6909       L1    11  0.31

> <Gold.Chemscore.Hbond.Weighted>
-1.5243

> <Gold.Chemscore.Metal.Weighted>
-0.0000

> <Gold.Chemscore.Lipo.Weighted>
-12.0399

> <Gold.Chemscore.Internal_Hbond.Weighted>
0.0000

> <Gold.Chemscore.DEClash.Weighted>
0.1117

> <Gold.Chemscore.DEInternal.Weighted>
0.5840

> <Gold.Chemscore.Rot.Weighted>
4.1267

> <Gold.Chemscore.Internal.Correction.Weighted>
   9.000000E+99

> <Gold.Protein.RotatedTorsions>
[ 6907 6896 6895 6894 ] final -166.81 input  -60.11 | X-H torsion
[ 7974 7965 7964 7962 ] final  174.61 input  175.53 | X-H torsion
[ 8008 7997 7996 7995 ] final  -82.35 input   59.86 | X-H torsion
[ 10167 10162 10161 10158 ] final  -63.87 input  -65.29 | X-H torsion
[ 10718 10713 10712 10709 ] final -136.71 input   66.30 | X-H torsion
[ 10763 10752 10751 10750 ] final  155.19 input  -60.55 | X-H torsion
[ 11005 11000 10999 10996 ] final -114.93 input  -57.11 | X-H torsion

> <Gold.Protein.ActiveResidues>
 VAL166  LYS551  ARG553  GLY616  TRP617  ASP618  TYR619  PRO620  LYS621  CYS622 
 ASP623  PHE694  ASN695  SER759  ASP760  ASP761  ALA762  ILE779  LEU786  VAL792 
 PHE793  MET794  SER795  GLU796  ALA797  LYS798  CYS799  TRP800  GLU811  SER814 

> <Gold.Protein.RotatedAtoms>
  151.4495  133.3621  159.2793 H   0  0  0  0  0  0  0  0  0  0  0  0  # atno 6907 bound_to 6896
  150.9101  134.8519  159.7430 H   0  0  0  0  0  0  0  0  0  0  0  0  # atno 6908 bound_to 6896
  152.4927  134.4424  159.9600 H   0  0  0  0  0  0  0  0  0  0  0  0  # atno 6909 bound_to 6896
  144.7218  139.9823  143.6439 H   0  0  0  0  0  0  0  0  0  0  0  0  # atno 7974 bound_to 7965
  154.6077  140.0634  156.9453 H   0  0  0  0  0  0  0  0  0  0  0  0  # atno 8008 bound_to 7997
  155.2025  140.3316  155.4323 H   0  0  0  0  0  0  0  0  0  0  0  0  # atno 8009 bound_to 7997
  156.2358  140.1862  156.7107 H   0  0  0  0  0  0  0  0  0  0  0  0  # atno 8010 bound_to 7997
  140.5841  143.2331  151.6281 H   0  0  0  0  0  0  0  0  0  0  0  0  # atno 10167 bound_to 10162
  156.2800  130.7315  151.1310 H   0  0  0  0  0  0  0  0  0  0  0  0  # atno 10718 bound_to 10713
  154.1643  135.2808  155.3099 H   0  0  0  0  0  0  0  0  0  0  0  0  # atno 10763 bound_to 10752
  154.6123  135.5495  153.7490 H   0  0  0  0  0  0  0  0  0  0  0  0  # atno 10764 bound_to 10752
  153.0183  135.6418  154.1784 H   0  0  0  0  0  0  0  0  0  0  0  0  # atno 10765 bound_to 10752
  141.0520  133.9671  157.2819 H   0  0  0  0  0  0  0  0  0  0  0  0  # atno 11005 bound_to 11000
  146.0478  139.3482  143.0658 LP  0  0  0  0  0  0  0  0  0  0  0  0  # atno 17320 bound_to 7965
  145.8253  140.9658  143.0877 LP  0  0  0  0  0  0  0  0  0  0  0  0  # atno 17321 bound_to 7965
  139.5187  144.3277  152.0855 LP  0  0  0  0  0  0  0  0  0  0  0  0  # atno 17342 bound_to 10162
  140.2431  144.4248  150.6252 LP  0  0  0  0  0  0  0  0  0  0  0  0  # atno 17343 bound_to 10162
  157.7311  131.0610  150.5692 LP  0  0  0  0  0  0  0  0  0  0  0  0  # atno 17370 bound_to 10713
  156.5797  130.4301  149.5983 LP  0  0  0  0  0  0  0  0  0  0  0  0  # atno 17371 bound_to 10713
  139.9359  135.0196  156.8553 LP  0  0  0  0  0  0  0  0  0  0  0  0  # atno 17394 bound_to 11000
  140.6036  134.0148  155.7547 LP  0  0  0  0  0  0  0  0  0  0  0  0  # atno 17395 bound_to 11000

$$$$
