AV-unprocessed.smi:1824|AV-procd|sdf|7398|dock2
  -GOLD-   22720 9 63D 1   1.00000     0.00000
 Structure written by MMmdl.
 44 46  0  0  0  0  0  0  0  0  1 V2000
  147.9425  141.3658  153.8105 C   0  0  0  0  0  0  0  0  0  0  0  0
  149.2357  140.9751  154.5334 C   0  0  1  0  0  0  0  0  0  0  0  0
  149.3738  141.6793  155.8949 C   0  0  0  0  0  0  0  0  0  0  0  0
  150.5643  141.2468  156.6159 N   0  0  0  0  0  0  0  0  0  0  0  0
  150.6979  141.9664  157.8836 C   0  0  0  0  0  0  0  0  0  0  0  0
  150.7786  143.5026  157.7732 C   0  0  1  0  0  0  0  0  0  0  0  0
  149.7708  144.0714  158.5872 O   0  0  0  0  0  0  0  0  0  0  0  0
  152.1525  144.0299  158.2285 C   0  0  0  0  0  0  0  0  0  0  0  0
  152.4011  143.7836  159.6379 N   0  0  0  0  0  0  0  0  0  0  0  0
  151.9247  144.4851  160.6843 C   0  0  0  0  0  0  0  0  0  0  0  0
  152.2828  144.0834  161.9007 N   0  0  0  0  0  0  0  0  0  0  0  0
  153.0853  142.9934  161.6104 C   0  0  0  0  0  0  0  0  0  0  0  0
  153.7850  142.1145  162.4679 C   0  0  0  0  0  0  0  0  0  0  0  0
  154.5510  141.0562  161.9364 C   0  0  0  0  0  0  0  0  0  0  0  0
  155.2153  140.2233  162.7722 F   0  0  0  0  0  0  0  0  0  0  0  0
  154.6286  140.8606  160.5413 C   0  0  0  0  0  0  0  0  0  0  0  0
  155.3662  139.8420  160.0396 F   0  0  0  0  0  0  0  0  0  0  0  0
  153.9401  141.7236  159.6672 C   0  0  0  0  0  0  0  0  0  0  0  0
  153.1778  142.7780  160.2023 C   0  0  0  0  0  0  0  0  0  0  0  0
  150.5103  139.7961  156.7907 C   0  0  0  0  0  0  0  0  0  0  0  0
  150.3369  139.0407  155.4576 C   0  0  2  0  0  0  0  0  0  0  0  0
  151.6150  139.0161  154.6023 C   0  0  0  0  0  0  0  0  0  0  0  0
  149.2230  139.5628  154.7316 O   0  0  0  0  0  0  0  0  0  0  0  0
  147.9077  142.4388  153.6212 H   0  0  0  0  0  0  0  0  0  0  0  0
  147.0649  141.1006  154.4007 H   0  0  0  0  0  0  0  0  0  0  0  0
  147.8645  140.8563  152.8498 H   0  0  0  0  0  0  0  0  0  0  0  0
  150.0789  141.2442  153.8967 H   0  0  0  0  0  0  0  0  0  0  0  0
  149.4113  142.7577  155.7356 H   0  0  0  0  0  0  0  0  0  0  0  0
  148.4858  141.4848  156.4991 H   0  0  0  0  0  0  0  0  0  0  0  0
  149.8523  141.7203  158.5281 H   0  0  0  0  0  0  0  0  0  0  0  0
  151.5816  141.5982  158.4070 H   0  0  0  0  0  0  0  0  0  0  0  0
  150.6126  143.8265  156.7468 H   0  0  0  0  0  0  0  0  0  0  0  0
  149.4253  144.8341  158.1494 H   0  0  0  0  0  0  0  0  0  0  0  0
  152.9524  143.5715  157.6451 H   0  0  0  0  0  0  0  0  0  0  0  0
  152.2183  145.1049  158.0572 H   0  0  0  0  0  0  0  0  0  0  0  0
  151.2808  145.3412  160.5449 H   0  0  0  0  0  0  0  0  0  0  0  0
  153.7331  142.2544  163.5372 H   0  0  0  0  0  0  0  0  0  0  0  0
  153.9983  141.5777  158.5990 H   0  0  0  0  0  0  0  0  0  0  0  0
  151.4113  139.4311  157.2817 H   0  0  0  0  0  0  0  0  0  0  0  0
  149.6777  139.5426  157.4488 H   0  0  0  0  0  0  0  0  0  0  0  0
  150.0908  138.0042  155.6901 H   0  0  0  0  0  0  0  0  0  0  0  0
  152.4234  138.5082  155.1287 H   0  0  0  0  0  0  0  0  0  0  0  0
  151.9657  140.0189  154.3596 H   0  0  0  0  0  0  0  0  0  0  0  0
  151.4459  138.4846  153.6656 H   0  0  0  0  0  0  0  0  0  0  0  0
  1  2  1  0  0  0  0
  1 24  1  0  0  0  0
  1 25  1  0  0  0  0
  1 26  1  0  0  0  0
  2 23  1  0  0  0  0
  2  3  1  0  0  0  0
  2 27  1  0  0  0  0
  3  4  1  0  0  0  0
  3 28  1  0  0  0  0
  3 29  1  0  0  0  0
  4  5  1  0  0  0  0
  4 20  1  0  0  0  0
  5  6  1  0  0  0  0
  5 30  1  0  0  0  0
  5 31  1  0  0  0  0
  6  7  1  0  0  0  0
  6  8  1  0  0  0  0
  6 32  1  0  0  0  0
  7 33  1  0  0  0  0
  8  9  1  0  0  0  0
  8 34  1  0  0  0  0
  8 35  1  0  0  0  0
  9 19  1  0  0  0  0
  9 10  1  0  0  0  0
 10 11  2  0  0  0  0
 10 36  1  0  0  0  0
 11 12  1  0  0  0  0
 12 19  2  0  0  0  0
 12 13  1  0  0  0  0
 13 14  2  0  0  0  0
 13 37  1  0  0  0  0
 14 15  1  0  0  0  0
 14 16  1  0  0  0  0
 16 17  1  0  0  0  0
 16 18  2  0  0  0  0
 18 19  1  0  0  0  0
 18 38  1  0  0  0  0
 20 21  1  0  0  0  0
 20 39  1  0  0  0  0
 20 40  1  0  0  0  0
 21 22  1  0  0  0  0
 21 23  1  0  0  0  0
 21 41  1  0  0  0  0
 22 42  1  0  0  0  0
 22 43  1  0  0  0  0
 22 44  1  0  0  0  0
M  END
> <s_m_source_file>
AV-unprocessed.smi

> <i_m_source_file_index>
1824

> <i_lp_mmshare_version>
43012

> <i_f3d_flags>
0

> <s_epik_input>
W0NIM11bQ0BASF0xW0NIMl1OKFtDSDJdW0NASF0oTzEpW0NIM10pW0NIMl1bQ0BIXShbT0hdKVtDSDJdbihbY0hdbjIpYyhjMjMpW2NIXWMoRiljKEYpW2NIXTM=

> <s_epik_cmdline>
J2VwaWtfcHl0aG9uJywgJy1waCcsICc3LjAnLCAnLXRuJywgJzgnLCAnLW1hJywgJzIwMCcsICctbWV0YWxfYmluZGluZycsICctaW1hZScsICc8aW5maWxlLm1hZT4nLCAnLW9tYWUnLCAnPG91dGZpbGUubWFlPic=

> <r_epik_Ionization_Penalty>
0.273778

> <r_epik_Ionization_Penalty_Charging>
0

> <r_epik_Ionization_Penalty_Neutral>
0.273778

> <r_epik_State_Penalty>
0.246794

> <r_epik_Charging_Adjusted_Penalty>
0.246794

> <i_epik_Tot_Q>
0

> <i_epik_Tot_abs_Q>
0

> <r_epik_Metal_State_Penalty>
0.238234

> <b_epik_Metal_Only>
0

> <s_lp_Force_Field>
OPLS_2005

> <r_lp_Energy>
30.0542

> <b_lp_Chiralities_Consistent>
1

> <s_lp_Variant>
AV-unprocessed.smi:1824-6

> <Gold.Version>
5.8.1

> <Gold.Id.Protein>
6NUR|6NUR_protein|mol2

> <Gold.PLP.Fitness>
54.4456

> <Gold.PLP.PLP>
-53.4376

> <Gold.PLP.part.hbond>
-1.8429

> <Gold.PLP.part.metal>
0.0000

> <Gold.PLP.part.buried>
-1.3200

> <Gold.PLP.part.nonpolar>
-49.9418

> <Gold.PLP.part.repulsive>
0.3431

> <Gold.PLP.ligand.clash>
0.0000

> <Gold.PLP.ligand.torsion>
1.0146

> <Gold.PLP.Chemscore.Hbond>
0.9913

> <Gold.PLP.Chemscore.CHOScore>
0.0000

> <Gold.PLP.Chemscore.Metal>
0.0000

> <Gold.Chemscore.Hbonds>
donor molecule, donor type, donor heavy atom, donor atom, acceptor molecule, acceptor atom, score
      L1  H     7    33       P1  8029  0.85

> <Gold.PLP.Chemscore.Internal.Correction>
0.0634

> <Gold.Rescore>
     Score         DG    S(hbond)    S(metal)    S(lipo)     H(rot)  DE(clash)    DE(int)     intcor
     13.01     -14.89       0.06        0.00     128.34       2.26       0.82       1.06       ----

> <Gold.Chemscore.Fitness>
13.0109

> <Gold.Chemscore.DG>
-14.8921

> <Gold.Chemscore.ZeroCoef>
-5.4800

> <Gold.Chemscore.Hbond>
0.0558

> <Gold.Chemscore.Metal>
0.0000

> <Gold.Chemscore.Lipo>
128.3419

> <Gold.Chemscore.Internal_Hbond>
0.0000

> <Gold.Chemscore.DEClash>
0.8163

> <Gold.Chemscore.DEInternal>
1.0648

> <Gold.Chemscore.Rot>
2.2619

> <Gold.Chemscore.Internal.Correction>
   9.000000E+99

> <Gold.Chemscore.Hbonds>
donor molecule, donor type, donor heavy atom, donor atom, acceptor molecule, acceptor atom, score
      L1  H     7    33       P1  8029  0.18

> <Gold.Chemscore.Hbond.Weighted>
-0.1865

> <Gold.Chemscore.Metal.Weighted>
-0.0000

> <Gold.Chemscore.Lipo.Weighted>
-15.0160

> <Gold.Chemscore.Internal_Hbond.Weighted>
0.0000

> <Gold.Chemscore.DEClash.Weighted>
0.8163

> <Gold.Chemscore.DEInternal.Weighted>
1.0648

> <Gold.Chemscore.Rot.Weighted>
5.7904

> <Gold.Chemscore.Internal.Correction.Weighted>
   9.000000E+99

> <Gold.Protein.RotatedTorsions>
[ 6907 6896 6895 6894 ] final   60.62 input  -60.11 | X-H torsion
[ 7974 7965 7964 7962 ] final   23.43 input  175.53 | X-H torsion
[ 8008 7997 7996 7995 ] final  116.90 input   59.86 | X-H torsion
[ 10167 10162 10161 10158 ] final -120.62 input  -65.29 | X-H torsion
[ 10718 10713 10712 10709 ] final   70.18 input   66.30 | X-H torsion
[ 10763 10752 10751 10750 ] final -101.27 input  -60.55 | X-H torsion
[ 11005 11000 10999 10996 ] final   81.53 input  -57.11 | X-H torsion

> <Gold.Protein.ActiveResidues>
 VAL166  LYS551  ARG553  GLY616  TRP617  ASP618  TYR619  PRO620  LYS621  CYS622 
 ASP623  PHE694  ASN695  SER759  ASP760  ASP761  ALA762  ILE779  LEU786  VAL792 
 PHE793  MET794  SER795  GLU796  ALA797  LYS798  CYS799  TRP800  GLU811  SER814 

> <Gold.Protein.RotatedAtoms>
  152.4019  134.6272  160.0066 H   0  0  0  0  0  0  0  0  0  0  0  0  # atno 6907 bound_to 6896
  151.6475  133.3317  159.3152 H   0  0  0  0  0  0  0  0  0  0  0  0  # atno 6908 bound_to 6896
  150.7918  134.6990  159.6584 H   0  0  0  0  0  0  0  0  0  0  0  0  # atno 6909 bound_to 6896
  146.1984  139.7746  142.8780 H   0  0  0  0  0  0  0  0  0  0  0  0  # atno 7974 bound_to 7965
  156.2465  140.2908  156.0594 H   0  0  0  0  0  0  0  0  0  0  0  0  # atno 8008 bound_to 7997
  155.1792  140.0404  157.2896 H   0  0  0  0  0  0  0  0  0  0  0  0  # atno 8009 bound_to 7997
  154.6271  140.2490  155.7485 H   0  0  0  0  0  0  0  0  0  0  0  0  # atno 8010 bound_to 7997
  140.0339  143.5220  152.2163 H   0  0  0  0  0  0  0  0  0  0  0  0  # atno 10167 bound_to 10162
  157.6386  130.9464  150.0616 H   0  0  0  0  0  0  0  0  0  0  0  0  # atno 10718 bound_to 10713
  154.7644  135.4904  153.9526 H   0  0  0  0  0  0  0  0  0  0  0  0  # atno 10763 bound_to 10752
  153.1290  135.6748  153.9217 H   0  0  0  0  0  0  0  0  0  0  0  0  # atno 10764 bound_to 10752
  153.8926  135.3119  155.3426 H   0  0  0  0  0  0  0  0  0  0  0  0  # atno 10765 bound_to 10752
  139.9095  134.8003  156.2054 H   0  0  0  0  0  0  0  0  0  0  0  0  # atno 11005 bound_to 11000
  145.3565  141.0318  143.3309 LP  0  0  0  0  0  0  0  0  0  0  0  0  # atno 17320 bound_to 7965
  144.8630  139.5148  143.6803 LP  0  0  0  0  0  0  0  0  0  0  0  0  # atno 17321 bound_to 7965
  139.6058  144.7595  151.3066 LP  0  0  0  0  0  0  0  0  0  0  0  0  # atno 17342 bound_to 10162
  140.7290  143.6920  150.7914 LP  0  0  0  0  0  0  0  0  0  0  0  0  # atno 17343 bound_to 10162
  156.1647  130.3645  149.9249 LP  0  0  0  0  0  0  0  0  0  0  0  0  # atno 17370 bound_to 10713
  156.7239  130.9017  151.3620 LP  0  0  0  0  0  0  0  0  0  0  0  0  # atno 17371 bound_to 10713
  141.0499  133.6894  156.1752 LP  0  0  0  0  0  0  0  0  0  0  0  0  # atno 17394 bound_to 11000
  140.6827  134.4750  157.5589 LP  0  0  0  0  0  0  0  0  0  0  0  0  # atno 17395 bound_to 11000

$$$$
