AV-unprocessed.smi:3133|AV-procd|sdf|11939|dock6
  -GOLD-   2272017323D 1   1.00000     0.00000
 Structure written by MMmdl.
 32 33  0  0  0  0  0  0  0  0  1 V2000
  150.4219  141.5161  155.8300 C   0  0  0  0  0  0  0  0  0  0  0  0
  150.7388  140.1738  156.5206 C   0  0  2  0  0  0  0  0  0  0  0  0
  151.4144  140.3468  157.8920 C   0  0  0  0  0  0  0  0  0  0  0  0
  151.1993  139.5494  158.8058 O   0  0  0  0  0  0  0  0  0  0  0  0
  152.2460  141.3941  158.0152 N   0  0  0  0  0  0  0  0  0  0  0  0
  153.0188  141.7222  159.2074 C   0  0  0  0  0  0  0  0  0  0  0  0
  152.6583  143.1197  159.7360 C   0  0  1  0  0  0  0  0  0  0  0  0
  152.8302  144.2308  158.7026 C   0  0  0  0  0  0  0  0  0  0  0  0
  151.9114  145.2978  159.2522 C   0  0  0  0  0  0  0  0  0  0  0  0
  150.7439  144.4662  159.7774 C   0  0  0  0  0  0  0  0  0  0  0  0
  151.2847  143.1897  160.1102 O   0  0  0  0  0  0  0  0  0  0  0  0
  151.5264  139.2935  155.6653 N   0  0  0  0  0  0  0  0  0  0  0  0
  151.2172  138.1057  155.1405 C   0  0  0  0  0  0  0  0  0  0  0  0
  152.1954  137.5571  154.4341 N   0  0  0  0  0  0  0  0  0  0  0  0
  153.1513  138.5222  154.5811 C   0  0  0  0  0  0  0  0  0  0  0  0
  152.8063  139.5785  155.3171 N   0  0  0  0  0  0  0  0  0  0  0  0
  149.7759  142.1363  156.4522 H   0  0  0  0  0  0  0  0  0  0  0  0
  149.9037  141.3528  154.8848 H   0  0  0  0  0  0  0  0  0  0  0  0
  151.3251  142.0893  155.6166 H   0  0  0  0  0  0  0  0  0  0  0  0
  149.7858  139.6737  156.7011 H   0  0  0  0  0  0  0  0  0  0  0  0
  152.3666  141.9990  157.2160 H   0  0  0  0  0  0  0  0  0  0  0  0
  152.7863  140.9743  159.9659 H   0  0  0  0  0  0  0  0  0  0  0  0
  154.0908  141.6444  159.0182 H   0  0  0  0  0  0  0  0  0  0  0  0
  153.2597  143.3579  160.6151 H   0  0  0  0  0  0  0  0  0  0  0  0
  153.8635  144.5643  158.6038 H   0  0  0  0  0  0  0  0  0  0  0  0
  152.4791  143.9049  157.7223 H   0  0  0  0  0  0  0  0  0  0  0  0
  152.3993  145.8233  160.0744 H   0  0  0  0  0  0  0  0  0  0  0  0
  151.6101  146.0336  158.5062 H   0  0  0  0  0  0  0  0  0  0  0  0
  150.2613  144.9295  160.6386 H   0  0  0  0  0  0  0  0  0  0  0  0
  149.9908  144.3294  159.0005 H   0  0  0  0  0  0  0  0  0  0  0  0
  150.2569  137.6310  155.2807 H   0  0  0  0  0  0  0  0  0  0  0  0
  154.1323  138.4408  154.1367 H   0  0  0  0  0  0  0  0  0  0  0  0
  1  2  1  0  0  0  0
  1 17  1  0  0  0  0
  1 18  1  0  0  0  0
  1 19  1  0  0  0  0
  2  3  1  0  0  0  0
  2 12  1  0  0  0  0
  2 20  1  0  0  0  0
  3  4  2  0  0  0  0
  3  5  1  0  0  0  0
  5  6  1  0  0  0  0
  5 21  1  0  0  0  0
  6  7  1  0  0  0  0
  6 22  1  0  0  0  0
  6 23  1  0  0  0  0
  7 11  1  0  0  0  0
  7  8  1  0  0  0  0
  7 24  1  0  0  0  0
  8  9  1  0  0  0  0
  8 25  1  0  0  0  0
  8 26  1  0  0  0  0
  9 10  1  0  0  0  0
  9 27  1  0  0  0  0
  9 28  1  0  0  0  0
 10 11  1  0  0  0  0
 10 29  1  0  0  0  0
 10 30  1  0  0  0  0
 12 16  1  0  0  0  0
 12 13  1  0  0  0  0
 13 14  2  0  0  0  0
 13 31  1  0  0  0  0
 14 15  1  0  0  0  0
 15 16  2  0  0  0  0
 15 32  1  0  0  0  0
M  END
> <s_m_source_file>
AV-unprocessed.smi

> <i_m_source_file_index>
3133

> <i_lp_mmshare_version>
43012

> <i_f3d_flags>
0

> <s_epik_input>
bjFbY0hdbltjSF1uMVtDQEhdKFtDSDNdKUMoPU8pW05IXVtDSDJdW0NAQEhdMltDSDJdW0NIMl1bQ0gyXU8y

> <s_epik_cmdline>
J2VwaWtfcHl0aG9uJywgJy1waCcsICc3LjAnLCAnLXRuJywgJzgnLCAnLW1hJywgJzIwMCcsICctbWV0YWxfYmluZGluZycsICctaW1hZScsICc8aW5maWxlLm1hZT4nLCAnLW9tYWUnLCAnPG91dGZpbGUubWFlPic=

> <r_lp_tautomer_probability>
1

> <r_epik_Ionization_Penalty>
1.2027e-05

> <r_epik_Ionization_Penalty_Charging>
0

> <r_epik_Ionization_Penalty_Neutral>
1.2027e-05

> <r_epik_State_Penalty>
-0

> <r_epik_Charging_Adjusted_Penalty>
0

> <i_epik_Tot_Q>
0

> <i_epik_Tot_abs_Q>
0

> <r_epik_Metal_State_Penalty>
-0

> <b_epik_Metal_Only>
0

> <s_lp_Force_Field>
OPLS_2005

> <r_lp_Energy>
23.186

> <b_lp_Chiralities_Consistent>
1

> <s_lp_Variant>
AV-unprocessed.smi:3133-3

> <Gold.Version>
5.8.1

> <Gold.Id.Protein>
6NUR|6NUR_protein|mol2

> <Gold.PLP.Fitness>
41.3016

> <Gold.PLP.PLP>
-37.6891

> <Gold.PLP.part.hbond>
-3.1252

> <Gold.PLP.part.metal>
0.0000

> <Gold.PLP.part.buried>
-6.0303

> <Gold.PLP.part.nonpolar>
-30.3241

> <Gold.PLP.part.repulsive>
0.2538

> <Gold.PLP.ligand.clash>
0.0000

> <Gold.PLP.ligand.torsion>
0.7705

> <Gold.PLP.Chemscore.Hbond>
1.6764

> <Gold.PLP.Chemscore.CHOScore>
0.0000

> <Gold.PLP.Chemscore.Metal>
0.0000

> <Gold.Chemscore.Hbonds>
donor molecule, donor type, donor heavy atom, donor atom, acceptor molecule, acceptor atom, score
      P1  H  7997  8009       L1    16  0.88
      P1  H 10752 10763       L1    14  0.76

> <Gold.PLP.Chemscore.Internal.Correction>
0.1244

> <Gold.Rescore>
     Score         DG    S(hbond)    S(metal)    S(lipo)     H(rot)  DE(clash)    DE(int)     intcor
     11.64     -12.59       1.30        0.00      72.94       2.26       0.08       0.87       ----

> <Gold.Chemscore.Fitness>
11.6382

> <Gold.Chemscore.DG>
-12.5898

> <Gold.Chemscore.ZeroCoef>
-5.4800

> <Gold.Chemscore.Hbond>
1.3025

> <Gold.Chemscore.Metal>
0.0000

> <Gold.Chemscore.Lipo>
72.9428

> <Gold.Chemscore.Internal_Hbond>
0.0000

> <Gold.Chemscore.DEClash>
0.0850

> <Gold.Chemscore.DEInternal>
0.8667

> <Gold.Chemscore.Rot>
2.2558

> <Gold.Chemscore.Internal.Correction>
   9.000000E+99

> <Gold.Chemscore.Hbonds>
donor molecule, donor type, donor heavy atom, donor atom, acceptor molecule, acceptor atom, score
      P1  H  7997  8009       L1    16  0.60
      P1  H 10752 10763       L1    14  0.60

> <Gold.Chemscore.Hbond.Weighted>
-4.3502

> <Gold.Chemscore.Metal.Weighted>
-0.0000

> <Gold.Chemscore.Lipo.Weighted>
-8.5343

> <Gold.Chemscore.Internal_Hbond.Weighted>
0.0000

> <Gold.Chemscore.DEClash.Weighted>
0.0850

> <Gold.Chemscore.DEInternal.Weighted>
0.8667

> <Gold.Chemscore.Rot.Weighted>
5.7747

> <Gold.Chemscore.Internal.Correction.Weighted>
   9.000000E+99

> <Gold.Protein.RotatedTorsions>
[ 6907 6896 6895 6894 ] final -109.22 input  -60.11 | X-H torsion
[ 7974 7965 7964 7962 ] final -124.92 input  175.53 | X-H torsion
[ 8008 7997 7996 7995 ] final -169.35 input   59.86 | X-H torsion
[ 10167 10162 10161 10158 ] final   75.22 input  -65.29 | X-H torsion
[ 10718 10713 10712 10709 ] final   21.00 input   66.30 | X-H torsion
[ 10763 10752 10751 10750 ] final   36.67 input  -60.55 | X-H torsion
[ 11005 11000 10999 10996 ] final  114.92 input  -57.11 | X-H torsion

> <Gold.Protein.ActiveResidues>
 VAL166  LYS551  ARG553  GLY616  TRP617  ASP618  TYR619  PRO620  LYS621  CYS622 
 ASP623  PHE694  ASN695  SER759  ASP760  ASP761  ALA762  ILE779  LEU786  VAL792 
 PHE793  MET794  SER795  GLU796  ALA797  LYS798  CYS799  TRP800  GLU811  SER814 

> <Gold.Protein.RotatedAtoms>
  150.7549  133.9561  159.3500 H   0  0  0  0  0  0  0  0  0  0  0  0  # atno 6907 bound_to 6896
  151.7483  135.0836  160.0336 H   0  0  0  0  0  0  0  0  0  0  0  0  # atno 6908 bound_to 6896
  152.3483  133.6112  159.5962 H   0  0  0  0  0  0  0  0  0  0  0  0  # atno 6909 bound_to 6896
  145.0030  140.7838  143.4484 H   0  0  0  0  0  0  0  0  0  0  0  0  # atno 7974 bound_to 7965
  155.9038  140.1045  157.1330 H   0  0  0  0  0  0  0  0  0  0  0  0  # atno 8008 bound_to 7997
  154.4030  140.1287  156.4534 H   0  0  0  0  0  0  0  0  0  0  0  0  # atno 8009 bound_to 7997
  155.7391  140.3467  155.5098 H   0  0  0  0  0  0  0  0  0  0  0  0  # atno 8010 bound_to 7997
  140.0053  144.5655  150.7703 H   0  0  0  0  0  0  0  0  0  0  0  0  # atno 10167 bound_to 10162
  157.1324  130.6597  149.5956 H   0  0  0  0  0  0  0  0  0  0  0  0  # atno 10718 bound_to 10713
  153.0067  135.6299  154.2023 H   0  0  0  0  0  0  0  0  0  0  0  0  # atno 10763 bound_to 10752
  154.1766  135.2815  155.3066 H   0  0  0  0  0  0  0  0  0  0  0  0  # atno 10764 bound_to 10752
  154.5867  135.5630  153.7298 H   0  0  0  0  0  0  0  0  0  0  0  0  # atno 10765 bound_to 10752
  139.8994  134.9576  156.6966 H   0  0  0  0  0  0  0  0  0  0  0  0  # atno 11005 bound_to 11000
  145.2126  139.2197  143.5135 LP  0  0  0  0  0  0  0  0  0  0  0  0  # atno 17320 bound_to 7965
  146.3456  140.1968  142.8589 LP  0  0  0  0  0  0  0  0  0  0  0  0  # atno 17321 bound_to 7965
  140.7403  143.2802  151.3621 LP  0  0  0  0  0  0  0  0  0  0  0  0  # atno 17342 bound_to 10162
  139.6243  144.0846  152.2419 LP  0  0  0  0  0  0  0  0  0  0  0  0  # atno 17343 bound_to 10162
  155.9805  130.4806  150.6776 LP  0  0  0  0  0  0  0  0  0  0  0  0  # atno 17370 bound_to 10713
  157.4380  131.0858  151.0972 LP  0  0  0  0  0  0  0  0  0  0  0  0  # atno 17371 bound_to 10713
  140.7183  133.9163  155.8130 LP  0  0  0  0  0  0  0  0  0  0  0  0  # atno 17394 bound_to 11000
  141.0247  134.0840  157.4082 LP  0  0  0  0  0  0  0  0  0  0  0  0  # atno 17395 bound_to 11000

$$$$
