#       Name:                AV-unprocessed.smi:1675
#       Creating user name   scv26
#       Creation time:       Fri Mar 27 07:46:05 2020


#       File generated by GOLD software.
#

@<TRIPOS>MOLECULE
AV-unprocessed.smi:1675
    45    47     1
SMALL
NO_CHARGES


@<TRIPOS>ATOM
      1 ****        -5.5992  -2.5015   2.3575 N.am           1 S1                 0.0000
      2 ****        -5.4682  -1.9501   1.1481 C.2            1 S1                 0.0000
      3 ****        -5.3228  -2.6231   0.1300 O.2            1 S1                 0.0000
      4 ****        -5.5047  -0.4228   1.0699 C.3            1 S1                 0.0000
      5 ****        -4.2034   0.1471   1.3694 N.pl3          1 S1                 0.0000
      6 ****        -3.1236   0.2978   0.5212 C.2            1 S1                 0.0000
      7 ****        -2.1389   0.8725   1.2740 C.2            1 S1                 0.0000
      8 ****        -0.8200   1.2380   0.9037 N.am           1 S1                 0.0000
      9 ****        -0.2484   1.1259  -0.3083 C.2            1 S1                 0.0000
     10 ****        -0.8223   0.6975  -1.3097 O.2            1 S1                 0.0000
     11 ****         1.2116   1.5848  -0.4011 C.3            1 S1                 0.0000
     12 ****         2.0935   0.6619  -1.2729 C.3            1 S1                 0.0000
     13 ****         2.2493  -0.7759  -0.7199 C.3            1 S1                 0.0000
     14 ****         3.7759  -0.9538  -0.6336 C.3            1 S1                 0.0000
     15 ****         4.3687  -1.0283  -2.0529 C.3            1 S1                 0.0000
     16 ****         4.2468   0.4255  -2.5479 C.3            1 S1                 0.0000
     17 ****         3.5641   1.1317  -1.3606 C.3            1 S1                 0.0000
     18 ****         4.2205   0.4288  -0.1756 C.3            1 S1                 0.0000
     19 ****        -2.6916   1.0418   2.5700 C.2            1 S1                 0.0000
     20 ****        -3.9402   0.6030   2.6201 N.2            1 S1                 0.0000
     21 ****        -5.5726  -3.5060   2.4565 H              1 S1                 0.0000
     22 ****        -5.7160  -1.9121   3.1691 H              1 S1                 0.0000
     23 ****        -5.8014  -0.1099   0.0679 H              1 S1                 0.0000
     24 ****        -6.2481  -0.0249   1.7628 H              1 S1                 0.0000
     25 ****        -3.1593  -0.0160  -0.5114 H              1 S1                 0.0000
     26 ****        -0.2460   1.6211   1.6408 H              1 S1                 0.0000
     27 ****         1.2163   2.5924  -0.8180 H              1 S1                 0.0000
     28 ****         1.6326   1.6670   0.6018 H              1 S1                 0.0000
     29 ****         1.6692   0.6295  -2.2780 H              1 S1                 0.0000
     30 ****         1.8065  -0.8733   0.2724 H              1 S1                 0.0000
     31 ****         1.7795  -1.5202  -1.3643 H              1 S1                 0.0000
     32 ****         4.0839  -1.7755   0.0137 H              1 S1                 0.0000
     33 ****         5.4146  -1.3362  -2.0238 H              1 S1                 0.0000
     34 ****         3.8293  -1.7317  -2.6884 H              1 S1                 0.0000
     35 ****         5.2346   0.8498  -2.7331 H              1 S1                 0.0000
     36 ****         3.6724   0.5062  -3.4713 H              1 S1                 0.0000
     37 ****         3.6832   2.2157  -1.3777 H              1 S1                 0.0000
     38 ****         3.8073   0.7186   0.7917 H              1 S1                 0.0000
     39 ****         5.3053   0.5469  -0.1488 H              1 S1                 0.0000
     40 ****        -2.2390   1.4594   3.4573 H              1 S1                 0.0000
     41 ****        -5.2992  -3.6211   0.1894 LP             1 S1                 0.0000
     42 ****        -5.2280  -2.1728  -0.7578 LP             1 S1                 0.0000
     43 ****        -1.7769   0.4051  -1.2523 LP             1 S1                 0.0000
     44 ****        -0.3339   0.6419  -2.1805 LP             1 S1                 0.0000
     45 ****        -4.5554   0.6068   3.4084 LP             1 S1                 0.0000
@<TRIPOS>BOND
    1    1    2 am    
    2    1   21 1     
    3    1   22 1     
    4    2    3 2     
    5    2    4 1     
    6    4    5 1     
    7    4   23 1     
    8    4   24 1     
    9    5   20 1     
   10    5    6 1     
   11    6    7 2     
   12    6   25 1     
   13    7    8 1     
   14    7   19 1     
   15    8    9 am    
   16    8   26 1     
   17    9   10 2     
   18    9   11 1     
   19   11   12 1     
   20   11   27 1     
   21   11   28 1     
   22   12   17 1     
   23   12   13 1     
   24   12   29 1     
   25   13   14 1     
   26   13   30 1     
   27   13   31 1     
   28   14   18 1     
   29   14   15 1     
   30   14   32 1     
   31   15   16 1     
   32   15   33 1     
   33   15   34 1     
   34   16   17 1     
   35   16   35 1     
   36   16   36 1     
   37   17   18 1     
   38   17   37 1     
   39   18   38 1     
   40   18   39 1     
   41   19   20 2     
   42   19   40 1     
   43    3   41 1     
   44    3   42 1     
   45   10   43 1     
   46   10   44 1     
   47   20   45 1     
@<TRIPOS>SUBSTRUCTURE
      1 S1             1
@<TRIPOS>SET
LONE_PAIRS      STATIC     ATOMS    <user>   **** ""
5 41 42 43 44 45
DONOR_HYDROGENS      STATIC     ATOMS    <user>   **** ""
3 21 22 26
ATOM$BLUE        STATIC     ATOMS    COLORGROUP SYSTEM
5 41 42 43 44 45
ATOM$RED        STATIC     ATOMS    COLORGROUP SYSTEM
3 21 22 26
