AV-unprocessed.smi:1598|AV-procd|sdf|6421|dock1
  -GOLD-   22720 7 63D 1   1.00000     0.00000
 Structure written by MMmdl.
 39 39  0  0  0  0  0  0  0  0  1 V2000
  147.2868  139.4651  153.0761 C   0  0  0  0  0  0  0  0  0  0  0  0
  148.0945  140.3978  153.7715 O   0  0  0  0  0  0  0  0  0  0  0  0
  147.3358  141.4437  154.3593 C   0  0  0  0  0  0  0  0  0  0  0  0
  147.5046  141.4172  155.8889 C   0  0  2  0  0  0  0  0  0  0  0  0
  146.3202  142.0661  156.6181 C   0  0  0  0  0  0  0  0  0  0  0  0
  148.7424  142.0848  156.2756 N   0  0  0  0  0  0  0  0  0  0  0  0
  149.6712  141.6009  157.1177 C   0  0  0  0  0  0  0  0  0  0  0  0
  149.5524  140.5195  157.6922 O   0  0  0  0  0  0  0  0  0  0  0  0
  150.9436  142.4379  157.3512 C   0  0  0  0  0  0  0  0  0  0  0  0
  151.8220  141.9586  158.4512 N   0  0  0  0  0  0  0  0  0  0  0  0
  152.1437  142.8285  159.5407 C   0  0  0  0  0  0  0  0  0  0  0  0
  151.5533  144.2459  159.5763 C   0  0  0  0  0  0  0  0  0  0  0  0
  151.9067  144.8868  160.6914 F   0  0  0  0  0  0  0  0  0  0  0  0
  152.0043  144.9729  158.5537 F   0  0  0  0  0  0  0  0  0  0  0  0
  150.2209  144.2342  159.5532 F   0  0  0  0  0  0  0  0  0  0  0  0
  152.9359  142.3891  160.5360 C   0  0  0  0  0  0  0  0  0  0  0  0
  153.4647  141.0535  160.5038 C   0  0  0  0  0  0  0  0  0  0  0  0
  153.1700  140.2181  159.4820 C   0  0  0  0  0  0  0  0  0  0  0  0
  153.6883  138.8328  159.4066 C   0  0  0  0  0  0  0  0  0  0  0  0
  154.4242  138.4623  160.4621 N   0  0  0  0  0  0  0  0  0  0  0  0
  153.5086  138.0225  158.4976 O   0  0  0  0  0  0  0  0  0  0  0  0
  152.2942  140.6669  158.3690 C   0  0  0  0  0  0  0  0  0  0  0  0
  151.9753  139.9519  157.4142 O   0  0  0  0  0  0  0  0  0  0  0  0
  147.9147  138.6803  152.6544 H   0  0  0  0  0  0  0  0  0  0  0  0
  146.7490  139.9438  152.2569 H   0  0  0  0  0  0  0  0  0  0  0  0
  146.5632  138.9951  153.7434 H   0  0  0  0  0  0  0  0  0  0  0  0
  147.6608  142.4077  153.9645 H   0  0  0  0  0  0  0  0  0  0  0  0
  146.2826  141.3295  154.0979 H   0  0  0  0  0  0  0  0  0  0  0  0
  147.5520  140.3752  156.2097 H   0  0  0  0  0  0  0  0  0  0  0  0
  145.3831  141.5726  156.3593 H   0  0  0  0  0  0  0  0  0  0  0  0
  146.2223  143.1215  156.3619 H   0  0  0  0  0  0  0  0  0  0  0  0
  146.4412  141.9970  157.6997 H   0  0  0  0  0  0  0  0  0  0  0  0
  148.9224  142.9789  155.8426 H   0  0  0  0  0  0  0  0  0  0  0  0
  151.4943  142.4728  156.4095 H   0  0  0  0  0  0  0  0  0  0  0  0
  150.6429  143.4731  157.4808 H   0  0  0  0  0  0  0  0  0  0  0  0
  153.1855  143.0254  161.3718 H   0  0  0  0  0  0  0  0  0  0  0  0
  154.0995  140.7554  161.3249 H   0  0  0  0  0  0  0  0  0  0  0  0
  154.8240  137.5361  160.5012 H   0  0  0  0  0  0  0  0  0  0  0  0
  154.5787  139.1157  161.2162 H   0  0  0  0  0  0  0  0  0  0  0  0
  1  2  1  0  0  0  0
  1 24  1  0  0  0  0
  1 25  1  0  0  0  0
  1 26  1  0  0  0  0
  2  3  1  0  0  0  0
  3  4  1  0  0  0  0
  3 27  1  0  0  0  0
  3 28  1  0  0  0  0
  4  5  1  0  0  0  0
  4  6  1  0  0  0  0
  4 29  1  0  0  0  0
  5 30  1  0  0  0  0
  5 31  1  0  0  0  0
  5 32  1  0  0  0  0
  6  7  1  0  0  0  0
  6 33  1  0  0  0  0
  7  8  2  0  0  0  0
  7  9  1  0  0  0  0
  9 10  1  0  0  0  0
  9 34  1  0  0  0  0
  9 35  1  0  0  0  0
 10 22  1  0  0  0  0
 10 11  1  0  0  0  0
 11 12  1  0  0  0  0
 11 16  2  0  0  0  0
 12 13  1  0  0  0  0
 12 14  1  0  0  0  0
 12 15  1  0  0  0  0
 16 17  1  0  0  0  0
 16 36  1  0  0  0  0
 17 18  2  0  0  0  0
 17 37  1  0  0  0  0
 18 19  1  0  0  0  0
 18 22  1  0  0  0  0
 19 20  1  0  0  0  0
 19 21  2  0  0  0  0
 20 38  1  0  0  0  0
 20 39  1  0  0  0  0
 22 23  2  0  0  0  0
M  END
> <s_m_source_file>
AV-unprocessed.smi

> <i_m_source_file_index>
1598

> <i_lp_mmshare_version>
43012

> <i_f3d_flags>
0

> <s_epik_input>
W0NIM11PW0NIMl1bQ0BIXShbQ0gzXSlbTkhdQyg9TylbQ0gyXW4xYyhDKEYpKEYpRilbY0hdW2NIXWMoYzE9TylDKD1PKVtOSDJd

> <s_epik_cmdline>
J2VwaWtfcHl0aG9uJywgJy1waCcsICc3LjAnLCAnLXRuJywgJzgnLCAnLW1hJywgJzIwMCcsICctbWV0YWxfYmluZGluZycsICctaW1hZScsICc8aW5maWxlLm1hZT4nLCAnLW9tYWUnLCAnPG91dGZpbGUubWFlPic=

> <r_lp_tautomer_probability>
1

> <r_epik_Ionization_Penalty>
2.07884e-06

> <r_epik_Ionization_Penalty_Charging>
8.00383e-10

> <r_epik_Ionization_Penalty_Neutral>
2.07804e-06

> <r_epik_State_Penalty>
-0

> <r_epik_Charging_Adjusted_Penalty>
8.00383e-10

> <i_epik_Tot_Q>
0

> <i_epik_Tot_abs_Q>
0

> <r_epik_Metal_State_Penalty>
-0

> <b_epik_Metal_Only>
0

> <s_lp_Force_Field>
OPLS_2005

> <r_lp_Energy>
25.9184

> <b_lp_Chiralities_Consistent>
1

> <s_lp_Variant>
AV-unprocessed.smi:1598-1

> <Gold.Version>
5.8.1

> <Gold.Id.Protein>
6NUR|6NUR_protein|mol2

> <Gold.PLP.Fitness>
48.0087

> <Gold.PLP.PLP>
-46.5466

> <Gold.PLP.part.hbond>
-0.9027

> <Gold.PLP.part.metal>
0.0000

> <Gold.PLP.part.buried>
-7.5240

> <Gold.PLP.part.nonpolar>
-38.4788

> <Gold.PLP.part.repulsive>
0.2296

> <Gold.PLP.ligand.clash>
3.8413

> <Gold.PLP.ligand.torsion>
0.8964

> <Gold.PLP.Chemscore.Hbond>
1.0000

> <Gold.PLP.Chemscore.CHOScore>
0.0000

> <Gold.PLP.Chemscore.Metal>
0.0000

> <Gold.Chemscore.Hbonds>
donor molecule, donor type, donor heavy atom, donor atom, acceptor molecule, acceptor atom, score
      L1  H     6    33       P1  8028  1.00

> <Gold.PLP.Chemscore.Internal.Correction>
4.0962

> <Gold.Rescore>
     Score         DG    S(hbond)    S(metal)    S(lipo)     H(rot)  DE(clash)    DE(int)     intcor
      6.63     -11.04       0.99        0.00      72.46       2.43       0.00       4.41       ----

> <Gold.Chemscore.Fitness>
6.6271

> <Gold.Chemscore.DG>
-11.0434

> <Gold.Chemscore.ZeroCoef>
-5.4800

> <Gold.Chemscore.Hbond>
0.9892

> <Gold.Chemscore.Metal>
0.0000

> <Gold.Chemscore.Lipo>
72.4565

> <Gold.Chemscore.Internal_Hbond>
0.0000

> <Gold.Chemscore.DEClash>
0.0050

> <Gold.Chemscore.DEInternal>
4.4113

> <Gold.Chemscore.Rot>
2.4289

> <Gold.Chemscore.Internal.Correction>
   9.000000E+99

> <Gold.Chemscore.Hbonds>
donor molecule, donor type, donor heavy atom, donor atom, acceptor molecule, acceptor atom, score
      L1  H     6    33       P1  8028  0.99

> <Gold.Chemscore.Hbond.Weighted>
-3.3040

> <Gold.Chemscore.Metal.Weighted>
-0.0000

> <Gold.Chemscore.Lipo.Weighted>
-8.4774

> <Gold.Chemscore.Internal_Hbond.Weighted>
0.0000

> <Gold.Chemscore.DEClash.Weighted>
0.0050

> <Gold.Chemscore.DEInternal.Weighted>
4.4113

> <Gold.Chemscore.Rot.Weighted>
6.2180

> <Gold.Chemscore.Internal.Correction.Weighted>
   9.000000E+99

> <Gold.Protein.RotatedTorsions>
[ 6907 6896 6895 6894 ] final  -92.53 input  -60.11 | X-H torsion
[ 7974 7965 7964 7962 ] final   72.72 input  175.53 | X-H torsion
[ 8008 7997 7996 7995 ] final  -59.09 input   59.86 | X-H torsion
[ 10167 10162 10161 10158 ] final  -76.97 input  -65.29 | X-H torsion
[ 10718 10713 10712 10709 ] final -140.04 input   66.30 | X-H torsion
[ 10763 10752 10751 10750 ] final  -89.79 input  -60.55 | X-H torsion
[ 11005 11000 10999 10996 ] final   34.49 input  -57.11 | X-H torsion

> <Gold.Protein.ActiveResidues>
 VAL166  LYS551  ARG553  GLY616  TRP617  ASP618  TYR619  PRO620  LYS621  CYS622 
 ASP623  PHE694  ASN695  SER759  ASP760  ASP761  ALA762  ILE779  LEU786  VAL792 
 PHE793  MET794  SER795  GLU796  ALA797  LYS798  CYS799  TRP800  GLU811  SER814 

> <Gold.Protein.RotatedAtoms>
  150.6908  134.2107  159.4357 H   0  0  0  0  0  0  0  0  0  0  0  0  # atno 6907 bound_to 6896
  152.0069  134.9895  160.0576 H   0  0  0  0  0  0  0  0  0  0  0  0  # atno 6908 bound_to 6896
  152.1526  133.4496  159.4858 H   0  0  0  0  0  0  0  0  0  0  0  0  # atno 6909 bound_to 6896
  145.7499  139.2755  143.1437 H   0  0  0  0  0  0  0  0  0  0  0  0  # atno 7974 bound_to 7965
  154.4337  140.1069  156.6060 H   0  0  0  0  0  0  0  0  0  0  0  0  # atno 8008 bound_to 7997
  155.5860  140.3491  155.4534 H   0  0  0  0  0  0  0  0  0  0  0  0  # atno 8009 bound_to 7997
  156.0282  140.1254  157.0275 H   0  0  0  0  0  0  0  0  0  0  0  0  # atno 8010 bound_to 7997
  140.4811  143.2402  151.8057 H   0  0  0  0  0  0  0  0  0  0  0  0  # atno 10167 bound_to 10162
  156.3177  130.7517  151.1607 H   0  0  0  0  0  0  0  0  0  0  0  0  # atno 10718 bound_to 10713
  154.6590  135.5328  153.7994 H   0  0  0  0  0  0  0  0  0  0  0  0  # atno 10763 bound_to 10752
  153.0430  135.6501  154.0901 H   0  0  0  0  0  0  0  0  0  0  0  0  # atno 10764 bound_to 10752
  154.0812  135.2947  155.3270 H   0  0  0  0  0  0  0  0  0  0  0  0  # atno 10765 bound_to 10752
  140.2523  134.3289  155.7886 H   0  0  0  0  0  0  0  0  0  0  0  0  # atno 11005 bound_to 11000
  146.0367  140.8205  142.9849 LP  0  0  0  0  0  0  0  0  0  0  0  0  # atno 17320 bound_to 7965
  144.6852  140.2849  143.7287 LP  0  0  0  0  0  0  0  0  0  0  0  0  # atno 17321 bound_to 7965
  139.4833  144.4772  151.9352 LP  0  0  0  0  0  0  0  0  0  0  0  0  # atno 17342 bound_to 10162
  140.3857  144.2679  150.5904 LP  0  0  0  0  0  0  0  0  0  0  0  0  # atno 17343 bound_to 10162
  157.7405  131.0516  150.5161 LP  0  0  0  0  0  0  0  0  0  0  0  0  # atno 17370 bound_to 10713
  156.5309  130.4184  149.6202 LP  0  0  0  0  0  0  0  0  0  0  0  0  # atno 17371 bound_to 10713
  141.2200  133.7360  156.9056 LP  0  0  0  0  0  0  0  0  0  0  0  0  # atno 17394 bound_to 11000
  140.1546  134.9207  157.2637 LP  0  0  0  0  0  0  0  0  0  0  0  0  # atno 17395 bound_to 11000

$$$$
