AV-unprocessed.smi:1645|AV-procd|sdf|6608|dock3
  -GOLD-   22720 7313D 1   1.00000     0.00000
 Structure written by MMmdl.
 56 59  0  0  0  0  0  0  0  0  3 V2000
  146.3030  139.1841  153.9303 O   0  0  0  0  0  0  0  0  0  0  0  0
  147.1245  138.3715  153.5068 C   0  0  0  0  0  0  0  0  0  0  0  0
  148.4466  138.4094  153.7459 N   0  0  0  0  0  0  0  0  0  0  0  0
  149.1667  139.3193  154.5671 C   0  0  0  0  0  0  0  0  0  0  0  0
  150.5374  139.0706  154.7861 C   0  0  0  0  0  0  0  0  0  0  0  0
  151.2856  139.9364  155.6101 C   0  0  0  0  0  0  0  0  0  0  0  0
  150.6546  141.0465  156.2268 C   0  0  0  0  0  0  0  0  0  0  0  0
  151.3200  141.9665  157.0689 N   0  0  0  0  0  0  0  0  0  0  0  0
  150.8688  143.3598  156.9850 C   0  0  0  0  0  0  0  0  0  0  0  0
  151.8902  144.3244  157.6108 C   0  0  0  0  0  0  0  0  0  0  0  0
  152.2478  143.8999  159.0413 C   0  0  0  0  0  0  0  0  0  0  0  0
  152.7505  142.4504  159.0410 C   0  0  0  0  0  0  0  0  0  0  0  0
  151.7206  141.5045  158.3996 C   0  0  0  0  0  0  0  0  0  0  0  0
  149.3333  141.2360  155.9924 N   0  3  0  0  0  0  0  0  0  0  0  0
  148.5801  140.4355  155.2085 C   0  0  0  0  0  0  0  0  0  0  0  0
  146.7991  137.3388  152.7161 N   0  0  0  0  0  0  0  0  0  0  0  0
  145.4460  137.0307  152.2607 C   0  0  2  0  0  0  0  0  0  0  0  0
  144.3701  137.3258  153.3198 C   0  0  0  0  0  0  0  0  0  0  0  0
  143.3087  136.2219  153.1383 C   0  0  0  0  0  0  0  0  0  0  0  0
  143.7811  135.4050  152.0032 N   0  3  2  0  0  0  0  0  0  0  0  0
  143.3293  133.9978  151.9490 C   0  0  0  0  0  0  0  0  0  0  0  0
  143.8514  133.3467  150.6524 C   0  0  0  0  0  0  0  0  0  0  0  0
  145.3779  133.5105  150.5045 C   0  0  0  0  0  0  0  0  0  0  0  0
  145.7974  134.9849  150.6617 C   0  0  0  0  0  0  0  0  0  0  0  0
  145.2455  135.5387  151.9864 C   0  0  1  0  0  0  0  0  0  0  0  0
  149.0088  137.7282  153.2567 H   0  0  0  0  0  0  0  0  0  0  0  0
  151.0197  138.2213  154.3243 H   0  0  0  0  0  0  0  0  0  0  0  0
  152.3321  139.7203  155.7628 H   0  0  0  0  0  0  0  0  0  0  0  0
  150.6976  143.6668  155.9536 H   0  0  0  0  0  0  0  0  0  0  0  0
  149.9118  143.4459  157.5010 H   0  0  0  0  0  0  0  0  0  0  0  0
  152.7937  144.3468  156.9996 H   0  0  0  0  0  0  0  0  0  0  0  0
  151.4916  145.3394  157.6103 H   0  0  0  0  0  0  0  0  0  0  0  0
  153.0091  144.5636  159.4526 H   0  0  0  0  0  0  0  0  0  0  0  0
  151.3716  143.9888  159.6849 H   0  0  0  0  0  0  0  0  0  0  0  0
  153.6912  142.3923  158.4914 H   0  0  0  0  0  0  0  0  0  0  0  0
  152.9674  142.1292  160.0599 H   0  0  0  0  0  0  0  0  0  0  0  0
  150.8353  141.4295  159.0325 H   0  0  0  0  0  0  0  0  0  0  0  0
  152.1630  140.5099  158.3372 H   0  0  0  0  0  0  0  0  0  0  0  0
  147.5401  140.7176  155.1426 H   0  0  0  0  0  0  0  0  0  0  0  0
  147.5367  136.7208  152.4098 H   0  0  0  0  0  0  0  0  0  0  0  0
  145.2037  137.6011  151.3610 H   0  0  0  0  0  0  0  0  0  0  0  0
  144.7832  137.2733  154.3282 H   0  0  0  0  0  0  0  0  0  0  0  0
  143.9486  138.3232  153.1895 H   0  0  0  0  0  0  0  0  0  0  0  0
  143.2412  135.6133  154.0414 H   0  0  0  0  0  0  0  0  0  0  0  0
  142.3188  136.6291  152.9295 H   0  0  0  0  0  0  0  0  0  0  0  0
  143.6932  133.4559  152.8231 H   0  0  0  0  0  0  0  0  0  0  0  0
  142.2396  133.9619  151.9757 H   0  0  0  0  0  0  0  0  0  0  0  0
  143.5847  132.2897  150.6309 H   0  0  0  0  0  0  0  0  0  0  0  0
  143.3573  133.8054  149.7948 H   0  0  0  0  0  0  0  0  0  0  0  0
  145.8817  132.9078  151.2615 H   0  0  0  0  0  0  0  0  0  0  0  0
  145.7050  133.1276  149.5372 H   0  0  0  0  0  0  0  0  0  0  0  0
  146.8844  135.0648  150.6391 H   0  0  0  0  0  0  0  0  0  0  0  0
  145.4216  135.5715  149.8223 H   0  0  0  0  0  0  0  0  0  0  0  0
  145.6571  134.9630  152.8190 H   0  0  0  0  0  0  0  0  0  0  0  0
  143.4472  135.8596  151.1653 H   0  0  0  0  0  0  0  0  0  0  0  0
  148.8772  142.0332  156.4369 H   0  0  0  0  0  0  0  0  0  0  0  0
  1  2  2  0  0  0  0
  2  3  1  0  0  0  0
  2 16  1  0  0  0  0
  3  4  1  0  0  0  0
  3 26  1  0  0  0  0
  4 15  1  0  0  0  0
  4  5  2  0  0  0  0
  5  6  1  0  0  0  0
  5 27  1  0  0  0  0
  6  7  2  0  0  0  0
  6 28  1  0  0  0  0
  7  8  1  0  0  0  0
  7 14  1  0  0  0  0
  8 13  1  0  0  0  0
  8  9  1  0  0  0  0
  9 10  1  0  0  0  0
  9 29  1  0  0  0  0
  9 30  1  0  0  0  0
 10 11  1  0  0  0  0
 10 31  1  0  0  0  0
 10 32  1  0  0  0  0
 11 12  1  0  0  0  0
 11 33  1  0  0  0  0
 11 34  1  0  0  0  0
 12 13  1  0  0  0  0
 12 35  1  0  0  0  0
 12 36  1  0  0  0  0
 13 37  1  0  0  0  0
 13 38  1  0  0  0  0
 14 15  2  0  0  0  0
 14 56  1  0  0  0  0
 15 39  1  0  0  0  0
 16 17  1  0  0  0  0
 16 40  1  0  0  0  0
 17 25  1  0  0  0  0
 17 18  1  0  0  0  0
 17 41  1  0  0  0  0
 18 19  1  0  0  0  0
 18 42  1  0  0  0  0
 18 43  1  0  0  0  0
 19 20  1  0  0  0  0
 19 44  1  0  0  0  0
 19 45  1  0  0  0  0
 20 25  1  0  0  0  0
 20 21  1  0  0  0  0
 20 55  1  0  0  0  0
 21 22  1  0  0  0  0
 21 46  1  0  0  0  0
 21 47  1  0  0  0  0
 22 23  1  0  0  0  0
 22 48  1  0  0  0  0
 22 49  1  0  0  0  0
 23 24  1  0  0  0  0
 23 50  1  0  0  0  0
 23 51  1  0  0  0  0
 24 25  1  0  0  0  0
 24 52  1  0  0  0  0
 24 53  1  0  0  0  0
 25 54  1  0  0  0  0
M  CHG  1  14   1
M  CHG  1  20   1
M  END
> <s_m_source_file>
AV-unprocessed.smi

> <i_m_source_file_index>
1645

> <i_lp_mmshare_version>
43012

> <i_f3d_flags>
0

> <s_epik_input>
W0NIMl0xW0NIMl1bQ0gyXVtDSDJdW0NASF0oTjEyKVtDQEBIXShbQ0gyXVtDSDJdMilbTkhdQyg9TylbTkhdYzNbY0hdW2NIXWMobltjSF0zKU40W0NIMl1bQ0gyXVtDSDJdW0NIMl1bQ0gyXTQ=

> <s_epik_cmdline>
J2VwaWtfcHl0aG9uJywgJy1waCcsICc3LjAnLCAnLXRuJywgJzgnLCAnLW1hJywgJzIwMCcsICctbWV0YWxfYmluZGluZycsICctaW1hZScsICc8aW5maWxlLm1hZT4nLCAnLW9tYWUnLCAnPG91dGZpbGUubWFlPic=

> <r_lp_tautomer_probability>
0.999994

> <r_epik_Ionization_Penalty>
1.26838

> <r_epik_Ionization_Penalty_Charging>
1.26836

> <r_epik_Ionization_Penalty_Neutral>
1.95562e-05

> <r_epik_State_Penalty>
1.33841

> <r_epik_Charging_Adjusted_Penalty>
2.60677

> <i_epik_Tot_Q>
2

> <i_epik_Tot_abs_Q>
2

> <r_epik_Metal_State_Penalty>
1.40601

> <b_epik_Metal_Only>
0

> <s_lp_Force_Field>
OPLS_2005

> <r_lp_Energy>
57.8286

> <b_lp_Chiralities_Consistent>
1

> <s_lp_Variant>
AV-unprocessed.smi:1645-9

> <Gold.Version>
5.8.1

> <Gold.Id.Protein>
6NUR|6NUR_protein|mol2

> <Gold.PLP.Fitness>
48.1779

> <Gold.PLP.PLP>
-43.5928

> <Gold.PLP.part.hbond>
-2.1675

> <Gold.PLP.part.metal>
0.0000

> <Gold.PLP.part.buried>
-1.4282

> <Gold.PLP.part.nonpolar>
-41.0035

> <Gold.PLP.part.repulsive>
0.3287

> <Gold.PLP.ligand.clash>
0.0027

> <Gold.PLP.ligand.torsion>
0.8309

> <Gold.PLP.Chemscore.Hbond>
1.9120

> <Gold.PLP.Chemscore.CHOScore>
0.0000

> <Gold.PLP.Chemscore.Metal>
0.0000

> <Gold.Chemscore.Hbonds>
donor molecule, donor type, donor heavy atom, donor atom, acceptor molecule, acceptor atom, score
      L1  H     3    26       P1  7948  0.90
      L1  H    16    40       P1  7948  1.00

> <Gold.PLP.Chemscore.Internal.Correction>
0.5135

> <Gold.Rescore>
     Score         DG    S(hbond)    S(metal)    S(lipo)     H(rot)  DE(clash)    DE(int)     intcor
     18.87     -22.61       1.90        0.00     118.09       1.18       0.11       3.64       ----

> <Gold.Chemscore.Fitness>
18.8695

> <Gold.Chemscore.DG>
-22.6137

> <Gold.Chemscore.ZeroCoef>
-5.4800

> <Gold.Chemscore.Hbond>
1.9002

> <Gold.Chemscore.Metal>
0.0000

> <Gold.Chemscore.Lipo>
118.0898

> <Gold.Chemscore.Internal_Hbond>
0.0000

> <Gold.Chemscore.DEClash>
0.1069

> <Gold.Chemscore.DEInternal>
3.6373

> <Gold.Chemscore.Rot>
1.1833

> <Gold.Chemscore.Internal.Correction>
   9.000000E+99

> <Gold.Chemscore.Hbonds>
donor molecule, donor type, donor heavy atom, donor atom, acceptor molecule, acceptor atom, score
      L1  H     3    26       P1  7948  0.82
      L1  H    16    40       P1  7948  0.97

> <Gold.Chemscore.Hbond.Weighted>
-6.3465

> <Gold.Chemscore.Metal.Weighted>
-0.0000

> <Gold.Chemscore.Lipo.Weighted>
-13.8165

> <Gold.Chemscore.Internal_Hbond.Weighted>
0.0000

> <Gold.Chemscore.DEClash.Weighted>
0.1069

> <Gold.Chemscore.DEInternal.Weighted>
3.6373

> <Gold.Chemscore.Rot.Weighted>
3.0293

> <Gold.Chemscore.Internal.Correction.Weighted>
   9.000000E+99

> <Gold.Protein.RotatedTorsions>
[ 6907 6896 6895 6894 ] final  -29.00 input  -60.11 | X-H torsion
[ 7974 7965 7964 7962 ] final  -17.52 input  175.53 | X-H torsion
[ 8008 7997 7996 7995 ] final -164.87 input   59.86 | X-H torsion
[ 10167 10162 10161 10158 ] final -124.86 input  -65.29 | X-H torsion
[ 10718 10713 10712 10709 ] final  162.41 input   66.30 | X-H torsion
[ 10763 10752 10751 10750 ] final -158.02 input  -60.55 | X-H torsion
[ 11005 11000 10999 10996 ] final -163.94 input  -57.11 | X-H torsion

> <Gold.Protein.ActiveResidues>
 VAL166  LYS551  ARG553  GLY616  TRP617  ASP618  TYR619  PRO620  LYS621  CYS622 
 ASP623  PHE694  ASN695  SER759  ASP760  ASP761  ALA762  ILE779  LEU786  VAL792 
 PHE793  MET794  SER795  GLU796  ALA797  LYS798  CYS799  TRP800  GLU811  SER814 

> <Gold.Protein.RotatedAtoms>
  151.1252  135.0101  159.8556 H   0  0  0  0  0  0  0  0  0  0  0  0  # atno 6907 bound_to 6896
  152.5449  134.1675  159.8593 H   0  0  0  0  0  0  0  0  0  0  0  0  # atno 6908 bound_to 6896
  151.1737  133.4723  159.2627 H   0  0  0  0  0  0  0  0  0  0  0  0  # atno 6909 bound_to 6896
  146.1937  140.3791  142.8448 H   0  0  0  0  0  0  0  0  0  0  0  0  # atno 7974 bound_to 7965
  155.8418  140.0949  157.1730 H   0  0  0  0  0  0  0  0  0  0  0  0  # atno 8008 bound_to 7997
  154.3982  140.1399  156.3799 H   0  0  0  0  0  0  0  0  0  0  0  0  # atno 8009 bound_to 7997
  155.8056  140.3451  155.5430 H   0  0  0  0  0  0  0  0  0  0  0  0  # atno 8010 bound_to 7997
  139.9883  143.5668  152.2352 H   0  0  0  0  0  0  0  0  0  0  0  0  # atno 10167 bound_to 10162
  157.1230  131.0497  151.2406 H   0  0  0  0  0  0  0  0  0  0  0  0  # atno 10718 bound_to 10713
  154.7590  135.3112  154.8415 H   0  0  0  0  0  0  0  0  0  0  0  0  # atno 10763 bound_to 10752
  153.9181  135.6798  153.4753 H   0  0  0  0  0  0  0  0  0  0  0  0  # atno 10764 bound_to 10752
  153.1189  135.4832  154.9093 H   0  0  0  0  0  0  0  0  0  0  0  0  # atno 10765 bound_to 10752
  140.5925  134.5030  157.5195 H   0  0  0  0  0  0  0  0  0  0  0  0  # atno 11005 bound_to 11000
  144.8536  140.7038  143.6152 LP  0  0  0  0  0  0  0  0  0  0  0  0  # atno 17320 bound_to 7965
  145.3713  139.1658  143.4330 LP  0  0  0  0  0  0  0  0  0  0  0  0  # atno 17321 bound_to 7965
  139.6358  144.7650  151.2440 LP  0  0  0  0  0  0  0  0  0  0  0  0  # atno 17342 bound_to 10162
  140.7464  143.6400  150.8344 LP  0  0  0  0  0  0  0  0  0  0  0  0  # atno 17343 bound_to 10162
  157.4460  130.7571  149.7110 LP  0  0  0  0  0  0  0  0  0  0  0  0  # atno 17370 bound_to 10713
  155.9824  130.4010  150.3417 LP  0  0  0  0  0  0  0  0  0  0  0  0  # atno 17371 bound_to 10713
  139.9268  134.8041  156.1046 LP  0  0  0  0  0  0  0  0  0  0  0  0  # atno 17394 bound_to 11000
  141.0926  133.6708  156.2573 LP  0  0  0  0  0  0  0  0  0  0  0  0  # atno 17395 bound_to 11000

$$$$
