AV-unprocessed.smi:2798|AV-procd|sdf|10788|dock1
  -GOLD-   2272015223D 1   1.00000     0.00000
 Structure written by MMmdl.
 29 31  0  0  0  0  0  0  0  0  1 V2000
  151.6288  137.2036  154.2356 N   0  0  0  0  0  0  0  0  0  0  0  0
  151.5128  138.2165  154.7832 C   0  0  0  0  0  0  0  0  0  0  0  0
  151.3677  139.4884  155.4706 C   0  0  0  0  0  0  0  0  0  0  0  0
  152.0706  139.7141  156.6726 C   0  0  0  0  0  0  0  0  0  0  0  0
  151.9177  140.9535  157.3230 C   0  0  0  0  0  0  0  0  0  0  0  0
  151.0673  141.9286  156.7518 C   0  0  0  0  0  0  0  0  0  0  0  0
  150.8485  143.1934  157.3184 N   0  0  0  0  0  0  0  0  0  0  0  0
  151.6624  143.6853  158.4236 C   0  0  1  0  0  0  0  0  0  0  0  0
  151.2478  145.0826  158.9040 C   0  0  0  0  0  0  0  0  0  0  0  0
  150.9743  144.8393  160.3933 C   0  0  2  0  0  0  0  0  0  0  0  0
  152.2567  144.5364  161.1799 C   0  0  0  0  0  0  0  0  0  0  0  0
  152.5796  143.1166  160.7154 C   0  0  0  0  0  0  0  0  0  0  0  0
  151.4582  142.8526  159.7014 C   0  0  1  0  0  0  0  0  0  0  0  0
  150.3936  143.5491  160.3292 O   0  0  0  0  0  0  0  0  0  0  0  0
  150.4097  141.5978  155.5483 C   0  0  0  0  0  0  0  0  0  0  0  0
  150.5520  140.4122  154.9181 N   0  0  0  0  0  0  0  0  0  0  0  0
  152.7158  138.9558  157.0927 H   0  0  0  0  0  0  0  0  0  0  0  0
  152.4520  141.1342  158.2437 H   0  0  0  0  0  0  0  0  0  0  0  0
  150.2594  143.8548  156.8322 H   0  0  0  0  0  0  0  0  0  0  0  0
  152.7133  143.6537  158.1339 H   0  0  0  0  0  0  0  0  0  0  0  0
  152.0240  145.8308  158.7402 H   0  0  0  0  0  0  0  0  0  0  0  0
  150.3382  145.4263  158.4088 H   0  0  0  0  0  0  0  0  0  0  0  0
  150.3390  145.5956  160.8548 H   0  0  0  0  0  0  0  0  0  0  0  0
  153.0541  145.2471  160.9601 H   0  0  0  0  0  0  0  0  0  0  0  0
  152.0689  144.5534  162.2541 H   0  0  0  0  0  0  0  0  0  0  0  0
  153.5727  143.0291  160.2737 H   0  0  0  0  0  0  0  0  0  0  0  0
  152.5156  142.4185  161.5508 H   0  0  0  0  0  0  0  0  0  0  0  0
  151.2691  141.7924  159.5281 H   0  0  0  0  0  0  0  0  0  0  0  0
  149.7488  142.3071  155.0718 H   0  0  0  0  0  0  0  0  0  0  0  0
  1  2  3  0  0  0  0
  2  3  1  0  0  0  0
  3 16  1  0  0  0  0
  3  4  2  0  0  0  0
  4  5  1  0  0  0  0
  4 17  1  0  0  0  0
  5  6  2  0  0  0  0
  5 18  1  0  0  0  0
  6  7  1  0  0  0  0
  6 15  1  0  0  0  0
  7  8  1  0  0  0  0
  7 19  1  0  0  0  0
  8 13  1  0  0  0  0
  8  9  1  0  0  0  0
  8 20  1  0  0  0  0
  9 10  1  0  0  0  0
  9 21  1  0  0  0  0
  9 22  1  0  0  0  0
 10 14  1  0  0  0  0
 10 11  1  0  0  0  0
 10 23  1  0  0  0  0
 11 12  1  0  0  0  0
 11 24  1  0  0  0  0
 11 25  1  0  0  0  0
 12 13  1  0  0  0  0
 12 26  1  0  0  0  0
 12 27  1  0  0  0  0
 13 14  1  0  0  0  0
 13 28  1  0  0  0  0
 15 16  2  0  0  0  0
 15 29  1  0  0  0  0
M  END
> <s_m_source_file>
AV-unprocessed.smi

> <i_m_source_file_index>
2798

> <i_lp_mmshare_version>
43012

> <i_f3d_flags>
0

> <s_epik_input>
TiNDYzFbY0hdW2NIXWMoW2NIXW4xKVtOSF1bQ0BIXShbQ0gyXVtDQEBIXTIzKVtDQEBIXShPMylbQ0gyXVtDSDJdMg==

> <s_epik_cmdline>
J2VwaWtfcHl0aG9uJywgJy1waCcsICc3LjAnLCAnLXRuJywgJzgnLCAnLW1hJywgJzIwMCcsICctbWV0YWxfYmluZGluZycsICctaW1hZScsICc8aW5maWxlLm1hZT4nLCAnLW9tYWUnLCAnPG91dGZpbGUubWFlPic=

> <r_lp_tautomer_probability>
1

> <r_epik_Ionization_Penalty>
2.201e-07

> <r_epik_Ionization_Penalty_Charging>
0

> <r_epik_Ionization_Penalty_Neutral>
2.201e-07

> <r_epik_State_Penalty>
-0

> <r_epik_Charging_Adjusted_Penalty>
0

> <i_epik_Tot_Q>
0

> <i_epik_Tot_abs_Q>
0

> <r_epik_Metal_State_Penalty>
-0

> <b_epik_Metal_Only>
0

> <s_lp_Force_Field>
OPLS_2005

> <r_lp_Energy>
43.4695

> <b_lp_Chiralities_Consistent>
1

> <s_lp_Variant>
AV-unprocessed.smi:2798-4

> <Gold.Version>
5.8.1

> <Gold.Id.Protein>
6NUR|6NUR_protein|mol2

> <Gold.PLP.Fitness>
47.1705

> <Gold.PLP.PLP>
-36.3306

> <Gold.PLP.part.hbond>
-4.0000

> <Gold.PLP.part.metal>
0.0000

> <Gold.PLP.part.buried>
-6.2015

> <Gold.PLP.part.nonpolar>
-27.7529

> <Gold.PLP.part.repulsive>
0.8380

> <Gold.PLP.ligand.clash>
0.0000

> <Gold.PLP.ligand.torsion>
0.0419

> <Gold.PLP.Chemscore.Hbond>
2.8763

> <Gold.PLP.Chemscore.CHOScore>
0.7584

> <Gold.PLP.Chemscore.Metal>
0.0000

> <Gold.Chemscore.Hbonds>
donor molecule, donor type, donor heavy atom, donor atom, acceptor molecule, acceptor atom, score
      L1  H     7    19       P1  8028  1.00
      P1  H  7989  7998       L1    16  0.90
      P1  H 10752 10764       L1     1  0.93
      L1  C    15    29       P1  8028  0.77

> <Gold.PLP.Chemscore.Internal.Correction>
0.0198

> <Gold.Rescore>
     Score         DG    S(hbond)    S(metal)    S(lipo)     H(rot)  DE(clash)    DE(int)     intcor
     20.95     -21.20       1.89        0.00     102.37       1.00       0.22       0.03       ----

> <Gold.Chemscore.Fitness>
20.9512

> <Gold.Chemscore.DG>
-21.2019

> <Gold.Chemscore.ZeroCoef>
-5.4800

> <Gold.Chemscore.Hbond>
1.8876

> <Gold.Chemscore.Metal>
0.0000

> <Gold.Chemscore.Lipo>
102.3714

> <Gold.Chemscore.Internal_Hbond>
0.0000

> <Gold.Chemscore.DEClash>
0.2182

> <Gold.Chemscore.DEInternal>
0.0325

> <Gold.Chemscore.Rot>
1.0000

> <Gold.Chemscore.Internal.Correction>
   9.000000E+99

> <Gold.Chemscore.Hbonds>
donor molecule, donor type, donor heavy atom, donor atom, acceptor molecule, acceptor atom, score
      L1  H     7    19       P1  8028  0.97
      P1  H  7989  7998       L1    16  0.05
      P1  H 10752 10764       L1     1  0.84

> <Gold.Chemscore.Hbond.Weighted>
-6.3045

> <Gold.Chemscore.Metal.Weighted>
-0.0000

> <Gold.Chemscore.Lipo.Weighted>
-11.9775

> <Gold.Chemscore.Internal_Hbond.Weighted>
0.0000

> <Gold.Chemscore.DEClash.Weighted>
0.2182

> <Gold.Chemscore.DEInternal.Weighted>
0.0325

> <Gold.Chemscore.Rot.Weighted>
2.5600

> <Gold.Chemscore.Internal.Correction.Weighted>
   9.000000E+99

> <Gold.Protein.RotatedTorsions>
[ 6907 6896 6895 6894 ] final  127.71 input  -60.11 | X-H torsion
[ 7974 7965 7964 7962 ] final -169.98 input  175.53 | X-H torsion
[ 8008 7997 7996 7995 ] final   36.74 input   59.86 | X-H torsion
[ 10167 10162 10161 10158 ] final  -82.60 input  -65.29 | X-H torsion
[ 10718 10713 10712 10709 ] final -168.17 input   66.30 | X-H torsion
[ 10763 10752 10751 10750 ] final  -95.03 input  -60.55 | X-H torsion
[ 11005 11000 10999 10996 ] final  -22.72 input  -57.11 | X-H torsion

> <Gold.Protein.ActiveResidues>
 VAL166  LYS551  ARG553  GLY616  TRP617  ASP618  TYR619  PRO620  LYS621  CYS622 
 ASP623  PHE694  ASN695  SER759  ASP760  ASP761  ALA762  ILE779  LEU786  VAL792 
 PHE793  MET794  SER795  GLU796  ALA797  LYS798  CYS799  TRP800  GLU811  SER814 

> <Gold.Protein.RotatedAtoms>
  152.3787  133.6516  159.6143 H   0  0  0  0  0  0  0  0  0  0  0  0  # atno 6907 bound_to 6896
  150.7724  133.9150  159.3389 H   0  0  0  0  0  0  0  0  0  0  0  0  # atno 6908 bound_to 6896
  151.6960  135.0939  160.0293 H   0  0  0  0  0  0  0  0  0  0  0  0  # atno 6909 bound_to 6896
  144.7177  140.2140  143.6324 H   0  0  0  0  0  0  0  0  0  0  0  0  # atno 7974 bound_to 7965
  155.1923  140.3309  155.4356 H   0  0  0  0  0  0  0  0  0  0  0  0  # atno 8008 bound_to 7997
  156.2438  140.1908  156.6965 H   0  0  0  0  0  0  0  0  0  0  0  0  # atno 8009 bound_to 7997
  154.6198  140.0597  156.9586 H   0  0  0  0  0  0  0  0  0  0  0  0  # atno 8010 bound_to 7997
  140.4304  143.2550  151.8767 H   0  0  0  0  0  0  0  0  0  0  0  0  # atno 10167 bound_to 10162
  156.6930  130.9167  151.3071 H   0  0  0  0  0  0  0  0  0  0  0  0  # atno 10718 bound_to 10713
  154.7110  135.5136  153.8666 H   0  0  0  0  0  0  0  0  0  0  0  0  # atno 10763 bound_to 10752
  153.0780  135.6622  154.0113 H   0  0  0  0  0  0  0  0  0  0  0  0  # atno 10764 bound_to 10752
  153.9954  135.3016  155.3387 H   0  0  0  0  0  0  0  0  0  0  0  0  # atno 10765 bound_to 10752
  140.8684  133.7738  156.0157 H   0  0  0  0  0  0  0  0  0  0  0  0  # atno 11005 bound_to 11000
  145.8564  139.2201  143.1742 LP  0  0  0  0  0  0  0  0  0  0  0  0  # atno 17320 bound_to 7965
  146.0214  140.8345  142.9921 LP  0  0  0  0  0  0  0  0  0  0  0  0  # atno 17321 bound_to 7965
  139.4785  144.5340  151.8625 LP  0  0  0  0  0  0  0  0  0  0  0  0  # atno 17342 bound_to 10162
  140.4433  144.1956  150.5892 LP  0  0  0  0  0  0  0  0  0  0  0  0  # atno 17343 bound_to 10162
  157.7002  130.9324  150.0762 LP  0  0  0  0  0  0  0  0  0  0  0  0  # atno 17370 bound_to 10713
  156.1784  130.3649  149.9069 LP  0  0  0  0  0  0  0  0  0  0  0  0  # atno 17371 bound_to 10713
  140.8602  134.2850  157.5238 LP  0  0  0  0  0  0  0  0  0  0  0  0  # atno 17394 bound_to 11000
  139.8710  134.9514  156.4084 LP  0  0  0  0  0  0  0  0  0  0  0  0  # atno 17395 bound_to 11000

$$$$
