AV-unprocessed.smi:447|AV-procd|sdf|2602|dock7
  -GOLD-   2262022593D 1   1.00000     0.00000
 Structure written by MMmdl.
 46 48  0  0  0  0  0  0  0  0  2 V2000
  139.9007  138.1409  153.2093 C   0  0  0  0  0  0  0  0  0  0  0  0
  141.0566  137.3133  153.7592 C   0  0  0  0  0  0  0  0  0  0  0  0
  140.8375  136.2332  154.3036 O   0  0  0  0  0  0  0  0  0  0  0  0
  142.2844  137.8348  153.6143 N   0  0  0  0  0  0  0  0  0  0  0  0
  143.5361  137.1887  154.0070 C   0  0  1  0  0  0  0  0  0  0  0  0
  143.4110  136.6911  155.4539 C   0  0  0  0  0  0  0  0  0  0  0  0
  143.9399  136.0600  153.0990 C   0  0  0  0  0  0  0  0  0  0  0  0
  143.1584  135.0047  152.7269 N   0  3  0  0  0  0  0  0  0  0  0  0
  143.8795  134.1459  151.8987 C   0  0  0  0  0  0  0  0  0  0  0  0
  143.5107  132.9583  151.2746 C   0  0  0  0  0  0  0  0  0  0  0  0
  144.4990  132.3181  150.4984 C   0  0  0  0  0  0  0  0  0  0  0  0
  145.7949  132.8586  150.3689 C   0  0  0  0  0  0  0  0  0  0  0  0
  146.1565  134.0630  151.0077 C   0  0  0  0  0  0  0  0  0  0  0  0
  145.1712  134.6933  151.7675 C   0  0  0  0  0  0  0  0  0  0  0  0
  145.1626  135.8746  152.5179 N   0  0  0  0  0  0  0  0  0  0  0  0
  146.3927  136.6802  152.5908 C   0  0  0  0  0  0  0  0  0  0  0  0
  146.1779  138.1621  152.2187 C   0  0  2  0  0  0  0  0  0  0  0  0
  146.4447  138.3051  150.8396 O   0  0  0  0  0  0  0  0  0  0  0  0
  147.0158  139.1130  153.0604 C   0  0  0  0  0  0  0  0  0  0  0  0
  146.8000  140.5055  152.9770 C   0  0  0  0  0  0  0  0  0  0  0  0
  147.5843  141.3921  153.7401 C   0  0  0  0  0  0  0  0  0  0  0  0
  148.5813  140.8911  154.5990 C   0  0  0  0  0  0  0  0  0  0  0  0
  148.7949  139.5027  154.6930 C   0  0  0  0  0  0  0  0  0  0  0  0
  148.0173  138.6163  153.9232 C   0  0  0  0  0  0  0  0  0  0  0  0
  139.9342  139.1571  153.6033 H   0  0  0  0  0  0  0  0  0  0  0  0
  138.9423  137.6997  153.4853 H   0  0  0  0  0  0  0  0  0  0  0  0
  139.9536  138.1884  152.1214 H   0  0  0  0  0  0  0  0  0  0  0  0
  142.3627  138.7319  153.1576 H   0  0  0  0  0  0  0  0  0  0  0  0
  144.3185  137.9474  153.9748 H   0  0  0  0  0  0  0  0  0  0  0  0
  144.3471  136.2595  155.8082 H   0  0  0  0  0  0  0  0  0  0  0  0
  142.6393  135.9259  155.5452 H   0  0  0  0  0  0  0  0  0  0  0  0
  143.1524  137.5074  156.1292 H   0  0  0  0  0  0  0  0  0  0  0  0
  142.5196  132.5406  151.3758 H   0  0  0  0  0  0  0  0  0  0  0  0
  144.2594  131.3928  149.9946 H   0  0  0  0  0  0  0  0  0  0  0  0
  146.5269  132.3388  149.7677 H   0  0  0  0  0  0  0  0  0  0  0  0
  147.1525  134.4674  150.9039 H   0  0  0  0  0  0  0  0  0  0  0  0
  146.8003  136.5947  153.5980 H   0  0  0  0  0  0  0  0  0  0  0  0
  147.1267  136.2200  151.9275 H   0  0  0  0  0  0  0  0  0  0  0  0
  145.1276  138.4210  152.3506 H   0  0  0  0  0  0  0  0  0  0  0  0
  145.6218  138.3930  150.3829 H   0  0  0  0  0  0  0  0  0  0  0  0
  146.0347  140.9000  152.3249 H   0  0  0  0  0  0  0  0  0  0  0  0
  147.4167  142.4566  153.6716 H   0  0  0  0  0  0  0  0  0  0  0  0
  149.1778  141.5712  155.1886 H   0  0  0  0  0  0  0  0  0  0  0  0
  149.5572  139.1172  155.3537 H   0  0  0  0  0  0  0  0  0  0  0  0
  148.1903  137.5528  153.9990 H   0  0  0  0  0  0  0  0  0  0  0  0
  142.1964  134.8888  153.0184 H   0  0  0  0  0  0  0  0  0  0  0  0
  1  2  1  0  0  0  0
  1 25  1  0  0  0  0
  1 26  1  0  0  0  0
  1 27  1  0  0  0  0
  2  3  2  0  0  0  0
  2  4  1  0  0  0  0
  4  5  1  0  0  0  0
  4 28  1  0  0  0  0
  5  6  1  0  0  0  0
  5  7  1  0  0  0  0
  5 29  1  0  0  0  0
  6 30  1  0  0  0  0
  6 31  1  0  0  0  0
  6 32  1  0  0  0  0
  7 15  1  0  0  0  0
  7  8  2  0  0  0  0
  8  9  1  0  0  0  0
  8 46  1  0  0  0  0
  9 14  2  0  0  0  0
  9 10  1  0  0  0  0
 10 11  2  0  0  0  0
 10 33  1  0  0  0  0
 11 12  1  0  0  0  0
 11 34  1  0  0  0  0
 12 13  2  0  0  0  0
 12 35  1  0  0  0  0
 13 14  1  0  0  0  0
 13 36  1  0  0  0  0
 14 15  1  0  0  0  0
 15 16  1  0  0  0  0
 16 17  1  0  0  0  0
 16 37  1  0  0  0  0
 16 38  1  0  0  0  0
 17 18  1  0  0  0  0
 17 19  1  0  0  0  0
 17 39  1  0  0  0  0
 18 40  1  0  0  0  0
 19 24  1  0  0  0  0
 19 20  2  0  0  0  0
 20 21  1  0  0  0  0
 20 41  1  0  0  0  0
 21 22  2  0  0  0  0
 21 42  1  0  0  0  0
 22 23  1  0  0  0  0
 22 43  1  0  0  0  0
 23 24  2  0  0  0  0
 23 44  1  0  0  0  0
 24 45  1  0  0  0  0
M  CHG  1   8   1
M  END
> <s_m_source_file>
AV-unprocessed.smi

> <i_m_source_file_index>
447

> <i_lp_mmshare_version>
43012

> <i_f3d_flags>
0

> <s_epik_input>
W0NIM11DKD1PKVtOSF1bQ0BIXShbQ0gzXSljKG4xKW4oYyhjMTIpW2NIXVtjSF1bY0hdW2NIXTIpW0NIMl1bQ0BIXShbT0hdKWMzW2NIXVtjSF1bY0hdW2NIXVtjSF0z

> <s_epik_cmdline>
J2VwaWtfcHl0aG9uJywgJy1waCcsICc3LjAnLCAnLXRuJywgJzgnLCAnLW1hJywgJzIwMCcsICctbWV0YWxfYmluZGluZycsICctaW1hZScsICc8aW5maWxlLm1hZT4nLCAnLW9tYWUnLCAnPG91dGZpbGUubWFlPic=

> <r_epik_Ionization_Penalty>
0.950381

> <r_epik_Ionization_Penalty_Charging>
0.950379

> <r_epik_Ionization_Penalty_Neutral>
1.42115e-06

> <r_epik_State_Penalty>
0.994584

> <r_epik_Charging_Adjusted_Penalty>
1.94496

> <i_epik_Tot_Q>
1

> <i_epik_Tot_abs_Q>
1

> <r_epik_Metal_State_Penalty>
1.10485

> <b_epik_Metal_Only>
0

> <s_lp_Force_Field>
OPLS_2005

> <r_lp_Energy>
11.3805

> <b_lp_Chiralities_Consistent>
1

> <s_lp_Variant>
AV-unprocessed.smi:447-6

> <Gold.Version>
5.8.1

> <Gold.Id.Protein>
6NUR|6NUR_protein|mol2

> <Gold.PLP.Fitness>
49.2347

> <Gold.PLP.PLP>
-42.2524

> <Gold.PLP.part.hbond>
-3.0049

> <Gold.PLP.part.metal>
0.0000

> <Gold.PLP.part.buried>
-2.0880

> <Gold.PLP.part.nonpolar>
-37.2864

> <Gold.PLP.part.repulsive>
0.0632

> <Gold.PLP.ligand.clash>
0.0000

> <Gold.PLP.ligand.torsion>
0.9784

> <Gold.PLP.Chemscore.Hbond>
2.9680

> <Gold.PLP.Chemscore.CHOScore>
0.0000

> <Gold.PLP.Chemscore.Metal>
0.0000

> <Gold.Chemscore.Hbonds>
donor molecule, donor type, donor heavy atom, donor atom, acceptor molecule, acceptor atom, score
      L1  H     4    28       P1 10175  0.54
      L1  H    18    40       P1 10171  1.00
      P1  H  7954  7966       L1    18  1.00

> <Gold.PLP.Chemscore.Internal.Correction>
0.0350

> <Gold.Rescore>
     Score         DG    S(hbond)    S(metal)    S(lipo)     H(rot)  DE(clash)    DE(int)     intcor
     17.92     -21.31       2.86        0.00     106.46       2.41       1.75       1.65       ----

> <Gold.Chemscore.Fitness>
17.9164

> <Gold.Chemscore.DG>
-21.3148

> <Gold.Chemscore.ZeroCoef>
-5.4800

> <Gold.Chemscore.Hbond>
2.8599

> <Gold.Chemscore.Metal>
0.0000

> <Gold.Chemscore.Lipo>
106.4575

> <Gold.Chemscore.Internal_Hbond>
0.0000

> <Gold.Chemscore.DEClash>
1.7518

> <Gold.Chemscore.DEInternal>
1.6466

> <Gold.Chemscore.Rot>
2.4112

> <Gold.Chemscore.Internal.Correction>
   9.000000E+99

> <Gold.Chemscore.Hbonds>
donor molecule, donor type, donor heavy atom, donor atom, acceptor molecule, acceptor atom, score
      L1  H     4    28       P1 10175  0.50
      L1  H    18    40       P1 10171  1.00
      P1  H  7954  7966       L1    18  0.89

> <Gold.Chemscore.Hbond.Weighted>
-9.5519

> <Gold.Chemscore.Metal.Weighted>
-0.0000

> <Gold.Chemscore.Lipo.Weighted>
-12.4555

> <Gold.Chemscore.Internal_Hbond.Weighted>
0.0000

> <Gold.Chemscore.DEClash.Weighted>
1.7518

> <Gold.Chemscore.DEInternal.Weighted>
1.6466

> <Gold.Chemscore.Rot.Weighted>
6.1727

> <Gold.Chemscore.Internal.Correction.Weighted>
   9.000000E+99

> <Gold.Protein.RotatedTorsions>
[ 6907 6896 6895 6894 ] final   69.38 input  -60.11 | X-H torsion
[ 7974 7965 7964 7962 ] final   25.83 input  175.53 | X-H torsion
[ 8008 7997 7996 7995 ] final   40.69 input   59.86 | X-H torsion
[ 10167 10162 10161 10158 ] final  106.28 input  -65.29 | X-H torsion
[ 10718 10713 10712 10709 ] final -142.51 input   66.30 | X-H torsion
[ 10763 10752 10751 10750 ] final -123.06 input  -60.55 | X-H torsion
[ 11005 11000 10999 10996 ] final  165.77 input  -57.11 | X-H torsion

> <Gold.Protein.ActiveResidues>
 VAL166  LYS551  ARG553  GLY616  TRP617  ASP618  TYR619  PRO620  LYS621  CYS622 
 ASP623  PHE694  ASN695  SER759  ASP760  ASP761  ALA762  ILE779  LEU786  VAL792 
 PHE793  MET794  SER795  GLU796  ALA797  LYS798  CYS799  TRP800  GLU811  SER814 

> <Gold.Protein.RotatedAtoms>
  152.4682  134.5024  159.9728 H   0  0  0  0  0  0  0  0  0  0  0  0  # atno 6907 bound_to 6896
  151.5057  133.3489  159.2884 H   0  0  0  0  0  0  0  0  0  0  0  0  # atno 6908 bound_to 6896
  150.8677  134.8073  159.7193 H   0  0  0  0  0  0  0  0  0  0  0  0  # atno 6909 bound_to 6896
  146.1869  139.7412  142.8860 H   0  0  0  0  0  0  0  0  0  0  0  0  # atno 7974 bound_to 7965
  155.2573  140.3357  155.4276 H   0  0  0  0  0  0  0  0  0  0  0  0  # atno 8008 bound_to 7997
  156.2190  140.1801  156.7565 H   0  0  0  0  0  0  0  0  0  0  0  0  # atno 8009 bound_to 7997
  154.5796  140.0656  156.9069 H   0  0  0  0  0  0  0  0  0  0  0  0  # atno 8010 bound_to 7997
  139.7022  144.7092  151.1166 H   0  0  0  0  0  0  0  0  0  0  0  0  # atno 10167 bound_to 10162
  156.3468  130.7667  151.1813 H   0  0  0  0  0  0  0  0  0  0  0  0  # atno 10718 bound_to 10713
  154.8701  135.4111  154.2882 H   0  0  0  0  0  0  0  0  0  0  0  0  # atno 10763 bound_to 10752
  153.3762  135.7009  153.6605 H   0  0  0  0  0  0  0  0  0  0  0  0  # atno 10764 bound_to 10752
  153.5446  135.3641  155.2705 H   0  0  0  0  0  0  0  0  0  0  0  0  # atno 10765 bound_to 10752
  140.2596  134.7913  157.3577 H   0  0  0  0  0  0  0  0  0  0  0  0  # atno 11005 bound_to 11000
  145.3913  141.0372  143.3122 LP  0  0  0  0  0  0  0  0  0  0  0  0  # atno 17320 bound_to 7965
  144.8413  139.5468  143.6899 LP  0  0  0  0  0  0  0  0  0  0  0  0  # atno 17321 bound_to 7965
  140.7712  143.5408  150.9315 LP  0  0  0  0  0  0  0  0  0  0  0  0  # atno 17342 bound_to 10162
  139.9090  143.6743  152.3118 LP  0  0  0  0  0  0  0  0  0  0  0  0  # atno 17343 bound_to 10162
  157.7455  131.0439  150.4766 LP  0  0  0  0  0  0  0  0  0  0  0  0  # atno 17370 bound_to 10713
  156.4954  130.4105  149.6382 LP  0  0  0  0  0  0  0  0  0  0  0  0  # atno 17371 bound_to 10713
  140.1478  134.4889  155.7983 LP  0  0  0  0  0  0  0  0  0  0  0  0  # atno 17394 bound_to 11000
  141.2192  133.6850  156.7324 LP  0  0  0  0  0  0  0  0  0  0  0  0  # atno 17395 bound_to 11000

$$$$
