AV-unprocessed.smi:109|AV-procd|sdf|1053|dock2
  -GOLD-   2262018113D 1   1.00000     0.00000
 Structure written by MMmdl.
 58 61  0  0  0  0  0  0  0  0  1 V2000
  152.0452  129.2014  154.0761 O   0  0  0  0  0  0  0  0  0  0  0  0
  152.9091  129.0147  155.1763 C   0  0  0  0  0  0  0  0  0  0  0  0
  152.1546  128.3186  156.3221 C   0  0  0  0  0  0  0  0  0  0  0  0
  150.8150  128.9949  156.7067 C   0  0  2  0  0  0  0  0  0  0  0  0
  151.0810  130.3075  157.2993 N   0  0  0  0  0  0  0  0  0  0  0  0
  150.5953  131.4533  156.7711 C   0  0  0  0  0  0  0  0  0  0  0  0
  150.7063  132.6412  157.4212 N   0  0  0  0  0  0  0  0  0  0  0  0
  150.2056  133.7538  156.8752 C   0  0  0  0  0  0  0  0  0  0  0  0
  149.5692  133.8984  155.7104 N   0  0  0  0  0  0  0  0  0  0  0  0
  149.4593  132.7076  155.0541 C   0  0  0  0  0  0  0  0  0  0  0  0
  149.9414  131.4511  155.5125 C   0  0  0  0  0  0  0  0  0  0  0  0
  149.6435  130.4651  154.5804 N   0  0  0  0  0  0  0  0  0  0  0  0
  149.0209  131.1077  153.6285 C   0  0  0  0  0  0  0  0  0  0  0  0
  148.8641  132.4620  153.8373 N   0  0  0  0  0  0  0  0  0  0  0  0
  148.1989  133.4829  152.9733 C   0  0  1  0  0  0  0  0  0  0  0  0
  147.7272  132.8281  151.8327 O   0  0  0  0  0  0  0  0  0  0  0  0
  146.3215  133.0045  151.6956 C   0  0  1  0  0  0  0  0  0  0  0  0
  145.6802  131.8074  150.9717 C   0  0  0  0  0  0  0  0  0  0  0  0
  146.3056  131.5977  149.7236 O   0  0  0  0  0  0  0  0  0  0  0  0
  145.8152  133.3227  153.1094 C   0  0  1  0  0  0  0  0  0  0  0  0
  145.5453  132.1472  153.8511 O   0  0  0  0  0  0  0  0  0  0  0  0
  146.9902  134.0745  153.7172 C   0  0  2  0  0  0  0  0  0  0  0  0
  146.8789  135.4642  153.4855 O   0  0  0  0  0  0  0  0  0  0  0  0
  149.9518  128.1558  157.6924 C   0  0  0  0  0  0  0  0  0  0  0  0
  148.6071  128.8315  158.0609 C   0  0  0  0  0  0  0  0  0  0  0  0
  147.7912  128.0062  159.0694 C   0  0  0  0  0  0  0  0  0  0  0  0
  148.5970  127.7178  160.3414 C   0  0  0  0  0  0  0  0  0  0  0  0
  149.9170  127.0193  159.9947 C   0  0  0  0  0  0  0  0  0  0  0  0
  150.7365  127.8487  158.9940 C   0  0  0  0  0  0  0  0  0  0  0  0
  148.9861  134.2010  152.7385 H   0  0  0  0  0  0  0  0  0  0  0  0
  146.1923  133.8974  151.0811 H   0  0  0  0  0  0  0  0  0  0  0  0
  144.9021  133.9194  153.0882 H   0  0  0  0  0  0  0  0  0  0  0  0
  147.0746  133.9246  154.7952 H   0  0  0  0  0  0  0  0  0  0  0  0
  152.2007  128.5102  153.4509 H   0  0  0  0  0  0  0  0  0  0  0  0
  153.7634  128.4228  154.8475 H   0  0  0  0  0  0  0  0  0  0  0  0
  153.2859  129.9860  155.4979 H   0  0  0  0  0  0  0  0  0  0  0  0
  151.9704  127.2960  155.9967 H   0  0  0  0  0  0  0  0  0  0  0  0
  152.7988  128.2521  157.2000 H   0  0  0  0  0  0  0  0  0  0  0  0
  150.2272  129.0988  155.7949 H   0  0  0  0  0  0  0  0  0  0  0  0
  151.6569  130.2971  158.1289 H   0  0  0  0  0  0  0  0  0  0  0  0
  150.3315  134.6564  157.4551 H   0  0  0  0  0  0  0  0  0  0  0  0
  148.6541  130.6032  152.7465 H   0  0  0  0  0  0  0  0  0  0  0  0
  145.8056  130.9041  151.5690 H   0  0  0  0  0  0  0  0  0  0  0  0
  144.6083  131.9466  150.8318 H   0  0  0  0  0  0  0  0  0  0  0  0
  147.1891  131.2989  149.8763 H   0  0  0  0  0  0  0  0  0  0  0  0
  144.6354  132.1561  154.1061 H   0  0  0  0  0  0  0  0  0  0  0  0
  147.7198  135.7903  153.2029 H   0  0  0  0  0  0  0  0  0  0  0  0
  149.7185  127.2053  157.2095 H   0  0  0  0  0  0  0  0  0  0  0  0
  148.7935  129.8263  158.4677 H   0  0  0  0  0  0  0  0  0  0  0  0
  147.9862  128.9667  157.1768 H   0  0  0  0  0  0  0  0  0  0  0  0
  146.8726  128.5355  159.3246 H   0  0  0  0  0  0  0  0  0  0  0  0
  147.4868  127.0652  158.6092 H   0  0  0  0  0  0  0  0  0  0  0  0
  148.8008  128.6511  160.8676 H   0  0  0  0  0  0  0  0  0  0  0  0
  148.0127  127.0977  161.0217 H   0  0  0  0  0  0  0  0  0  0  0  0
  150.4977  126.8526  160.9024 H   0  0  0  0  0  0  0  0  0  0  0  0
  149.7121  126.0345  159.5733 H   0  0  0  0  0  0  0  0  0  0  0  0
  151.6561  127.3063  158.7735 H   0  0  0  0  0  0  0  0  0  0  0  0
  151.0421  128.7839  159.4655 H   0  0  0  0  0  0  0  0  0  0  0  0
  1  2  1  0  0  0  0
  1 34  1  0  0  0  0
  2  3  1  0  0  0  0
  2 35  1  0  0  0  0
  2 36  1  0  0  0  0
  3  4  1  0  0  0  0
  3 37  1  0  0  0  0
  3 38  1  0  0  0  0
  4  5  1  0  0  0  0
  4 24  1  0  0  0  0
  4 39  1  0  0  0  0
  5  6  1  0  0  0  0
  5 40  1  0  0  0  0
  6 11  1  0  0  0  0
  6  7  2  0  0  0  0
  7  8  1  0  0  0  0
  8  9  2  0  0  0  0
  8 41  1  0  0  0  0
  9 10  1  0  0  0  0
 10 14  1  0  0  0  0
 10 11  2  0  0  0  0
 11 12  1  0  0  0  0
 12 13  2  0  0  0  0
 13 14  1  0  0  0  0
 13 42  1  0  0  0  0
 14 15  1  0  0  0  0
 15 30  1  0  0  0  0
 15 22  1  0  0  0  0
 15 16  1  0  0  0  0
 16 17  1  0  0  0  0
 17 31  1  0  0  0  0
 17 18  1  0  0  0  0
 17 20  1  0  0  0  0
 18 19  1  0  0  0  0
 18 43  1  0  0  0  0
 18 44  1  0  0  0  0
 19 45  1  0  0  0  0
 20 32  1  0  0  0  0
 20 21  1  0  0  0  0
 20 22  1  0  0  0  0
 21 46  1  0  0  0  0
 22 33  1  0  0  0  0
 22 23  1  0  0  0  0
 23 47  1  0  0  0  0
 24 29  1  0  0  0  0
 24 25  1  0  0  0  0
 24 48  1  0  0  0  0
 25 26  1  0  0  0  0
 25 49  1  0  0  0  0
 25 50  1  0  0  0  0
 26 27  1  0  0  0  0
 26 51  1  0  0  0  0
 26 52  1  0  0  0  0
 27 28  1  0  0  0  0
 27 53  1  0  0  0  0
 27 54  1  0  0  0  0
 28 29  1  0  0  0  0
 28 55  1  0  0  0  0
 28 56  1  0  0  0  0
 29 57  1  0  0  0  0
 29 58  1  0  0  0  0
M  END
> <s_m_source_file>
AV-unprocessed.smi

> <i_m_source_file_index>
109

> <i_lp_mmshare_version>
43012

> <i_f3d_flags>
0

> <s_epik_input>
W0NIMl0xW0NIMl1bQ0gyXVtDSDJdW0NIMl1bQ0hdMVtDQEhdKFtDSDJdW0NIMl1bT0hdKVtOSF1jKG5bY0hdbjIpYyhjMjMpbltjSF1uM1tDQEBIXTRPW0NASF0oW0NIMl1bT0hdKVtDQEBIXShbT0hdKVtDQEhdNFtPSF0=

> <s_epik_cmdline>
J2VwaWtfcHl0aG9uJywgJy1waCcsICc3LjAnLCAnLXRuJywgJzgnLCAnLW1hJywgJzIwMCcsICctbWV0YWxfYmluZGluZycsICctaW1hZScsICc8aW5maWxlLm1hZT4nLCAnLW9tYWUnLCAnPG91dGZpbGUubWFlPic=

> <r_lp_tautomer_probability>
1

> <r_epik_Ionization_Penalty>
0.000793976

> <r_epik_Ionization_Penalty_Charging>
0

> <r_epik_Ionization_Penalty_Neutral>
0.000793976

> <r_epik_State_Penalty>
-0

> <r_epik_Charging_Adjusted_Penalty>
0

> <i_epik_Tot_Q>
0

> <i_epik_Tot_abs_Q>
0

> <r_epik_Metal_State_Penalty>
-0

> <b_epik_Metal_Only>
0

> <s_epik_Chemistry_Notes>
This compound contains an acetal/aminal-like group ( X-CH(R)-Y where X, Y are N, S, or O) that may be acid/base labile, releasing an aldehyde.

> <s_lp_Force_Field>
OPLS_2005

> <r_lp_Energy>
46.6527

> <b_lp_Chiralities_Consistent>
1

> <s_lp_Variant>
AV-unprocessed.smi:109-23

> <Gold.Version>
5.8.1

> <Gold.Id.Protein>
6NUR|6NUR_protein|mol2

> <Gold.PLP.Fitness>
44.2074

> <Gold.PLP.PLP>
-26.7493

> <Gold.PLP.part.hbond>
-5.0000

> <Gold.PLP.part.metal>
0.0000

> <Gold.PLP.part.buried>
-3.9166

> <Gold.PLP.part.nonpolar>
-21.2940

> <Gold.PLP.part.repulsive>
2.4695

> <Gold.PLP.ligand.clash>
0.0000

> <Gold.PLP.ligand.torsion>
0.1143

> <Gold.PLP.Chemscore.Hbond>
4.8450

> <Gold.PLP.Chemscore.CHOScore>
0.9940

> <Gold.PLP.Chemscore.Metal>
0.0000

> <Gold.Chemscore.Hbonds>
donor molecule, donor type, donor heavy atom, donor atom, acceptor molecule, acceptor atom, score
      L1  H     1    34       P1 10737  1.00
      L1  H    19    45       P1 10747  1.00
      L1  H    21    46       P1 10957  0.75
      L1  H    23    47       P1  7948  1.00
      P1  H  6896  6909       L1     7  0.95
      L1  C    13    42       P1 10747  1.00

> <Gold.PLP.Chemscore.Internal.Correction>
0.1698

> <Gold.Rescore>
     Score         DG    S(hbond)    S(metal)    S(lipo)     H(rot)  DE(clash)    DE(int)     intcor
      4.61      -8.96       3.89        0.00      38.24       5.47       1.22       3.13       ----

> <Gold.Chemscore.Fitness>
4.6099

> <Gold.Chemscore.DG>
-8.9619

> <Gold.Chemscore.ZeroCoef>
-5.4800

> <Gold.Chemscore.Hbond>
3.8926

> <Gold.Chemscore.Metal>
0.0000

> <Gold.Chemscore.Lipo>
38.2393

> <Gold.Chemscore.Internal_Hbond>
0.0000

> <Gold.Chemscore.DEClash>
1.2225

> <Gold.Chemscore.DEInternal>
3.1296

> <Gold.Chemscore.Rot>
5.4662

> <Gold.Chemscore.Internal.Correction>
   9.000000E+99

> <Gold.Chemscore.Hbonds>
donor molecule, donor type, donor heavy atom, donor atom, acceptor molecule, acceptor atom, score
      L1  H     1    34       P1 10737  0.53
      L1  H    19    45       P1 10747  1.00
      L1  H    21    46       P1 10957  0.15
      L1  H    23    47       P1  7948  0.95
      P1  H  6896  6909       L1     7  0.20

> <Gold.Chemscore.Hbond.Weighted>
-13.0014

> <Gold.Chemscore.Metal.Weighted>
-0.0000

> <Gold.Chemscore.Lipo.Weighted>
-4.4740

> <Gold.Chemscore.Internal_Hbond.Weighted>
0.0000

> <Gold.Chemscore.DEClash.Weighted>
1.2225

> <Gold.Chemscore.DEInternal.Weighted>
3.1296

> <Gold.Chemscore.Rot.Weighted>
13.9935

> <Gold.Chemscore.Internal.Correction.Weighted>
   9.000000E+99

> <Gold.Protein.RotatedTorsions>
[ 6907 6896 6895 6894 ] final  -37.95 input  -60.11 | X-H torsion
[ 7974 7965 7964 7962 ] final  177.29 input  175.53 | X-H torsion
[ 8008 7997 7996 7995 ] final   59.59 input   59.86 | X-H torsion
[ 10167 10162 10161 10158 ] final  161.66 input  -65.29 | X-H torsion
[ 10718 10713 10712 10709 ] final  -62.32 input   66.30 | X-H torsion
[ 10763 10752 10751 10750 ] final   73.35 input  -60.55 | X-H torsion
[ 11005 11000 10999 10996 ] final  138.68 input  -57.11 | X-H torsion

> <Gold.Protein.ActiveResidues>
 VAL166  LYS551  ARG553  GLY616  TRP617  ASP618  TYR619  PRO620  LYS621  CYS622 
 ASP623  PHE694  ASN695  SER759  ASP760  ASP761  ALA762  ILE779  LEU786  VAL792 
 PHE793  MET794  SER795  GLU796  ALA797  LYS798  CYS799  TRP800  GLU811  SER814 

> <Gold.Protein.RotatedAtoms>
  151.0083  134.9377  159.7992 H   0  0  0  0  0  0  0  0  0  0  0  0  # atno 6907 bound_to 6896
  152.5296  134.3062  159.9106 H   0  0  0  0  0  0  0  0  0  0  0  0  # atno 6908 bound_to 6896
  151.3067  133.4056  159.2678 H   0  0  0  0  0  0  0  0  0  0  0  0  # atno 6909 bound_to 6896
  144.7171  140.0225  143.6440 H   0  0  0  0  0  0  0  0  0  0  0  0  # atno 7974 bound_to 7965
  155.5687  140.3489  155.4509 H   0  0  0  0  0  0  0  0  0  0  0  0  # atno 8008 bound_to 7997
  156.0460  140.1307  157.0128 H   0  0  0  0  0  0  0  0  0  0  0  0  # atno 8009 bound_to 7997
  154.4413  140.1014  156.6292 H   0  0  0  0  0  0  0  0  0  0  0  0  # atno 8010 bound_to 7997
  139.4852  144.4515  151.8824 H   0  0  0  0  0  0  0  0  0  0  0  0  # atno 10167 bound_to 10162
  156.0863  130.4208  150.1118 H   0  0  0  0  0  0  0  0  0  0  0  0  # atno 10718 bound_to 10713
  153.0516  135.5066  154.7880 H   0  0  0  0  0  0  0  0  0  0  0  0  # atno 10763 bound_to 10752
  154.6738  135.2957  154.9708 H   0  0  0  0  0  0  0  0  0  0  0  0  # atno 10764 bound_to 10752
  154.0518  135.6703  153.4854 H   0  0  0  0  0  0  0  0  0  0  0  0  # atno 10765 bound_to 10752
  140.0201  134.9400  157.0456 H   0  0  0  0  0  0  0  0  0  0  0  0  # atno 11005 bound_to 11000
  146.0169  139.3217  143.0836 LP  0  0  0  0  0  0  0  0  0  0  0  0  # atno 17320 bound_to 7965
  145.8615  140.9472  143.0697 LP  0  0  0  0  0  0  0  0  0  0  0  0  # atno 17321 bound_to 7965
  140.3971  144.2540  150.5895 LP  0  0  0  0  0  0  0  0  0  0  0  0  # atno 17342 bound_to 10162
  140.5091  143.2295  151.8562 LP  0  0  0  0  0  0  0  0  0  0  0  0  # atno 17343 bound_to 10162
  156.9139  130.9660  151.3559 LP  0  0  0  0  0  0  0  0  0  0  0  0  # atno 17370 bound_to 10713
  157.5998  130.8504  149.8785 LP  0  0  0  0  0  0  0  0  0  0  0  0  # atno 17371 bound_to 10713
  140.4402  134.1689  155.7173 LP  0  0  0  0  0  0  0  0  0  0  0  0  # atno 17394 bound_to 11000
  141.1768  133.8497  157.1394 LP  0  0  0  0  0  0  0  0  0  0  0  0  # atno 17395 bound_to 11000

$$$$
