AV-unprocessed.smi:2825|AV-procd|sdf|10890|dock1
  -GOLD-   2272015333D 1   1.00000     0.00000
 Structure written by MMmdl.
 49 50  0  0  0  0  0  0  0  0  2 V2000
  148.4198  132.7596  153.1350 C   0  0  0  0  0  0  0  0  0  0  0  0
  149.4929  133.3845  154.0321 C   0  0  0  0  0  0  0  0  0  0  0  0
  148.9013  134.3442  155.0753 C   0  0  0  0  0  0  0  0  0  0  0  0
  150.1234  134.7641  156.3958 S   0  0  0  0  0  0  0  0  0  0  0  0
  149.5969  134.2695  157.6771 O   0  0  0  0  0  0  0  0  0  0  0  0
  151.4708  134.3699  155.9548 O   0  0  0  0  0  0  0  0  0  0  0  0
  150.0718  136.5008  156.4560 N   0  0  0  0  0  0  0  0  0  0  0  0
  148.7970  137.1654  156.7618 C   0  0  0  0  0  0  0  0  0  0  0  0
  151.0999  137.2970  155.7495 C   0  0  0  0  0  0  0  0  0  0  0  0
  150.7952  138.8116  155.6522 C   0  0  2  0  0  0  0  0  0  0  0  0
  150.8715  139.2299  154.3050 O   0  0  0  0  0  0  0  0  0  0  0  0
  151.8184  139.6350  156.4599 C   0  0  0  0  0  0  0  0  0  0  0  0
  151.3766  141.0153  156.7004 N   0  0  0  0  0  0  0  0  0  0  0  0
  150.6671  141.8616  155.9052 C   0  0  0  0  0  0  0  0  0  0  0  0
  150.5119  143.0307  156.5865 N   0  3  0  0  0  0  0  0  0  0  0  0
  151.1316  142.9292  157.8340 C   0  0  0  0  0  0  0  0  0  0  0  0
  151.2448  143.8452  158.8733 C   0  0  0  0  0  0  0  0  0  0  0  0
  151.9472  143.4283  160.0269 C   0  0  0  0  0  0  0  0  0  0  0  0
  152.0903  144.4056  161.1813 C   0  0  0  0  0  0  0  0  0  0  0  0
  152.5093  142.1277  160.1096 C   0  0  0  0  0  0  0  0  0  0  0  0
  153.2632  141.6898  161.3539 C   0  0  0  0  0  0  0  0  0  0  0  0
  152.3818  141.2102  159.0422 C   0  0  0  0  0  0  0  0  0  0  0  0
  151.6879  141.6380  157.9133 C   0  0  0  0  0  0  0  0  0  0  0  0
  148.8687  132.0865  152.4041 H   0  0  0  0  0  0  0  0  0  0  0  0
  147.8685  133.5253  152.5884 H   0  0  0  0  0  0  0  0  0  0  0  0
  147.7035  132.1838  153.7218 H   0  0  0  0  0  0  0  0  0  0  0  0
  150.0458  132.5916  154.5368 H   0  0  0  0  0  0  0  0  0  0  0  0
  150.2155  133.9128  153.4104 H   0  0  0  0  0  0  0  0  0  0  0  0
  148.5413  135.2679  154.6240 H   0  0  0  0  0  0  0  0  0  0  0  0
  148.0457  133.8725  155.5587 H   0  0  0  0  0  0  0  0  0  0  0  0
  148.1285  137.1214  155.9019 H   0  0  0  0  0  0  0  0  0  0  0  0
  148.9607  138.2080  157.0350 H   0  0  0  0  0  0  0  0  0  0  0  0
  148.3052  136.6795  157.6040 H   0  0  0  0  0  0  0  0  0  0  0  0
  152.0308  137.1642  156.3018 H   0  0  0  0  0  0  0  0  0  0  0  0
  151.2864  136.8828  154.7586 H   0  0  0  0  0  0  0  0  0  0  0  0
  149.8012  139.0446  156.0310 H   0  0  0  0  0  0  0  0  0  0  0  0
  149.9930  139.3203  153.9686 H   0  0  0  0  0  0  0  0  0  0  0  0
  152.0219  139.1691  157.4250 H   0  0  0  0  0  0  0  0  0  0  0  0
  152.7730  139.6809  155.9334 H   0  0  0  0  0  0  0  0  0  0  0  0
  150.2921  141.6441  154.9155 H   0  0  0  0  0  0  0  0  0  0  0  0
  150.8146  144.8337  158.8035 H   0  0  0  0  0  0  0  0  0  0  0  0
  153.1393  144.6568  161.3396 H   0  0  0  0  0  0  0  0  0  0  0  0
  151.6941  143.9758  162.1012 H   0  0  0  0  0  0  0  0  0  0  0  0
  151.5498  145.3330  160.9888 H   0  0  0  0  0  0  0  0  0  0  0  0
  153.6766  140.6876  161.2372 H   0  0  0  0  0  0  0  0  0  0  0  0
  152.5988  141.6784  162.2182 H   0  0  0  0  0  0  0  0  0  0  0  0
  154.0912  142.3683  161.5608 H   0  0  0  0  0  0  0  0  0  0  0  0
  152.8069  140.2193  159.1056 H   0  0  0  0  0  0  0  0  0  0  0  0
  150.0181  143.8366  156.2247 H   0  0  0  0  0  0  0  0  0  0  0  0
  1  2  1  0  0  0  0
  1 24  1  0  0  0  0
  1 25  1  0  0  0  0
  1 26  1  0  0  0  0
  2  3  1  0  0  0  0
  2 27  1  0  0  0  0
  2 28  1  0  0  0  0
  3  4  1  0  0  0  0
  3 29  1  0  0  0  0
  3 30  1  0  0  0  0
  4  5  2  0  0  0  0
  4  6  2  0  0  0  0
  4  7  1  0  0  0  0
  7  8  1  0  0  0  0
  7  9  1  0  0  0  0
  8 31  1  0  0  0  0
  8 32  1  0  0  0  0
  8 33  1  0  0  0  0
  9 10  1  0  0  0  0
  9 34  1  0  0  0  0
  9 35  1  0  0  0  0
 10 11  1  0  0  0  0
 10 12  1  0  0  0  0
 10 36  1  0  0  0  0
 11 37  1  0  0  0  0
 12 13  1  0  0  0  0
 12 38  1  0  0  0  0
 12 39  1  0  0  0  0
 13 23  1  0  0  0  0
 13 14  1  0  0  0  0
 14 15  2  0  0  0  0
 14 40  1  0  0  0  0
 15 16  1  0  0  0  0
 15 49  1  0  0  0  0
 16 23  2  0  0  0  0
 16 17  1  0  0  0  0
 17 18  2  0  0  0  0
 17 41  1  0  0  0  0
 18 19  1  0  0  0  0
 18 20  1  0  0  0  0
 19 42  1  0  0  0  0
 19 43  1  0  0  0  0
 19 44  1  0  0  0  0
 20 21  1  0  0  0  0
 20 22  2  0  0  0  0
 21 45  1  0  0  0  0
 21 46  1  0  0  0  0
 21 47  1  0  0  0  0
 22 23  1  0  0  0  0
 22 48  1  0  0  0  0
M  CHG  1  15   1
M  END
> <s_m_source_file>
AV-unprocessed.smi

> <i_m_source_file_index>
2825

> <i_lp_mmshare_version>
43012

> <i_f3d_flags>
0

> <s_epik_input>
W0NIM11bQ0gyXVtDSDJdUyg9TykoPU8pTihbQ0gzXSlbQ0gyXVtDQEhdKFtPSF0pW0NIMl1uKFtjSF1uMSljKGMxMilbY0hdYyhbQ0gzXSljKFtjSF0yKVtDSDNd

> <s_epik_cmdline>
J2VwaWtfcHl0aG9uJywgJy1waCcsICc3LjAnLCAnLXRuJywgJzgnLCAnLW1hJywgJzIwMCcsICctbWV0YWxfYmluZGluZycsICctaW1hZScsICc8aW5maWxlLm1hZT4nLCAnLW9tYWUnLCAnPG91dGZpbGUubWFlPic=

> <r_epik_Ionization_Penalty>
1.0773

> <r_epik_Ionization_Penalty_Charging>
1.0773

> <r_epik_Ionization_Penalty_Neutral>
1.44651e-06

> <r_epik_State_Penalty>
1.13242

> <r_epik_Charging_Adjusted_Penalty>
2.20972

> <i_epik_Tot_Q>
1

> <i_epik_Tot_abs_Q>
1

> <r_epik_Metal_State_Penalty>
5.13045

> <b_epik_Metal_Only>
0

> <s_lp_Force_Field>
OPLS_2005

> <r_lp_Energy>
13.8299

> <b_lp_Chiralities_Consistent>
1

> <s_lp_Variant>
AV-unprocessed.smi:2825-3

> <Gold.Version>
5.8.1

> <Gold.Id.Protein>
6NUR|6NUR_protein|mol2

> <Gold.PLP.Fitness>
55.9786

> <Gold.PLP.PLP>
-44.5905

> <Gold.PLP.part.hbond>
-3.9886

> <Gold.PLP.part.metal>
0.0000

> <Gold.PLP.part.buried>
-4.0772

> <Gold.PLP.part.nonpolar>
-36.7507

> <Gold.PLP.part.repulsive>
0.0720

> <Gold.PLP.ligand.clash>
0.0000

> <Gold.PLP.ligand.torsion>
2.5168

> <Gold.PLP.Chemscore.Hbond>
4.6344

> <Gold.PLP.Chemscore.CHOScore>
0.0000

> <Gold.PLP.Chemscore.Metal>
0.0000

> <Gold.Chemscore.Hbonds>
donor molecule, donor type, donor heavy atom, donor atom, acceptor molecule, acceptor atom, score
      L1  H    15    49       P1  8028  2.00
      P1  H  6896  6909       L1     5  1.00
      P1  H  7989  7998       L1    11  0.90
      P1  H 10752 10763       L1     6  0.44

> <Gold.PLP.Chemscore.Internal.Correction>
2.5186

> <Gold.Rescore>
     Score         DG    S(hbond)    S(metal)    S(lipo)     H(rot)  DE(clash)    DE(int)     intcor
     21.46     -24.15       3.50        0.00     114.68       2.51       0.20       2.49       ----

> <Gold.Chemscore.Fitness>
21.4610

> <Gold.Chemscore.DG>
-24.1501

> <Gold.Chemscore.ZeroCoef>
-5.4800

> <Gold.Chemscore.Hbond>
3.4969

> <Gold.Chemscore.Metal>
0.0000

> <Gold.Chemscore.Lipo>
114.6790

> <Gold.Chemscore.Internal_Hbond>
0.0000

> <Gold.Chemscore.DEClash>
0.1971

> <Gold.Chemscore.DEInternal>
2.4919

> <Gold.Chemscore.Rot>
2.5106

> <Gold.Chemscore.Internal.Correction>
   9.000000E+99

> <Gold.Chemscore.Hbonds>
donor molecule, donor type, donor heavy atom, donor atom, acceptor molecule, acceptor atom, score
      L1  H    15    49       P1  8028  0.93
      P1  H  6896  6909       L1     5  0.93
      P1  H  7989  7998       L1    11  0.17
      P1  H 10752 10763       L1     6  0.44

> <Gold.Chemscore.Hbond.Weighted>
-11.6797

> <Gold.Chemscore.Metal.Weighted>
-0.0000

> <Gold.Chemscore.Lipo.Weighted>
-13.4174

> <Gold.Chemscore.Internal_Hbond.Weighted>
0.0000

> <Gold.Chemscore.DEClash.Weighted>
0.1971

> <Gold.Chemscore.DEInternal.Weighted>
2.4919

> <Gold.Chemscore.Rot.Weighted>
6.4271

> <Gold.Chemscore.Internal.Correction.Weighted>
   9.000000E+99

> <Gold.Protein.RotatedTorsions>
[ 6907 6896 6895 6894 ] final    7.67 input  -60.11 | X-H torsion
[ 7974 7965 7964 7962 ] final   67.74 input  175.53 | X-H torsion
[ 8008 7997 7996 7995 ] final  166.11 input   59.86 | X-H torsion
[ 10167 10162 10161 10158 ] final   58.30 input  -65.29 | X-H torsion
[ 10718 10713 10712 10709 ] final  -72.80 input   66.30 | X-H torsion
[ 10763 10752 10751 10750 ] final   87.04 input  -60.55 | X-H torsion
[ 11005 11000 10999 10996 ] final -148.96 input  -57.11 | X-H torsion

> <Gold.Protein.ActiveResidues>
 VAL166  LYS551  ARG553  GLY616  TRP617  ASP618  TYR619  PRO620  LYS621  CYS622 
 ASP623  PHE694  ASN695  SER759  ASP760  ASP761  ALA762  ILE779  LEU786  VAL792 
 PHE793  MET794  SER795  GLU796  ALA797  LYS798  CYS799  TRP800  GLU811  SER814 

> <Gold.Protein.RotatedAtoms>
  151.6937  135.0942  160.0238 H   0  0  0  0  0  0  0  0  0  0  0  0  # atno 6907 bound_to 6896
  152.3763  133.6481  159.6134 H   0  0  0  0  0  0  0  0  0  0  0  0  # atno 6908 bound_to 6896
  150.7711  133.9104  159.3409 H   0  0  0  0  0  0  0  0  0  0  0  0  # atno 6909 bound_to 6896
  145.8109  139.3032  143.1099 H   0  0  0  0  0  0  0  0  0  0  0  0  # atno 7974 bound_to 7965
  156.1746  140.1652  156.8386 H   0  0  0  0  0  0  0  0  0  0  0  0  # atno 8008 bound_to 7997
  154.5293  140.0760  156.8349 H   0  0  0  0  0  0  0  0  0  0  0  0  # atno 8009 bound_to 7997
  155.3441  140.3386  155.4241 H   0  0  0  0  0  0  0  0  0  0  0  0  # atno 8010 bound_to 7997
  140.1887  144.4108  150.6581 H   0  0  0  0  0  0  0  0  0  0  0  0  # atno 10167 bound_to 10162
  156.0306  130.4380  150.2646 H   0  0  0  0  0  0  0  0  0  0  0  0  # atno 10718 bound_to 10713
  153.1629  135.4558  154.9797 H   0  0  0  0  0  0  0  0  0  0  0  0  # atno 10763 bound_to 10752
  154.7911  135.3221  154.7778 H   0  0  0  0  0  0  0  0  0  0  0  0  # atno 10764 bound_to 10752
  153.8265  135.6942  153.4874 H   0  0  0  0  0  0  0  0  0  0  0  0  # atno 10765 bound_to 10752
  140.7558  134.3355  157.5114 H   0  0  0  0  0  0  0  0  0  0  0  0  # atno 11005 bound_to 11000
  145.9778  140.8708  143.0130 LP  0  0  0  0  0  0  0  0  0  0  0  0  # atno 17320 bound_to 7965
  144.6757  140.2036  143.7384 LP  0  0  0  0  0  0  0  0  0  0  0  0  # atno 17321 bound_to 7965
  140.6470  143.2216  151.6162 LP  0  0  0  0  0  0  0  0  0  0  0  0  # atno 17342 bound_to 10162
  139.5265  144.3044  152.1046 LP  0  0  0  0  0  0  0  0  0  0  0  0  # atno 17343 bound_to 10162
  157.0749  131.0127  151.3177 LP  0  0  0  0  0  0  0  0  0  0  0  0  # atno 17370 bound_to 10713
  157.4971  130.7857  149.7567 LP  0  0  0  0  0  0  0  0  0  0  0  0  # atno 17371 bound_to 10713
  139.8779  134.9171  156.3170 LP  0  0  0  0  0  0  0  0  0  0  0  0  # atno 17394 bound_to 11000
  140.9709  133.7328  156.0533 LP  0  0  0  0  0  0  0  0  0  0  0  0  # atno 17395 bound_to 11000

$$$$
