AV-unprocessed.smi:3006|AV-procd|sdf|11444|dock4
  -GOLD-   2272016373D 1   1.00000     0.00000
 Structure written by MMmdl.
 45 46  0  0  0  0  0  0  0  0  2 V2000
  152.9915  143.1019  161.9509 C   0  0  0  0  0  0  0  0  0  0  0  0
  152.3979  143.5372  160.6550 C   0  0  0  0  0  0  0  0  0  0  0  0
  152.1678  142.7100  159.6320 N   0  0  0  0  0  0  0  0  0  0  0  0
  151.5983  143.3594  158.5321 C   0  0  0  0  0  0  0  0  0  0  0  0
  151.2623  142.5821  157.2959 C   0  0  0  0  0  0  0  0  0  0  0  0
  150.2081  141.4959  157.5641 C   0  0  0  0  0  0  0  0  0  0  0  0
  150.1149  140.5536  156.4550 N   0  0  0  0  0  0  0  0  0  0  0  0
  151.1611  140.0240  155.7988 C   0  0  0  0  0  0  0  0  0  0  0  0
  152.3257  140.2861  156.1017 O   0  0  0  0  0  0  0  0  0  0  0  0
  150.8314  139.1586  154.8074 N   0  0  0  0  0  0  0  0  0  0  0  0
  151.6024  137.9881  154.3757 C   0  0  0  0  0  0  0  0  0  0  0  0
  150.9109  136.7144  154.8958 C   0  0  0  0  0  0  0  0  0  0  0  0
  149.4774  136.6275  154.4784 N   0  3  0  0  0  0  0  0  0  0  0  0
  148.7760  135.4189  155.0212 C   0  0  0  0  0  0  0  0  0  0  0  0
  149.5530  134.1150  154.7451 C   0  0  0  0  0  0  0  0  0  0  0  0
  147.3447  135.2651  154.4647 C   0  0  0  0  0  0  0  0  0  0  0  0
  148.7374  137.9025  154.7264 C   0  0  0  0  0  0  0  0  0  0  0  0
  149.4993  139.1340  154.2053 C   0  0  0  0  0  0  0  0  0  0  0  0
  151.4040  144.7027  158.7378 C   0  0  0  0  0  0  0  0  0  0  0  0
  151.9267  145.1996  160.3238 S   0  0  0  0  0  0  0  0  0  0  0  0
  153.2547  142.0441  161.9177 H   0  0  0  0  0  0  0  0  0  0  0  0
  152.2768  143.2588  162.7586 H   0  0  0  0  0  0  0  0  0  0  0  0
  153.8917  143.6795  162.1610 H   0  0  0  0  0  0  0  0  0  0  0  0
  150.9009  143.2608  156.5222 H   0  0  0  0  0  0  0  0  0  0  0  0
  152.1649  142.1226  156.8908 H   0  0  0  0  0  0  0  0  0  0  0  0
  150.4716  140.9348  158.4612 H   0  0  0  0  0  0  0  0  0  0  0  0
  149.2339  141.9483  157.7581 H   0  0  0  0  0  0  0  0  0  0  0  0
  149.1861  140.2818  156.1671 H   0  0  0  0  0  0  0  0  0  0  0  0
  151.6428  137.9693  153.2855 H   0  0  0  0  0  0  0  0  0  0  0  0
  152.6430  138.0009  154.7000 H   0  0  0  0  0  0  0  0  0  0  0  0
  151.4712  135.8608  154.5175 H   0  0  0  0  0  0  0  0  0  0  0  0
  150.9723  136.6820  155.9849 H   0  0  0  0  0  0  0  0  0  0  0  0
  148.6987  135.5359  156.1034 H   0  0  0  0  0  0  0  0  0  0  0  0
  148.9750  133.2419  155.0498 H   0  0  0  0  0  0  0  0  0  0  0  0
  150.4884  134.0646  155.3016 H   0  0  0  0  0  0  0  0  0  0  0  0
  149.7797  134.0040  153.6842 H   0  0  0  0  0  0  0  0  0  0  0  0
  146.8982  134.3239  154.7865 H   0  0  0  0  0  0  0  0  0  0  0  0
  147.3375  135.2754  153.3742 H   0  0  0  0  0  0  0  0  0  0  0  0
  146.6768  136.0502  154.8186 H   0  0  0  0  0  0  0  0  0  0  0  0
  147.7671  137.8853  154.2323 H   0  0  0  0  0  0  0  0  0  0  0  0
  148.5522  138.0093  155.7967 H   0  0  0  0  0  0  0  0  0  0  0  0
  148.9280  140.0408  154.4098 H   0  0  0  0  0  0  0  0  0  0  0  0
  149.5925  139.0862  153.1191 H   0  0  0  0  0  0  0  0  0  0  0  0
  150.9842  145.4270  158.0555 H   0  0  0  0  0  0  0  0  0  0  0  0
  149.4933  136.5162  153.4746 H   0  0  0  0  0  0  0  0  0  0  0  0
  1  2  1  0  0  0  0
  1 21  1  0  0  0  0
  1 22  1  0  0  0  0
  1 23  1  0  0  0  0
  2 20  1  0  0  0  0
  2  3  2  0  0  0  0
  3  4  1  0  0  0  0
  4  5  1  0  0  0  0
  4 19  2  0  0  0  0
  5  6  1  0  0  0  0
  5 24  1  0  0  0  0
  5 25  1  0  0  0  0
  6  7  1  0  0  0  0
  6 26  1  0  0  0  0
  6 27  1  0  0  0  0
  7  8  1  0  0  0  0
  7 28  1  0  0  0  0
  8  9  2  0  0  0  0
  8 10  1  0  0  0  0
 10 18  1  0  0  0  0
 10 11  1  0  0  0  0
 11 12  1  0  0  0  0
 11 29  1  0  0  0  0
 11 30  1  0  0  0  0
 12 13  1  0  0  0  0
 12 31  1  0  0  0  0
 12 32  1  0  0  0  0
 13 14  1  0  0  0  0
 13 17  1  0  0  0  0
 13 45  1  0  0  0  0
 14 15  1  0  0  0  0
 14 16  1  0  0  0  0
 14 33  1  0  0  0  0
 15 34  1  0  0  0  0
 15 35  1  0  0  0  0
 15 36  1  0  0  0  0
 16 37  1  0  0  0  0
 16 38  1  0  0  0  0
 16 39  1  0  0  0  0
 17 18  1  0  0  0  0
 17 40  1  0  0  0  0
 17 41  1  0  0  0  0
 18 42  1  0  0  0  0
 18 43  1  0  0  0  0
 19 20  1  0  0  0  0
 19 44  1  0  0  0  0
M  CHG  1  13   1
M  END
> <s_m_source_file>
AV-unprocessed.smi

> <i_m_source_file_index>
3006

> <i_lp_mmshare_version>
43012

> <i_f3d_flags>
0

> <s_epik_input>
W0NIM11jMW5jKFtjSF1zMSlbQ0gyXVtDSDJdW05IXUMoPU8pTjJbQ0gyXVtDSDJdTihbQ0hdKFtDSDNdKVtDSDNdKVtDSDJdW0NIMl0y

> <s_epik_cmdline>
J2VwaWtfcHl0aG9uJywgJy1waCcsICc3LjAnLCAnLXRuJywgJzgnLCAnLW1hJywgJzIwMCcsICctbWV0YWxfYmluZGluZycsICctaW1hZScsICc8aW5maWxlLm1hZT4nLCAnLW9tYWUnLCAnPG91dGZpbGUubWFlPic=

> <r_epik_Ionization_Penalty>
0.155723

> <r_epik_Ionization_Penalty_Charging>
0.153999

> <r_epik_Ionization_Penalty_Neutral>
0.00172372

> <r_epik_State_Penalty>
0.139716

> <r_epik_Charging_Adjusted_Penalty>
0.293715

> <i_epik_Tot_Q>
1

> <i_epik_Tot_abs_Q>
1

> <r_epik_Metal_State_Penalty>
0.138566

> <b_epik_Metal_Only>
0

> <s_lp_Force_Field>
OPLS_2005

> <r_lp_Energy>
45.5874

> <b_lp_Chiralities_Consistent>
1

> <s_lp_Variant>
AV-unprocessed.smi:3006-1

> <Gold.Version>
5.8.1

> <Gold.Id.Protein>
6NUR|6NUR_protein|mol2

> <Gold.PLP.Fitness>
49.9299

> <Gold.PLP.PLP>
-42.4677

> <Gold.PLP.part.hbond>
-2.0000

> <Gold.PLP.part.metal>
0.0000

> <Gold.PLP.part.buried>
-3.7607

> <Gold.PLP.part.nonpolar>
-36.6121

> <Gold.PLP.part.repulsive>
0.0555

> <Gold.PLP.ligand.clash>
0.7085

> <Gold.PLP.ligand.torsion>
0.4688

> <Gold.PLP.Chemscore.Hbond>
3.0000

> <Gold.PLP.Chemscore.CHOScore>
0.0000

> <Gold.PLP.Chemscore.Metal>
0.0000

> <Gold.Chemscore.Hbonds>
donor molecule, donor type, donor heavy atom, donor atom, acceptor molecule, acceptor atom, score
      L1  H    13    45       P1  7948  2.00
      P1  H  7997  8009       L1     9  1.00

> <Gold.PLP.Chemscore.Internal.Correction>
0.1083

> <Gold.Rescore>
     Score         DG    S(hbond)    S(metal)    S(lipo)     H(rot)  DE(clash)    DE(int)     intcor
     18.70     -20.56       1.93        0.00     104.90       1.42       0.03       1.83       ----

> <Gold.Chemscore.Fitness>
18.6980

> <Gold.Chemscore.DG>
-20.5559

> <Gold.Chemscore.ZeroCoef>
-5.4800

> <Gold.Chemscore.Hbond>
1.9297

> <Gold.Chemscore.Metal>
0.0000

> <Gold.Chemscore.Lipo>
104.9026

> <Gold.Chemscore.Internal_Hbond>
0.0000

> <Gold.Chemscore.DEClash>
0.0285

> <Gold.Chemscore.DEInternal>
1.8294

> <Gold.Chemscore.Rot>
1.4230

> <Gold.Chemscore.Internal.Correction>
   9.000000E+99

> <Gold.Chemscore.Hbonds>
donor molecule, donor type, donor heavy atom, donor atom, acceptor molecule, acceptor atom, score
      L1  H    13    45       P1  7948  0.70
      P1  H  7997  8009       L1     9  0.91

> <Gold.Chemscore.Hbond.Weighted>
-6.4453

> <Gold.Chemscore.Metal.Weighted>
-0.0000

> <Gold.Chemscore.Lipo.Weighted>
-12.2736

> <Gold.Chemscore.Internal_Hbond.Weighted>
0.0000

> <Gold.Chemscore.DEClash.Weighted>
0.0285

> <Gold.Chemscore.DEInternal.Weighted>
1.8294

> <Gold.Chemscore.Rot.Weighted>
3.6430

> <Gold.Chemscore.Internal.Correction.Weighted>
   9.000000E+99

> <Gold.Protein.RotatedTorsions>
[ 6907 6896 6895 6894 ] final  -59.37 input  -60.11 | X-H torsion
[ 7974 7965 7964 7962 ] final  -54.51 input  175.53 | X-H torsion
[ 8008 7997 7996 7995 ] final -163.70 input   59.86 | X-H torsion
[ 10167 10162 10161 10158 ] final -131.97 input  -65.29 | X-H torsion
[ 10718 10713 10712 10709 ] final  -42.33 input   66.30 | X-H torsion
[ 10763 10752 10751 10750 ] final   69.06 input  -60.55 | X-H torsion
[ 11005 11000 10999 10996 ] final   -5.96 input  -57.11 | X-H torsion

> <Gold.Protein.ActiveResidues>
 VAL166  LYS551  ARG553  GLY616  TRP617  ASP618  TYR619  PRO620  LYS621  CYS622 
 ASP623  PHE694  ASN695  SER759  ASP760  ASP761  ALA762  ILE779  LEU786  VAL792 
 PHE793  MET794  SER795  GLU796  ALA797  LYS798  CYS799  TRP800  GLU811  SER814 

> <Gold.Protein.RotatedAtoms>
  150.7936  134.6977  159.6532 H   0  0  0  0  0  0  0  0  0  0  0  0  # atno 6907 bound_to 6896
  152.4045  134.6228  160.0065 H   0  0  0  0  0  0  0  0  0  0  0  0  # atno 6908 bound_to 6896
  151.6489  133.3285  159.3183 H   0  0  0  0  0  0  0  0  0  0  0  0  # atno 6909 bound_to 6896
  145.8847  140.8117  142.9822 H   0  0  0  0  0  0  0  0  0  0  0  0  # atno 7974 bound_to 7965
  155.8250  140.0925  157.1826 H   0  0  0  0  0  0  0  0  0  0  0  0  # atno 8008 bound_to 7997
  154.3979  140.1429  156.3606 H   0  0  0  0  0  0  0  0  0  0  0  0  # atno 8009 bound_to 7997
  155.8226  140.3446  155.5526 H   0  0  0  0  0  0  0  0  0  0  0  0  # atno 8010 bound_to 7997
  139.9134  143.6467  152.2570 H   0  0  0  0  0  0  0  0  0  0  0  0  # atno 10167 bound_to 10162
  156.2607  130.4196  149.8545 H   0  0  0  0  0  0  0  0  0  0  0  0  # atno 10718 bound_to 10713
  153.0267  135.5224  154.7231 H   0  0  0  0  0  0  0  0  0  0  0  0  # atno 10763 bound_to 10752
  154.6280  135.2897  155.0251 H   0  0  0  0  0  0  0  0  0  0  0  0  # atno 10764 bound_to 10752
  154.1214  135.6607  153.4956 H   0  0  0  0  0  0  0  0  0  0  0  0  # atno 10765 bound_to 10752
  140.6968  133.9024  155.8655 H   0  0  0  0  0  0  0  0  0  0  0  0  # atno 11005 bound_to 11000
  144.6728  140.1437  143.7435 LP  0  0  0  0  0  0  0  0  0  0  0  0  # atno 17320 bound_to 7965
  145.8981  139.2414  143.1510 LP  0  0  0  0  0  0  0  0  0  0  0  0  # atno 17321 bound_to 7965
  139.6923  144.7645  151.1417 LP  0  0  0  0  0  0  0  0  0  0  0  0  # atno 17342 bound_to 10162
  140.7680  143.5572  150.9139 LP  0  0  0  0  0  0  0  0  0  0  0  0  # atno 17343 bound_to 10162
  156.6062  130.8567  151.3443 LP  0  0  0  0  0  0  0  0  0  0  0  0  # atno 17370 bound_to 10713
  157.7249  130.9609  150.1594 LP  0  0  0  0  0  0  0  0  0  0  0  0  # atno 17371 bound_to 10713
  141.0197  134.0907  157.4134 LP  0  0  0  0  0  0  0  0  0  0  0  0  # atno 17394 bound_to 11000
  139.8908  135.0114  156.6755 LP  0  0  0  0  0  0  0  0  0  0  0  0  # atno 17395 bound_to 11000

$$$$
