#       Name:                AV-unprocessed.smi:561
#       Creating user name   scv26
#       Creation time:       Thu Mar 26 23:44:16 2020


#       File generated by GOLD software.
#

@<TRIPOS>MOLECULE
AV-unprocessed.smi:561
    42    43     1
SMALL
NO_CHARGES


@<TRIPOS>ATOM
      1 ****        -3.1798  -1.1599  -1.7742 C.3            1 S1                 0.0000
      2 ****        -2.5593  -0.4507  -0.5621 C.3            1 S1                 0.0000
      3 ****        -2.9710  -1.1356   0.7644 C.3            1 S1                 0.0000
      4 ****        -2.5282  -0.4299   1.9626 N.pl3          1 S1                 0.0000
      5 ****        -1.3756  -0.6725   2.7032 C.2            1 S1                 0.0000
      6 ****        -1.3822   0.2199   3.7509 C.2            1 S1                 0.0000
      7 ****        -2.5266   1.0110   3.6863 N.2            1 S1                 0.0000
      8 ****        -3.1554   0.5684   2.6046 C.2            1 S1                 0.0000
      9 ****        -1.0985  -0.4750  -0.6938 N.pl3          1 S1                -1.0000
     10 ****        -0.3102   0.5989  -0.9922 C.2            1 S1                 0.0000
     11 ****        -0.7021   1.7321  -1.3020 O.2            1 S1                 0.0000
     12 ****         1.1688   0.4074  -0.9379 C.2            1 S1                 0.0000
     13 ****         1.9380   1.3435  -1.3987 N.2            1 S1                 0.0000
     14 ****         3.3137   1.2365  -1.4016 N.am           1 S1                 0.0000
     15 ****         3.9777   2.2558  -2.2139 C.3            1 S1                 0.0000
     16 ****         4.0122   0.3014  -0.7082 C.2            1 S1                 0.0000
     17 ****         5.2389   0.1981  -0.7291 O.2            1 S1                 0.0000
     18 ****         3.1931  -0.6489   0.1693 C.3            1 S1                 0.0000
     19 ****         1.7703  -0.8707  -0.3782 C.3            1 S1                 0.0000
     20 ****        -4.2682  -1.1586  -1.7126 H              1 S1                 0.0000
     21 ****        -2.8523  -2.1981  -1.8411 H              1 S1                 0.0000
     22 ****        -2.9047  -0.6617  -2.7044 H              1 S1                 0.0000
     23 ****        -2.9550   0.5662  -0.5424 H              1 S1                 0.0000
     24 ****        -4.0575  -1.2196   0.8122 H              1 S1                 0.0000
     25 ****        -2.5855  -2.1556   0.8027 H              1 S1                 0.0000
     26 ****        -0.6645  -1.4353   2.4225 H              1 S1                 0.0000
     27 ****        -0.6587   0.3494   4.5422 H              1 S1                 0.0000
     28 ****        -4.0960   0.9797   2.2691 H              1 S1                 0.0000
     29 ****         5.0668   2.2090  -2.1783 H              1 S1                 0.0000
     30 ****         3.6848   3.2516  -1.8789 H              1 S1                 0.0000
     31 ****         3.6801   2.1530  -3.2581 H              1 S1                 0.0000
     32 ****         3.7107  -1.6026   0.2773 H              1 S1                 0.0000
     33 ****         3.1365  -0.2075   1.1651 H              1 S1                 0.0000
     34 ****         1.1586  -1.2662   0.4335 H              1 S1                 0.0000
     35 ****         1.7818  -1.6345  -1.1565 H              1 S1                 0.0000
     36 ****        -2.8084   1.7411   4.3088 LP             1 S1                 0.0000
     37 ****        -0.6411  -1.3530  -0.5530 LP             1 S1                 0.0000
     38 ****        -1.6819   1.9263  -1.3513 LP             1 S1                 0.0000
     39 ****        -0.0388   2.4530  -1.5029 LP             1 S1                 0.0000
     40 ****         1.5189   2.1740  -1.7657 LP             1 S1                 0.0000
     41 ****         5.7843   0.8279  -1.2823 LP             1 S1                 0.0000
     42 ****         5.6898  -0.5155  -0.1930 LP             1 S1                 0.0000
@<TRIPOS>BOND
    1    1    2 1     
    2    1   20 1     
    3    1   21 1     
    4    1   22 1     
    5    2    3 1     
    6    2    9 1     
    7    2   23 1     
    8    3    4 1     
    9    3   24 1     
   10    3   25 1     
   11    4    8 1     
   12    4    5 1     
   13    5    6 2     
   14    5   26 1     
   15    6    7 1     
   16    6   27 1     
   17    7    8 2     
   18    8   28 1     
   19    9   10 1     
   20   10   11 2     
   21   10   12 1     
   22   12   19 1     
   23   12   13 2     
   24   13   14 1     
   25   14   15 1     
   26   14   16 am    
   27   15   29 1     
   28   15   30 1     
   29   15   31 1     
   30   16   17 2     
   31   16   18 1     
   32   18   19 1     
   33   18   32 1     
   34   18   33 1     
   35   19   34 1     
   36   19   35 1     
   37    7   36 1     
   38    9   37 1     
   39   11   38 1     
   40   11   39 1     
   41   13   40 1     
   42   17   41 1     
   43   17   42 1     
@<TRIPOS>SUBSTRUCTURE
      1 S1             1
@<TRIPOS>SET
LONE_PAIRS      STATIC     ATOMS    <user>   **** ""
7 36 37 38 39 40 41 42
ATOM$BLUE        STATIC     ATOMS    COLORGROUP SYSTEM
7 36 37 38 39 40 41 42
