#       Name:                AV-unprocessed.smi:967
#       Creating user name   scv26
#       Creation time:       Fri Mar 27 02:19:18 2020


#       File generated by GOLD software.
#

@<TRIPOS>MOLECULE
AV-unprocessed.smi:967
    48    49     1
SMALL
NO_CHARGES


@<TRIPOS>ATOM
      1 ****        -6.3567  -1.5696  -1.2688 C.3            1 S1                 0.0000
      2 ****        -5.7284  -0.3386  -1.7237 N.3            1 S1                 0.0000
      3 ****        -6.3734   0.8972  -1.3059 C.3            1 S1                 0.0000
      4 ****        -4.3417  -0.3266  -1.5194 C.ar           1 S1                 0.0000
      5 ****        -3.4408  -0.3457  -2.6043 C.ar           1 S1                 0.0000
      6 ****        -2.0537  -0.3316  -2.3517 C.ar           1 S1                 0.0000
      7 ****        -1.5836  -0.2880  -1.0210 C.ar           1 S1                 0.0000
      8 ****        -0.1775  -0.2858  -0.8146 N.am           1 S1                 0.0000
      9 ****         0.5066   0.0981   0.2772 C.2            1 S1                 0.0000
     10 ****         0.0047   0.5488   1.3065 O.2            1 S1                 0.0000
     11 ****         1.8264  -0.0541   0.0966 N.am           1 S1                 0.0000
     12 ****         2.8688   0.2830   1.0626 C.3            1 S1                 0.0000
     13 ****         3.7174   1.4505   0.5259 C.3            1 S1                 0.0000
     14 ****         4.8798   1.7886   1.4759 C.3            1 S1                 0.0000
     15 ****         5.7545   0.5600   1.7900 C.3            1 S1                 0.0000
     16 ****         6.4898   0.1823   0.6426 O.3            1 S1                 0.0000
     17 ****         4.9066  -0.6258   2.2880 C.3            1 S1                 0.0000
     18 ****         3.7452  -0.9537   1.3332 C.3            1 S1                 0.0000
     19 ****        -2.5345  -0.2840   0.0290 C.ar           1 S1                 0.0000
     20 ****        -3.8548  -0.3009  -0.2562 N.pl3          1 S1                 1.0000
     21 ****        -5.8143  -2.4422  -1.6357 H              1 S1                 0.0000
     22 ****        -7.3803  -1.6291  -1.6396 H              1 S1                 0.0000
     23 ****        -6.3857  -1.6136  -0.1794 H              1 S1                 0.0000
     24 ****        -5.8395   1.7657  -1.6932 H              1 S1                 0.0000
     25 ****        -6.4100   0.9706  -0.2183 H              1 S1                 0.0000
     26 ****        -7.3952   0.9348  -1.6842 H              1 S1                 0.0000
     27 ****        -3.8064  -0.3719  -3.6207 H              1 S1                 0.0000
     28 ****        -1.3578  -0.3483  -3.1780 H              1 S1                 0.0000
     29 ****         0.3792  -0.5611  -1.6105 H              1 S1                 0.0000
     30 ****         2.1411  -0.4266  -0.7875 H              1 S1                 0.0000
     31 ****         2.4233   0.5931   2.0096 H              1 S1                 0.0000
     32 ****         4.1145   1.1980  -0.4585 H              1 S1                 0.0000
     33 ****         3.0916   2.3329   0.3868 H              1 S1                 0.0000
     34 ****         5.4888   2.5889   1.0539 H              1 S1                 0.0000
     35 ****         4.4695   2.1793   2.4080 H              1 S1                 0.0000
     36 ****         6.4805   0.8272   2.5584 H              1 S1                 0.0000
     37 ****         7.0495  -0.5444   0.8703 H              1 S1                 0.0000
     38 ****         5.5338  -1.5064   2.4322 H              1 S1                 0.0000
     39 ****         4.4973  -0.3814   3.2691 H              1 S1                 0.0000
     40 ****         3.1384  -1.7541   1.7581 H              1 S1                 0.0000
     41 ****         4.1448  -1.3374   0.3932 H              1 S1                 0.0000
     42 ****        -2.2989  -0.2805   1.0825 H              1 S1                 0.0000
     43 ****        -4.5168  -0.2968   0.5199 H              1 S1                 0.0000
     44 ****        -5.8799  -0.3541  -2.7120 LP             1 S1                 0.0000
     45 ****        -0.9876   0.6529   1.3749 LP             1 S1                 0.0000
     46 ****         0.5890   0.8108   2.0745 LP             1 S1                 0.0000
     47 ****         7.0467   0.9520   0.3306 LP             1 S1                 0.0000
     48 ****         5.8614  -0.0913  -0.0856 LP             1 S1                 0.0000
@<TRIPOS>BOND
    1    1    2 1     
    2    1   21 1     
    3    1   22 1     
    4    1   23 1     
    5    2    3 1     
    6    2    4 1     
    7    3   24 1     
    8    3   25 1     
    9    3   26 1     
   10    4   20 ar    
   11    4    5 ar    
   12    5    6 ar    
   13    5   27 1     
   14    6    7 ar    
   15    6   28 1     
   16    7    8 1     
   17    7   19 ar    
   18    8    9 am    
   19    8   29 1     
   20    9   10 2     
   21    9   11 am    
   22   11   12 1     
   23   11   30 1     
   24   12   18 1     
   25   12   13 1     
   26   12   31 1     
   27   13   14 1     
   28   13   32 1     
   29   13   33 1     
   30   14   15 1     
   31   14   34 1     
   32   14   35 1     
   33   15   16 1     
   34   15   17 1     
   35   15   36 1     
   36   16   37 1     
   37   17   18 1     
   38   17   38 1     
   39   17   39 1     
   40   18   40 1     
   41   18   41 1     
   42   19   20 ar    
   43   19   42 1     
   44   20   43 1     
   45    2   44 1     
   46   10   45 1     
   47   10   46 1     
   48   16   47 1     
   49   16   48 1     
@<TRIPOS>SUBSTRUCTURE
      1 S1             1
@<TRIPOS>SET
LONE_PAIRS      STATIC     ATOMS    <user>   **** ""
5 44 45 46 47 48
DONOR_HYDROGENS      STATIC     ATOMS    <user>   **** ""
4 29 30 37 43
ATOM$BLUE        STATIC     ATOMS    COLORGROUP SYSTEM
5 44 45 46 47 48
ATOM$RED        STATIC     ATOMS    COLORGROUP SYSTEM
4 29 30 37 43
