AV-unprocessed.smi:3336|AV-procd|sdf|12856|dock5
  -GOLD-   2272019253D 1   1.00000     0.00000
 Structure written by MMmdl.
 42 43  0  0  0  0  0  0  0  0  2 V2000
  150.9625  138.2658  154.4158 C   0  0  0  0  0  0  0  0  0  0  0  0
  149.6055  138.9938  154.4826 C   0  0  1  0  0  0  0  0  0  0  0  0
  149.7607  140.5187  154.6554 C   0  0  0  0  0  0  0  0  0  0  0  0
  150.3972  140.8871  155.9074 N   0  0  0  0  0  0  0  0  0  0  0  0
  149.9958  141.8351  156.8251 C   0  0  0  0  0  0  0  0  0  0  0  0
  150.9074  141.8279  157.8415 C   0  0  0  0  0  0  0  0  0  0  0  0
  151.8440  140.8311  157.4491 C   0  0  0  0  0  0  0  0  0  0  0  0
  151.5365  140.2709  156.2901 N   0  0  0  0  0  0  0  0  0  0  0  0
  148.8036  138.7289  153.2650 N   0  3  0  0  0  0  0  0  0  0  0  0
  147.3326  138.8960  153.3779 C   0  0  1  0  0  0  0  0  0  0  0  0
  146.9659  140.3880  153.5100 C   0  0  0  0  0  0  0  0  0  0  0  0
  146.6287  138.2834  152.1485 C   0  0  0  0  0  0  0  0  0  0  0  0
  146.7984  138.8257  151.0547 O   0  0  0  0  0  0  0  0  0  0  0  0
  145.8429  137.1849  152.2848 N   0  0  0  0  0  0  0  0  0  0  0  0
  145.6184  136.5258  153.5766 C   0  0  0  0  0  0  0  0  0  0  0  0
  146.1892  135.0990  153.5066 C   0  0  0  0  0  0  0  0  0  0  0  0
  145.5539  134.3874  152.4487 O   0  0  0  0  0  0  0  0  0  0  0  0
  145.7301  135.0074  151.1782 C   0  0  0  0  0  0  0  0  0  0  0  0
  145.1694  136.4417  151.2124 C   0  0  0  0  0  0  0  0  0  0  0  0
  151.5419  138.4176  155.3266 H   0  0  0  0  0  0  0  0  0  0  0  0
  151.5621  138.6257  153.5792 H   0  0  0  0  0  0  0  0  0  0  0  0
  150.8438  137.1894  154.2984 H   0  0  0  0  0  0  0  0  0  0  0  0
  149.0606  138.6227  155.3504 H   0  0  0  0  0  0  0  0  0  0  0  0
  150.3379  140.9380  153.8291 H   0  0  0  0  0  0  0  0  0  0  0  0
  148.7827  141.0010  154.6240 H   0  0  0  0  0  0  0  0  0  0  0  0
  149.1050  142.4289  156.6810 H   0  0  0  0  0  0  0  0  0  0  0  0
  150.9069  142.4422  158.7299 H   0  0  0  0  0  0  0  0  0  0  0  0
  152.7316  140.5005  157.9679 H   0  0  0  0  0  0  0  0  0  0  0  0
  149.1188  139.3475  152.5315 H   0  0  0  0  0  0  0  0  0  0  0  0
  147.0165  138.3504  154.2644 H   0  0  0  0  0  0  0  0  0  0  0  0
  145.8873  140.5390  153.5473 H   0  0  0  0  0  0  0  0  0  0  0  0
  147.3460  140.9656  152.6663 H   0  0  0  0  0  0  0  0  0  0  0  0
  147.3740  140.8270  154.4197 H   0  0  0  0  0  0  0  0  0  0  0  0
  146.0680  137.0580  154.4157 H   0  0  0  0  0  0  0  0  0  0  0  0
  144.5478  136.4912  153.7835 H   0  0  0  0  0  0  0  0  0  0  0  0
  147.2690  135.1182  153.3506 H   0  0  0  0  0  0  0  0  0  0  0  0
  146.0100  134.5727  154.4441 H   0  0  0  0  0  0  0  0  0  0  0  0
  146.7876  135.0083  150.9099 H   0  0  0  0  0  0  0  0  0  0  0  0
  145.2101  134.4167  150.4239 H   0  0  0  0  0  0  0  0  0  0  0  0
  144.0973  136.4184  151.4137 H   0  0  0  0  0  0  0  0  0  0  0  0
  145.2770  136.8834  150.2247 H   0  0  0  0  0  0  0  0  0  0  0  0
  148.9937  137.7803  152.9737 H   0  0  0  0  0  0  0  0  0  0  0  0
  1  2  1  0  0  0  0
  1 20  1  0  0  0  0
  1 21  1  0  0  0  0
  1 22  1  0  0  0  0
  2  3  1  0  0  0  0
  2  9  1  0  0  0  0
  2 23  1  0  0  0  0
  3  4  1  0  0  0  0
  3 24  1  0  0  0  0
  3 25  1  0  0  0  0
  4  8  1  0  0  0  0
  4  5  1  0  0  0  0
  5  6  2  0  0  0  0
  5 26  1  0  0  0  0
  6  7  1  0  0  0  0
  6 27  1  0  0  0  0
  7  8  2  0  0  0  0
  7 28  1  0  0  0  0
  9 10  1  0  0  0  0
  9 29  1  0  0  0  0
  9 42  1  0  0  0  0
 10 11  1  0  0  0  0
 10 12  1  0  0  0  0
 10 30  1  0  0  0  0
 11 31  1  0  0  0  0
 11 32  1  0  0  0  0
 11 33  1  0  0  0  0
 12 13  2  0  0  0  0
 12 14  1  0  0  0  0
 14 19  1  0  0  0  0
 14 15  1  0  0  0  0
 15 16  1  0  0  0  0
 15 34  1  0  0  0  0
 15 35  1  0  0  0  0
 16 17  1  0  0  0  0
 16 36  1  0  0  0  0
 16 37  1  0  0  0  0
 17 18  1  0  0  0  0
 18 19  1  0  0  0  0
 18 38  1  0  0  0  0
 18 39  1  0  0  0  0
 19 40  1  0  0  0  0
 19 41  1  0  0  0  0
M  CHG  1   9   1
M  END
> <s_m_source_file>
AV-unprocessed.smi

> <i_m_source_file_index>
3336

> <i_lp_mmshare_version>
43012

> <i_f3d_flags>
0

> <s_epik_input>
bjFbY0hdW2NIXVtjSF1uMVtDSDJdW0NAQEhdKFtDSDNdKVtOSF1bQ0BIXShbQ0gzXSlDKD1PKU4yW0NIMl1bQ0gyXU9bQ0gyXVtDSDJdMg==

> <s_epik_cmdline>
J2VwaWtfcHl0aG9uJywgJy1waCcsICc3LjAnLCAnLXRuJywgJzgnLCAnLW1hJywgJzIwMCcsICctbWV0YWxfYmluZGluZycsICctaW1hZScsICc8aW5maWxlLm1hZT4nLCAnLW9tYWUnLCAnPG91dGZpbGUubWFlPic=

> <r_lp_tautomer_probability>
1

> <r_epik_Ionization_Penalty>
0.200288

> <r_epik_Ionization_Penalty_Charging>
0.200285

> <r_epik_Ionization_Penalty_Neutral>
3.37705e-06

> <r_epik_State_Penalty>
0.190126

> <r_epik_Charging_Adjusted_Penalty>
0.39041

> <i_epik_Tot_Q>
1

> <i_epik_Tot_abs_Q>
1

> <r_epik_Metal_State_Penalty>
0.190133

> <b_epik_Metal_Only>
0

> <s_lp_Force_Field>
OPLS_2005

> <r_lp_Energy>
28.672

> <b_lp_Chiralities_Consistent>
1

> <s_lp_Variant>
AV-unprocessed.smi:3336-4

> <Gold.Version>
5.8.1

> <Gold.Id.Protein>
6NUR|6NUR_protein|mol2

> <Gold.PLP.Fitness>
47.1618

> <Gold.PLP.PLP>
-33.3247

> <Gold.PLP.part.hbond>
-3.0000

> <Gold.PLP.part.metal>
0.0000

> <Gold.PLP.part.buried>
-1.5638

> <Gold.PLP.part.nonpolar>
-30.3755

> <Gold.PLP.part.repulsive>
1.2686

> <Gold.PLP.ligand.clash>
0.0000

> <Gold.PLP.ligand.torsion>
0.4933

> <Gold.PLP.Chemscore.Hbond>
3.9120

> <Gold.PLP.Chemscore.CHOScore>
1.0000

> <Gold.PLP.Chemscore.Metal>
0.0000

> <Gold.Chemscore.Hbonds>
donor molecule, donor type, donor heavy atom, donor atom, acceptor molecule, acceptor atom, score
      L1  H     9    29       P1  7957  1.00
      L1  H     9    42       P1  7948  2.00
      P1  H  7954  7966       L1    13  0.91
      L1  C     5    26       P1  8028  0.98

> <Gold.PLP.Chemscore.Internal.Correction>
0.0876

> <Gold.Rescore>
     Score         DG    S(hbond)    S(metal)    S(lipo)     H(rot)  DE(clash)    DE(int)     intcor
     15.08     -18.18       2.89        0.00      66.53       1.85       0.49       2.60       ----

> <Gold.Chemscore.Fitness>
15.0825

> <Gold.Chemscore.DG>
-18.1758

> <Gold.Chemscore.ZeroCoef>
-5.4800

> <Gold.Chemscore.Hbond>
2.8919

> <Gold.Chemscore.Metal>
0.0000

> <Gold.Chemscore.Lipo>
66.5251

> <Gold.Chemscore.Internal_Hbond>
0.0000

> <Gold.Chemscore.DEClash>
0.4904

> <Gold.Chemscore.DEInternal>
2.6030

> <Gold.Chemscore.Rot>
1.8541

> <Gold.Chemscore.Internal.Correction>
   9.000000E+99

> <Gold.Chemscore.Hbonds>
donor molecule, donor type, donor heavy atom, donor atom, acceptor molecule, acceptor atom, score
      L1  H     9    29       P1  7957  0.99
      L1  H     9    42       P1  7948  0.99
      P1  H  7954  7966       L1    13  0.73

> <Gold.Chemscore.Hbond.Weighted>
-9.6589

> <Gold.Chemscore.Metal.Weighted>
-0.0000

> <Gold.Chemscore.Lipo.Weighted>
-7.7834

> <Gold.Chemscore.Internal_Hbond.Weighted>
0.0000

> <Gold.Chemscore.DEClash.Weighted>
0.4904

> <Gold.Chemscore.DEInternal.Weighted>
2.6030

> <Gold.Chemscore.Rot.Weighted>
4.7465

> <Gold.Chemscore.Internal.Correction.Weighted>
   9.000000E+99

> <Gold.Protein.RotatedTorsions>
[ 6907 6896 6895 6894 ] final   22.22 input  -60.11 | X-H torsion
[ 7974 7965 7964 7962 ] final -135.19 input  175.53 | X-H torsion
[ 8008 7997 7996 7995 ] final   74.23 input   59.86 | X-H torsion
[ 10167 10162 10161 10158 ] final   60.00 input  -65.29 | X-H torsion
[ 10718 10713 10712 10709 ] final  -66.83 input   66.30 | X-H torsion
[ 10763 10752 10751 10750 ] final  178.60 input  -60.55 | X-H torsion
[ 11005 11000 10999 10996 ] final    5.59 input  -57.11 | X-H torsion

> <Gold.Protein.ActiveResidues>
 VAL166  LYS551  ARG553  GLY616  TRP617  ASP618  TYR619  PRO620  LYS621  CYS622 
 ASP623  PHE694  ASN695  SER759  ASP760  ASP761  ALA762  ILE779  LEU786  VAL792 
 PHE793  MET794  SER795  GLU796  ALA797  LYS798  CYS799  TRP800  GLU811  SER814 

> <Gold.Protein.RotatedAtoms>
  151.9237  135.0287  160.0523 H   0  0  0  0  0  0  0  0  0  0  0  0  # atno 6907 bound_to 6896
  152.2177  133.4955  159.5153 H   0  0  0  0  0  0  0  0  0  0  0  0  # atno 6908 bound_to 6896
  150.6992  134.1300  159.4109 H   0  0  0  0  0  0  0  0  0  0  0  0  # atno 6909 bound_to 6896
  144.9035  140.6803  143.5070 H   0  0  0  0  0  0  0  0  0  0  0  0  # atno 7974 bound_to 7965
  155.7953  140.3478  155.5372 H   0  0  0  0  0  0  0  0  0  0  0  0  # atno 8008 bound_to 7997
  155.8592  140.0968  157.1644 H   0  0  0  0  0  0  0  0  0  0  0  0  # atno 8009 bound_to 7997
  154.4011  140.1361  156.3928 H   0  0  0  0  0  0  0  0  0  0  0  0  # atno 8010 bound_to 7997
  140.1703  144.4283  150.6664 H   0  0  0  0  0  0  0  0  0  0  0  0  # atno 10167 bound_to 10162
  156.0590  130.4268  150.1766 H   0  0  0  0  0  0  0  0  0  0  0  0  # atno 10718 bound_to 10713
  154.5098  135.2788  155.1352 H   0  0  0  0  0  0  0  0  0  0  0  0  # atno 10763 bound_to 10752
  154.2952  135.6259  153.5405 H   0  0  0  0  0  0  0  0  0  0  0  0  # atno 10764 bound_to 10752
  152.9916  135.5683  154.5560 H   0  0  0  0  0  0  0  0  0  0  0  0  # atno 10765 bound_to 10752
  140.5690  134.0120  155.8001 H   0  0  0  0  0  0  0  0  0  0  0  0  # atno 11005 bound_to 11000
  145.3575  139.1690  143.4401 LP  0  0  0  0  0  0  0  0  0  0  0  0  # atno 17320 bound_to 7965
  146.3121  140.3634  142.8667 LP  0  0  0  0  0  0  0  0  0  0  0  0  # atno 17321 bound_to 7965
  140.6586  143.2245  151.5909 LP  0  0  0  0  0  0  0  0  0  0  0  0  # atno 17342 bound_to 10162
  139.5341  144.2832  152.1212 LP  0  0  0  0  0  0  0  0  0  0  0  0  # atno 17343 bound_to 10162
  156.9838  130.9872  151.3431 LP  0  0  0  0  0  0  0  0  0  0  0  0  # atno 17370 bound_to 10713
  157.5584  130.8229  149.8234 LP  0  0  0  0  0  0  0  0  0  0  0  0  # atno 17371 bound_to 10713
  141.1068  133.9681  157.2982 LP  0  0  0  0  0  0  0  0  0  0  0  0  # atno 17394 bound_to 11000
  139.9371  135.0195  156.8590 LP  0  0  0  0  0  0  0  0  0  0  0  0  # atno 17395 bound_to 11000

$$$$
