#       Name:                AV-unprocessed.smi:212
#       Creating user name   scv26
#       Creation time:       Thu Mar 26 19:58:28 2020


#       File generated by GOLD software.
#

@<TRIPOS>MOLECULE
AV-unprocessed.smi:212
    74    77     1
SMALL
NO_CHARGES


@<TRIPOS>ATOM
      1 ****        -3.7307  -0.1943   0.6643 C.3            1 S1                 0.0000
      2 ****        -2.2578  -0.0169   1.0708 C.3            1 S1                 0.0000
      3 ****        -2.0988   0.2516   2.5818 C.3            1 S1                 0.0000
      4 ****        -2.5543   1.6196   2.9453 N.4            1 S1                 1.0000
      5 ****        -2.5406   1.8749   4.4098 C.3            1 S1                 0.0000
      6 ****        -3.9484   1.7737   5.0428 C.3            1 S1                 0.0000
      7 ****        -3.8691   2.0369   6.5560 C.3            1 S1                 0.0000
      8 ****        -4.9535   2.7382   4.3866 C.3            1 S1                 0.0000
      9 ****        -4.4335   0.4548   4.8881 O.3            1 S1                 0.0000
     10 ****        -1.8558   2.6680   2.1601 C.3            1 S1                 0.0000
     11 ****        -1.9989   2.4124   0.6483 C.3            1 S1                 0.0000
     12 ****        -1.6072   1.0455   0.2992 N.pl3          1 S1                 0.0000
     13 ****        -0.3213   0.8086  -0.0732 C.ar           1 S1                 0.0000
     14 ****         0.6671   1.6553   0.3212 N.ar           1 S1                 0.0000
     15 ****         1.9359   1.4243  -0.0285 C.ar           1 S1                 0.0000
     16 ****         2.4309   0.4235  -0.7583 N.ar           1 S1                 0.0000
     17 ****         1.4445  -0.4253  -1.1652 C.ar           1 S1                 0.0000
     18 ****         0.0563  -0.3080  -0.8721 C.ar           1 S1                 0.0000
     19 ****        -0.6424  -1.3515  -1.4688 N.2            1 S1                 0.0000
     20 ****         0.2800  -2.0480  -2.0754 C.2            1 S1                 0.0000
     21 ****         1.5607  -1.5612  -1.9466 N.pl3          1 S1                 0.0000
     22 ****         2.7664  -2.1331  -2.5185 C.3            1 S1                 0.0000
     23 ****         2.9390  -1.8381  -4.0345 C.3            1 S1                 0.0000
     24 ****         2.8515  -0.3324  -4.3867 C.3            1 S1                 0.0000
     25 ****         1.5162   0.1283  -4.4224 O.3            1 S1                 0.0000
     26 ****         4.2330  -2.4491  -4.6355 C.3            1 S1                 0.0000
     27 ****         5.5606  -1.8966  -4.1196 C.3            1 S1                 0.0000
     28 ****         6.4990  -3.1084  -4.1359 C.3            1 S1                 0.0000
     29 ****         5.7807  -4.1347  -4.8076 O.3            1 S1                 0.0000
     30 ****         4.4095  -3.9619  -4.4938 C.3            1 S1                 0.0000
     31 ****        -4.1836  -1.0286   1.2002 H              1 S1                 0.0000
     32 ****        -3.8161  -0.4057  -0.4020 H              1 S1                 0.0000
     33 ****        -4.3263   0.6935   0.8770 H              1 S1                 0.0000
     34 ****        -1.7685  -0.9699   0.8722 H              1 S1                 0.0000
     35 ****        -2.6488  -0.4977   3.1512 H              1 S1                 0.0000
     36 ****        -1.0493   0.1446   2.8615 H              1 S1                 0.0000
     37 ****        -1.8445   1.1946   4.9038 H              1 S1                 0.0000
     38 ****        -2.1515   2.8760   4.6041 H              1 S1                 0.0000
     39 ****        -3.5042   3.0436   6.7632 H              1 S1                 0.0000
     40 ****        -3.1937   1.3358   7.0481 H              1 S1                 0.0000
     41 ****        -4.8464   1.9390   7.0306 H              1 S1                 0.0000
     42 ****        -4.6173   3.7720   4.4701 H              1 S1                 0.0000
     43 ****        -5.9334   2.6731   4.8612 H              1 S1                 0.0000
     44 ****        -5.0932   2.5214   3.3269 H              1 S1                 0.0000
     45 ****        -5.2742   0.3903   5.3158 H              1 S1                 0.0000
     46 ****        -2.2707   3.6475   2.4008 H              1 S1                 0.0000
     47 ****        -0.8032   2.6895   2.4455 H              1 S1                 0.0000
     48 ****        -3.0368   2.5589   0.3492 H              1 S1                 0.0000
     49 ****        -1.4232   3.1438   0.0796 H              1 S1                 0.0000
     50 ****         2.6582   2.1441   0.3278 H              1 S1                 0.0000
     51 ****         0.0507  -2.9380  -2.6435 H              1 S1                 0.0000
     52 ****         3.6176  -1.7610  -1.9496 H              1 S1                 0.0000
     53 ****         2.7245  -3.2061  -2.3373 H              1 S1                 0.0000
     54 ****         2.1150  -2.3335  -4.5510 H              1 S1                 0.0000
     55 ****         3.4280   0.2667  -3.6812 H              1 S1                 0.0000
     56 ****         3.2723  -0.1449  -5.3750 H              1 S1                 0.0000
     57 ****         1.5209   1.0447  -4.6537 H              1 S1                 0.0000
     58 ****         4.2139  -2.2582  -5.7101 H              1 S1                 0.0000
     59 ****         5.9240  -1.0999  -4.7696 H              1 S1                 0.0000
     60 ****         5.4932  -1.4885  -3.1121 H              1 S1                 0.0000
     61 ****         7.4442  -2.8995  -4.6372 H              1 S1                 0.0000
     62 ****         6.7189  -3.4338  -3.1181 H              1 S1                 0.0000
     63 ****         4.2379  -4.3158  -3.4776 H              1 S1                 0.0000
     64 ****         3.7680  -4.5266  -5.1706 H              1 S1                 0.0000
     65 ****        -3.5242   1.6737   2.6690 H              1 S1                 0.0000
     66 ****        -3.7932  -0.1906   5.3046 LP             1 S1                 0.0000
     67 ****        -4.5333   0.2445   3.9156 LP             1 S1                 0.0000
     68 ****         0.4429   2.4561   0.8766 LP             1 S1                 0.0000
     69 ****         3.3998   0.3104  -0.9785 LP             1 S1                 0.0000
     70 ****        -1.6262  -1.5280  -1.4399 LP             1 S1                 0.0000
     71 ****         1.0944   0.0095  -3.5236 LP             1 S1                 0.0000
     72 ****         0.9991  -0.3890  -5.1043 LP             1 S1                 0.0000
     73 ****         6.0931  -5.0319  -4.4955 LP             1 S1                 0.0000
     74 ****         5.9183  -4.0589  -5.7952 LP             1 S1                 0.0000
@<TRIPOS>BOND
    1    1    2 1     
    2    1   31 1     
    3    1   32 1     
    4    1   33 1     
    5    2   12 1     
    6    2    3 1     
    7    2   34 1     
    8    3    4 1     
    9    3   35 1     
   10    3   36 1     
   11    4    5 1     
   12    4   10 1     
   13    4   65 1     
   14    5    6 1     
   15    5   37 1     
   16    5   38 1     
   17    6    7 1     
   18    6    8 1     
   19    6    9 1     
   20    7   39 1     
   21    7   40 1     
   22    7   41 1     
   23    8   42 1     
   24    8   43 1     
   25    8   44 1     
   26    9   45 1     
   27   10   11 1     
   28   10   46 1     
   29   10   47 1     
   30   11   12 1     
   31   11   48 1     
   32   11   49 1     
   33   12   13 1     
   34   13   18 ar    
   35   13   14 ar    
   36   14   15 ar    
   37   15   16 ar    
   38   15   50 1     
   39   16   17 ar    
   40   17   21 1     
   41   17   18 ar    
   42   18   19 1     
   43   19   20 2     
   44   20   21 1     
   45   20   51 1     
   46   21   22 1     
   47   22   23 1     
   48   22   52 1     
   49   22   53 1     
   50   23   24 1     
   51   23   26 1     
   52   23   54 1     
   53   24   25 1     
   54   24   55 1     
   55   24   56 1     
   56   25   57 1     
   57   26   30 1     
   58   26   27 1     
   59   26   58 1     
   60   27   28 1     
   61   27   59 1     
   62   27   60 1     
   63   28   29 1     
   64   28   61 1     
   65   28   62 1     
   66   29   30 1     
   67   30   63 1     
   68   30   64 1     
   69    9   66 1     
   70    9   67 1     
   71   14   68 1     
   72   16   69 1     
   73   19   70 1     
   74   25   71 1     
   75   25   72 1     
   76   29   73 1     
   77   29   74 1     
@<TRIPOS>SUBSTRUCTURE
      1 S1             1
@<TRIPOS>SET
LONE_PAIRS      STATIC     ATOMS    <user>   **** ""
9 66 67 68 69 70 71 72 73 74
DONOR_HYDROGENS      STATIC     ATOMS    <user>   **** ""
3 65 45 57
ATOM$BLUE        STATIC     ATOMS    COLORGROUP SYSTEM
9 66 67 68 69 70 71 72 73 74
ATOM$RED        STATIC     ATOMS    COLORGROUP SYSTEM
3 65 45 57
