AV-unprocessed.smi:2353|AV-procd|sdf|9381|dock5
  -GOLD-   2272013 13D 1   1.00000     0.00000
 Structure written by MMmdl.
 45 47  0  0  0  0  0  0  0  0  1 V2000
  154.2164  139.6645  160.1137 C   0  0  0  0  0  0  0  0  0  0  0  0
  153.3355  140.7509  159.5314 C   0  0  0  0  0  0  0  0  0  0  0  0
  153.2132  141.9927  160.1837 C   0  0  0  0  0  0  0  0  0  0  0  0
  152.3914  142.9946  159.6375 C   0  0  0  0  0  0  0  0  0  0  0  0
  151.6875  142.7621  158.4378 C   0  0  0  0  0  0  0  0  0  0  0  0
  150.8074  143.8558  157.8626 C   0  0  0  0  0  0  0  0  0  0  0  0
  151.8012  141.5196  157.7718 C   0  0  0  0  0  0  0  0  0  0  0  0
  151.0875  141.3588  156.6018 O   0  0  0  0  0  0  0  0  0  0  0  0
  151.3431  140.2132  155.8001 C   0  0  0  0  0  0  0  0  0  0  0  0
  150.1275  139.9666  154.8899 C   0  0  1  0  0  0  0  0  0  0  0  0
  150.0879  141.0327  153.9614 O   0  0  0  0  0  0  0  0  0  0  0  0
  150.2553  138.6444  154.1008 C   0  0  0  0  0  0  0  0  0  0  0  0
  150.6794  137.5323  154.9605 N   0  0  0  0  0  0  0  0  0  0  0  0
  149.8670  137.3293  156.0637 N   0  0  0  0  0  0  0  0  0  0  0  0
  150.1150  136.3735  156.9002 C   0  0  0  0  0  0  0  0  0  0  0  0
  149.3082  136.1045  158.0736 N   0  0  0  0  0  0  0  0  0  0  0  0
  149.8667  135.4189  159.1505 C   0  0  0  0  0  0  0  0  0  0  0  0
  148.8677  135.3194  160.0936 C   0  0  0  0  0  0  0  0  0  0  0  0
  147.7055  135.9294  159.6222 N   0  0  0  0  0  0  0  0  0  0  0  0
  148.0403  136.3737  158.4173 C   0  0  0  0  0  0  0  0  0  0  0  0
  151.2559  135.4992  156.6879 C   0  0  0  0  0  0  0  0  0  0  0  0
  152.0417  135.7045  155.6091 C   0  0  0  0  0  0  0  0  0  0  0  0
  151.7753  136.7774  154.6521 C   0  0  0  0  0  0  0  0  0  0  0  0
  152.4710  136.9784  153.6574 O   0  0  0  0  0  0  0  0  0  0  0  0
  152.6318  140.5159  158.3329 C   0  0  0  0  0  0  0  0  0  0  0  0
  154.8654  140.0574  160.8970 H   0  0  0  0  0  0  0  0  0  0  0  0
  154.8478  139.2294  159.3386 H   0  0  0  0  0  0  0  0  0  0  0  0
  153.6023  138.8723  160.5423 H   0  0  0  0  0  0  0  0  0  0  0  0
  153.7469  142.1821  161.1035 H   0  0  0  0  0  0  0  0  0  0  0  0
  152.3045  143.9446  160.1441 H   0  0  0  0  0  0  0  0  0  0  0  0
  151.2043  144.1932  156.9050 H   0  0  0  0  0  0  0  0  0  0  0  0
  150.7518  144.7166  158.5297 H   0  0  0  0  0  0  0  0  0  0  0  0
  149.7943  143.4852  157.7044 H   0  0  0  0  0  0  0  0  0  0  0  0
  152.2539  140.3259  155.2088 H   0  0  0  0  0  0  0  0  0  0  0  0
  151.4809  139.3598  156.4661 H   0  0  0  0  0  0  0  0  0  0  0  0
  149.2172  139.9583  155.4917 H   0  0  0  0  0  0  0  0  0  0  0  0
  149.6814  140.7238  153.1658 H   0  0  0  0  0  0  0  0  0  0  0  0
  149.3344  138.4172  153.5597 H   0  0  0  0  0  0  0  0  0  0  0  0
  151.0105  138.7603  153.3213 H   0  0  0  0  0  0  0  0  0  0  0  0
  150.8871  135.0636  159.1745 H   0  0  0  0  0  0  0  0  0  0  0  0
  148.8952  134.8579  161.0698 H   0  0  0  0  0  0  0  0  0  0  0  0
  147.3435  136.9017  157.7833 H   0  0  0  0  0  0  0  0  0  0  0  0
  151.4795  134.6977  157.3750 H   0  0  0  0  0  0  0  0  0  0  0  0
  152.8912  135.0577  155.4457 H   0  0  0  0  0  0  0  0  0  0  0  0
  152.7455  139.5525  157.8598 H   0  0  0  0  0  0  0  0  0  0  0  0
  1  2  1  0  0  0  0
  1 26  1  0  0  0  0
  1 27  1  0  0  0  0
  1 28  1  0  0  0  0
  2 25  1  0  0  0  0
  2  3  2  0  0  0  0
  3  4  1  0  0  0  0
  3 29  1  0  0  0  0
  4  5  2  0  0  0  0
  4 30  1  0  0  0  0
  5  6  1  0  0  0  0
  5  7  1  0  0  0  0
  6 31  1  0  0  0  0
  6 32  1  0  0  0  0
  6 33  1  0  0  0  0
  7  8  1  0  0  0  0
  7 25  2  0  0  0  0
  8  9  1  0  0  0  0
  9 10  1  0  0  0  0
  9 34  1  0  0  0  0
  9 35  1  0  0  0  0
 10 11  1  0  0  0  0
 10 12  1  0  0  0  0
 10 36  1  0  0  0  0
 11 37  1  0  0  0  0
 12 13  1  0  0  0  0
 12 38  1  0  0  0  0
 12 39  1  0  0  0  0
 13 23  1  0  0  0  0
 13 14  1  0  0  0  0
 14 15  2  0  0  0  0
 15 16  1  0  0  0  0
 15 21  1  0  0  0  0
 16 20  1  0  0  0  0
 16 17  1  0  0  0  0
 17 18  2  0  0  0  0
 17 40  1  0  0  0  0
 18 19  1  0  0  0  0
 18 41  1  0  0  0  0
 19 20  2  0  0  0  0
 20 42  1  0  0  0  0
 21 22  2  0  0  0  0
 21 43  1  0  0  0  0
 22 23  1  0  0  0  0
 22 44  1  0  0  0  0
 23 24  2  0  0  0  0
 25 45  1  0  0  0  0
M  END
> <s_m_source_file>
AV-unprocessed.smi

> <i_m_source_file_index>
2353

> <i_lp_mmshare_version>
43012

> <i_f3d_flags>
0

> <s_epik_input>
W0NIM11jMVtjSF1bY0hdYyhbQ0gzXSljKFtjSF0xKU9bQ0gyXVtDQEhdKFtPSF0pW0NIMl1uMm5jKFtjSF1bY0hdYzI9TyktbjNbY0hdW2NIXW5bY0hdMw==

> <s_epik_cmdline>
J2VwaWtfcHl0aG9uJywgJy1waCcsICc3LjAnLCAnLXRuJywgJzgnLCAnLW1hJywgJzIwMCcsICctbWV0YWxfYmluZGluZycsICctaW1hZScsICc8aW5maWxlLm1hZT4nLCAnLW9tYWUnLCAnPG91dGZpbGUubWFlPic=

> <r_lp_tautomer_probability>
1

> <r_epik_Ionization_Penalty>
0.03707

> <r_epik_Ionization_Penalty_Charging>
0.0370699

> <r_epik_Ionization_Penalty_Neutral>
1.17174e-07

> <r_epik_State_Penalty>
0.0310055

> <r_epik_Charging_Adjusted_Penalty>
0.0680754

> <i_epik_Tot_Q>
0

> <i_epik_Tot_abs_Q>
0

> <r_epik_Metal_State_Penalty>
0.0291724

> <b_epik_Metal_Only>
0

> <s_lp_Force_Field>
OPLS_2005

> <r_lp_Energy>
35.5456

> <b_lp_Chiralities_Consistent>
1

> <s_lp_Variant>
AV-unprocessed.smi:2353-2

> <Gold.Version>
5.8.1

> <Gold.Id.Protein>
6NUR|6NUR_protein|mol2

> <Gold.PLP.Fitness>
48.3888

> <Gold.PLP.PLP>
-39.8010

> <Gold.PLP.part.hbond>
-4.1485

> <Gold.PLP.part.metal>
0.0000

> <Gold.PLP.part.buried>
-0.3875

> <Gold.PLP.part.nonpolar>
-35.9983

> <Gold.PLP.part.repulsive>
1.3441

> <Gold.PLP.ligand.clash>
0.0000

> <Gold.PLP.ligand.torsion>
0.5877

> <Gold.PLP.Chemscore.Hbond>
3.2095

> <Gold.PLP.Chemscore.CHOScore>
0.0000

> <Gold.PLP.Chemscore.Metal>
0.0000

> <Gold.Chemscore.Hbonds>
donor molecule, donor type, donor heavy atom, donor atom, acceptor molecule, acceptor atom, score
      L1  H    11    37       P1  7957  0.80
      P1  H  7989  7998       L1    11  0.32
      P1  H 10752 10764       L1    24  0.07

> <Gold.PLP.Chemscore.Internal.Correction>
0.1347

> <Gold.Rescore>
     Score         DG    S(hbond)    S(metal)    S(lipo)     H(rot)  DE(clash)    DE(int)     intcor
     17.72     -18.67       2.14        0.00     108.51       2.60       0.14       0.81       ----

> <Gold.Chemscore.Fitness>
17.7215

> <Gold.Chemscore.DG>
-18.6748

> <Gold.Chemscore.ZeroCoef>
-5.4800

> <Gold.Chemscore.Hbond>
2.1411

> <Gold.Chemscore.Metal>
0.0000

> <Gold.Chemscore.Lipo>
108.5136

> <Gold.Chemscore.Internal_Hbond>
0.0000

> <Gold.Chemscore.DEClash>
0.1424

> <Gold.Chemscore.DEInternal>
0.8110

> <Gold.Chemscore.Rot>
2.5986

> <Gold.Chemscore.Internal.Correction>
   9.000000E+99

> <Gold.Chemscore.Hbonds>
donor molecule, donor type, donor heavy atom, donor atom, acceptor molecule, acceptor atom, score
      L1  H    11    37       P1  7957  0.77
      P1  H  7989  7998       L1    11  0.01

> <Gold.Chemscore.Hbond.Weighted>
-7.1511

> <Gold.Chemscore.Metal.Weighted>
-0.0000

> <Gold.Chemscore.Lipo.Weighted>
-12.6961

> <Gold.Chemscore.Internal_Hbond.Weighted>
0.0000

> <Gold.Chemscore.DEClash.Weighted>
0.1424

> <Gold.Chemscore.DEInternal.Weighted>
0.8110

> <Gold.Chemscore.Rot.Weighted>
6.6524

> <Gold.Chemscore.Internal.Correction.Weighted>
   9.000000E+99

> <Gold.Protein.RotatedTorsions>
[ 6907 6896 6895 6894 ] final   69.39 input  -60.11 | X-H torsion
[ 7974 7965 7964 7962 ] final   62.86 input  175.53 | X-H torsion
[ 8008 7997 7996 7995 ] final  130.62 input   59.86 | X-H torsion
[ 10167 10162 10161 10158 ] final  105.09 input  -65.29 | X-H torsion
[ 10718 10713 10712 10709 ] final  -14.71 input   66.30 | X-H torsion
[ 10763 10752 10751 10750 ] final  -92.26 input  -60.55 | X-H torsion
[ 11005 11000 10999 10996 ] final  -52.01 input  -57.11 | X-H torsion

> <Gold.Protein.ActiveResidues>
 VAL166  LYS551  ARG553  GLY616  TRP617  ASP618  TYR619  PRO620  LYS621  CYS622 
 ASP623  PHE694  ASN695  SER759  ASP760  ASP761  ALA762  ILE779  LEU786  VAL792 
 PHE793  MET794  SER795  GLU796  ALA797  LYS798  CYS799  TRP800  GLU811  SER814 

> <Gold.Protein.RotatedAtoms>
  152.4683  134.5022  159.9728 H   0  0  0  0  0  0  0  0  0  0  0  0  # atno 6907 bound_to 6896
  151.5055  133.3489  159.2884 H   0  0  0  0  0  0  0  0  0  0  0  0  # atno 6908 bound_to 6896
  150.8679  134.8074  159.7194 H   0  0  0  0  0  0  0  0  0  0  0  0  # atno 6909 bound_to 6896
  145.8685  139.3362  143.0777 H   0  0  0  0  0  0  0  0  0  0  0  0  # atno 7974 bound_to 7965
  156.2957  140.2591  156.2792 H   0  0  0  0  0  0  0  0  0  0  0  0  # atno 8008 bound_to 7997
  154.9618  140.0392  157.2212 H   0  0  0  0  0  0  0  0  0  0  0  0  # atno 8009 bound_to 7997
  154.7939  140.2816  155.5975 H   0  0  0  0  0  0  0  0  0  0  0  0  # atno 8010 bound_to 7997
  139.7122  144.7075  151.1008 H   0  0  0  0  0  0  0  0  0  0  0  0  # atno 10167 bound_to 10162
  156.6121  130.4852  149.6197 H   0  0  0  0  0  0  0  0  0  0  0  0  # atno 10718 bound_to 10713
  154.6844  135.5237  153.8306 H   0  0  0  0  0  0  0  0  0  0  0  0  # atno 10763 bound_to 10752
  153.0587  135.6560  154.0525 H   0  0  0  0  0  0  0  0  0  0  0  0  # atno 10764 bound_to 10752
  154.0408  135.2977  155.3335 H   0  0  0  0  0  0  0  0  0  0  0  0  # atno 10765 bound_to 10752
  141.0901  133.6634  156.3961 H   0  0  0  0  0  0  0  0  0  0  0  0  # atno 11005 bound_to 11000
  145.9165  140.9144  143.0427 LP  0  0  0  0  0  0  0  0  0  0  0  0  # atno 17320 bound_to 7965
  144.6726  140.1231  143.7448 LP  0  0  0  0  0  0  0  0  0  0  0  0  # atno 17321 bound_to 7965
  140.7736  143.5277  150.9460 LP  0  0  0  0  0  0  0  0  0  0  0  0  # atno 17342 bound_to 10162
  139.8962  143.6891  152.3138 LP  0  0  0  0  0  0  0  0  0  0  0  0  # atno 17343 bound_to 10162
  156.2381  130.6835  151.1529 LP  0  0  0  0  0  0  0  0  0  0  0  0  # atno 17370 bound_to 10713
  157.7251  131.0655  150.5966 LP  0  0  0  0  0  0  0  0  0  0  0  0  # atno 17371 bound_to 10713
  140.5271  134.6248  157.5337 LP  0  0  0  0  0  0  0  0  0  0  0  0  # atno 17394 bound_to 11000
  139.9726  134.7268  156.0012 LP  0  0  0  0  0  0  0  0  0  0  0  0  # atno 17395 bound_to 11000

$$$$
