AV-unprocessed.smi:3241|AV-procd|sdf|12387|dock8
  -GOLD-   2272018253D 1   1.00000     0.00000
 Structure written by MMmdl.
 44 45  0  0  0  0  0  0  0  0  2 V2000
  153.7175  141.1627  159.3131 C   0  0  0  0  0  0  0  0  0  0  0  0
  153.3734  142.6023  159.7275 C   0  0  2  0  0  0  0  0  0  0  0  0
  152.7409  142.6603  161.1324 C   0  0  0  0  0  0  0  0  0  0  0  0
  152.4291  144.1065  161.5495 C   0  0  0  0  0  0  0  0  0  0  0  0
  151.5339  144.8057  160.5150 C   0  0  0  0  0  0  0  0  0  0  0  0
  152.1576  144.7522  159.1104 C   0  0  0  0  0  0  0  0  0  0  0  0
  152.4789  143.3054  158.6827 C   0  0  2  0  0  0  0  0  0  0  0  0
  151.2726  142.5625  158.5491 O   0  0  0  0  0  0  0  0  0  0  0  0
  151.2539  141.6635  157.4516 C   0  0  0  0  0  0  0  0  0  0  0  0
  149.8226  141.1484  157.2734 C   0  0  0  0  0  0  0  0  0  0  0  0
  149.0808  141.9892  156.3142 N   0  3  0  0  0  0  0  0  0  0  0  0
  149.4538  141.7776  154.9015 C   0  0  0  0  0  0  0  0  0  0  0  0
  148.2320  141.4145  154.0419 C   0  0  0  0  0  0  0  0  0  0  0  0
  147.0049  142.0065  154.5445 N   0  0  0  0  0  0  0  0  0  0  0  0
  146.1747  142.9168  153.9251 C   0  0  0  0  0  0  0  0  0  0  0  0
  145.1448  143.1759  154.7834 C   0  0  0  0  0  0  0  0  0  0  0  0
  145.4366  142.3674  155.9173 C   0  0  0  0  0  0  0  0  0  0  0  0
  146.5490  141.6659  155.7698 N   0  0  0  0  0  0  0  0  0  0  0  0
  152.8268  140.5353  159.2646 H   0  0  0  0  0  0  0  0  0  0  0  0
  154.4060  140.7048  160.0238 H   0  0  0  0  0  0  0  0  0  0  0  0
  154.1938  141.1400  158.3327 H   0  0  0  0  0  0  0  0  0  0  0  0
  154.3148  143.1520  159.7721 H   0  0  0  0  0  0  0  0  0  0  0  0
  151.8244  142.0689  161.1524 H   0  0  0  0  0  0  0  0  0  0  0  0
  153.4133  142.2085  161.8625 H   0  0  0  0  0  0  0  0  0  0  0  0
  151.9452  144.1151  162.5264 H   0  0  0  0  0  0  0  0  0  0  0  0
  153.3605  144.6626  161.6612 H   0  0  0  0  0  0  0  0  0  0  0  0
  150.5525  144.3297  160.4998 H   0  0  0  0  0  0  0  0  0  0  0  0
  151.3683  145.8426  160.8088 H   0  0  0  0  0  0  0  0  0  0  0  0
  151.4927  145.2284  158.3902 H   0  0  0  0  0  0  0  0  0  0  0  0
  153.0768  145.3394  159.1059 H   0  0  0  0  0  0  0  0  0  0  0  0
  153.0165  143.3215  157.7326 H   0  0  0  0  0  0  0  0  0  0  0  0
  151.5827  142.1673  156.5422 H   0  0  0  0  0  0  0  0  0  0  0  0
  151.9335  140.8288  157.6306 H   0  0  0  0  0  0  0  0  0  0  0  0
  149.8336  140.1151  156.9239 H   0  0  0  0  0  0  0  0  0  0  0  0
  149.3073  141.1603  158.2346 H   0  0  0  0  0  0  0  0  0  0  0  0
  148.0928  141.8030  156.4132 H   0  0  0  0  0  0  0  0  0  0  0  0
  149.9088  142.6904  154.5151 H   0  0  0  0  0  0  0  0  0  0  0  0
  150.2079  140.9921  154.8378 H   0  0  0  0  0  0  0  0  0  0  0  0
  148.3827  141.7283  153.0077 H   0  0  0  0  0  0  0  0  0  0  0  0
  148.1034  140.3317  154.0220 H   0  0  0  0  0  0  0  0  0  0  0  0
  146.3825  143.3001  152.9369 H   0  0  0  0  0  0  0  0  0  0  0  0
  144.3100  143.8431  154.6266 H   0  0  0  0  0  0  0  0  0  0  0  0
  144.8768  142.2688  156.8357 H   0  0  0  0  0  0  0  0  0  0  0  0
  149.2468  142.9577  156.5492 H   0  0  0  0  0  0  0  0  0  0  0  0
  1  2  1  0  0  0  0
  1 19  1  0  0  0  0
  1 20  1  0  0  0  0
  1 21  1  0  0  0  0
  2  7  1  0  0  0  0
  2  3  1  0  0  0  0
  2 22  1  0  0  0  0
  3  4  1  0  0  0  0
  3 23  1  0  0  0  0
  3 24  1  0  0  0  0
  4  5  1  0  0  0  0
  4 25  1  0  0  0  0
  4 26  1  0  0  0  0
  5  6  1  0  0  0  0
  5 27  1  0  0  0  0
  5 28  1  0  0  0  0
  6  7  1  0  0  0  0
  6 29  1  0  0  0  0
  6 30  1  0  0  0  0
  7  8  1  0  0  0  0
  7 31  1  0  0  0  0
  8  9  1  0  0  0  0
  9 10  1  0  0  0  0
  9 32  1  0  0  0  0
  9 33  1  0  0  0  0
 10 11  1  0  0  0  0
 10 34  1  0  0  0  0
 10 35  1  0  0  0  0
 11 12  1  0  0  0  0
 11 36  1  0  0  0  0
 11 44  1  0  0  0  0
 12 13  1  0  0  0  0
 12 37  1  0  0  0  0
 12 38  1  0  0  0  0
 13 14  1  0  0  0  0
 13 39  1  0  0  0  0
 13 40  1  0  0  0  0
 14 18  1  0  0  0  0
 14 15  1  0  0  0  0
 15 16  2  0  0  0  0
 15 41  1  0  0  0  0
 16 17  1  0  0  0  0
 16 42  1  0  0  0  0
 17 18  2  0  0  0  0
 17 43  1  0  0  0  0
M  CHG  1  11   1
M  END
> <s_m_source_file>
AV-unprocessed.smi

> <i_m_source_file_index>
3241

> <i_lp_mmshare_version>
43012

> <i_f3d_flags>
0

> <s_epik_input>
W0NIM11bQ0BASF0xW0NIMl1bQ0gyXVtDSDJdW0NIMl1bQ0BIXTFPW0NIMl1bQ0gyXVtOSF1bQ0gyXVtDSDJdbjJbY0hdW2NIXVtjSF1uMg==

> <s_epik_cmdline>
J2VwaWtfcHl0aG9uJywgJy1waCcsICc3LjAnLCAnLXRuJywgJzgnLCAnLW1hJywgJzIwMCcsICctbWV0YWxfYmluZGluZycsICctaW1hZScsICc8aW5maWxlLm1hZT4nLCAnLW9tYWUnLCAnPG91dGZpbGUubWFlPic=

> <r_lp_tautomer_probability>
1

> <r_epik_Ionization_Penalty>
0.00924946

> <r_epik_Ionization_Penalty_Charging>
0.00924645

> <r_epik_Ionization_Penalty_Neutral>
3.00629e-06

> <r_epik_State_Penalty>
0.0070118

> <r_epik_Charging_Adjusted_Penalty>
0.0162583

> <i_epik_Tot_Q>
1

> <i_epik_Tot_abs_Q>
1

> <r_epik_Metal_State_Penalty>
0.00702523

> <b_epik_Metal_Only>
0

> <s_lp_Force_Field>
OPLS_2005

> <r_lp_Energy>
14.6648

> <b_lp_Chiralities_Consistent>
1

> <s_lp_Variant>
AV-unprocessed.smi:3241-3

> <Gold.Version>
5.8.1

> <Gold.Id.Protein>
6NUR|6NUR_protein|mol2

> <Gold.PLP.Fitness>
50.4280

> <Gold.PLP.PLP>
-48.6381

> <Gold.PLP.part.hbond>
-1.0000

> <Gold.PLP.part.metal>
0.0000

> <Gold.PLP.part.buried>
-6.2898

> <Gold.PLP.part.nonpolar>
-42.1691

> <Gold.PLP.part.repulsive>
0.2025

> <Gold.PLP.ligand.clash>
0.0000

> <Gold.PLP.ligand.torsion>
1.3872

> <Gold.PLP.Chemscore.Hbond>
1.5040

> <Gold.PLP.Chemscore.CHOScore>
0.0000

> <Gold.PLP.Chemscore.Metal>
0.0000

> <Gold.Chemscore.Hbonds>
donor molecule, donor type, donor heavy atom, donor atom, acceptor molecule, acceptor atom, score
      L1  H    11    44       P1  8028  1.41

> <Gold.PLP.Chemscore.Internal.Correction>
0.0523

> <Gold.Rescore>
     Score         DG    S(hbond)    S(metal)    S(lipo)     H(rot)  DE(clash)    DE(int)     intcor
     14.39     -17.70       0.71        0.00     125.67       1.89       0.44       2.87       ----

> <Gold.Chemscore.Fitness>
14.3907

> <Gold.Chemscore.DG>
-17.7024

> <Gold.Chemscore.ZeroCoef>
-5.4800

> <Gold.Chemscore.Hbond>
0.7064

> <Gold.Chemscore.Metal>
0.0000

> <Gold.Chemscore.Lipo>
125.6688

> <Gold.Chemscore.Internal_Hbond>
0.0000

> <Gold.Chemscore.DEClash>
0.4444

> <Gold.Chemscore.DEInternal>
2.8673

> <Gold.Chemscore.Rot>
1.8906

> <Gold.Chemscore.Internal.Correction>
   9.000000E+99

> <Gold.Chemscore.Hbonds>
donor molecule, donor type, donor heavy atom, donor atom, acceptor molecule, acceptor atom, score
      L1  H    11    44       P1  8028  0.67

> <Gold.Chemscore.Hbond.Weighted>
-2.3592

> <Gold.Chemscore.Metal.Weighted>
-0.0000

> <Gold.Chemscore.Lipo.Weighted>
-14.7033

> <Gold.Chemscore.Internal_Hbond.Weighted>
0.0000

> <Gold.Chemscore.DEClash.Weighted>
0.4444

> <Gold.Chemscore.DEInternal.Weighted>
2.8673

> <Gold.Chemscore.Rot.Weighted>
4.8400

> <Gold.Chemscore.Internal.Correction.Weighted>
   9.000000E+99

> <Gold.Protein.RotatedTorsions>
[ 6907 6896 6895 6894 ] final  -36.28 input  -60.11 | X-H torsion
[ 7974 7965 7964 7962 ] final   85.18 input  175.53 | X-H torsion
[ 8008 7997 7996 7995 ] final   50.31 input   59.86 | X-H torsion
[ 10167 10162 10161 10158 ] final    0.83 input  -65.29 | X-H torsion
[ 10718 10713 10712 10709 ] final -143.21 input   66.30 | X-H torsion
[ 10763 10752 10751 10750 ] final   73.20 input  -60.55 | X-H torsion
[ 11005 11000 10999 10996 ] final  110.04 input  -57.11 | X-H torsion

> <Gold.Protein.ActiveResidues>
 VAL166  LYS551  ARG553  GLY616  TRP617  ASP618  TYR619  PRO620  LYS621  CYS622 
 ASP623  PHE694  ASN695  SER759  ASP760  ASP761  ALA762  ILE779  LEU786  VAL792 
 PHE793  MET794  SER795  GLU796  ALA797  LYS798  CYS799  TRP800  GLU811  SER814 

> <Gold.Protein.RotatedAtoms>
  151.0292  134.9527  159.8101 H   0  0  0  0  0  0  0  0  0  0  0  0  # atno 6907 bound_to 6896
  152.5342  134.2802  159.9014 H   0  0  0  0  0  0  0  0  0  0  0  0  # atno 6908 bound_to 6896
  151.2811  133.4167  159.2661 H   0  0  0  0  0  0  0  0  0  0  0  0  # atno 6909 bound_to 6896
  145.5890  139.2335  143.2310 H   0  0  0  0  0  0  0  0  0  0  0  0  # atno 7974 bound_to 7965
  155.4166  140.3444  155.4268 H   0  0  0  0  0  0  0  0  0  0  0  0  # atno 8008 bound_to 7997
  156.1418  140.1544  156.8941 H   0  0  0  0  0  0  0  0  0  0  0  0  # atno 8009 bound_to 7997
  154.4977  140.0823  156.7712 H   0  0  0  0  0  0  0  0  0  0  0  0  # atno 8010 bound_to 7997
  140.6711  143.7046  150.7925 H   0  0  0  0  0  0  0  0  0  0  0  0  # atno 10167 bound_to 10162
  156.3552  130.7709  151.1868 H   0  0  0  0  0  0  0  0  0  0  0  0  # atno 10718 bound_to 10713
  153.0507  135.5071  154.7858 H   0  0  0  0  0  0  0  0  0  0  0  0  # atno 10763 bound_to 10752
  154.6723  135.2955  154.9727 H   0  0  0  0  0  0  0  0  0  0  0  0  # atno 10764 bound_to 10752
  154.0541  135.6700  153.4856 H   0  0  0  0  0  0  0  0  0  0  0  0  # atno 10765 bound_to 10752
  139.8874  134.9474  156.6218 H   0  0  0  0  0  0  0  0  0  0  0  0  # atno 11005 bound_to 11000
  146.1661  140.6716  142.9255 LP  0  0  0  0  0  0  0  0  0  0  0  0  # atno 17320 bound_to 7965
  144.7360  140.4809  143.6903 LP  0  0  0  0  0  0  0  0  0  0  0  0  # atno 17321 bound_to 7965
  140.0732  143.5041  152.2569 LP  0  0  0  0  0  0  0  0  0  0  0  0  # atno 17342 bound_to 10162
  139.5980  144.7573  151.3240 LP  0  0  0  0  0  0  0  0  0  0  0  0  # atno 17343 bound_to 10162
  157.7466  131.0416  150.4653 LP  0  0  0  0  0  0  0  0  0  0  0  0  # atno 17370 bound_to 10713
  156.4855  130.4083  149.6437 LP  0  0  0  0  0  0  0  0  0  0  0  0  # atno 17371 bound_to 10713
  140.7733  133.8720  155.8509 LP  0  0  0  0  0  0  0  0  0  0  0  0  # atno 17394 bound_to 11000
  140.9823  134.1389  157.4483 LP  0  0  0  0  0  0  0  0  0  0  0  0  # atno 17395 bound_to 11000

$$$$
