#       Name:                AV-unprocessed.smi:2043
#       Creating user name   scv26
#       Creation time:       Fri Mar 27 10:56:14 2020


#       File generated by GOLD software.
#

@<TRIPOS>MOLECULE
AV-unprocessed.smi:2043
    33    34     1
SMALL
NO_CHARGES


@<TRIPOS>ATOM
      1 ****        -6.3928   1.7803  -0.8466 C.3            1 S1                 0.0000
      2 ****        -5.0506   1.5005  -0.2626 C.2            1 S1                 0.0000
      3 ****        -4.8850   1.0645   0.9885 N.2            1 S1                 0.0000
      4 ****        -3.5468   0.8767   1.3037 N.2            1 S1                 0.0000
      5 ****        -2.7218   1.1616   0.2861 C.2            1 S1                 0.0000
      6 ****        -1.3869   1.0478   0.3856 N.pl3          1 S1                -1.0000
      7 ****        -0.7678  -0.0638  -0.0735 C.2            1 S1                 0.0000
      8 ****        -1.3121  -1.0434  -0.5885 O.2            1 S1                 0.0000
      9 ****         0.5641  -0.0395   0.0688 N.am           1 S1                 0.0000
     10 ****         1.4726  -1.1004  -0.3458 C.3            1 S1                 0.0000
     11 ****         2.9209  -0.6474  -0.2058 C.3            1 S1                 0.0000
     12 ****         4.0568  -1.6551  -0.4362 C.3            1 S1                 0.0000
     13 ****         4.8548  -0.9352   0.6544 C.3            1 S1                 0.0000
     14 ****         3.5199  -0.4097   1.1892 C.3            1 S1                 0.0000
     15 ****        -3.5593   1.7162  -1.1634 S.3            1 S1                 0.0000
     16 ****        -6.9517   0.8511  -0.9591 H              1 S1                 0.0000
     17 ****        -6.2909   2.2482  -1.8259 H              1 S1                 0.0000
     18 ****        -6.9528   2.4522  -0.1957 H              1 S1                 0.0000
     19 ****         0.9749   0.7772   0.4970 H              1 S1                 0.0000
     20 ****         1.2852  -1.9865   0.2623 H              1 S1                 0.0000
     21 ****         1.2645  -1.3757  -1.3808 H              1 S1                 0.0000
     22 ****         3.1103   0.2337  -0.8232 H              1 S1                 0.0000
     23 ****         3.7837  -2.6736  -0.1549 H              1 S1                 0.0000
     24 ****         4.5035  -1.6189  -1.4302 H              1 S1                 0.0000
     25 ****         5.3944  -1.5926   1.3364 H              1 S1                 0.0000
     26 ****         5.4941  -0.1440   0.2596 H              1 S1                 0.0000
     27 ****         3.5327   0.6328   1.5082 H              1 S1                 0.0000
     28 ****         3.0870  -1.0582   1.9526 H              1 S1                 0.0000
     29 ****        -5.6377   0.8933   1.6242 LP             1 S1                 0.0000
     30 ****        -3.2302   0.5612   2.1982 LP             1 S1                 0.0000
     31 ****        -0.8514   1.7844   0.7988 LP             1 S1                 0.0000
     32 ****        -2.3059  -1.0629  -0.6984 LP             1 S1                 0.0000
     33 ****        -0.7597  -1.8180  -0.8962 LP             1 S1                 0.0000
@<TRIPOS>BOND
    1    1    2 1     
    2    1   16 1     
    3    1   17 1     
    4    1   18 1     
    5    2   15 1     
    6    2    3 2     
    7    3    4 1     
    8    4    5 2     
    9    5    6 1     
   10    5   15 1     
   11    6    7 1     
   12    7    8 2     
   13    7    9 am    
   14    9   10 1     
   15    9   19 1     
   16   10   11 1     
   17   10   20 1     
   18   10   21 1     
   19   11   14 1     
   20   11   12 1     
   21   11   22 1     
   22   12   13 1     
   23   12   23 1     
   24   12   24 1     
   25   13   14 1     
   26   13   25 1     
   27   13   26 1     
   28   14   27 1     
   29   14   28 1     
   30    3   29 1     
   31    4   30 1     
   32    6   31 1     
   33    8   32 1     
   34    8   33 1     
@<TRIPOS>SUBSTRUCTURE
      1 S1             1
@<TRIPOS>SET
LONE_PAIRS      STATIC     ATOMS    <user>   **** ""
5 29 30 31 32 33
DONOR_HYDROGENS      STATIC     ATOMS    <user>   **** ""
1 19
ATOM$BLUE        STATIC     ATOMS    COLORGROUP SYSTEM
5 29 30 31 32 33
ATOM$RED        STATIC     ATOMS    COLORGROUP SYSTEM
1 19
