AV-unprocessed.smi:290|AV-procd|sdf|2230|dock3
  -GOLD-   2262022 93D 1   1.00000     0.00000
 Structure written by MMmdl.
 59 62  0  0  0  0  0  0  0  0  2 V2000
  152.6694  142.8476  160.7947 C   0  0  0  0  0  0  0  0  0  0  0  0
  151.8407  143.7110  159.8311 C   0  0  1  0  0  0  0  0  0  0  0  0
  152.7939  144.4806  159.0962 O   0  0  0  0  0  0  0  0  0  0  0  0
  152.4023  144.5740  157.7379 C   0  0  0  0  0  0  0  0  0  0  0  0
  151.7559  143.2223  157.4778 C   0  0  0  0  0  0  0  0  0  0  0  0
  150.9826  142.9663  158.7655 C   0  0  2  0  0  0  0  0  0  0  0  0
  149.7471  143.6512  158.6458 O   0  0  0  0  0  0  0  0  0  0  0  0
  150.6811  141.4544  158.9702 C   0  0  0  0  0  0  0  0  0  0  0  0
  150.2391  140.7230  157.7863 N   0  0  0  0  0  0  0  0  0  0  0  0
  150.9267  139.7592  157.0795 C   0  0  0  0  0  0  0  0  0  0  0  0
  150.2855  139.2441  156.0666 N   0  0  0  0  0  0  0  0  0  0  0  0
  149.0494  139.8772  156.0867 C   0  0  0  0  0  0  0  0  0  0  0  0
  147.8758  139.7890  155.2835 C   0  0  0  0  0  0  0  0  0  0  0  0
  147.7805  138.9719  154.2010 N   0  0  0  0  0  0  0  0  0  0  0  0
  148.0737  139.5666  152.8985 C   0  0  0  0  0  0  0  0  0  0  0  0
  147.1134  138.9183  151.8959 C   0  0  0  0  0  0  0  0  0  0  0  0
  146.7327  137.6048  152.5871 C   0  0  2  0  0  0  0  0  0  0  0  0
  145.4911  136.9438  152.0919 N   0  3  2  0  0  0  0  0  0  0  0  0
  144.2691  137.5762  152.6429 C   0  0  0  0  0  0  0  0  0  0  0  0
  145.4646  135.4589  152.1972 C   0  0  0  0  0  0  0  0  0  0  0  0
  144.5835  134.8246  151.1091 C   0  0  0  0  0  0  0  0  0  0  0  0
  145.1165  135.1046  149.8315 O   0  0  0  0  0  0  0  0  0  0  0  0
  146.7010  137.9929  154.0720 C   0  0  1  0  0  0  0  0  0  0  0  0
  146.8799  136.7863  155.0107 C   0  0  0  0  0  0  0  0  0  0  0  0
  146.8214  140.5713  155.6362 N   0  0  0  0  0  0  0  0  0  0  0  0
  146.9047  141.3856  156.6918 C   0  0  0  0  0  0  0  0  0  0  0  0
  147.9332  141.5744  157.5193 N   0  0  0  0  0  0  0  0  0  0  0  0
  148.9968  140.7928  157.1756 C   0  0  0  0  0  0  0  0  0  0  0  0
  147.5643  136.9091  152.4546 H   0  0  0  0  0  0  0  0  0  0  0  0
  145.7617  138.4902  154.3100 H   0  0  0  0  0  0  0  0  0  0  0  0
  152.0406  142.3488  161.5292 H   0  0  0  0  0  0  0  0  0  0  0  0
  153.3700  143.4659  161.3563 H   0  0  0  0  0  0  0  0  0  0  0  0
  153.2502  142.0939  160.2628 H   0  0  0  0  0  0  0  0  0  0  0  0
  151.2233  144.3938  160.4178 H   0  0  0  0  0  0  0  0  0  0  0  0
  151.6824  145.3851  157.6185 H   0  0  0  0  0  0  0  0  0  0  0  0
  153.2541  144.7689  157.0861 H   0  0  0  0  0  0  0  0  0  0  0  0
  151.1359  143.2097  156.5802 H   0  0  0  0  0  0  0  0  0  0  0  0
  152.5388  142.4731  157.3509 H   0  0  0  0  0  0  0  0  0  0  0  0
  149.7815  144.4283  159.1825 H   0  0  0  0  0  0  0  0  0  0  0  0
  151.5682  140.9501  159.3556 H   0  0  0  0  0  0  0  0  0  0  0  0
  149.9220  141.3397  159.7444 H   0  0  0  0  0  0  0  0  0  0  0  0
  151.9256  139.4377  157.3323 H   0  0  0  0  0  0  0  0  0  0  0  0
  147.9622  140.6522  152.9003 H   0  0  0  0  0  0  0  0  0  0  0  0
  149.1070  139.3357  152.6375 H   0  0  0  0  0  0  0  0  0  0  0  0
  146.2504  139.5710  151.7653 H   0  0  0  0  0  0  0  0  0  0  0  0
  147.5694  138.7680  150.9170 H   0  0  0  0  0  0  0  0  0  0  0  0
  144.2073  137.4329  153.7225 H   0  0  0  0  0  0  0  0  0  0  0  0
  143.3689  137.1579  152.1939 H   0  0  0  0  0  0  0  0  0  0  0  0
  144.2621  138.6478  152.4410 H   0  0  0  0  0  0  0  0  0  0  0  0
  146.4629  135.0312  152.1164 H   0  0  0  0  0  0  0  0  0  0  0  0
  145.1013  135.1734  153.1856 H   0  0  0  0  0  0  0  0  0  0  0  0
  144.5536  133.7421  151.2369 H   0  0  0  0  0  0  0  0  0  0  0  0
  143.5542  135.1783  151.1618 H   0  0  0  0  0  0  0  0  0  0  0  0
  145.7728  134.4555  149.6265 H   0  0  0  0  0  0  0  0  0  0  0  0
  146.0826  136.0574  154.8629 H   0  0  0  0  0  0  0  0  0  0  0  0
  146.8572  137.0823  156.0592 H   0  0  0  0  0  0  0  0  0  0  0  0
  147.8295  136.2814  154.8312 H   0  0  0  0  0  0  0  0  0  0  0  0
  146.0223  141.9721  156.9019 H   0  0  0  0  0  0  0  0  0  0  0  0
  145.4754  137.1408  151.1008 H   0  0  0  0  0  0  0  0  0  0  0  0
  1  2  1  0  0  0  0
  1 31  1  0  0  0  0
  1 32  1  0  0  0  0
  1 33  1  0  0  0  0
  2  6  1  0  0  0  0
  2  3  1  0  0  0  0
  2 34  1  0  0  0  0
  3  4  1  0  0  0  0
  4  5  1  0  0  0  0
  4 35  1  0  0  0  0
  4 36  1  0  0  0  0
  5  6  1  0  0  0  0
  5 37  1  0  0  0  0
  5 38  1  0  0  0  0
  6  7  1  0  0  0  0
  6  8  1  0  0  0  0
  7 39  1  0  0  0  0
  8  9  1  0  0  0  0
  8 40  1  0  0  0  0
  8 41  1  0  0  0  0
  9 28  1  0  0  0  0
  9 10  1  0  0  0  0
 10 11  2  0  0  0  0
 10 42  1  0  0  0  0
 11 12  1  0  0  0  0
 12 28  2  0  0  0  0
 12 13  1  0  0  0  0
 13 14  1  0  0  0  0
 13 25  2  0  0  0  0
 14 23  1  0  0  0  0
 14 15  1  0  0  0  0
 15 16  1  0  0  0  0
 15 43  1  0  0  0  0
 15 44  1  0  0  0  0
 16 17  1  0  0  0  0
 16 45  1  0  0  0  0
 16 46  1  0  0  0  0
 17 29  1  0  0  0  0
 17 18  1  0  0  0  0
 17 23  1  0  0  0  0
 18 19  1  0  0  0  0
 18 20  1  0  0  0  0
 18 59  1  0  0  0  0
 19 47  1  0  0  0  0
 19 48  1  0  0  0  0
 19 49  1  0  0  0  0
 20 21  1  0  0  0  0
 20 50  1  0  0  0  0
 20 51  1  0  0  0  0
 21 22  1  0  0  0  0
 21 52  1  0  0  0  0
 21 53  1  0  0  0  0
 22 54  1  0  0  0  0
 23 30  1  0  0  0  0
 23 24  1  0  0  0  0
 24 55  1  0  0  0  0
 24 56  1  0  0  0  0
 24 57  1  0  0  0  0
 25 26  1  0  0  0  0
 26 27  2  0  0  0  0
 26 58  1  0  0  0  0
 27 28  1  0  0  0  0
M  CHG  1  18   1
M  END
> <s_m_source_file>
AV-unprocessed.smi

> <i_m_source_file_index>
290

> <i_lp_mmshare_version>
43012

> <i_f3d_flags>
0

> <s_epik_input>
W0NIMl0xW0NIMl1PW0NAQEhdKFtDSDNdKVtDQEBdMShbT0hdKVtDSDJdbihbY0hdbjIpYyhjMjMpbltjSF1uYzNONFtDSDJdW0NIMl1bQ0BIXShbQ0BIXTRbQ0gzXSlOKFtDSDNdKVtDSDJdW0NIMl1bT0hd

> <s_epik_cmdline>
J2VwaWtfcHl0aG9uJywgJy1waCcsICc3LjAnLCAnLXRuJywgJzgnLCAnLW1hJywgJzIwMCcsICctbWV0YWxfYmluZGluZycsICctaW1hZScsICc8aW5maWxlLm1hZT4nLCAnLW9tYWUnLCAnPG91dGZpbGUubWFlPic=

> <r_lp_tautomer_probability>
1

> <r_epik_Ionization_Penalty>
0.0036983

> <r_epik_Ionization_Penalty_Charging>
0.0032725

> <r_epik_Ionization_Penalty_Neutral>
0.000425798

> <r_epik_State_Penalty>
-0

> <r_epik_Charging_Adjusted_Penalty>
0.0032725

> <i_epik_Tot_Q>
1

> <i_epik_Tot_abs_Q>
1

> <r_epik_Metal_State_Penalty>
-0

> <b_epik_Metal_Only>
0

> <s_lp_Force_Field>
OPLS_2005

> <r_lp_Energy>
62.8721

> <b_lp_Chiralities_Consistent>
1

> <s_lp_Variant>
AV-unprocessed.smi:290-16

> <Gold.Version>
5.8.1

> <Gold.Id.Protein>
6NUR|6NUR_protein|mol2

> <Gold.PLP.Fitness>
45.5765

> <Gold.PLP.PLP>
-41.9401

> <Gold.PLP.part.hbond>
-4.1560

> <Gold.PLP.part.metal>
0.0000

> <Gold.PLP.part.buried>
2.8468

> <Gold.PLP.part.nonpolar>
-39.2738

> <Gold.PLP.part.repulsive>
0.2415

> <Gold.PLP.ligand.clash>
0.0000

> <Gold.PLP.ligand.torsion>
1.5097

> <Gold.PLP.Chemscore.Hbond>
2.0000

> <Gold.PLP.Chemscore.CHOScore>
0.0000

> <Gold.PLP.Chemscore.Metal>
0.0000

> <Gold.Chemscore.Hbonds>
donor molecule, donor type, donor heavy atom, donor atom, acceptor molecule, acceptor atom, score
      L1  H    22    54       P1  7921  0.05

> <Gold.PLP.Chemscore.Internal.Correction>
0.6558

> <Gold.Rescore>
     Score         DG    S(hbond)    S(metal)    S(lipo)     H(rot)  DE(clash)    DE(int)     intcor
     10.87     -15.26       1.91        0.00     109.39       3.67       3.22       1.17       ----

> <Gold.Chemscore.Fitness>
10.8704

> <Gold.Chemscore.DG>
-15.2638

> <Gold.Chemscore.ZeroCoef>
-5.4800

> <Gold.Chemscore.Hbond>
1.9072

> <Gold.Chemscore.Metal>
0.0000

> <Gold.Chemscore.Lipo>
109.3852

> <Gold.Chemscore.Internal_Hbond>
0.0000

> <Gold.Chemscore.DEClash>
3.2187

> <Gold.Chemscore.DEInternal>
1.1747

> <Gold.Chemscore.Rot>
3.6658

> <Gold.Chemscore.Internal.Correction>
   9.000000E+99

> <Gold.Chemscore.Hbonds>
donor molecule, donor type, donor heavy atom, donor atom, acceptor molecule, acceptor atom, score
      L1  H    18    59       P1 10171  0.01
      L1  H    22    54       P1  7921  0.06

> <Gold.Chemscore.Hbond.Weighted>
-6.3702

> <Gold.Chemscore.Metal.Weighted>
-0.0000

> <Gold.Chemscore.Lipo.Weighted>
-12.7981

> <Gold.Chemscore.Internal_Hbond.Weighted>
0.0000

> <Gold.Chemscore.DEClash.Weighted>
3.2187

> <Gold.Chemscore.DEInternal.Weighted>
1.1747

> <Gold.Chemscore.Rot.Weighted>
9.3844

> <Gold.Chemscore.Internal.Correction.Weighted>
   9.000000E+99

> <Gold.Protein.RotatedTorsions>
[ 6907 6896 6895 6894 ] final  154.10 input  -60.11 | X-H torsion
[ 7974 7965 7964 7962 ] final  -12.64 input  175.53 | X-H torsion
[ 8008 7997 7996 7995 ] final    4.71 input   59.86 | X-H torsion
[ 10167 10162 10161 10158 ] final   92.92 input  -65.29 | X-H torsion
[ 10718 10713 10712 10709 ] final  -21.44 input   66.30 | X-H torsion
[ 10763 10752 10751 10750 ] final -156.37 input  -60.55 | X-H torsion
[ 11005 11000 10999 10996 ] final  157.64 input  -57.11 | X-H torsion

> <Gold.Protein.ActiveResidues>
 VAL166  LYS551  ARG553  GLY616  TRP617  ASP618  TYR619  PRO620  LYS621  CYS622 
 ASP623  PHE694  ASN695  SER759  ASP760  ASP761  ALA762  ILE779  LEU786  VAL792 
 PHE793  MET794  SER795  GLU796  ALA797  LYS798  CYS799  TRP800  GLU811  SER814 

> <Gold.Protein.RotatedAtoms>
  152.0633  133.4072  159.4427 H   0  0  0  0  0  0  0  0  0  0  0  0  # atno 6907 bound_to 6896
  150.6865  134.3175  159.4781 H   0  0  0  0  0  0  0  0  0  0  0  0  # atno 6908 bound_to 6896
  152.0998  134.9349  160.0620 H   0  0  0  0  0  0  0  0  0  0  0  0  # atno 6909 bound_to 6896
  146.2144  140.3086  142.8381 H   0  0  0  0  0  0  0  0  0  0  0  0  # atno 7974 bound_to 7965
  154.7193  140.2708  155.6556 H   0  0  0  0  0  0  0  0  0  0  0  0  # atno 8008 bound_to 7997
  156.2819  140.2737  156.1785 H   0  0  0  0  0  0  0  0  0  0  0  0  # atno 8009 bound_to 7997
  155.0528  140.0371  157.2540 H   0  0  0  0  0  0  0  0  0  0  0  0  # atno 8010 bound_to 7997
  139.8230  144.6722  150.9495 H   0  0  0  0  0  0  0  0  0  0  0  0  # atno 10167 bound_to 10162
  156.5181  130.4626  149.6611 H   0  0  0  0  0  0  0  0  0  0  0  0  # atno 10718 bound_to 10713
  154.7718  135.3147  154.8174 H   0  0  0  0  0  0  0  0  0  0  0  0  # atno 10763 bound_to 10752
  153.8907  135.6825  153.4765 H   0  0  0  0  0  0  0  0  0  0  0  0  # atno 10764 bound_to 10752
  153.1333  135.4770  154.9318 H   0  0  0  0  0  0  0  0  0  0  0  0  # atno 10765 bound_to 10752
  140.1789  134.8490  157.2779 H   0  0  0  0  0  0  0  0  0  0  0  0  # atno 11005 bound_to 11000
  144.9004  140.7636  143.5870 LP  0  0  0  0  0  0  0  0  0  0  0  0  # atno 17320 bound_to 7965
  145.3012  139.1850  143.4688 LP  0  0  0  0  0  0  0  0  0  0  0  0  # atno 17321 bound_to 7965
  140.7812  143.4074  151.1049 LP  0  0  0  0  0  0  0  0  0  0  0  0  # atno 17342 bound_to 10162
  139.7733  143.8463  152.3124 LP  0  0  0  0  0  0  0  0  0  0  0  0  # atno 17343 bound_to 10162
  156.3175  130.7262  151.2168 LP  0  0  0  0  0  0  0  0  0  0  0  0  # atno 17370 bound_to 10713
  157.7441  131.0464  150.4894 LP  0  0  0  0  0  0  0  0  0  0  0  0  # atno 17371 bound_to 10713
  140.2291  134.3931  155.7530 LP  0  0  0  0  0  0  0  0  0  0  0  0  # atno 17394 bound_to 11000
  141.2222  133.7205  156.8611 LP  0  0  0  0  0  0  0  0  0  0  0  0  # atno 17395 bound_to 11000

$$$$
