AV-unprocessed.smi:16|AV-procd|sdf|92|dock5
  -GOLD-   2262015233D 1   1.00000     0.00000
 Structure written by MMmdl.
 60 64  0  0  0  0  0  0  0  0  2 V2000
  146.0425  137.4484  152.7094 C   0  0  0  0  0  0  0  0  0  0  0  0
  145.8954  136.0077  153.2208 C   0  0  0  0  0  0  0  0  0  0  0  0
  147.1974  135.3971  153.5916 N   0  3  2  0  0  0  0  0  0  0  0  0
  147.0598  133.9579  153.9383 C   0  0  0  0  0  0  0  0  0  0  0  0
  148.4285  133.3121  154.2097 C   0  0  0  0  0  0  0  0  0  0  0  0
  149.1703  134.0743  155.3127 C   0  0  1  0  0  0  0  0  0  0  0  0
  150.4564  133.5007  155.5143 O   0  0  0  0  0  0  0  0  0  0  0  0
  151.1507  134.1348  156.5836 C   0  0  0  0  0  0  0  0  0  0  0  0
  151.3526  135.6234  156.2554 C   0  0  0  0  0  0  0  0  0  0  0  0
  150.0766  136.2619  155.9465 N   0  0  0  0  0  0  0  0  0  0  0  0
  150.2384  137.5941  155.7765 C   0  0  0  0  0  0  0  0  0  0  0  0
  150.1767  138.1388  154.5323 N   0  0  0  0  0  0  0  0  0  0  0  0
  150.3394  139.4560  154.3731 C   0  0  0  0  0  0  0  0  0  0  0  0
  150.5696  140.3872  155.3018 N   0  0  0  0  0  0  0  0  0  0  0  0
  150.6400  139.8385  156.5489 C   0  0  0  0  0  0  0  0  0  0  0  0
  150.4851  138.4620  156.8712 C   0  0  0  0  0  0  0  0  0  0  0  0
  150.6008  138.2744  158.2419 N   0  0  0  0  0  0  0  0  0  0  0  0
  150.8073  139.4768  158.7068 C   0  0  0  0  0  0  0  0  0  0  0  0
  150.8712  140.4723  157.7567 N   0  0  0  0  0  0  0  0  0  0  0  0
  151.0457  141.8758  157.9881 C   0  0  0  0  0  0  0  0  0  0  0  0
  152.3276  142.4151  158.6259 C   0  0  0  0  0  0  0  0  0  0  0  0
  151.5112  143.5473  159.2901 C   0  0  0  0  0  0  0  0  0  0  0  0
  151.8850  143.8691  160.7462 C   0  0  0  0  0  0  0  0  0  0  0  0
  150.7442  144.2288  161.4987 O   0  0  0  0  0  0  0  0  0  0  0  0
  151.4321  144.8599  158.4845 C   0  0  0  0  0  0  0  0  0  0  0  0
  150.2766  145.6025  158.8175 O   0  0  0  0  0  0  0  0  0  0  0  0
  150.3062  142.5966  159.1177 C   0  0  0  0  0  0  0  0  0  0  0  0
  149.3237  135.5542  154.9066 C   0  0  2  0  0  0  0  0  0  0  0  0
  147.9203  136.1546  154.6495 C   0  0  0  0  0  0  0  0  0  0  0  0
  148.5966  133.9965  156.2389 H   0  0  0  0  0  0  0  0  0  0  0  0
  149.8989  135.5994  153.9800 H   0  0  0  0  0  0  0  0  0  0  0  0
  145.0836  137.8272  152.3546 H   0  0  0  0  0  0  0  0  0  0  0  0
  146.7453  137.5013  151.8774 H   0  0  0  0  0  0  0  0  0  0  0  0
  146.3881  138.1290  153.4868 H   0  0  0  0  0  0  0  0  0  0  0  0
  145.2067  135.9663  154.0658 H   0  0  0  0  0  0  0  0  0  0  0  0
  145.4390  135.4206  152.4228 H   0  0  0  0  0  0  0  0  0  0  0  0
  146.4158  133.8551  154.8133 H   0  0  0  0  0  0  0  0  0  0  0  0
  146.5713  133.4264  153.1206 H   0  0  0  0  0  0  0  0  0  0  0  0
  148.2973  132.2692  154.5000 H   0  0  0  0  0  0  0  0  0  0  0  0
  149.0238  133.3085  153.2954 H   0  0  0  0  0  0  0  0  0  0  0  0
  150.5977  134.0134  157.5164 H   0  0  0  0  0  0  0  0  0  0  0  0
  152.1156  133.6463  156.7198 H   0  0  0  0  0  0  0  0  0  0  0  0
  151.8274  136.1249  157.1002 H   0  0  0  0  0  0  0  0  0  0  0  0
  152.0260  135.7241  155.4028 H   0  0  0  0  0  0  0  0  0  0  0  0
  150.2776  139.8161  153.3566 H   0  0  0  0  0  0  0  0  0  0  0  0
  150.9231  139.6691  159.7638 H   0  0  0  0  0  0  0  0  0  0  0  0
  150.8573  142.3636  157.0303 H   0  0  0  0  0  0  0  0  0  0  0  0
  152.7575  141.7173  159.3469 H   0  0  0  0  0  0  0  0  0  0  0  0
  153.0804  142.7447  157.9091 H   0  0  0  0  0  0  0  0  0  0  0  0
  152.3415  143.0044  161.2285 H   0  0  0  0  0  0  0  0  0  0  0  0
  152.6185  144.6734  160.8057 H   0  0  0  0  0  0  0  0  0  0  0  0
  150.2596  143.4439  161.7035 H   0  0  0  0  0  0  0  0  0  0  0  0
  152.2993  145.4923  158.6753 H   0  0  0  0  0  0  0  0  0  0  0  0
  151.4291  144.6701  157.4110 H   0  0  0  0  0  0  0  0  0  0  0  0
  149.6913  145.5956  158.0756 H   0  0  0  0  0  0  0  0  0  0  0  0
  149.3789  143.0825  158.8128 H   0  0  0  0  0  0  0  0  0  0  0  0
  150.1445  141.9576  159.9879 H   0  0  0  0  0  0  0  0  0  0  0  0
  148.0129  137.1948  154.3422 H   0  0  0  0  0  0  0  0  0  0  0  0
  147.3335  136.1502  155.5696 H   0  0  0  0  0  0  0  0  0  0  0  0
  147.7735  135.4305  152.7625 H   0  0  0  0  0  0  0  0  0  0  0  0
  1  2  1  0  0  0  0
  1 32  1  0  0  0  0
  1 33  1  0  0  0  0
  1 34  1  0  0  0  0
  2  3  1  0  0  0  0
  2 35  1  0  0  0  0
  2 36  1  0  0  0  0
  3 29  1  0  0  0  0
  3  4  1  0  0  0  0
  3 60  1  0  0  0  0
  4  5  1  0  0  0  0
  4 37  1  0  0  0  0
  4 38  1  0  0  0  0
  5  6  1  0  0  0  0
  5 39  1  0  0  0  0
  5 40  1  0  0  0  0
  6 30  1  0  0  0  0
  6 28  1  0  0  0  0
  6  7  1  0  0  0  0
  7  8  1  0  0  0  0
  8  9  1  0  0  0  0
  8 41  1  0  0  0  0
  8 42  1  0  0  0  0
  9 10  1  0  0  0  0
  9 43  1  0  0  0  0
  9 44  1  0  0  0  0
 10 11  1  0  0  0  0
 10 28  1  0  0  0  0
 11 16  1  0  0  0  0
 11 12  2  0  0  0  0
 12 13  1  0  0  0  0
 13 14  2  0  0  0  0
 13 45  1  0  0  0  0
 14 15  1  0  0  0  0
 15 19  1  0  0  0  0
 15 16  2  0  0  0  0
 16 17  1  0  0  0  0
 17 18  2  0  0  0  0
 18 19  1  0  0  0  0
 18 46  1  0  0  0  0
 19 20  1  0  0  0  0
 20 27  1  0  0  0  0
 20 21  1  0  0  0  0
 20 47  1  0  0  0  0
 21 22  1  0  0  0  0
 21 48  1  0  0  0  0
 21 49  1  0  0  0  0
 22 23  1  0  0  0  0
 22 25  1  0  0  0  0
 22 27  1  0  0  0  0
 23 24  1  0  0  0  0
 23 50  1  0  0  0  0
 23 51  1  0  0  0  0
 24 52  1  0  0  0  0
 25 26  1  0  0  0  0
 25 53  1  0  0  0  0
 25 54  1  0  0  0  0
 26 55  1  0  0  0  0
 27 56  1  0  0  0  0
 27 57  1  0  0  0  0
 28 31  1  0  0  0  0
 28 29  1  0  0  0  0
 29 58  1  0  0  0  0
 29 59  1  0  0  0  0
M  CHG  1   3   1
M  END
> <s_m_source_file>
AV-unprocessed.smi

> <i_m_source_file_index>
16

> <i_lp_mmshare_version>
43012

> <i_f3d_flags>
0

> <s_epik_input>
W0NIM11bQ0gyXU4oW0NIMl1bQ0gyXTEpW0NIMl1bQ0BASF0oW0NAQEhdMTIpTihbQ0gyXVtDSDJdTzIpYyhuW2NIXW4zKWMoYzM0KW5bY0hdbjRbQ0hdKFtDSDJdNSlbQ0gyXUM1KFtDSDJdW09IXSlbQ0gyXVtPSF0=

> <s_epik_cmdline>
J2VwaWtfcHl0aG9uJywgJy1waCcsICc3LjAnLCAnLXRuJywgJzgnLCAnLW1hJywgJzIwMCcsICctbWV0YWxfYmluZGluZycsICctaW1hZScsICc8aW5maWxlLm1hZT4nLCAnLW9tYWUnLCAnPG91dGZpbGUubWFlPic=

> <r_lp_tautomer_probability>
1

> <r_epik_Ionization_Penalty>
0.0135603

> <r_epik_Ionization_Penalty_Charging>
0.0131385

> <r_epik_Ionization_Penalty_Neutral>
0.000421734

> <r_epik_State_Penalty>
0.0102091

> <r_epik_Charging_Adjusted_Penalty>
0.0233476

> <i_epik_Tot_Q>
1

> <i_epik_Tot_abs_Q>
1

> <r_epik_Metal_State_Penalty>
0.0103746

> <b_epik_Metal_Only>
0

> <s_lp_Force_Field>
OPLS_2005

> <r_lp_Energy>
53.4104

> <b_lp_Chiralities_Consistent>
1

> <s_lp_Variant>
AV-unprocessed.smi:16-6

> <Gold.Version>
5.8.1

> <Gold.Id.Protein>
6NUR|6NUR_protein|mol2

> <Gold.PLP.Fitness>
46.1230

> <Gold.PLP.PLP>
-36.3487

> <Gold.PLP.part.hbond>
-7.0522

> <Gold.PLP.part.metal>
0.0000

> <Gold.PLP.part.buried>
0.5916

> <Gold.PLP.part.nonpolar>
-30.9634

> <Gold.PLP.part.repulsive>
0.3264

> <Gold.PLP.ligand.clash>
0.0000

> <Gold.PLP.ligand.torsion>
1.2892

> <Gold.PLP.Chemscore.Hbond>
2.9100

> <Gold.PLP.Chemscore.CHOScore>
1.0000

> <Gold.PLP.Chemscore.Metal>
0.0000

> <Gold.Chemscore.Hbonds>
donor molecule, donor type, donor heavy atom, donor atom, acceptor molecule, acceptor atom, score
      L1  H     3    60       P1  7948  2.00
      L1  H    26    55       P1  8029  1.00
      L1  C    13    45       P1  7957  1.00

> <Gold.PLP.Chemscore.Internal.Correction>
0.6226

> <Gold.Rescore>
     Score         DG    S(hbond)    S(metal)    S(lipo)     H(rot)  DE(clash)    DE(int)     intcor
     10.17     -13.89       1.77        0.00      93.98       3.33       1.19       2.54       ----

> <Gold.Chemscore.Fitness>
10.1664

> <Gold.Chemscore.DG>
-13.8901

> <Gold.Chemscore.ZeroCoef>
-5.4800

> <Gold.Chemscore.Hbond>
1.7743

> <Gold.Chemscore.Metal>
0.0000

> <Gold.Chemscore.Lipo>
93.9836

> <Gold.Chemscore.Internal_Hbond>
0.0000

> <Gold.Chemscore.DEClash>
1.1885

> <Gold.Chemscore.DEInternal>
2.5351

> <Gold.Chemscore.Rot>
3.3251

> <Gold.Chemscore.Internal.Correction>
   9.000000E+99

> <Gold.Chemscore.Hbonds>
donor molecule, donor type, donor heavy atom, donor atom, acceptor molecule, acceptor atom, score
      L1  H     3    60       P1  7948  0.94
      L1  H    26    55       P1  8029  0.32

> <Gold.Chemscore.Hbond.Weighted>
-5.9262

> <Gold.Chemscore.Metal.Weighted>
-0.0000

> <Gold.Chemscore.Lipo.Weighted>
-10.9961

> <Gold.Chemscore.Internal_Hbond.Weighted>
0.0000

> <Gold.Chemscore.DEClash.Weighted>
1.1885

> <Gold.Chemscore.DEInternal.Weighted>
2.5351

> <Gold.Chemscore.Rot.Weighted>
8.5122

> <Gold.Chemscore.Internal.Correction.Weighted>
   9.000000E+99

> <Gold.Protein.RotatedTorsions>
[ 6907 6896 6895 6894 ] final   15.47 input  -60.11 | X-H torsion
[ 7974 7965 7964 7962 ] final -102.11 input  175.53 | X-H torsion
[ 8008 7997 7996 7995 ] final -157.95 input   59.86 | X-H torsion
[ 10167 10162 10161 10158 ] final   31.39 input  -65.29 | X-H torsion
[ 10718 10713 10712 10709 ] final    0.52 input   66.30 | X-H torsion
[ 10763 10752 10751 10750 ] final -166.86 input  -60.55 | X-H torsion
[ 11005 11000 10999 10996 ] final  -39.67 input  -57.11 | X-H torsion

> <Gold.Protein.ActiveResidues>
 VAL166  LYS551  ARG553  GLY616  TRP617  ASP618  TYR619  PRO620  LYS621  CYS622 
 ASP623  PHE694  ASN695  SER759  ASP760  ASP761  ALA762  ILE779  LEU786  VAL792 
 PHE793  MET794  SER795  GLU796  ALA797  LYS798  CYS799  TRP800  GLU811  SER814 

> <Gold.Protein.RotatedAtoms>
  151.8186  135.0659  160.0421 H   0  0  0  0  0  0  0  0  0  0  0  0  # atno 6907 bound_to 6896
  152.2968  133.5611  159.5601 H   0  0  0  0  0  0  0  0  0  0  0  0  # atno 6908 bound_to 6896
  150.7255  134.0265  159.3761 H   0  0  0  0  0  0  0  0  0  0  0  0  # atno 6909 bound_to 6896
  145.2729  140.9304  143.2976 H   0  0  0  0  0  0  0  0  0  0  0  0  # atno 7974 bound_to 7965
  155.7401  140.0813  157.2249 H   0  0  0  0  0  0  0  0  0  0  0  0  # atno 8008 bound_to 7997
  154.4023  140.1579  156.2662 H   0  0  0  0  0  0  0  0  0  0  0  0  # atno 8009 bound_to 7997
  155.9028  140.3408  155.6042 H   0  0  0  0  0  0  0  0  0  0  0  0  # atno 8010 bound_to 7997
  140.4593  144.0931  150.6209 H   0  0  0  0  0  0  0  0  0  0  0  0  # atno 10167 bound_to 10162
  156.8345  130.5500  149.5683 H   0  0  0  0  0  0  0  0  0  0  0  0  # atno 10718 bound_to 10713
  154.6790  135.2951  154.9639 H   0  0  0  0  0  0  0  0  0  0  0  0  # atno 10763 bound_to 10752
  154.0640  135.6627  153.4819 H   0  0  0  0  0  0  0  0  0  0  0  0  # atno 10764 bound_to 10752
  153.0535  135.5159  154.7824 H   0  0  0  0  0  0  0  0  0  0  0  0  # atno 10765 bound_to 10752
  141.0119  133.6904  156.2218 H   0  0  0  0  0  0  0  0  0  0  0  0  # atno 11005 bound_to 11000
  144.9319  139.4288  143.6491 LP  0  0  0  0  0  0  0  0  0  0  0  0  # atno 17320 bound_to 7965
  146.3241  139.8234  142.8922 LP  0  0  0  0  0  0  0  0  0  0  0  0  # atno 17321 bound_to 7965
  140.4113  143.2655  151.9829 LP  0  0  0  0  0  0  0  0  0  0  0  0  # atno 17342 bound_to 10162
  139.4804  144.5913  151.7767 LP  0  0  0  0  0  0  0  0  0  0  0  0  # atno 17343 bound_to 10162
  156.0915  130.5899  150.9741 LP  0  0  0  0  0  0  0  0  0  0  0  0  # atno 17370 bound_to 10713
  157.6389  131.0913  150.8292 LP  0  0  0  0  0  0  0  0  0  0  0  0  # atno 17371 bound_to 10713
  140.6720  134.4858  157.5587 LP  0  0  0  0  0  0  0  0  0  0  0  0  # atno 17394 bound_to 11000
  139.9094  134.8377  156.1582 LP  0  0  0  0  0  0  0  0  0  0  0  0  # atno 17395 bound_to 11000

$$$$
