AV-unprocessed.smi:564|AV-procd|sdf|2949|dock5
  -GOLD-   2262023453D 1   1.00000     0.00000
 Structure written by MMmdl.
 50 51  0  0  0  0  0  0  0  0  2 V2000
  151.3502  145.2572  160.1885 C   0  0  0  0  0  0  0  0  0  0  0  0
  152.1791  144.0380  160.4764 C   0  0  0  0  0  0  0  0  0  0  0  0
  152.5973  143.8309  161.7136 N   0  0  0  0  0  0  0  0  0  0  0  0
  153.2925  142.6778  161.6556 N   0  0  0  0  0  0  0  0  0  0  0  0
  153.8937  142.1514  162.8656 C   0  0  0  0  0  0  0  0  0  0  0  0
  153.3105  142.1522  160.3784 C   0  0  0  0  0  0  0  0  0  0  0  0
  154.0072  140.8714  160.0495 C   0  0  0  0  0  0  0  0  0  0  0  0
  152.6017  143.0105  159.5806 C   0  0  0  0  0  0  0  0  0  0  0  0
  152.3220  142.8981  158.1003 C   0  0  0  0  0  0  0  0  0  0  0  0
  151.4815  141.6573  157.7727 C   0  0  0  0  0  0  0  0  0  0  0  0
  150.5886  141.2696  158.5282 O   0  0  0  0  0  0  0  0  0  0  0  0
  151.7845  141.0329  156.6246 N   0  0  0  0  0  0  0  0  0  0  0  0
  151.1167  139.8370  156.1245 C   0  0  0  0  0  0  0  0  0  0  0  0
  151.0771  139.8183  154.5832 C   0  0  0  0  0  0  0  0  0  0  0  0
  149.7198  140.0531  154.0198 N   0  3  2  0  0  0  0  0  0  0  0  0
  149.0648  141.2415  154.6313 C   0  0  0  0  0  0  0  0  0  0  0  0
  147.7635  141.6074  153.9000 C   0  0  0  0  0  0  0  0  0  0  0  0
  146.8016  140.4156  153.8596 C   0  0  0  0  0  0  0  0  0  0  0  0
  147.5046  139.2014  153.2378 C   0  0  0  0  0  0  0  0  0  0  0  0
  148.8231  138.8551  153.9628 C   0  0  2  0  0  0  0  0  0  0  0  0
  148.5762  138.2002  155.3391 C   0  0  0  0  0  0  0  0  0  0  0  0
  151.1189  145.3468  159.1277 H   0  0  0  0  0  0  0  0  0  0  0  0
  151.8717  146.1659  160.4899 H   0  0  0  0  0  0  0  0  0  0  0  0
  150.4040  145.2215  160.7285 H   0  0  0  0  0  0  0  0  0  0  0  0
  154.9018  141.7948  162.6540 H   0  0  0  0  0  0  0  0  0  0  0  0
  153.2927  141.3225  163.2403 H   0  0  0  0  0  0  0  0  0  0  0  0
  153.9506  142.9245  163.6331 H   0  0  0  0  0  0  0  0  0  0  0  0
  153.6742  140.4777  159.0893 H   0  0  0  0  0  0  0  0  0  0  0  0
  153.8072  140.1111  160.8046 H   0  0  0  0  0  0  0  0  0  0  0  0
  155.0855  141.0216  159.9962 H   0  0  0  0  0  0  0  0  0  0  0  0
  151.7964  143.7781  157.7296 H   0  0  0  0  0  0  0  0  0  0  0  0
  153.2521  142.8472  157.5332 H   0  0  0  0  0  0  0  0  0  0  0  0
  152.5266  141.4164  156.0569 H   0  0  0  0  0  0  0  0  0  0  0  0
  151.6097  138.9422  156.5089 H   0  0  0  0  0  0  0  0  0  0  0  0
  150.1090  139.8439  156.5384 H   0  0  0  0  0  0  0  0  0  0  0  0
  151.7877  140.5356  154.1719 H   0  0  0  0  0  0  0  0  0  0  0  0
  151.4144  138.8379  154.2443 H   0  0  0  0  0  0  0  0  0  0  0  0
  148.8682  141.0579  155.6881 H   0  0  0  0  0  0  0  0  0  0  0  0
  149.7420  142.0954  154.5872 H   0  0  0  0  0  0  0  0  0  0  0  0
  147.2857  142.4556  154.3916 H   0  0  0  0  0  0  0  0  0  0  0  0
  147.9923  141.9283  152.8829 H   0  0  0  0  0  0  0  0  0  0  0  0
  146.4601  140.1786  154.8677 H   0  0  0  0  0  0  0  0  0  0  0  0
  145.9117  140.6706  153.2834 H   0  0  0  0  0  0  0  0  0  0  0  0
  146.8341  138.3412  153.2379 H   0  0  0  0  0  0  0  0  0  0  0  0
  147.7185  139.4155  152.1897 H   0  0  0  0  0  0  0  0  0  0  0  0
  149.3094  138.1061  153.3389 H   0  0  0  0  0  0  0  0  0  0  0  0
  147.9011  137.3494  155.2439 H   0  0  0  0  0  0  0  0  0  0  0  0
  148.1271  138.8901  156.0528 H   0  0  0  0  0  0  0  0  0  0  0  0
  149.4980  137.8192  155.7777 H   0  0  0  0  0  0  0  0  0  0  0  0
  149.8773  140.3109  153.0557 H   0  0  0  0  0  0  0  0  0  0  0  0
  1  2  1  0  0  0  0
  1 22  1  0  0  0  0
  1 23  1  0  0  0  0
  1 24  1  0  0  0  0
  2  8  1  0  0  0  0
  2  3  2  0  0  0  0
  3  4  1  0  0  0  0
  4  5  1  0  0  0  0
  4  6  1  0  0  0  0
  5 25  1  0  0  0  0
  5 26  1  0  0  0  0
  5 27  1  0  0  0  0
  6  7  1  0  0  0  0
  6  8  2  0  0  0  0
  7 28  1  0  0  0  0
  7 29  1  0  0  0  0
  7 30  1  0  0  0  0
  8  9  1  0  0  0  0
  9 10  1  0  0  0  0
  9 31  1  0  0  0  0
  9 32  1  0  0  0  0
 10 11  2  0  0  0  0
 10 12  1  0  0  0  0
 12 13  1  0  0  0  0
 12 33  1  0  0  0  0
 13 14  1  0  0  0  0
 13 34  1  0  0  0  0
 13 35  1  0  0  0  0
 14 15  1  0  0  0  0
 14 36  1  0  0  0  0
 14 37  1  0  0  0  0
 15 20  1  0  0  0  0
 15 16  1  0  0  0  0
 15 50  1  0  0  0  0
 16 17  1  0  0  0  0
 16 38  1  0  0  0  0
 16 39  1  0  0  0  0
 17 18  1  0  0  0  0
 17 40  1  0  0  0  0
 17 41  1  0  0  0  0
 18 19  1  0  0  0  0
 18 42  1  0  0  0  0
 18 43  1  0  0  0  0
 19 20  1  0  0  0  0
 19 44  1  0  0  0  0
 19 45  1  0  0  0  0
 20 21  1  0  0  0  0
 20 46  1  0  0  0  0
 21 47  1  0  0  0  0
 21 48  1  0  0  0  0
 21 49  1  0  0  0  0
M  CHG  1  15   1
M  END
> <s_m_source_file>
AV-unprocessed.smi

> <i_m_source_file_index>
564

> <i_lp_mmshare_version>
43012

> <i_f3d_flags>
0

> <s_epik_input>
W0NIM11jMW5uKFtDSDNdKWMoW0NIM10pYzFbQ0gyXUMoPU8pW05IXVtDSDJdW0NIMl1OMltDSDJdW0NIMl1bQ0gyXVtDSDJdW0NASF0yW0NIM10=

> <s_epik_cmdline>
J2VwaWtfcHl0aG9uJywgJy1waCcsICc3LjAnLCAnLXRuJywgJzgnLCAnLW1hJywgJzIwMCcsICctbWV0YWxfYmluZGluZycsICctaW1hZScsICc8aW5maWxlLm1hZT4nLCAnLW9tYWUnLCAnPG91dGZpbGUubWFlPic=

> <r_lp_tautomer_probability>
1

> <r_epik_Ionization_Penalty>
0.00456826

> <r_epik_Ionization_Penalty_Charging>
0.00240401

> <r_epik_Ionization_Penalty_Neutral>
0.00216425

> <r_epik_State_Penalty>
-0

> <r_epik_Charging_Adjusted_Penalty>
0.00240401

> <i_epik_Tot_Q>
1

> <i_epik_Tot_abs_Q>
1

> <r_epik_Metal_State_Penalty>
-0

> <b_epik_Metal_Only>
0

> <s_lp_Force_Field>
OPLS_2005

> <r_lp_Energy>
15.7718

> <b_lp_Chiralities_Consistent>
1

> <s_lp_Variant>
AV-unprocessed.smi:564-3

> <Gold.Version>
5.8.1

> <Gold.Id.Protein>
6NUR|6NUR_protein|mol2

> <Gold.PLP.Fitness>
49.6884

> <Gold.PLP.PLP>
-48.7262

> <Gold.PLP.part.hbond>
-1.0000

> <Gold.PLP.part.metal>
0.0000

> <Gold.PLP.part.buried>
-2.3372

> <Gold.PLP.part.nonpolar>
-44.5649

> <Gold.PLP.part.repulsive>
0.6918

> <Gold.PLP.ligand.clash>
0.0000

> <Gold.PLP.ligand.torsion>
1.0140

> <Gold.PLP.Chemscore.Hbond>
0.9750

> <Gold.PLP.Chemscore.CHOScore>
0.0000

> <Gold.PLP.Chemscore.Metal>
0.0000

> <Gold.Chemscore.Hbonds>
donor molecule, donor type, donor heavy atom, donor atom, acceptor molecule, acceptor atom, score
      L1  H    15    50       P1  7957  1.00

> <Gold.PLP.Chemscore.Internal.Correction>
0.0652

> <Gold.Rescore>
     Score         DG    S(hbond)    S(metal)    S(lipo)     H(rot)  DE(clash)    DE(int)     intcor
     17.15     -18.24       0.81        0.00     121.21       1.61       0.25       0.85       ----

> <Gold.Chemscore.Fitness>
17.1524

> <Gold.Chemscore.DG>
-18.2438

> <Gold.Chemscore.ZeroCoef>
-5.4800

> <Gold.Chemscore.Hbond>
0.8128

> <Gold.Chemscore.Metal>
0.0000

> <Gold.Chemscore.Lipo>
121.2094

> <Gold.Chemscore.Internal_Hbond>
0.0000

> <Gold.Chemscore.DEClash>
0.2458

> <Gold.Chemscore.DEInternal>
0.8456

> <Gold.Chemscore.Rot>
1.6142

> <Gold.Chemscore.Internal.Correction>
   9.000000E+99

> <Gold.Chemscore.Hbonds>
donor molecule, donor type, donor heavy atom, donor atom, acceptor molecule, acceptor atom, score
      L1  H    15    50       P1  7957  0.96

> <Gold.Chemscore.Hbond.Weighted>
-2.7147

> <Gold.Chemscore.Metal.Weighted>
-0.0000

> <Gold.Chemscore.Lipo.Weighted>
-14.1815

> <Gold.Chemscore.Internal_Hbond.Weighted>
0.0000

> <Gold.Chemscore.DEClash.Weighted>
0.2458

> <Gold.Chemscore.DEInternal.Weighted>
0.8456

> <Gold.Chemscore.Rot.Weighted>
4.1324

> <Gold.Chemscore.Internal.Correction.Weighted>
   9.000000E+99

> <Gold.Protein.RotatedTorsions>
[ 6907 6896 6895 6894 ] final -117.79 input  -60.11 | X-H torsion
[ 7974 7965 7964 7962 ] final -136.33 input  175.53 | X-H torsion
[ 8008 7997 7996 7995 ] final    8.00 input   59.86 | X-H torsion
[ 10167 10162 10161 10158 ] final  -61.89 input  -65.29 | X-H torsion
[ 10718 10713 10712 10709 ] final  -77.00 input   66.30 | X-H torsion
[ 10763 10752 10751 10750 ] final  106.44 input  -60.55 | X-H torsion
[ 11005 11000 10999 10996 ] final  -88.71 input  -57.11 | X-H torsion

> <Gold.Protein.ActiveResidues>
 VAL166  LYS551  ARG553  GLY616  TRP617  ASP618  TYR619  PRO620  LYS621  CYS622 
 ASP623  PHE694  ASN695  SER759  ASP760  ASP761  ALA762  ILE779  LEU786  VAL792 
 PHE793  MET794  SER795  GLU796  ALA797  LYS798  CYS799  TRP800  GLU811  SER814 

> <Gold.Protein.RotatedAtoms>
  150.8165  133.8327  159.3157 H   0  0  0  0  0  0  0  0  0  0  0  0  # atno 6907 bound_to 6896
  151.6098  135.1039  160.0088 H   0  0  0  0  0  0  0  0  0  0  0  0  # atno 6908 bound_to 6896
  152.4256  133.7150  159.6557 H   0  0  0  0  0  0  0  0  0  0  0  0  # atno 6909 bound_to 6896
  144.8936  140.6676  143.5129 H   0  0  0  0  0  0  0  0  0  0  0  0  # atno 7974 bound_to 7965
  154.7612  140.2785  155.6213 H   0  0  0  0  0  0  0  0  0  0  0  0  # atno 8008 bound_to 7997
  156.2916  140.2659  156.2318 H   0  0  0  0  0  0  0  0  0  0  0  0  # atno 8009 bound_to 7997
  155.0015  140.0372  157.2352 H   0  0  0  0  0  0  0  0  0  0  0  0  # atno 8010 bound_to 7997
  140.5976  143.2354  151.6001 H   0  0  0  0  0  0  0  0  0  0  0  0  # atno 10167 bound_to 10162
  156.0158  130.4480  150.3279 H   0  0  0  0  0  0  0  0  0  0  0  0  # atno 10718 bound_to 10713
  153.3931  135.3877  155.1936 H   0  0  0  0  0  0  0  0  0  0  0  0  # atno 10763 bound_to 10752
  154.8721  135.3753  154.4713 H   0  0  0  0  0  0  0  0  0  0  0  0  # atno 10764 bound_to 10752
  153.5202  135.7087  153.5797 H   0  0  0  0  0  0  0  0  0  0  0  0  # atno 10765 bound_to 10752
  141.1597  133.7586  156.9490 H   0  0  0  0  0  0  0  0  0  0  0  0  # atno 11005 bound_to 11000
  145.3739  139.1652  143.4317 LP  0  0  0  0  0  0  0  0  0  0  0  0  # atno 17320 bound_to 7965
  146.3068  140.3814  142.8684 LP  0  0  0  0  0  0  0  0  0  0  0  0  # atno 17321 bound_to 7965
  139.5269  144.3033  152.1055 LP  0  0  0  0  0  0  0  0  0  0  0  0  # atno 17342 bound_to 10162
  140.2208  144.4468  150.6343 LP  0  0  0  0  0  0  0  0  0  0  0  0  # atno 17343 bound_to 10162
  157.1378  131.0288  151.2941 LP  0  0  0  0  0  0  0  0  0  0  0  0  # atno 17370 bound_to 10713
  157.4497  130.7591  149.7140 LP  0  0  0  0  0  0  0  0  0  0  0  0  # atno 17371 bound_to 10713
  140.1270  134.9380  157.2284 LP  0  0  0  0  0  0  0  0  0  0  0  0  # atno 17394 bound_to 11000
  140.3001  134.3142  155.7292 LP  0  0  0  0  0  0  0  0  0  0  0  0  # atno 17395 bound_to 11000

$$$$
