#       Name:                AV-unprocessed.smi:1718
#       Creating user name   scv26
#       Creation time:       Fri Mar 27 08:13:09 2020


#       File generated by GOLD software.
#

@<TRIPOS>MOLECULE
AV-unprocessed.smi:1718
    48    49     1
SMALL
NO_CHARGES


@<TRIPOS>ATOM
      1 ****        -0.9233  -2.6932   1.8200 C.3            1 S1                 0.0000
      2 ****        -0.5824  -1.8869   0.5578 C.3            1 S1                 0.0000
      3 ****         0.8307  -1.9339   0.3892 O.3            1 S1                 0.0000
      4 ****         1.3088  -1.5295  -0.8898 C.3            1 S1                 0.0000
      5 ****         2.8368  -1.6666  -0.9262 C.3            1 S1                 0.0000
      6 ****         3.5686  -0.9123   0.1946 C.3            1 S1                 0.0000
      7 ****         4.1809  -2.0215   1.0277 C.3            1 S1                 0.0000
      8 ****         4.3688  -3.1291   0.0003 C.3            1 S1                 0.0000
      9 ****         3.1958  -3.0396  -0.7928 O.3            1 S1                 0.0000
     10 ****        -1.0527  -0.4282   0.6780 C.2            1 S1                 0.0000
     11 ****        -0.7560   0.2217   1.6802 O.2            1 S1                 0.0000
     12 ****        -1.7773   0.0321  -0.3613 N.am           1 S1                 0.0000
     13 ****        -2.3241   1.3084  -0.5782 C.2            1 S1                 0.0000
     14 ****        -1.9870   2.4295   0.1121 C.2            1 S1                 0.0000
     15 ****        -2.5890   3.7215  -0.1721 C.2            1 S1                 0.0000
     16 ****        -2.2679   4.9504   0.6648 C.3            1 S1                 0.0000
     17 ****        -3.3032   5.7901   0.7090 F              1 S1                 0.0000
     18 ****        -1.9524   4.6087   1.9141 F              1 S1                 0.0000
     19 ****        -1.2302   5.5984   0.1375 F              1 S1                 0.0000
     20 ****        -3.5070   3.7524  -1.1557 C.2            1 S1                 0.0000
     21 ****        -3.8413   2.6102  -1.8865 N.am           1 S1                 0.0000
     22 ****        -3.3117   1.3858  -1.6675 C.2            1 S1                 0.0000
     23 ****        -3.6597   0.4269  -2.3557 O.2            1 S1                 0.0000
     24 ****        -4.5264   2.7192  -2.6204 H              1 S1                 0.0000
     25 ****        -1.9959  -2.6866   2.0171 H              1 S1                 0.0000
     26 ****        -0.4173  -2.2961   2.7010 H              1 S1                 0.0000
     27 ****        -0.6159  -3.7330   1.7070 H              1 S1                 0.0000
     28 ****        -1.0669  -2.3674  -0.2947 H              1 S1                 0.0000
     29 ****         0.8597  -2.1438  -1.6714 H              1 S1                 0.0000
     30 ****         1.0391  -0.4931  -1.0950 H              1 S1                 0.0000
     31 ****         3.2046  -1.3162  -1.8915 H              1 S1                 0.0000
     32 ****         4.3557  -0.2892  -0.2317 H              1 S1                 0.0000
     33 ****         2.9157  -0.2655   0.7817 H              1 S1                 0.0000
     34 ****         5.1106  -1.7277   1.5157 H              1 S1                 0.0000
     35 ****         3.4764  -2.3433   1.7958 H              1 S1                 0.0000
     36 ****         5.2450  -2.9389  -0.6213 H              1 S1                 0.0000
     37 ****         4.4737  -4.1142   0.4551 H              1 S1                 0.0000
     38 ****        -1.9877  -0.6399  -1.0856 H              1 S1                 0.0000
     39 ****        -1.2408   2.4031   0.8886 H              1 S1                 0.0000
     40 ****        -4.0529   4.6363  -1.4510 H              1 S1                 0.0000
     41 ****         1.1286  -2.8755   0.5460 LP             1 S1                 0.0000
     42 ****         1.2430  -1.3351   1.0758 LP             1 S1                 0.0000
     43 ****         3.3700  -3.4310  -1.6963 LP             1 S1                 0.0000
     44 ****         2.4517  -3.5403  -0.3505 LP             1 S1                 0.0000
     45 ****        -0.2138  -0.1998   2.4070 LP             1 S1                 0.0000
     46 ****        -1.0573   1.1713   1.7677 LP             1 S1                 0.0000
     47 ****        -3.2652  -0.4769  -2.1899 LP             1 S1                 0.0000
     48 ****        -4.3371   0.5515  -3.0807 LP             1 S1                 0.0000
@<TRIPOS>BOND
    1    1    2 1     
    2    1   25 1     
    3    1   26 1     
    4    1   27 1     
    5    2    3 1     
    6    2   10 1     
    7    2   28 1     
    8    3    4 1     
    9    4    5 1     
   10    4   29 1     
   11    4   30 1     
   12    5    9 1     
   13    5    6 1     
   14    5   31 1     
   15    6    7 1     
   16    6   32 1     
   17    6   33 1     
   18    7    8 1     
   19    7   34 1     
   20    7   35 1     
   21    8    9 1     
   22    8   36 1     
   23    8   37 1     
   24   10   11 2     
   25   10   12 am    
   26   12   13 1     
   27   12   38 1     
   28   13   22 1     
   29   13   14 2     
   30   14   15 1     
   31   14   39 1     
   32   15   16 1     
   33   15   20 2     
   34   16   17 1     
   35   16   18 1     
   36   16   19 1     
   37   20   21 1     
   38   20   40 1     
   39   21   24 1     
   40   21   22 am    
   41   22   23 2     
   42    3   41 1     
   43    3   42 1     
   44    9   43 1     
   45    9   44 1     
   46   11   45 1     
   47   11   46 1     
   48   23   47 1     
   49   23   48 1     
@<TRIPOS>SUBSTRUCTURE
      1 S1             1
@<TRIPOS>SET
LONE_PAIRS      STATIC     ATOMS    <user>   **** ""
8 41 42 43 44 45 46 47 48
DONOR_HYDROGENS      STATIC     ATOMS    <user>   **** ""
2 38 24
ATOM$BLUE        STATIC     ATOMS    COLORGROUP SYSTEM
8 41 42 43 44 45 46 47 48
ATOM$RED        STATIC     ATOMS    COLORGROUP SYSTEM
2 38 24
