AV-unprocessed.smi:1626|AV-procd|sdf|6511|dock5
  -GOLD-   22720 7183D 1   1.00000     0.00000
 Structure written by MMmdl.
 49 51  0  0  0  0  0  0  0  0  3 V2000
  152.4023  143.8869  160.7753 C   0  0  0  0  0  0  0  0  0  0  0  0
  152.1064  142.9491  159.6171 C   0  0  0  0  0  0  0  0  0  0  0  0
  151.2069  143.3782  158.6149 C   0  0  0  0  0  0  0  0  0  0  0  0
  150.9578  142.4992  157.5676 C   0  0  0  0  0  0  0  0  0  0  0  0
  150.1381  142.6226  156.4436 N   0  3  0  0  0  0  0  0  0  0  0  0
  150.2255  141.4911  155.6907 C   0  0  0  0  0  0  0  0  0  0  0  0
  151.0828  140.6434  156.3227 N   0  0  0  0  0  0  0  0  0  0  0  0
  151.5327  139.2975  155.9423 C   0  0  0  0  0  0  0  0  0  0  0  0
  150.5511  138.5772  154.9967 C   0  0  1  0  0  0  0  0  0  0  0  0
  150.5586  139.2238  153.7384 O   0  0  0  0  0  0  0  0  0  0  0  0
  150.9390  137.0989  154.7945 C   0  0  0  0  0  0  0  0  0  0  0  0
  149.7562  136.2187  154.6125 N   0  3  2  0  0  0  0  0  0  0  0  0
  148.5782  136.6396  155.4181 C   0  0  0  0  0  0  0  0  0  0  0  0
  147.3452  135.7829  155.0848 C   0  0  0  0  0  0  0  0  0  0  0  0
  147.6426  134.2913  155.2975 C   0  0  1  0  0  0  0  0  0  0  0  0
  146.5332  133.5191  154.8906 O   0  0  0  0  0  0  0  0  0  0  0  0
  148.8796  133.8861  154.4827 C   0  0  0  0  0  0  0  0  0  0  0  0
  150.0801  134.7838  154.8260 C   0  0  0  0  0  0  0  0  0  0  0  0
  151.5678  141.2318  157.4954 C   0  0  0  0  0  0  0  0  0  0  0  0
  152.4559  140.7928  158.4739 C   0  0  0  0  0  0  0  0  0  0  0  0
  152.7224  141.6726  159.5477 C   0  0  0  0  0  0  0  0  0  0  0  0
  153.6886  141.2223  160.6303 C   0  0  0  0  0  0  0  0  0  0  0  0
  151.8721  144.8336  160.6676 H   0  0  0  0  0  0  0  0  0  0  0  0
  153.4687  144.1079  160.8276 H   0  0  0  0  0  0  0  0  0  0  0  0
  152.0944  143.4378  161.7200 H   0  0  0  0  0  0  0  0  0  0  0  0
  150.7351  144.3492  158.6605 H   0  0  0  0  0  0  0  0  0  0  0  0
  149.7064  141.3007  154.7620 H   0  0  0  0  0  0  0  0  0  0  0  0
  152.5085  139.4041  155.4657 H   0  0  0  0  0  0  0  0  0  0  0  0
  151.6952  138.7181  156.8520 H   0  0  0  0  0  0  0  0  0  0  0  0
  149.5459  138.6546  155.4094 H   0  0  0  0  0  0  0  0  0  0  0  0
  149.6900  139.1721  153.3685 H   0  0  0  0  0  0  0  0  0  0  0  0
  151.5883  137.0319  153.9199 H   0  0  0  0  0  0  0  0  0  0  0  0
  151.5303  136.7378  155.6375 H   0  0  0  0  0  0  0  0  0  0  0  0
  148.8137  136.5571  156.4805 H   0  0  0  0  0  0  0  0  0  0  0  0
  148.3422  137.6861  155.2294 H   0  0  0  0  0  0  0  0  0  0  0  0
  146.5017  136.0905  155.7039 H   0  0  0  0  0  0  0  0  0  0  0  0
  147.0514  135.9604  154.0491 H   0  0  0  0  0  0  0  0  0  0  0  0
  147.8220  134.0991  156.3562 H   0  0  0  0  0  0  0  0  0  0  0  0
  146.6105  133.3384  153.9658 H   0  0  0  0  0  0  0  0  0  0  0  0
  149.1305  132.8419  154.6739 H   0  0  0  0  0  0  0  0  0  0  0  0
  148.6644  133.9624  153.4155 H   0  0  0  0  0  0  0  0  0  0  0  0
  150.9257  134.4992  154.1986 H   0  0  0  0  0  0  0  0  0  0  0  0
  150.3852  134.6276  155.8618 H   0  0  0  0  0  0  0  0  0  0  0  0
  152.9268  139.8226  158.4197 H   0  0  0  0  0  0  0  0  0  0  0  0
  154.0512  140.2105  160.4467 H   0  0  0  0  0  0  0  0  0  0  0  0
  153.2026  141.2289  161.6063 H   0  0  0  0  0  0  0  0  0  0  0  0
  154.5542  141.8841  160.6694 H   0  0  0  0  0  0  0  0  0  0  0  0
  149.4951  136.3023  153.6399 H   0  0  0  0  0  0  0  0  0  0  0  0
  149.5637  143.4207  156.2031 H   0  0  0  0  0  0  0  0  0  0  0  0
  1  2  1  0  0  0  0
  1 23  1  0  0  0  0
  1 24  1  0  0  0  0
  1 25  1  0  0  0  0
  2 21  1  0  0  0  0
  2  3  2  0  0  0  0
  3  4  1  0  0  0  0
  3 26  1  0  0  0  0
  4 19  2  0  0  0  0
  4  5  1  0  0  0  0
  5  6  2  0  0  0  0
  5 49  1  0  0  0  0
  6  7  1  0  0  0  0
  6 27  1  0  0  0  0
  7  8  1  0  0  0  0
  7 19  1  0  0  0  0
  8  9  1  0  0  0  0
  8 28  1  0  0  0  0
  8 29  1  0  0  0  0
  9 10  1  0  0  0  0
  9 11  1  0  0  0  0
  9 30  1  0  0  0  0
 10 31  1  0  0  0  0
 11 12  1  0  0  0  0
 11 32  1  0  0  0  0
 11 33  1  0  0  0  0
 12 18  1  0  0  0  0
 12 13  1  0  0  0  0
 12 48  1  0  0  0  0
 13 14  1  0  0  0  0
 13 34  1  0  0  0  0
 13 35  1  0  0  0  0
 14 15  1  0  0  0  0
 14 36  1  0  0  0  0
 14 37  1  0  0  0  0
 15 16  1  0  0  0  0
 15 17  1  0  0  0  0
 15 38  1  0  0  0  0
 16 39  1  0  0  0  0
 17 18  1  0  0  0  0
 17 40  1  0  0  0  0
 17 41  1  0  0  0  0
 18 42  1  0  0  0  0
 18 43  1  0  0  0  0
 19 20  1  0  0  0  0
 20 21  2  0  0  0  0
 20 44  1  0  0  0  0
 21 22  1  0  0  0  0
 22 45  1  0  0  0  0
 22 46  1  0  0  0  0
 22 47  1  0  0  0  0
M  CHG  1   5   1
M  CHG  1  12   1
M  END
> <s_m_source_file>
AV-unprocessed.smi

> <i_m_source_file_index>
1626

> <i_lp_mmshare_version>
43012

> <i_f3d_flags>
0

> <s_epik_input>
W0NIM11jKFtjSF0xKWMoW0NIM10pW2NIXWMoYzEyKW4oW2NIXW4yKVtDSDJdW0NASF0oW09IXSlbQ0gyXU4zW0NIMl1bQ0gyXVtDSF0oW09IXSlbQ0gyXVtDSDJdMw==

> <s_epik_cmdline>
J2VwaWtfcHl0aG9uJywgJy1waCcsICc3LjAnLCAnLXRuJywgJzgnLCAnLW1hJywgJzIwMCcsICctbWV0YWxfYmluZGluZycsICctaW1hZScsICc8aW5maWxlLm1hZT4nLCAnLW9tYWUnLCAnPG91dGZpbGUubWFlPic=

> <r_epik_Ionization_Penalty>
1.19369

> <r_epik_Ionization_Penalty_Charging>
1.19369

> <r_epik_Ionization_Penalty_Neutral>
1.68219e-06

> <r_epik_State_Penalty>
1.27429

> <r_epik_Charging_Adjusted_Penalty>
2.46798

> <i_epik_Tot_Q>
2

> <i_epik_Tot_abs_Q>
2

> <r_epik_Metal_State_Penalty>
5.29157

> <b_epik_Metal_Only>
0

> <s_lp_Force_Field>
OPLS_2005

> <r_lp_Energy>
30.226

> <b_lp_Chiralities_Consistent>
1

> <s_lp_Variant>
AV-unprocessed.smi:1626-6

> <Gold.Version>
5.8.1

> <Gold.Id.Protein>
6NUR|6NUR_protein|mol2

> <Gold.PLP.Fitness>
55.9687

> <Gold.PLP.PLP>
-42.7864

> <Gold.PLP.part.hbond>
-4.1289

> <Gold.PLP.part.metal>
0.0000

> <Gold.PLP.part.buried>
-2.6567

> <Gold.PLP.part.nonpolar>
-36.1181

> <Gold.PLP.part.repulsive>
0.1301

> <Gold.PLP.ligand.clash>
0.0000

> <Gold.PLP.ligand.torsion>
1.0087

> <Gold.PLP.Chemscore.Hbond>
5.0563

> <Gold.PLP.Chemscore.CHOScore>
0.0000

> <Gold.PLP.Chemscore.Metal>
0.0000

> <Gold.Chemscore.Hbonds>
donor molecule, donor type, donor heavy atom, donor atom, acceptor molecule, acceptor atom, score
      L1  H     5    49       P1  8028  2.00
      L1  H    10    31       P1  7957  0.04
      L1  H    12    48       P1  7948  2.00
      P1  H  7989  7998       L1    10  0.98

> <Gold.PLP.Chemscore.Internal.Correction>
0.0307

> <Gold.Rescore>
     Score         DG    S(hbond)    S(metal)    S(lipo)     H(rot)  DE(clash)    DE(int)     intcor
     18.52     -20.80       2.94        0.00     106.90       2.74       0.54       1.73       ----

> <Gold.Chemscore.Fitness>
18.5238

> <Gold.Chemscore.DG>
-20.8003

> <Gold.Chemscore.ZeroCoef>
-5.4800

> <Gold.Chemscore.Hbond>
2.9412

> <Gold.Chemscore.Metal>
0.0000

> <Gold.Chemscore.Lipo>
106.8989

> <Gold.Chemscore.Internal_Hbond>
0.0000

> <Gold.Chemscore.DEClash>
0.5424

> <Gold.Chemscore.DEInternal>
1.7341

> <Gold.Chemscore.Rot>
2.7384

> <Gold.Chemscore.Internal.Correction>
   9.000000E+99

> <Gold.Chemscore.Hbonds>
donor molecule, donor type, donor heavy atom, donor atom, acceptor molecule, acceptor atom, score
      L1  H     5    49       P1  8028  0.96
      L1  H    10    31       P1  7957  0.04
      L1  H    12    48       P1  7948  0.65
      P1  H  7989  7998       L1    10  0.88

> <Gold.Chemscore.Hbond.Weighted>
-9.8235

> <Gold.Chemscore.Metal.Weighted>
-0.0000

> <Gold.Chemscore.Lipo.Weighted>
-12.5072

> <Gold.Chemscore.Internal_Hbond.Weighted>
0.0000

> <Gold.Chemscore.DEClash.Weighted>
0.5424

> <Gold.Chemscore.DEInternal.Weighted>
1.7341

> <Gold.Chemscore.Rot.Weighted>
7.0103

> <Gold.Chemscore.Internal.Correction.Weighted>
   9.000000E+99

> <Gold.Protein.RotatedTorsions>
[ 6907 6896 6895 6894 ] final  -88.40 input  -60.11 | X-H torsion
[ 7974 7965 7964 7962 ] final  -11.72 input  175.53 | X-H torsion
[ 8008 7997 7996 7995 ] final   81.31 input   59.86 | X-H torsion
[ 10167 10162 10161 10158 ] final  147.22 input  -65.29 | X-H torsion
[ 10718 10713 10712 10709 ] final  -90.31 input   66.30 | X-H torsion
[ 10763 10752 10751 10750 ] final  -54.90 input  -60.55 | X-H torsion
[ 11005 11000 10999 10996 ] final  -88.42 input  -57.11 | X-H torsion

> <Gold.Protein.ActiveResidues>
 VAL166  LYS551  ARG553  GLY616  TRP617  ASP618  TYR619  PRO620  LYS621  CYS622 
 ASP623  PHE694  ASN695  SER759  ASP760  ASP761  ALA762  ILE779  LEU786  VAL792 
 PHE793  MET794  SER795  GLU796  ALA797  LYS798  CYS799  TRP800  GLU811  SER814 

> <Gold.Protein.RotatedAtoms>
  150.6868  134.2747  159.4602 H   0  0  0  0  0  0  0  0  0  0  0  0  # atno 6907 bound_to 6896
  152.0666  134.9558  160.0584 H   0  0  0  0  0  0  0  0  0  0  0  0  # atno 6908 bound_to 6896
  152.0964  133.4192  159.4604 H   0  0  0  0  0  0  0  0  0  0  0  0  # atno 6909 bound_to 6896
  146.2178  140.2952  142.8371 H   0  0  0  0  0  0  0  0  0  0  0  0  # atno 7974 bound_to 7965
  155.8953  140.3436  155.5986 H   0  0  0  0  0  0  0  0  0  0  0  0  # atno 8008 bound_to 7997
  155.7563  140.0826  157.2196 H   0  0  0  0  0  0  0  0  0  0  0  0  # atno 8009 bound_to 7997
  154.4037  140.1544  156.2768 H   0  0  0  0  0  0  0  0  0  0  0  0  # atno 8010 bound_to 7997
  139.4894  144.5772  151.6943 H   0  0  0  0  0  0  0  0  0  0  0  0  # atno 10167 bound_to 10162
  155.9987  130.4905  150.5303 H   0  0  0  0  0  0  0  0  0  0  0  0  # atno 10718 bound_to 10713
  154.1822  135.6441  153.5037 H   0  0  0  0  0  0  0  0  0  0  0  0  # atno 10763 bound_to 10752
  153.0056  135.5408  154.6502 H   0  0  0  0  0  0  0  0  0  0  0  0  # atno 10764 bound_to 10752
  154.5869  135.2930  155.0648 H   0  0  0  0  0  0  0  0  0  0  0  0  # atno 10765 bound_to 10752
  141.1602  133.7569  156.9449 H   0  0  0  0  0  0  0  0  0  0  0  0  # atno 11005 bound_to 11000
  144.9098  140.7743  143.5815 LP  0  0  0  0  0  0  0  0  0  0  0  0  # atno 17320 bound_to 7965
  145.2882  139.1893  143.4754 LP  0  0  0  0  0  0  0  0  0  0  0  0  # atno 17321 bound_to 7965
  140.5370  144.0639  150.6074 LP  0  0  0  0  0  0  0  0  0  0  0  0  # atno 17342 bound_to 10162
  140.3649  143.2887  152.0343 LP  0  0  0  0  0  0  0  0  0  0  0  0  # atno 17343 bound_to 10162
  157.3253  131.0689  151.1902 LP  0  0  0  0  0  0  0  0  0  0  0  0  # atno 17370 bound_to 10713
  157.2801  130.6746  149.6061 LP  0  0  0  0  0  0  0  0  0  0  0  0  # atno 17371 bound_to 10713
  140.1296  134.9364  157.2319 LP  0  0  0  0  0  0  0  0  0  0  0  0  # atno 17394 bound_to 11000
  140.2969  134.3176  155.7300 LP  0  0  0  0  0  0  0  0  0  0  0  0  # atno 17395 bound_to 11000

$$$$
