AV-unprocessed.smi:1046|AV-procd|sdf|4558|dock5
  -GOLD-   22720 2593D 1   1.00000     0.00000
 Structure written by MMmdl.
 54 56  0  0  0  0  0  0  0  0  3 V2000
  152.0247  144.5090  160.9376 C   0  0  0  0  0  0  0  0  0  0  0  0
  151.9136  143.4541  159.8499 C   0  0  0  0  0  0  0  0  0  0  0  0
  151.1288  143.7405  158.7103 C   0  0  0  0  0  0  0  0  0  0  0  0
  151.0441  142.7548  157.7341 C   0  0  0  0  0  0  0  0  0  0  0  0
  150.3596  142.7301  156.5173 N   0  3  0  0  0  0  0  0  0  0  0  0
  150.5768  141.5373  155.8976 C   0  0  0  0  0  0  0  0  0  0  0  0
  151.3892  140.7985  156.7012 N   0  0  0  0  0  0  0  0  0  0  0  0
  151.9296  139.4462  156.4984 C   0  0  0  0  0  0  0  0  0  0  0  0
  151.4330  138.4347  157.5524 C   0  0  2  0  0  0  0  0  0  0  0  0
  152.5353  137.9103  158.2638 O   0  0  0  0  0  0  0  0  0  0  0  0
  150.6805  137.2456  156.9230 C   0  0  0  0  0  0  0  0  0  0  0  0
  150.7423  137.1625  155.4590 N   0  0  0  0  0  0  0  0  0  0  0  0
  150.4600  135.8181  154.9563 C   0  0  0  0  0  0  0  0  0  0  0  0
  148.9758  135.4180  155.0839 C   0  0  0  0  0  0  0  0  0  0  0  0
  148.1117  136.4002  154.3795 N   0  3  0  0  0  0  0  0  0  0  0  0
  146.6772  136.0179  154.4112 C   0  0  0  0  0  0  0  0  0  0  0  0
  146.4131  134.6470  153.7652 C   0  0  0  0  0  0  0  0  0  0  0  0
  146.7859  134.6724  152.4033 O   0  0  0  0  0  0  0  0  0  0  0  0
  148.3751  137.7784  154.8730 C   0  0  0  0  0  0  0  0  0  0  0  0
  149.8766  138.1121  154.7547 C   0  0  0  0  0  0  0  0  0  0  0  0
  151.7083  141.5190  157.8589 C   0  0  0  0  0  0  0  0  0  0  0  0
  152.4867  141.2215  158.9756 C   0  0  0  0  0  0  0  0  0  0  0  0
  152.5847  142.2107  159.9801 C   0  0  0  0  0  0  0  0  0  0  0  0
  153.4261  141.9128  161.2097 C   0  0  0  0  0  0  0  0  0  0  0  0
  151.4058  145.3787  160.7145 H   0  0  0  0  0  0  0  0  0  0  0  0
  153.0559  144.8491  161.0358 H   0  0  0  0  0  0  0  0  0  0  0  0
  151.6986  144.1075  161.8973 H   0  0  0  0  0  0  0  0  0  0  0  0
  150.6156  144.6852  158.6038 H   0  0  0  0  0  0  0  0  0  0  0  0
  150.1775  141.2337  154.9405 H   0  0  0  0  0  0  0  0  0  0  0  0
  151.6191  139.1280  155.5026 H   0  0  0  0  0  0  0  0  0  0  0  0
  153.0187  139.4920  156.4747 H   0  0  0  0  0  0  0  0  0  0  0  0
  150.8026  138.9428  158.2815 H   0  0  0  0  0  0  0  0  0  0  0  0
  153.2242  137.7146  157.6472 H   0  0  0  0  0  0  0  0  0  0  0  0
  151.0986  136.3298  157.3440 H   0  0  0  0  0  0  0  0  0  0  0  0
  149.6420  137.2684  157.2523 H   0  0  0  0  0  0  0  0  0  0  0  0
  150.7503  135.7640  153.9062 H   0  0  0  0  0  0  0  0  0  0  0  0
  151.0858  135.0896  155.4734 H   0  0  0  0  0  0  0  0  0  0  0  0
  148.8337  134.4288  154.6471 H   0  0  0  0  0  0  0  0  0  0  0  0
  148.6797  135.3440  156.1311 H   0  0  0  0  0  0  0  0  0  0  0  0
  146.3293  135.9825  155.4449 H   0  0  0  0  0  0  0  0  0  0  0  0
  146.0851  136.7899  153.9173 H   0  0  0  0  0  0  0  0  0  0  0  0
  147.0097  133.8843  154.2664 H   0  0  0  0  0  0  0  0  0  0  0  0
  145.3717  134.3404  153.8573 H   0  0  0  0  0  0  0  0  0  0  0  0
  147.6513  135.0478  152.3336 H   0  0  0  0  0  0  0  0  0  0  0  0
  147.8094  138.5011  154.2864 H   0  0  0  0  0  0  0  0  0  0  0  0
  148.0337  137.8788  155.9038 H   0  0  0  0  0  0  0  0  0  0  0  0
  150.0605  139.1286  155.0997 H   0  0  0  0  0  0  0  0  0  0  0  0
  150.1481  138.1150  153.6982 H   0  0  0  0  0  0  0  0  0  0  0  0
  152.9938  140.2737  159.0796 H   0  0  0  0  0  0  0  0  0  0  0  0
  153.9200  140.9439  161.1302 H   0  0  0  0  0  0  0  0  0  0  0  0
  152.8029  141.8976  162.1042 H   0  0  0  0  0  0  0  0  0  0  0  0
  154.2001  142.6698  161.3391 H   0  0  0  0  0  0  0  0  0  0  0  0
  148.3910  136.3745  153.4088 H   0  0  0  0  0  0  0  0  0  0  0  0
  149.7866  143.4717  156.1350 H   0  0  0  0  0  0  0  0  0  0  0  0
  1  2  1  0  0  0  0
  1 25  1  0  0  0  0
  1 26  1  0  0  0  0
  1 27  1  0  0  0  0
  2 23  1  0  0  0  0
  2  3  2  0  0  0  0
  3  4  1  0  0  0  0
  3 28  1  0  0  0  0
  4 21  2  0  0  0  0
  4  5  1  0  0  0  0
  5  6  2  0  0  0  0
  5 54  1  0  0  0  0
  6  7  1  0  0  0  0
  6 29  1  0  0  0  0
  7  8  1  0  0  0  0
  7 21  1  0  0  0  0
  8  9  1  0  0  0  0
  8 30  1  0  0  0  0
  8 31  1  0  0  0  0
  9 10  1  0  0  0  0
  9 11  1  0  0  0  0
  9 32  1  0  0  0  0
 10 33  1  0  0  0  0
 11 12  1  0  0  0  0
 11 34  1  0  0  0  0
 11 35  1  0  0  0  0
 12 20  1  0  0  0  0
 12 13  1  0  0  0  0
 13 14  1  0  0  0  0
 13 36  1  0  0  0  0
 13 37  1  0  0  0  0
 14 15  1  0  0  0  0
 14 38  1  0  0  0  0
 14 39  1  0  0  0  0
 15 16  1  0  0  0  0
 15 19  1  0  0  0  0
 15 53  1  0  0  0  0
 16 17  1  0  0  0  0
 16 40  1  0  0  0  0
 16 41  1  0  0  0  0
 17 18  1  0  0  0  0
 17 42  1  0  0  0  0
 17 43  1  0  0  0  0
 18 44  1  0  0  0  0
 19 20  1  0  0  0  0
 19 45  1  0  0  0  0
 19 46  1  0  0  0  0
 20 47  1  0  0  0  0
 20 48  1  0  0  0  0
 21 22  1  0  0  0  0
 22 23  2  0  0  0  0
 22 49  1  0  0  0  0
 23 24  1  0  0  0  0
 24 50  1  0  0  0  0
 24 51  1  0  0  0  0
 24 52  1  0  0  0  0
M  CHG  1   5   1
M  CHG  1  15   1
M  END
> <s_m_source_file>
AV-unprocessed.smi

> <i_m_source_file_index>
1046

> <i_lp_mmshare_version>
43012

> <i_f3d_flags>
0

> <s_epik_input>
W0NIM11jKFtjSF0xKWMoW0NIM10pW2NIXWMoYzEyKW4oW2NIXW4yKVtDSDJdW0NASF0oW09IXSlbQ0gyXU4zW0NIMl1bQ0gyXU4oW0NIMl1bQ0gyXTMpW0NIMl1bQ0gyXVtPSF0=

> <s_epik_cmdline>
J2VwaWtfcHl0aG9uJywgJy1waCcsICc3LjAnLCAnLXRuJywgJzgnLCAnLW1hJywgJzIwMCcsICctbWV0YWxfYmluZGluZycsICctaW1hZScsICc8aW5maWxlLm1hZT4nLCAnLW9tYWUnLCAnPG91dGZpbGUubWFlPic=

> <r_epik_Ionization_Penalty>
1.37806

> <r_epik_Ionization_Penalty_Charging>
1.32954

> <r_epik_Ionization_Penalty_Neutral>
0.0485178

> <r_epik_State_Penalty>
2.26587

> <r_epik_Charging_Adjusted_Penalty>
3.59541

> <i_epik_Tot_Q>
2

> <i_epik_Tot_abs_Q>
2

> <r_epik_Metal_State_Penalty>
6.27317

> <b_epik_Metal_Only>
0

> <s_lp_Force_Field>
OPLS_2005

> <r_lp_Energy>
41.5641

> <b_lp_Chiralities_Consistent>
1

> <s_lp_Variant>
AV-unprocessed.smi:1046-11

> <Gold.Version>
5.8.1

> <Gold.Id.Protein>
6NUR|6NUR_protein|mol2

> <Gold.PLP.Fitness>
53.8656

> <Gold.PLP.PLP>
-42.1262

> <Gold.PLP.part.hbond>
-3.0000

> <Gold.PLP.part.metal>
0.0000

> <Gold.PLP.part.buried>
-5.7947

> <Gold.PLP.part.nonpolar>
-32.2924

> <Gold.PLP.part.repulsive>
0.1568

> <Gold.PLP.ligand.clash>
0.0000

> <Gold.PLP.ligand.torsion>
1.6520

> <Gold.PLP.Chemscore.Hbond>
5.0000

> <Gold.PLP.Chemscore.CHOScore>
0.0000

> <Gold.PLP.Chemscore.Metal>
0.0000

> <Gold.Chemscore.Hbonds>
donor molecule, donor type, donor heavy atom, donor atom, acceptor molecule, acceptor atom, score
      L1  H     5    54       P1  8028  2.00
      L1  H    15    53       P1  7948  2.00
      L1  H    18    44       P1  7948  1.00

> <Gold.PLP.Chemscore.Internal.Correction>
0.0433

> <Gold.Rescore>
     Score         DG    S(hbond)    S(metal)    S(lipo)     H(rot)  DE(clash)    DE(int)     intcor
     18.83     -20.66       2.98        0.00     116.76       3.29       0.07       1.76       ----

> <Gold.Chemscore.Fitness>
18.8311

> <Gold.Chemscore.DG>
-20.6631

> <Gold.Chemscore.ZeroCoef>
-5.4800

> <Gold.Chemscore.Hbond>
2.9773

> <Gold.Chemscore.Metal>
0.0000

> <Gold.Chemscore.Lipo>
116.7566

> <Gold.Chemscore.Internal_Hbond>
0.0000

> <Gold.Chemscore.DEClash>
0.0695

> <Gold.Chemscore.DEInternal>
1.7624

> <Gold.Chemscore.Rot>
3.2896

> <Gold.Chemscore.Internal.Correction>
   9.000000E+99

> <Gold.Chemscore.Hbonds>
donor molecule, donor type, donor heavy atom, donor atom, acceptor molecule, acceptor atom, score
      L1  H     5    54       P1  8028  0.99
      L1  H    15    53       P1  7948  1.00
      L1  H    18    44       P1  7948  0.96

> <Gold.Chemscore.Hbond.Weighted>
-9.9441

> <Gold.Chemscore.Metal.Weighted>
-0.0000

> <Gold.Chemscore.Lipo.Weighted>
-13.6605

> <Gold.Chemscore.Internal_Hbond.Weighted>
0.0000

> <Gold.Chemscore.DEClash.Weighted>
0.0695

> <Gold.Chemscore.DEInternal.Weighted>
1.7624

> <Gold.Chemscore.Rot.Weighted>
8.4215

> <Gold.Chemscore.Internal.Correction.Weighted>
   9.000000E+99

> <Gold.Protein.RotatedTorsions>
[ 6907 6896 6895 6894 ] final -168.72 input  -60.11 | X-H torsion
[ 7974 7965 7964 7962 ] final  110.44 input  175.53 | X-H torsion
[ 8008 7997 7996 7995 ] final  -90.38 input   59.86 | X-H torsion
[ 10167 10162 10161 10158 ] final   36.16 input  -65.29 | X-H torsion
[ 10718 10713 10712 10709 ] final   41.49 input   66.30 | X-H torsion
[ 10763 10752 10751 10750 ] final -119.35 input  -60.55 | X-H torsion
[ 11005 11000 10999 10996 ] final  -96.69 input  -57.11 | X-H torsion

> <Gold.Protein.ActiveResidues>
 VAL166  LYS551  ARG553  GLY616  TRP617  ASP618  TYR619  PRO620  LYS621  CYS622 
 ASP623  PHE694  ASN695  SER759  ASP760  ASP761  ALA762  ILE779  LEU786  VAL792 
 PHE793  MET794  SER795  GLU796  ALA797  LYS798  CYS799  TRP800  GLU811  SER814 

> <Gold.Protein.RotatedAtoms>
  151.4801  133.3548  159.2836 H   0  0  0  0  0  0  0  0  0  0  0  0  # atno 6907 bound_to 6896
  150.8903  134.8307  159.7299 H   0  0  0  0  0  0  0  0  0  0  0  0  # atno 6908 bound_to 6896
  152.4818  134.4710  159.9687 H   0  0  0  0  0  0  0  0  0  0  0  0  # atno 6909 bound_to 6896
  145.2550  139.2725  143.4047 H   0  0  0  0  0  0  0  0  0  0  0  0  # atno 7974 bound_to 7965
  154.6978  140.0531  157.0428 H   0  0  0  0  0  0  0  0  0  0  0  0  # atno 8008 bound_to 7997
  155.0726  140.3201  155.4607 H   0  0  0  0  0  0  0  0  0  0  0  0  # atno 8009 bound_to 7997
  156.2750  140.2079  156.5854 H   0  0  0  0  0  0  0  0  0  0  0  0  # atno 8010 bound_to 7997
  140.4154  144.1535  150.6143 H   0  0  0  0  0  0  0  0  0  0  0  0  # atno 10167 bound_to 10162
  157.3941  130.7823  149.7294 H   0  0  0  0  0  0  0  0  0  0  0  0  # atno 10718 bound_to 10713
  154.8614  135.4241  154.2284 H   0  0  0  0  0  0  0  0  0  0  0  0  # atno 10763 bound_to 10752
  153.3274  135.6986  153.6983 H   0  0  0  0  0  0  0  0  0  0  0  0  # atno 10764 bound_to 10752
  153.6013  135.3536  155.2920 H   0  0  0  0  0  0  0  0  0  0  0  0  # atno 10765 bound_to 10752
  141.1403  133.8116  157.0605 H   0  0  0  0  0  0  0  0  0  0  0  0  # atno 11005 bound_to 11000
  146.3292  140.2951  142.8617 LP  0  0  0  0  0  0  0  0  0  0  0  0  # atno 17320 bound_to 7965
  144.9469  140.8138  143.5596 LP  0  0  0  0  0  0  0  0  0  0  0  0  # atno 17321 bound_to 7965
  140.4593  143.2455  151.9242 LP  0  0  0  0  0  0  0  0  0  0  0  0  # atno 17342 bound_to 10162
  139.4782  144.5484  151.8423 LP  0  0  0  0  0  0  0  0  0  0  0  0  # atno 17343 bound_to 10162
  155.9806  130.4028  150.3520 LP  0  0  0  0  0  0  0  0  0  0  0  0  # atno 17370 bound_to 10713
  157.1640  131.0352  151.2827 LP  0  0  0  0  0  0  0  0  0  0  0  0  # atno 17371 bound_to 10713
  140.0574  134.9773  157.1245 LP  0  0  0  0  0  0  0  0  0  0  0  0  # atno 17394 bound_to 11000
  140.3899  134.2196  155.7166 LP  0  0  0  0  0  0  0  0  0  0  0  0  # atno 17395 bound_to 11000

$$$$
