AV-unprocessed.smi:2725|AV-procd|sdf|10516|dock6
  -GOLD-   2272014553D 1   1.00000     0.00000
 Structure written by MMmdl.
 44 45  0  0  0  0  0  0  0  0  1 V2000
  152.4912  139.7066  156.1290 O   0  0  0  0  0  0  0  0  0  0  0  0
  151.5175  139.5070  156.8547 C   0  0  0  0  0  0  0  0  0  0  0  0
  151.1454  140.5171  157.9424 C   0  0  0  0  0  0  0  0  0  0  0  0
  150.9269  141.9344  157.3821 C   0  0  0  0  0  0  0  0  0  0  0  0
  150.8822  143.0139  158.4779 C   0  0  0  0  0  0  0  0  0  0  0  0
  150.9649  144.4519  157.9556 C   0  0  0  0  0  0  0  0  0  0  0  0
  151.4421  145.2905  159.1475 C   0  0  0  0  0  0  0  0  0  0  0  0
  152.0883  144.3090  160.1369 C   0  0  0  0  0  0  0  0  0  0  0  0
  152.0541  142.9365  159.4584 C   0  0  0  0  0  0  0  0  0  0  0  0
  150.7226  138.4318  156.7475 N   0  0  0  0  0  0  0  0  0  0  0  0
  150.8639  137.3631  155.7588 C   0  0  1  0  0  0  0  0  0  0  0  0
  149.8036  136.2678  156.0029 C   0  0  0  0  0  0  0  0  0  0  0  0
  149.9043  135.2504  155.0292 O   0  0  0  0  0  0  0  0  0  0  0  0
  150.7352  137.9594  154.3407 C   0  0  0  0  0  0  0  0  0  0  0  0
  149.5989  138.9598  154.1973 C   0  0  0  0  0  0  0  0  0  0  0  0
  148.2824  138.5252  153.9307 C   0  0  0  0  0  0  0  0  0  0  0  0
  147.2665  139.4933  153.8149 C   0  0  0  0  0  0  0  0  0  0  0  0
  147.6037  140.8519  153.9675 C   0  0  0  0  0  0  0  0  0  0  0  0
  148.9478  141.1831  154.2314 C   0  0  0  0  0  0  0  0  0  0  0  0
  149.9294  140.2624  154.3445 N   0  0  0  0  0  0  0  0  0  0  0  0
  150.2396  140.1622  158.4341 H   0  0  0  0  0  0  0  0  0  0  0  0
  151.9253  140.5397  158.7052 H   0  0  0  0  0  0  0  0  0  0  0  0
  151.7352  142.1713  156.6884 H   0  0  0  0  0  0  0  0  0  0  0  0
  150.0059  141.9694  156.7983 H   0  0  0  0  0  0  0  0  0  0  0  0
  149.9585  142.9058  159.0490 H   0  0  0  0  0  0  0  0  0  0  0  0
  151.7017  144.5131  157.1535 H   0  0  0  0  0  0  0  0  0  0  0  0
  150.0146  144.8071  157.5552 H   0  0  0  0  0  0  0  0  0  0  0  0
  152.1431  146.0622  158.8276 H   0  0  0  0  0  0  0  0  0  0  0  0
  150.5981  145.7934  159.6212 H   0  0  0  0  0  0  0  0  0  0  0  0
  153.1049  144.6011  160.4022 H   0  0  0  0  0  0  0  0  0  0  0  0
  151.5058  144.2823  161.0585 H   0  0  0  0  0  0  0  0  0  0  0  0
  151.9483  142.1210  160.1745 H   0  0  0  0  0  0  0  0  0  0  0  0
  152.9860  142.7781  158.9134 H   0  0  0  0  0  0  0  0  0  0  0  0
  149.9459  138.3565  157.3879 H   0  0  0  0  0  0  0  0  0  0  0  0
  151.8641  136.9298  155.8283 H   0  0  0  0  0  0  0  0  0  0  0  0
  149.8817  135.8408  157.0035 H   0  0  0  0  0  0  0  0  0  0  0  0
  148.7992  136.6841  155.9174 H   0  0  0  0  0  0  0  0  0  0  0  0
  149.4448  135.5294  154.2521 H   0  0  0  0  0  0  0  0  0  0  0  0
  151.6678  138.4505  154.0595 H   0  0  0  0  0  0  0  0  0  0  0  0
  150.5885  137.1571  153.6162 H   0  0  0  0  0  0  0  0  0  0  0  0
  148.0534  137.4755  153.8211 H   0  0  0  0  0  0  0  0  0  0  0  0
  146.2471  139.1989  153.6129 H   0  0  0  0  0  0  0  0  0  0  0  0
  146.8508  141.6217  153.8846 H   0  0  0  0  0  0  0  0  0  0  0  0
  149.2421  142.2149  154.3541 H   0  0  0  0  0  0  0  0  0  0  0  0
  1  2  2  0  0  0  0
  2  3  1  0  0  0  0
  2 10  1  0  0  0  0
  3  4  1  0  0  0  0
  3 21  1  0  0  0  0
  3 22  1  0  0  0  0
  4  5  1  0  0  0  0
  4 23  1  0  0  0  0
  4 24  1  0  0  0  0
  5  9  1  0  0  0  0
  5  6  1  0  0  0  0
  5 25  1  0  0  0  0
  6  7  1  0  0  0  0
  6 26  1  0  0  0  0
  6 27  1  0  0  0  0
  7  8  1  0  0  0  0
  7 28  1  0  0  0  0
  7 29  1  0  0  0  0
  8  9  1  0  0  0  0
  8 30  1  0  0  0  0
  8 31  1  0  0  0  0
  9 32  1  0  0  0  0
  9 33  1  0  0  0  0
 10 11  1  0  0  0  0
 10 34  1  0  0  0  0
 11 12  1  0  0  0  0
 11 14  1  0  0  0  0
 11 35  1  0  0  0  0
 12 13  1  0  0  0  0
 12 36  1  0  0  0  0
 12 37  1  0  0  0  0
 13 38  1  0  0  0  0
 14 15  1  0  0  0  0
 14 39  1  0  0  0  0
 14 40  1  0  0  0  0
 15 20  1  0  0  0  0
 15 16  2  0  0  0  0
 16 17  1  0  0  0  0
 16 41  1  0  0  0  0
 17 18  2  0  0  0  0
 17 42  1  0  0  0  0
 18 19  1  0  0  0  0
 18 43  1  0  0  0  0
 19 20  2  0  0  0  0
 19 44  1  0  0  0  0
M  END
> <s_m_source_file>
AV-unprocessed.smi

> <i_m_source_file_index>
2725

> <i_lp_mmshare_version>
43012

> <i_f3d_flags>
0

> <s_epik_input>
W0NIMl0xW0NIMl1bQ0gyXVtDSDJdW0NIXTFbQ0gyXVtDSDJdQyg9TylbTkhdW0NASF0oW0NIMl1bT0hdKVtDSDJdYzJbY0hdW2NIXVtjSF1bY0hdbjI=

> <s_epik_cmdline>
J2VwaWtfcHl0aG9uJywgJy1waCcsICc3LjAnLCAnLXRuJywgJzgnLCAnLW1hJywgJzIwMCcsICctbWV0YWxfYmluZGluZycsICctaW1hZScsICc8aW5maWxlLm1hZT4nLCAnLW9tYWUnLCAnPG91dGZpbGUubWFlPic=

> <r_epik_Ionization_Penalty>
0.0257016

> <r_epik_Ionization_Penalty_Charging>
0

> <r_epik_Ionization_Penalty_Neutral>
0.0257016

> <r_epik_State_Penalty>
0.0209381

> <r_epik_Charging_Adjusted_Penalty>
0.0209381

> <i_epik_Tot_Q>
0

> <i_epik_Tot_abs_Q>
0

> <r_epik_Metal_State_Penalty>
0.0200649

> <b_epik_Metal_Only>
0

> <s_lp_Force_Field>
OPLS_2005

> <r_lp_Energy>
24.1231

> <b_lp_Chiralities_Consistent>
1

> <s_lp_Variant>
AV-unprocessed.smi:2725-2

> <Gold.Version>
5.8.1

> <Gold.Id.Protein>
6NUR|6NUR_protein|mol2

> <Gold.PLP.Fitness>
53.2947

> <Gold.PLP.PLP>
-42.7994

> <Gold.PLP.part.hbond>
-3.3566

> <Gold.PLP.part.metal>
0.0000

> <Gold.PLP.part.buried>
-2.5838

> <Gold.PLP.part.nonpolar>
-36.2765

> <Gold.PLP.part.repulsive>
0.1277

> <Gold.PLP.ligand.clash>
0.0000

> <Gold.PLP.ligand.torsion>
0.6173

> <Gold.PLP.Chemscore.Hbond>
2.8800

> <Gold.PLP.Chemscore.CHOScore>
1.0000

> <Gold.PLP.Chemscore.Metal>
0.0000

> <Gold.Chemscore.Hbonds>
donor molecule, donor type, donor heavy atom, donor atom, acceptor molecule, acceptor atom, score
      P1  H  7989  7998       L1    20  0.91
      P1  H  7997  8008       L1     1  1.00
      L1  C    19    44       P1  8028  0.25

> <Gold.PLP.Chemscore.Internal.Correction>
0.0899

> <Gold.Rescore>
     Score         DG    S(hbond)    S(metal)    S(lipo)     H(rot)  DE(clash)    DE(int)     intcor
     18.97     -20.22       2.34        0.00     112.65       2.44       0.05       1.21       ----

> <Gold.Chemscore.Fitness>
18.9651

> <Gold.Chemscore.DG>
-20.2189

> <Gold.Chemscore.ZeroCoef>
-5.4800

> <Gold.Chemscore.Hbond>
2.3382

> <Gold.Chemscore.Metal>
0.0000

> <Gold.Chemscore.Lipo>
112.6476

> <Gold.Chemscore.Internal_Hbond>
0.0000

> <Gold.Chemscore.DEClash>
0.0476

> <Gold.Chemscore.DEInternal>
1.2062

> <Gold.Chemscore.Rot>
2.4416

> <Gold.Chemscore.Internal.Correction>
   9.000000E+99

> <Gold.Chemscore.Hbonds>
donor molecule, donor type, donor heavy atom, donor atom, acceptor molecule, acceptor atom, score
      L1  H    13    38       P1  7948  0.01
      P1  H  7989  7998       L1    20  0.65
      P1  H  7997  8008       L1     1  0.99

> <Gold.Chemscore.Hbond.Weighted>
-7.8097

> <Gold.Chemscore.Metal.Weighted>
-0.0000

> <Gold.Chemscore.Lipo.Weighted>
-13.1798

> <Gold.Chemscore.Internal_Hbond.Weighted>
0.0000

> <Gold.Chemscore.DEClash.Weighted>
0.0476

> <Gold.Chemscore.DEInternal.Weighted>
1.2062

> <Gold.Chemscore.Rot.Weighted>
6.2505

> <Gold.Chemscore.Internal.Correction.Weighted>
   9.000000E+99

> <Gold.Protein.RotatedTorsions>
[ 6907 6896 6895 6894 ] final  159.15 input  -60.11 | X-H torsion
[ 7974 7965 7964 7962 ] final -141.62 input  175.53 | X-H torsion
[ 8008 7997 7996 7995 ] final  -52.05 input   59.86 | X-H torsion
[ 10167 10162 10161 10158 ] final    9.47 input  -65.29 | X-H torsion
[ 10718 10713 10712 10709 ] final  -81.37 input   66.30 | X-H torsion
[ 10763 10752 10751 10750 ] final  -78.05 input  -60.55 | X-H torsion
[ 11005 11000 10999 10996 ] final   82.50 input  -57.11 | X-H torsion

> <Gold.Protein.ActiveResidues>
 VAL166  LYS551  ARG553  GLY616  TRP617  ASP618  TYR619  PRO620  LYS621  CYS622 
 ASP623  PHE694  ASN695  SER759  ASP760  ASP761  ALA762  ILE779  LEU786  VAL792 
 PHE793  MET794  SER795  GLU796  ALA797  LYS798  CYS799  TRP800  GLU811  SER814 

> <Gold.Protein.RotatedAtoms>
  151.9898  133.3787  159.4139 H   0  0  0  0  0  0  0  0  0  0  0  0  # atno 6907 bound_to 6896
  150.6923  134.3949  159.5102 H   0  0  0  0  0  0  0  0  0  0  0  0  # atno 6908 bound_to 6896
  152.1680  134.8857  160.0587 H   0  0  0  0  0  0  0  0  0  0  0  0  # atno 6909 bound_to 6896
  144.8506  140.6058  143.5393 H   0  0  0  0  0  0  0  0  0  0  0  0  # atno 7974 bound_to 7965
  154.4097  140.1233  156.4928 H   0  0  0  0  0  0  0  0  0  0  0  0  # atno 8008 bound_to 7997
  155.6973  140.3495  155.4899 H   0  0  0  0  0  0  0  0  0  0  0  0  # atno 8009 bound_to 7997
  155.9416  140.1088  157.1041 H   0  0  0  0  0  0  0  0  0  0  0  0  # atno 8010 bound_to 7997
  140.6253  143.8115  150.7225 H   0  0  0  0  0  0  0  0  0  0  0  0  # atno 10167 bound_to 10162
  156.0051  130.4602  150.3943 H   0  0  0  0  0  0  0  0  0  0  0  0  # atno 10718 bound_to 10713
  154.5209  135.5743  153.6680 H   0  0  0  0  0  0  0  0  0  0  0  0  # atno 10763 bound_to 10752
  152.9917  135.6181  154.2755 H   0  0  0  0  0  0  0  0  0  0  0  0  # atno 10764 bound_to 10752
  154.2676  135.2854  155.2731 H   0  0  0  0  0  0  0  0  0  0  0  0  # atno 10765 bound_to 10752
  139.9061  134.8076  156.2183 H   0  0  0  0  0  0  0  0  0  0  0  0  # atno 11005 bound_to 11000
  145.4508  139.1524  143.3919 LP  0  0  0  0  0  0  0  0  0  0  0  0  # atno 17320 bound_to 7965
  146.2781  140.4634  142.8787 LP  0  0  0  0  0  0  0  0  0  0  0  0  # atno 17321 bound_to 7965
  140.1714  143.4191  152.1998 LP  0  0  0  0  0  0  0  0  0  0  0  0  # atno 17342 bound_to 10162
  139.5474  144.7310  151.4540 LP  0  0  0  0  0  0  0  0  0  0  0  0  # atno 17343 bound_to 10162
  157.2015  131.0439  151.2648 LP  0  0  0  0  0  0  0  0  0  0  0  0  # atno 17370 bound_to 10713
  157.3971  130.7313  149.6739 LP  0  0  0  0  0  0  0  0  0  0  0  0  # atno 17371 bound_to 10713
  141.0421  133.6932  156.1617 LP  0  0  0  0  0  0  0  0  0  0  0  0  # atno 17394 bound_to 11000
  140.6939  134.4636  157.5588 LP  0  0  0  0  0  0  0  0  0  0  0  0  # atno 17395 bound_to 11000

$$$$
