#       Name:                AV-unprocessed.smi:2690
#       Creating user name   scv26
#       Creation time:       Fri Mar 27 14:42:16 2020


#       File generated by GOLD software.
#

@<TRIPOS>MOLECULE
AV-unprocessed.smi:2690
    52    54     1
SMALL
NO_CHARGES


@<TRIPOS>ATOM
      1 ****        -4.6590   0.5986   2.5021 C.3            1 S1                 0.0000
      2 ****        -4.1198   1.0526   1.1384 C.3            1 S1                 0.0000
      3 ****        -4.5968   0.1214   0.0079 C.3            1 S1                 0.0000
      4 ****        -4.0420   0.5585  -1.3593 C.3            1 S1                 0.0000
      5 ****        -2.5000   0.6643  -1.3695 C.3            1 S1                 0.0000
      6 ****        -2.1483   1.3008  -2.5841 O.3            1 S1                 0.0000
      7 ****        -1.8258  -0.7358  -1.3623 C.3            1 S1                 0.0000
      8 ****        -0.3702  -0.6992  -1.3951 N.pl3          1 S1                 0.0000
      9 ****         0.4265  -0.5142  -2.5039 C.2            1 S1                 0.0000
     10 ****         1.7120  -0.5234  -2.2774 N.2            1 S1                 0.0000
     11 ****         1.8093  -0.7417  -0.9095 C.ar           1 S1                 0.0000
     12 ****         2.8991  -0.8646  -0.0088 C.ar           1 S1                 0.0000
     13 ****         4.1756  -0.7678  -0.4433 N.pl3          1 S1                 0.0000
     14 ****         5.3022  -0.7985   0.4856 C.3            1 S1                 0.0000
     15 ****         5.4762   0.5524   1.1996 C.3            1 S1                 0.0000
     16 ****         6.5837  -1.1917  -0.2605 C.3            1 S1                 0.0000
     17 ****         2.6137  -1.0890   1.3009 N.ar           1 S1                 0.0000
     18 ****         1.3426  -1.1840   1.7031 C.ar           1 S1                 0.0000
     19 ****         0.2276  -1.0886   0.9754 N.ar           1 S1                 0.0000
     20 ****         0.5110  -0.8621  -0.3393 C.ar           1 S1                 0.0000
     21 ****        -2.0334   1.5912  -0.2215 C.3            1 S1                 0.0000
     22 ****        -2.5828   1.1499   1.1467 C.3            1 S1                 0.0000
     23 ****        -4.2980  -0.3976   2.7592 H              1 S1                 0.0000
     24 ****        -5.7489   0.5686   2.5031 H              1 S1                 0.0000
     25 ****        -4.3474   1.2800   3.2942 H              1 S1                 0.0000
     26 ****        -4.5175   2.0495   0.9429 H              1 S1                 0.0000
     27 ****        -4.2983  -0.9054   0.2204 H              1 S1                 0.0000
     28 ****        -5.6867   0.1164  -0.0308 H              1 S1                 0.0000
     29 ****        -4.3812  -0.1307  -2.1337 H              1 S1                 0.0000
     30 ****        -4.4757   1.5285  -1.6084 H              1 S1                 0.0000
     31 ****        -2.4757   0.7799  -3.3013 H              1 S1                 0.0000
     32 ****        -2.1269  -1.3024  -0.4815 H              1 S1                 0.0000
     33 ****        -2.1647  -1.3192  -2.2195 H              1 S1                 0.0000
     34 ****         0.0212  -0.3663  -3.4943 H              1 S1                 0.0000
     35 ****         4.4119  -0.6201  -1.4140 H              1 S1                 0.0000
     36 ****         5.1193  -1.5685   1.2360 H              1 S1                 0.0000
     37 ****         6.3149   0.5210   1.8955 H              1 S1                 0.0000
     38 ****         4.5891   0.8221   1.7730 H              1 S1                 0.0000
     39 ****         5.6667   1.3552   0.4868 H              1 S1                 0.0000
     40 ****         7.4306  -1.2581   0.4231 H              1 S1                 0.0000
     41 ****         6.8351  -0.4631  -1.0321 H              1 S1                 0.0000
     42 ****         6.4743  -2.1638  -0.7423 H              1 S1                 0.0000
     43 ****         1.1989  -1.3613   2.7587 H              1 S1                 0.0000
     44 ****        -0.9457   1.6544  -0.1848 H              1 S1                 0.0000
     45 ****        -2.3793   2.6081  -0.4145 H              1 S1                 0.0000
     46 ****        -2.2602   1.8585   1.9103 H              1 S1                 0.0000
     47 ****        -2.1568   0.1869   1.4266 H              1 S1                 0.0000
     48 ****        -1.1533   1.3770  -2.6492 LP             1 S1                 0.0000
     49 ****        -2.5554   2.2136  -2.6167 LP             1 S1                 0.0000
     50 ****         2.4544  -0.4016  -2.9361 LP             1 S1                 0.0000
     51 ****         3.3557  -1.1832   1.9646 LP             1 S1                 0.0000
     52 ****        -0.6971  -1.1725   1.3467 LP             1 S1                 0.0000
@<TRIPOS>BOND
    1    1    2 1     
    2    1   23 1     
    3    1   24 1     
    4    1   25 1     
    5    2   22 1     
    6    2    3 1     
    7    2   26 1     
    8    3    4 1     
    9    3   27 1     
   10    3   28 1     
   11    4    5 1     
   12    4   29 1     
   13    4   30 1     
   14    5    6 1     
   15    5    7 1     
   16    5   21 1     
   17    6   31 1     
   18    7    8 1     
   19    7   32 1     
   20    7   33 1     
   21    8   20 1     
   22    8    9 1     
   23    9   10 2     
   24    9   34 1     
   25   10   11 1     
   26   11   20 ar    
   27   11   12 ar    
   28   12   13 1     
   29   12   17 ar    
   30   13   14 1     
   31   13   35 1     
   32   14   15 1     
   33   14   16 1     
   34   14   36 1     
   35   15   37 1     
   36   15   38 1     
   37   15   39 1     
   38   16   40 1     
   39   16   41 1     
   40   16   42 1     
   41   17   18 ar    
   42   18   19 ar    
   43   18   43 1     
   44   19   20 ar    
   45   21   22 1     
   46   21   44 1     
   47   21   45 1     
   48   22   46 1     
   49   22   47 1     
   50    6   48 1     
   51    6   49 1     
   52   10   50 1     
   53   17   51 1     
   54   19   52 1     
@<TRIPOS>SUBSTRUCTURE
      1 S1             1
@<TRIPOS>SET
LONE_PAIRS      STATIC     ATOMS    <user>   **** ""
5 48 49 50 51 52
DONOR_HYDROGENS      STATIC     ATOMS    <user>   **** ""
2 31 35
ATOM$BLUE        STATIC     ATOMS    COLORGROUP SYSTEM
5 48 49 50 51 52
ATOM$RED        STATIC     ATOMS    COLORGROUP SYSTEM
2 31 35
