AV-unprocessed.smi:228|AV-procd|sdf|1746|dock3
  -GOLD-   2262020263D 1   1.00000     0.00000
 Structure written by MMmdl.
 59 62  0  0  0  0  0  0  0  0  1 V2000
  147.4267  141.8209  154.1158 C   0  0  0  0  0  0  0  0  0  0  0  0
  148.0780  140.7103  154.7987 N   0  0  0  0  0  0  0  0  0  0  0  0
  149.4984  140.8452  155.1336 C   0  0  0  0  0  0  0  0  0  0  0  0
  149.7319  141.2433  156.6051 C   0  0  1  0  0  0  0  0  0  0  0  0
  149.3871  140.1260  157.3978 O   0  0  0  0  0  0  0  0  0  0  0  0
  151.2023  141.6105  156.9072 C   0  0  0  0  0  0  0  0  0  0  0  0
  151.4885  142.0106  158.2853 N   0  0  0  0  0  0  0  0  0  0  0  0
  152.0523  143.3572  158.3746 C   0  0  0  0  0  0  0  0  0  0  0  0
  152.3906  143.7449  159.8250 C   0  0  0  0  0  0  0  0  0  0  0  0
  153.2795  142.7840  160.3844 O   0  0  0  0  0  0  0  0  0  0  0  0
  152.7439  141.4653  160.3616 C   0  0  0  0  0  0  0  0  0  0  0  0
  152.4133  141.0715  158.9121 C   0  0  0  0  0  0  0  0  0  0  0  0
  147.4850  139.4831  154.8185 C   0  0  0  0  0  0  0  0  0  0  0  0
  147.3667  138.8488  156.0155 N   0  0  0  0  0  0  0  0  0  0  0  0
  146.8001  137.6429  156.1000 C   0  0  0  0  0  0  0  0  0  0  0  0
  146.2947  136.8910  155.1230 N   0  0  0  0  0  0  0  0  0  0  0  0
  146.4132  137.5088  153.9138 C   0  0  0  0  0  0  0  0  0  0  0  0
  146.9809  138.7943  153.6715 C   0  0  0  0  0  0  0  0  0  0  0  0
  146.9134  139.0756  152.3100 N   0  0  0  0  0  0  0  0  0  0  0  0
  146.3300  138.0329  151.7870 C   0  0  0  0  0  0  0  0  0  0  0  0
  146.0221  137.0298  152.6758 N   0  0  0  0  0  0  0  0  0  0  0  0
  145.3513  135.7958  152.3868 C   0  0  0  0  0  0  0  0  0  0  0  0
  144.0418  135.7804  151.5934 C   0  0  0  0  0  0  0  0  0  0  0  0
  143.5221  134.6050  152.4505 C   0  0  0  0  0  0  0  0  0  0  0  0
  142.0793  134.7535  152.9583 C   0  0  0  0  0  0  0  0  0  0  0  0
  141.8924  134.0835  154.1887 O   0  0  0  0  0  0  0  0  0  0  0  0
  143.6473  133.1871  151.8489 C   0  0  0  0  0  0  0  0  0  0  0  0
  143.0026  133.0477  150.5991 O   0  0  0  0  0  0  0  0  0  0  0  0
  144.6044  135.0162  153.4744 C   0  0  0  0  0  0  0  0  0  0  0  0
  146.3740  141.8862  154.3929 H   0  0  0  0  0  0  0  0  0  0  0  0
  147.5022  141.7058  153.0343 H   0  0  0  0  0  0  0  0  0  0  0  0
  147.8960  142.7676  154.3849 H   0  0  0  0  0  0  0  0  0  0  0  0
  149.9632  139.8755  154.9511 H   0  0  0  0  0  0  0  0  0  0  0  0
  150.0163  141.5358  154.4682 H   0  0  0  0  0  0  0  0  0  0  0  0
  149.0547  142.0572  156.8596 H   0  0  0  0  0  0  0  0  0  0  0  0
  148.5800  139.7620  157.0677 H   0  0  0  0  0  0  0  0  0  0  0  0
  151.8250  140.7551  156.6410 H   0  0  0  0  0  0  0  0  0  0  0  0
  151.5206  142.4179  156.2484 H   0  0  0  0  0  0  0  0  0  0  0  0
  152.9550  143.4223  157.7651 H   0  0  0  0  0  0  0  0  0  0  0  0
  151.3537  144.0918  157.9773 H   0  0  0  0  0  0  0  0  0  0  0  0
  152.8624  144.7272  159.8548 H   0  0  0  0  0  0  0  0  0  0  0  0
  151.4842  143.8060  160.4293 H   0  0  0  0  0  0  0  0  0  0  0  0
  153.4749  140.7760  160.7846 H   0  0  0  0  0  0  0  0  0  0  0  0
  151.8530  141.4145  160.9894 H   0  0  0  0  0  0  0  0  0  0  0  0
  151.9852  140.0686  158.9025 H   0  0  0  0  0  0  0  0  0  0  0  0
  153.3375  141.0207  158.3341 H   0  0  0  0  0  0  0  0  0  0  0  0
  146.7459  137.2194  157.0921 H   0  0  0  0  0  0  0  0  0  0  0  0
  146.1152  137.9668  150.7303 H   0  0  0  0  0  0  0  0  0  0  0  0
  146.0980  135.1636  151.9052 H   0  0  0  0  0  0  0  0  0  0  0  0
  143.4629  136.6950  151.7334 H   0  0  0  0  0  0  0  0  0  0  0  0
  144.1617  135.5557  150.5331 H   0  0  0  0  0  0  0  0  0  0  0  0
  141.8106  135.8031  153.0834 H   0  0  0  0  0  0  0  0  0  0  0  0
  141.3693  134.3372  152.2429 H   0  0  0  0  0  0  0  0  0  0  0  0
  142.1802  133.1887  154.0909 H   0  0  0  0  0  0  0  0  0  0  0  0
  144.6948  132.9169  151.7115 H   0  0  0  0  0  0  0  0  0  0  0  0
  143.2187  132.4409  152.5185 H   0  0  0  0  0  0  0  0  0  0  0  0
  142.3534  133.7297  150.5185 H   0  0  0  0  0  0  0  0  0  0  0  0
  145.1709  134.1884  153.9019 H   0  0  0  0  0  0  0  0  0  0  0  0
  144.2174  135.6670  154.2601 H   0  0  0  0  0  0  0  0  0  0  0  0
  1  2  1  0  0  0  0
  1 30  1  0  0  0  0
  1 31  1  0  0  0  0
  1 32  1  0  0  0  0
  2  3  1  0  0  0  0
  2 13  1  0  0  0  0
  3  4  1  0  0  0  0
  3 33  1  0  0  0  0
  3 34  1  0  0  0  0
  4  5  1  0  0  0  0
  4  6  1  0  0  0  0
  4 35  1  0  0  0  0
  5 36  1  0  0  0  0
  6  7  1  0  0  0  0
  6 37  1  0  0  0  0
  6 38  1  0  0  0  0
  7 12  1  0  0  0  0
  7  8  1  0  0  0  0
  8  9  1  0  0  0  0
  8 39  1  0  0  0  0
  8 40  1  0  0  0  0
  9 10  1  0  0  0  0
  9 41  1  0  0  0  0
  9 42  1  0  0  0  0
 10 11  1  0  0  0  0
 11 12  1  0  0  0  0
 11 43  1  0  0  0  0
 11 44  1  0  0  0  0
 12 45  1  0  0  0  0
 12 46  1  0  0  0  0
 13 18  1  0  0  0  0
 13 14  2  0  0  0  0
 14 15  1  0  0  0  0
 15 16  2  0  0  0  0
 15 47  1  0  0  0  0
 16 17  1  0  0  0  0
 17 21  1  0  0  0  0
 17 18  2  0  0  0  0
 18 19  1  0  0  0  0
 19 20  2  0  0  0  0
 20 21  1  0  0  0  0
 20 48  1  0  0  0  0
 21 22  1  0  0  0  0
 22 29  1  0  0  0  0
 22 23  1  0  0  0  0
 22 49  1  0  0  0  0
 23 24  1  0  0  0  0
 23 50  1  0  0  0  0
 23 51  1  0  0  0  0
 24 25  1  0  0  0  0
 24 27  1  0  0  0  0
 24 29  1  0  0  0  0
 25 26  1  0  0  0  0
 25 52  1  0  0  0  0
 25 53  1  0  0  0  0
 26 54  1  0  0  0  0
 27 28  1  0  0  0  0
 27 55  1  0  0  0  0
 27 56  1  0  0  0  0
 28 57  1  0  0  0  0
 29 58  1  0  0  0  0
 29 59  1  0  0  0  0
M  END
> <s_m_source_file>
AV-unprocessed.smi

> <i_m_source_file_index>
228

> <i_lp_mmshare_version>
43012

> <i_f3d_flags>
0

> <s_epik_input>
W0NIMl0xW0NIMl1PW0NIMl1bQ0gyXU4xW0NIMl1bQ0BASF0oW09IXSlbQ0gyXU4oW0NIM10pYyhuW2NIXW4yKWMoYzIzKW5bY0hdbjNbQ0hdKFtDSDJdNClbQ0gyXUM0KFtDSDJdW09IXSlbQ0gyXVtPSF0=

> <s_epik_cmdline>
J2VwaWtfcHl0aG9uJywgJy1waCcsICc3LjAnLCAnLXRuJywgJzgnLCAnLW1hJywgJzIwMCcsICctbWV0YWxfYmluZGluZycsICctaW1hZScsICc8aW5maWxlLm1hZT4nLCAnLW9tYWUnLCAnPG91dGZpbGUubWFlPic=

> <r_lp_tautomer_probability>
1

> <r_epik_Ionization_Penalty>
0.423559

> <r_epik_Ionization_Penalty_Charging>
0

> <r_epik_Ionization_Penalty_Neutral>
0.423559

> <r_epik_State_Penalty>
0.438466

> <r_epik_Charging_Adjusted_Penalty>
0.438466

> <i_epik_Tot_Q>
0

> <i_epik_Tot_abs_Q>
0

> <r_epik_Metal_State_Penalty>
0.436601

> <b_epik_Metal_Only>
0

> <s_lp_Force_Field>
OPLS_2005

> <r_lp_Energy>
57.656

> <b_lp_Chiralities_Consistent>
1

> <s_lp_Variant>
AV-unprocessed.smi:228-4

> <Gold.Version>
5.8.1

> <Gold.Id.Protein>
6NUR|6NUR_protein|mol2

> <Gold.PLP.Fitness>
55.8522

> <Gold.PLP.PLP>
-49.2091

> <Gold.PLP.part.hbond>
-3.0000

> <Gold.PLP.part.metal>
0.0000

> <Gold.PLP.part.buried>
-7.3933

> <Gold.PLP.part.nonpolar>
-40.6111

> <Gold.PLP.part.repulsive>
0.9795

> <Gold.PLP.ligand.clash>
0.0000

> <Gold.PLP.ligand.torsion>
2.9785

> <Gold.PLP.Chemscore.Hbond>
2.9833

> <Gold.PLP.Chemscore.CHOScore>
0.7894

> <Gold.PLP.Chemscore.Metal>
0.0000

> <Gold.Chemscore.Hbonds>
donor molecule, donor type, donor heavy atom, donor atom, acceptor molecule, acceptor atom, score
      L1  H    26    54       P1 10957  0.99
      L1  H    28    57       P1 10186  0.94
      P1  H 11000 11005       L1    26  1.00
      L1  C    20    48       P1 10171  0.84

> <Gold.PLP.Chemscore.Internal.Correction>
1.2821

> <Gold.Rescore>
     Score         DG    S(hbond)    S(metal)    S(lipo)     H(rot)  DE(clash)    DE(int)     intcor
      7.75     -13.56       2.46        0.00     100.84       4.66       0.26       5.54       ----

> <Gold.Chemscore.Fitness>
7.7544

> <Gold.Chemscore.DG>
-13.5584

> <Gold.Chemscore.ZeroCoef>
-5.4800

> <Gold.Chemscore.Hbond>
2.4580

> <Gold.Chemscore.Metal>
0.0000

> <Gold.Chemscore.Lipo>
100.8411

> <Gold.Chemscore.Internal_Hbond>
0.0000

> <Gold.Chemscore.DEClash>
0.2610

> <Gold.Chemscore.DEInternal>
5.5430

> <Gold.Chemscore.Rot>
4.6600

> <Gold.Chemscore.Internal.Correction>
   9.000000E+99

> <Gold.Chemscore.Hbonds>
donor molecule, donor type, donor heavy atom, donor atom, acceptor molecule, acceptor atom, score
      L1  H    26    54       P1 10957  0.93
      L1  H    28    57       P1 10186  0.87
      P1  H 11000 11005       L1    26  0.41

> <Gold.Chemscore.Hbond.Weighted>
-8.2096

> <Gold.Chemscore.Metal.Weighted>
-0.0000

> <Gold.Chemscore.Lipo.Weighted>
-11.7984

> <Gold.Chemscore.Internal_Hbond.Weighted>
0.0000

> <Gold.Chemscore.DEClash.Weighted>
0.2610

> <Gold.Chemscore.DEInternal.Weighted>
5.5430

> <Gold.Chemscore.Rot.Weighted>
11.9297

> <Gold.Chemscore.Internal.Correction.Weighted>
   9.000000E+99

> <Gold.Protein.RotatedTorsions>
[ 6907 6896 6895 6894 ] final  -35.86 input  -60.11 | X-H torsion
[ 7974 7965 7964 7962 ] final   91.86 input  175.53 | X-H torsion
[ 8008 7997 7996 7995 ] final   -1.28 input   59.86 | X-H torsion
[ 10167 10162 10161 10158 ] final  -57.63 input  -65.29 | X-H torsion
[ 10718 10713 10712 10709 ] final  109.06 input   66.30 | X-H torsion
[ 10763 10752 10751 10750 ] final  -25.03 input  -60.55 | X-H torsion
[ 11005 11000 10999 10996 ] final    5.68 input  -57.11 | X-H torsion

> <Gold.Protein.ActiveResidues>
 VAL166  LYS551  ARG553  GLY616  TRP617  ASP618  TYR619  PRO620  LYS621  CYS622 
 ASP623  PHE694  ASN695  SER759  ASP760  ASP761  ALA762  ILE779  LEU786  VAL792 
 PHE793  MET794  SER795  GLU796  ALA797  LYS798  CYS799  TRP800  GLU811  SER814 

> <Gold.Protein.RotatedAtoms>
  151.0345  134.9563  159.8128 H   0  0  0  0  0  0  0  0  0  0  0  0  # atno 6907 bound_to 6896
  152.5352  134.2738  159.8991 H   0  0  0  0  0  0  0  0  0  0  0  0  # atno 6908 bound_to 6896
  151.2748  133.4195  159.2657 H   0  0  0  0  0  0  0  0  0  0  0  0  # atno 6909 bound_to 6896
  145.5000  139.2276  143.2783 H   0  0  0  0  0  0  0  0  0  0  0  0  # atno 7974 bound_to 7965
  154.6485  140.2563  155.7240 H   0  0  0  0  0  0  0  0  0  0  0  0  # atno 8008 bound_to 7997
  156.2564  140.2873  156.0830 H   0  0  0  0  0  0  0  0  0  0  0  0  # atno 8009 bound_to 7997
  155.1487  140.0382  157.2806 H   0  0  0  0  0  0  0  0  0  0  0  0  # atno 8010 bound_to 7997
  140.6247  143.2433  151.5394 H   0  0  0  0  0  0  0  0  0  0  0  0  # atno 10167 bound_to 10162
  157.6559  131.0906  150.6397 H   0  0  0  0  0  0  0  0  0  0  0  0  # atno 10718 bound_to 10713
  153.6932  135.6960  153.5084 H   0  0  0  0  0  0  0  0  0  0  0  0  # atno 10763 bound_to 10752
  153.2397  135.4310  155.0684 H   0  0  0  0  0  0  0  0  0  0  0  0  # atno 10764 bound_to 10752
  154.8366  135.3505  154.6474 H   0  0  0  0  0  0  0  0  0  0  0  0  # atno 10765 bound_to 10752
  140.5679  134.0130  155.7997 H   0  0  0  0  0  0  0  0  0  0  0  0  # atno 11005 bound_to 11000
  146.2232  140.5800  142.9008 LP  0  0  0  0  0  0  0  0  0  0  0  0  # atno 17320 bound_to 7965
  144.7785  140.5791  143.6621 LP  0  0  0  0  0  0  0  0  0  0  0  0  # atno 17321 bound_to 7965
  139.5469  144.2497  152.1459 LP  0  0  0  0  0  0  0  0  0  0  0  0  # atno 17342 bound_to 10162
  140.1726  144.4921  150.6571 LP  0  0  0  0  0  0  0  0  0  0  0  0  # atno 17343 bound_to 10162
  156.6704  130.4538  149.5659 LP  0  0  0  0  0  0  0  0  0  0  0  0  # atno 17370 bound_to 10713
  156.2002  130.6615  151.1159 LP  0  0  0  0  0  0  0  0  0  0  0  0  # atno 17371 bound_to 10713
  141.1074  133.9671  157.2972 LP  0  0  0  0  0  0  0  0  0  0  0  0  # atno 17394 bound_to 11000
  139.9376  135.0195  156.8605 LP  0  0  0  0  0  0  0  0  0  0  0  0  # atno 17395 bound_to 11000

$$$$
