#       Name:                AV-unprocessed.smi:2973
#       Creating user name   scv26
#       Creation time:       Fri Mar 27 16:26:06 2020


#       File generated by GOLD software.
#

@<TRIPOS>MOLECULE
AV-unprocessed.smi:2973
    56    58     1
SMALL
NO_CHARGES


@<TRIPOS>ATOM
      1 ****        -4.6824   0.7925  -1.8951 C.3            1 S1                 0.0000
      2 ****        -3.5625   1.8470  -1.7548 C.3            1 S1                 0.0000
      3 ****        -4.1051   3.1365  -1.1013 C.3            1 S1                 0.0000
      4 ****        -3.0408   4.2423  -1.0468 C.3            1 S1                 0.0000
      5 ****        -1.7824   3.7642  -0.3110 C.3            1 S1                 0.0000
      6 ****        -1.2163   2.4841  -0.9488 C.3            1 S1                 0.0000
      7 ****        -2.2651   1.3449  -1.0399 C.3            1 S1                 0.0000
      8 ****        -2.5472   0.8143   0.2848 N.pl3          1 S1                -1.0000
      9 ****        -2.1570  -0.4802   0.3338 C.2            1 S1                 0.0000
     10 ****        -2.2350  -1.2358   1.3016 O.2            1 S1                 0.0000
     11 ****        -1.6382  -0.8734  -0.8454 N.am           1 S1                 0.0000
     12 ****        -1.0964  -2.2122  -1.1277 C.3            1 S1                 0.0000
     13 ****         0.3811  -2.4098  -0.7463 C.2            1 S1                 0.0000
     14 ****         0.9163  -3.4940  -0.9765 O.2            1 S1                 0.0000
     15 ****         1.0343  -1.3869  -0.1691 N.am           1 S1                 0.0000
     16 ****         2.4218  -1.4152   0.2763 C.3            1 S1                 0.0000
     17 ****         2.5606  -2.1155   1.6387 C.3            1 S1                 0.0000
     18 ****         3.9922  -2.1247   2.1407 C.ar           1 S1                 0.0000
     19 ****         4.8045  -3.2677   1.9802 C.ar           1 S1                 0.0000
     20 ****         6.1268  -3.2246   2.4627 C.ar           1 S1                 0.0000
     21 ****         6.5842  -2.0465   3.0836 C.ar           1 S1                 0.0000
     22 ****         5.6956  -0.9583   3.1928 C.ar           1 S1                 0.0000
     23 ****         4.4262  -0.9887   2.7326 N.ar           1 S1                 0.0000
     24 ****        -1.6517   0.1331  -1.7264 C.2            1 S1                 0.0000
     25 ****        -1.2437   0.1185  -2.8887 O.2            1 S1                 0.0000
     26 ****        -5.0540   0.4704  -0.9221 H              1 S1                 0.0000
     27 ****        -4.3441  -0.0932  -2.4324 H              1 S1                 0.0000
     28 ****        -5.5294   1.1980  -2.4485 H              1 S1                 0.0000
     29 ****        -3.2771   2.1181  -2.7730 H              1 S1                 0.0000
     30 ****        -4.9703   3.4991  -1.6570 H              1 S1                 0.0000
     31 ****        -4.4595   2.9208  -0.0924 H              1 S1                 0.0000
     32 ****        -2.7787   4.5496  -2.0599 H              1 S1                 0.0000
     33 ****        -3.4472   5.1238  -0.5506 H              1 S1                 0.0000
     34 ****        -1.0257   4.5488  -0.3227 H              1 S1                 0.0000
     35 ****        -2.0183   3.5810   0.7378 H              1 S1                 0.0000
     36 ****        -0.8576   2.7299  -1.9497 H              1 S1                 0.0000
     37 ****        -0.3381   2.1565  -0.3892 H              1 S1                 0.0000
     38 ****        -1.6886  -2.9645  -0.6044 H              1 S1                 0.0000
     39 ****        -1.2091  -2.4425  -2.1884 H              1 S1                 0.0000
     40 ****         0.5207  -0.5313  -0.0106 H              1 S1                 0.0000
     41 ****         3.0467  -1.9046  -0.4727 H              1 S1                 0.0000
     42 ****         2.7713  -0.3849   0.3487 H              1 S1                 0.0000
     43 ****         1.9292  -1.6201   2.3781 H              1 S1                 0.0000
     44 ****         2.2029  -3.1438   1.5723 H              1 S1                 0.0000
     45 ****         4.4248  -4.1564   1.4980 H              1 S1                 0.0000
     46 ****         6.7785  -4.0794   2.3584 H              1 S1                 0.0000
     47 ****         7.5916  -1.9778   3.4663 H              1 S1                 0.0000
     48 ****         6.0129  -0.0394   3.6631 H              1 S1                 0.0000
     49 ****        -2.9627   1.3242   1.0380 LP             1 S1                 0.0000
     50 ****        -2.6193  -0.9059   2.1639 LP             1 S1                 0.0000
     51 ****        -1.9142  -2.1800   1.2260 LP             1 S1                 0.0000
     52 ****         0.3917  -4.2296  -1.4050 LP             1 S1                 0.0000
     53 ****         1.8757  -3.6393  -0.7350 LP             1 S1                 0.0000
     54 ****         3.8252  -0.1951   2.8267 LP             1 S1                 0.0000
     55 ****        -1.3042   0.9437  -3.4502 LP             1 S1                 0.0000
     56 ****        -0.8520  -0.7186  -3.2706 LP             1 S1                 0.0000
@<TRIPOS>BOND
    1    1    2 1     
    2    1   26 1     
    3    1   27 1     
    4    1   28 1     
    5    2    7 1     
    6    2    3 1     
    7    2   29 1     
    8    3    4 1     
    9    3   30 1     
   10    3   31 1     
   11    4    5 1     
   12    4   32 1     
   13    4   33 1     
   14    5    6 1     
   15    5   34 1     
   16    5   35 1     
   17    6    7 1     
   18    6   36 1     
   19    6   37 1     
   20    7   24 1     
   21    7    8 1     
   22    8    9 1     
   23    9   10 2     
   24    9   11 am    
   25   11   12 1     
   26   11   24 am    
   27   12   13 1     
   28   12   38 1     
   29   12   39 1     
   30   13   14 2     
   31   13   15 am    
   32   15   16 1     
   33   15   40 1     
   34   16   17 1     
   35   16   41 1     
   36   16   42 1     
   37   17   18 1     
   38   17   43 1     
   39   17   44 1     
   40   18   23 ar    
   41   18   19 ar    
   42   19   20 ar    
   43   19   45 1     
   44   20   21 ar    
   45   20   46 1     
   46   21   22 ar    
   47   21   47 1     
   48   22   23 ar    
   49   22   48 1     
   50   24   25 2     
   51    8   49 1     
   52   10   50 1     
   53   10   51 1     
   54   14   52 1     
   55   14   53 1     
   56   23   54 1     
   57   25   55 1     
   58   25   56 1     
@<TRIPOS>SUBSTRUCTURE
      1 S1             1
@<TRIPOS>SET
LONE_PAIRS      STATIC     ATOMS    <user>   **** ""
8 49 50 51 52 53 54 55 56
DONOR_HYDROGENS      STATIC     ATOMS    <user>   **** ""
1 40
ATOM$BLUE        STATIC     ATOMS    COLORGROUP SYSTEM
8 49 50 51 52 53 54 55 56
ATOM$RED        STATIC     ATOMS    COLORGROUP SYSTEM
1 40
