#       Name:                AV-unprocessed.smi:258
#       Creating user name   scv26
#       Creation time:       Thu Mar 26 21:12:10 2020


#       File generated by GOLD software.
#

@<TRIPOS>MOLECULE
AV-unprocessed.smi:258
    68    71     1
SMALL
NO_CHARGES


@<TRIPOS>ATOM
      1 ****        -7.2274   2.2663  -0.9932 O.3            1 S1                 0.0000
      2 ****        -6.1037   2.5701  -1.7922 C.3            1 S1                 0.0000
      3 ****        -5.4475   1.2795  -2.2980 C.3            1 S1                 0.0000
      4 ****        -4.5802   0.7782  -1.2910 O.3            1 S1                 0.0000
      5 ****        -3.8558  -0.3882  -1.6594 C.3            1 S1                 0.0000
      6 ****        -4.7410  -1.6474  -1.5746 C.3            1 S1                 0.0000
      7 ****        -3.8984  -2.9047  -1.8352 C.3            1 S1                 0.0000
      8 ****        -2.6997  -2.9782  -0.8759 C.3            1 S1                 0.0000
      9 ****        -1.9155  -1.7426  -0.9219 N.pl3          1 S1                 0.0000
     10 ****        -0.6397  -1.8301  -0.4619 C.ar           1 S1                 0.0000
     11 ****         0.1704  -2.7492  -1.0498 N.ar           1 S1                 0.0000
     12 ****         1.4397  -2.8869  -0.6583 C.ar           1 S1                 0.0000
     13 ****         2.0964  -2.2184   0.2901 N.ar           1 S1                 0.0000
     14 ****         1.2930  -1.2952   0.8904 C.ar           1 S1                 0.0000
     15 ****        -0.0744  -1.0352   0.5820 C.ar           1 S1                 0.0000
     16 ****        -0.5540  -0.0324   1.4197 N.2            1 S1                 0.0000
     17 ****         0.4669   0.2869   2.1658 C.2            1 S1                 0.0000
     18 ****         1.6196  -0.4169   1.9094 N.pl3          1 S1                 0.0000
     19 ****         2.8947  -0.2607   2.5882 C.3            1 S1                 0.0000
     20 ****         3.6158   1.0627   2.2327 C.3            1 S1                 0.0000
     21 ****         4.8965   1.2296   3.0841 C.3            1 S1                 0.0000
     22 ****         4.5657   1.4690   4.4363 O.3            1 S1                 0.0000
     23 ****         3.8608   1.2155   0.7049 C.3            1 S1                 0.0000
     24 ****         4.8777   0.2575   0.0920 C.3            1 S1                 0.0000
     25 ****         5.4132   1.0596  -1.0851 C.3            1 S1                 0.0000
     26 ****         5.5034   2.3694  -0.5505 O.3            1 S1                 0.0000
     27 ****         4.3493   2.6025   0.2492 C.3            1 S1                 0.0000
     28 ****        -2.6646  -0.5081  -0.6926 C.3            1 S1                 0.0000
     29 ****        -7.6124   3.0766  -0.6958 H              1 S1                 0.0000
     30 ****        -6.4526   3.1622  -2.6385 H              1 S1                 0.0000
     31 ****        -5.3946   3.1857  -1.2376 H              1 S1                 0.0000
     32 ****        -6.2023   0.5505  -2.5940 H              1 S1                 0.0000
     33 ****        -4.8546   1.5091  -3.1845 H              1 S1                 0.0000
     34 ****        -3.4641  -0.2793  -2.6727 H              1 S1                 0.0000
     35 ****        -5.2001  -1.7105  -0.5873 H              1 S1                 0.0000
     36 ****        -5.5560  -1.6025  -2.2963 H              1 S1                 0.0000
     37 ****        -4.5149  -3.7978  -1.7303 H              1 S1                 0.0000
     38 ****        -3.5388  -2.8949  -2.8649 H              1 S1                 0.0000
     39 ****        -3.0505  -3.1291   0.1458 H              1 S1                 0.0000
     40 ****        -2.0955  -3.8491  -1.1307 H              1 S1                 0.0000
     41 ****         2.0112  -3.6396  -1.1810 H              1 S1                 0.0000
     42 ****         0.4085   1.0522   2.9262 H              1 S1                 0.0000
     43 ****         2.7033  -0.3146   3.6604 H              1 S1                 0.0000
     44 ****         3.5298  -1.1140   2.3483 H              1 S1                 0.0000
     45 ****         2.9443   1.8778   2.5083 H              1 S1                 0.0000
     46 ****         5.5246   0.3406   3.0310 H              1 S1                 0.0000
     47 ****         5.5023   2.0669   2.7404 H              1 S1                 0.0000
     48 ****         5.3663   1.5746   4.9275 H              1 S1                 0.0000
     49 ****         2.9163   1.0556   0.1838 H              1 S1                 0.0000
     50 ****         5.6962   0.0445   0.7781 H              1 S1                 0.0000
     51 ****         4.4393  -0.6930  -0.2121 H              1 S1                 0.0000
     52 ****         6.3800   0.6996  -1.4373 H              1 S1                 0.0000
     53 ****         4.7114   1.0483  -1.9207 H              1 S1                 0.0000
     54 ****         3.5857   3.0935  -0.3556 H              1 S1                 0.0000
     55 ****         4.5915   3.2751   1.0714 H              1 S1                 0.0000
     56 ****        -2.0127   0.3566  -0.8236 H              1 S1                 0.0000
     57 ****        -3.0219  -0.4958   0.3378 H              1 S1                 0.0000
     58 ****        -6.9433   1.7190  -0.2060 LP             1 S1                 0.0000
     59 ****        -7.8956   1.7533  -1.5321 LP             1 S1                 0.0000
     60 ****        -5.1309   0.5615  -0.4849 LP             1 S1                 0.0000
     61 ****        -3.9215   1.4948  -1.0619 LP             1 S1                 0.0000
     62 ****        -0.1874  -3.3280  -1.7826 LP             1 S1                 0.0000
     63 ****         3.0546  -2.3742   0.5300 LP             1 S1                 0.0000
     64 ****        -1.4751   0.3562   1.4440 LP             1 S1                 0.0000
     65 ****         4.0474   0.6944   4.7988 LP             1 S1                 0.0000
     66 ****         4.0149   2.3007   4.5065 LP             1 S1                 0.0000
     67 ****         5.5407   3.0369  -1.2942 LP             1 S1                 0.0000
     68 ****         6.3267   2.4499   0.0113 LP             1 S1                 0.0000
@<TRIPOS>BOND
    1    1    2 1     
    2    1   29 1     
    3    2    3 1     
    4    2   30 1     
    5    2   31 1     
    6    3    4 1     
    7    3   32 1     
    8    3   33 1     
    9    4    5 1     
   10    5   28 1     
   11    5    6 1     
   12    5   34 1     
   13    6    7 1     
   14    6   35 1     
   15    6   36 1     
   16    7    8 1     
   17    7   37 1     
   18    7   38 1     
   19    8    9 1     
   20    8   39 1     
   21    8   40 1     
   22    9   10 1     
   23    9   28 1     
   24   10   15 ar    
   25   10   11 ar    
   26   11   12 ar    
   27   12   13 ar    
   28   12   41 1     
   29   13   14 ar    
   30   14   18 1     
   31   14   15 ar    
   32   15   16 1     
   33   16   17 2     
   34   17   18 1     
   35   17   42 1     
   36   18   19 1     
   37   19   20 1     
   38   19   43 1     
   39   19   44 1     
   40   20   21 1     
   41   20   23 1     
   42   20   45 1     
   43   21   22 1     
   44   21   46 1     
   45   21   47 1     
   46   22   48 1     
   47   23   27 1     
   48   23   24 1     
   49   23   49 1     
   50   24   25 1     
   51   24   50 1     
   52   24   51 1     
   53   25   26 1     
   54   25   52 1     
   55   25   53 1     
   56   26   27 1     
   57   27   54 1     
   58   27   55 1     
   59   28   56 1     
   60   28   57 1     
   61    1   58 1     
   62    1   59 1     
   63    4   60 1     
   64    4   61 1     
   65   11   62 1     
   66   13   63 1     
   67   16   64 1     
   68   22   65 1     
   69   22   66 1     
   70   26   67 1     
   71   26   68 1     
@<TRIPOS>SUBSTRUCTURE
      1 S1             1
@<TRIPOS>SET
LONE_PAIRS      STATIC     ATOMS    <user>   **** ""
11 58 59 60 61 62 63 64 65 66 67 68
DONOR_HYDROGENS      STATIC     ATOMS    <user>   **** ""
2 29 48
ATOM$BLUE        STATIC     ATOMS    COLORGROUP SYSTEM
11 58 59 60 61 62 63 64 65 66 67 68
ATOM$RED        STATIC     ATOMS    COLORGROUP SYSTEM
2 29 48
