AV-unprocessed.smi:787|AV-procd|sdf|3727|dock10
  -GOLD-   22720 1163D 1   1.00000     0.00000
 Structure written by MMmdl.
 47 49  0  0  0  0  0  0  0  0  2 V2000
  146.2989  141.0958  158.1534 C   0  0  0  0  0  0  0  0  0  0  0  0
  146.9435  140.3937  157.0551 N   0  0  0  0  0  0  0  0  0  0  0  0
  148.3118  140.5665  156.8032 C   0  0  0  0  0  0  0  0  0  0  0  0
  149.0711  141.2845  157.6628 N   0  0  0  0  0  0  0  0  0  0  0  0
  150.3754  141.4163  157.3883 C   0  0  0  0  0  0  0  0  0  0  0  0
  151.0739  140.9287  156.3512 N   0  0  0  0  0  0  0  0  0  0  0  0
  150.3304  140.2186  155.4922 C   0  0  0  0  0  0  0  0  0  0  0  0
  150.7864  139.6027  154.3394 N   0  0  0  0  0  0  0  0  0  0  0  0
  149.6719  139.0512  153.8675 C   0  0  0  0  0  0  0  0  0  0  0  0
  148.5364  139.2463  154.5672 N   0  0  0  0  0  0  0  0  0  0  0  0
  147.2132  138.7535  154.2251 C   0  0  0  0  0  0  0  0  0  0  0  0
  146.9635  138.7202  152.7035 C   0  0  2  0  0  0  0  0  0  0  0  0
  146.6802  140.0383  152.2812 O   0  0  0  0  0  0  0  0  0  0  0  0
  145.8014  137.7963  152.2755 C   0  0  0  0  0  0  0  0  0  0  0  0
  146.2777  136.4293  151.9481 N   0  3  2  0  0  0  0  0  0  0  0  0
  145.5267  135.8263  150.8229 C   0  0  0  0  0  0  0  0  0  0  0  0
  146.3449  135.5349  153.1323 C   0  0  0  0  0  0  0  0  0  0  0  0
  147.1481  134.2834  152.8324 C   0  0  0  0  0  0  0  0  0  0  0  0
  146.6299  133.2855  151.9796 C   0  0  0  0  0  0  0  0  0  0  0  0
  147.3853  132.1289  151.7042 C   0  0  0  0  0  0  0  0  0  0  0  0
  148.6595  131.9653  152.2809 C   0  0  0  0  0  0  0  0  0  0  0  0
  149.1781  132.9578  153.1346 C   0  0  0  0  0  0  0  0  0  0  0  0
  148.4238  134.1146  153.4107 C   0  0  0  0  0  0  0  0  0  0  0  0
  148.9292  140.0075  155.6664 C   0  0  0  0  0  0  0  0  0  0  0  0
  145.2436  140.8268  158.1981 H   0  0  0  0  0  0  0  0  0  0  0  0
  146.3708  142.1753  158.0179 H   0  0  0  0  0  0  0  0  0  0  0  0
  146.7592  140.8299  159.1055 H   0  0  0  0  0  0  0  0  0  0  0  0
  146.4083  139.7268  156.5181 H   0  0  0  0  0  0  0  0  0  0  0  0
  150.9439  141.9953  158.1008 H   0  0  0  0  0  0  0  0  0  0  0  0
  149.6795  138.4807  152.9501 H   0  0  0  0  0  0  0  0  0  0  0  0
  147.0986  137.7536  154.6474 H   0  0  0  0  0  0  0  0  0  0  0  0
  146.4742  139.3843  154.7207 H   0  0  0  0  0  0  0  0  0  0  0  0
  147.8827  138.4143  152.2074 H   0  0  0  0  0  0  0  0  0  0  0  0
  147.3776  140.3342  151.7154 H   0  0  0  0  0  0  0  0  0  0  0  0
  145.0430  137.7181  153.0557 H   0  0  0  0  0  0  0  0  0  0  0  0
  145.3025  138.2417  151.4132 H   0  0  0  0  0  0  0  0  0  0  0  0
  144.4773  135.6854  151.0846 H   0  0  0  0  0  0  0  0  0  0  0  0
  145.9433  134.8575  150.5466 H   0  0  0  0  0  0  0  0  0  0  0  0
  145.5763  136.4641  149.9398 H   0  0  0  0  0  0  0  0  0  0  0  0
  146.8225  136.0353  153.9747 H   0  0  0  0  0  0  0  0  0  0  0  0
  145.3399  135.2771  153.4702 H   0  0  0  0  0  0  0  0  0  0  0  0
  145.6539  133.4037  151.5322 H   0  0  0  0  0  0  0  0  0  0  0  0
  146.9874  131.3666  151.0504 H   0  0  0  0  0  0  0  0  0  0  0  0
  149.2384  131.0784  152.0691 H   0  0  0  0  0  0  0  0  0  0  0  0
  150.1552  132.8316  153.5775 H   0  0  0  0  0  0  0  0  0  0  0  0
  148.8281  134.8731  154.0652 H   0  0  0  0  0  0  0  0  0  0  0  0
  147.2271  136.5464  151.6223 H   0  0  0  0  0  0  0  0  0  0  0  0
  1  2  1  0  0  0  0
  1 25  1  0  0  0  0
  1 26  1  0  0  0  0
  1 27  1  0  0  0  0
  2  3  1  0  0  0  0
  2 28  1  0  0  0  0
  3 24  1  0  0  0  0
  3  4  2  0  0  0  0
  4  5  1  0  0  0  0
  5  6  2  0  0  0  0
  5 29  1  0  0  0  0
  6  7  1  0  0  0  0
  7 24  2  0  0  0  0
  7  8  1  0  0  0  0
  8  9  2  0  0  0  0
  9 10  1  0  0  0  0
  9 30  1  0  0  0  0
 10 11  1  0  0  0  0
 10 24  1  0  0  0  0
 11 12  1  0  0  0  0
 11 31  1  0  0  0  0
 11 32  1  0  0  0  0
 12 13  1  0  0  0  0
 12 14  1  0  0  0  0
 12 33  1  0  0  0  0
 13 34  1  0  0  0  0
 14 15  1  0  0  0  0
 14 35  1  0  0  0  0
 14 36  1  0  0  0  0
 15 16  1  0  0  0  0
 15 17  1  0  0  0  0
 15 47  1  0  0  0  0
 16 37  1  0  0  0  0
 16 38  1  0  0  0  0
 16 39  1  0  0  0  0
 17 18  1  0  0  0  0
 17 40  1  0  0  0  0
 17 41  1  0  0  0  0
 18 23  1  0  0  0  0
 18 19  2  0  0  0  0
 19 20  1  0  0  0  0
 19 42  1  0  0  0  0
 20 21  2  0  0  0  0
 20 43  1  0  0  0  0
 21 22  1  0  0  0  0
 21 44  1  0  0  0  0
 22 23  2  0  0  0  0
 22 45  1  0  0  0  0
 23 46  1  0  0  0  0
M  CHG  1  15   1
M  END
> <s_m_source_file>
AV-unprocessed.smi

> <i_m_source_file_index>
787

> <i_lp_mmshare_version>
43012

> <i_f3d_flags>
0

> <s_epik_input>
bjFbY0hdbmMoW05IXVtDSDNdKWMoYzEyKW4oW2NIXW4yKVtDSDJdW0NASF0oW09IXSlbQ0gyXU4oW0NIM10pW0NIMl1jM1tjSF1bY0hdW2NIXVtjSF1bY0hdMw==

> <s_epik_cmdline>
J2VwaWtfcHl0aG9uJywgJy1waCcsICc3LjAnLCAnLXRuJywgJzgnLCAnLW1hJywgJzIwMCcsICctbWV0YWxfYmluZGluZycsICctaW1hZScsICc8aW5maWxlLm1hZT4nLCAnLW9tYWUnLCAnPG91dGZpbGUubWFlPic=

> <r_lp_tautomer_probability>
0.999987

> <r_epik_Ionization_Penalty>
0.0526284

> <r_epik_Ionization_Penalty_Charging>
0.0475377

> <r_epik_Ionization_Penalty_Neutral>
0.00509065

> <r_epik_State_Penalty>
0.0404888

> <r_epik_Charging_Adjusted_Penalty>
0.0880265

> <i_epik_Tot_Q>
1

> <i_epik_Tot_abs_Q>
1

> <r_epik_Metal_State_Penalty>
0.040507

> <b_epik_Metal_Only>
0

> <s_lp_Force_Field>
OPLS_2005

> <r_lp_Energy>
15.7703

> <b_lp_Chiralities_Consistent>
1

> <s_lp_Variant>
AV-unprocessed.smi:787-3

> <Gold.Version>
5.8.1

> <Gold.Id.Protein>
6NUR|6NUR_protein|mol2

> <Gold.PLP.Fitness>
47.5327

> <Gold.PLP.PLP>
-34.3093

> <Gold.PLP.part.hbond>
-3.4503

> <Gold.PLP.part.metal>
0.0000

> <Gold.PLP.part.buried>
-1.6083

> <Gold.PLP.part.nonpolar>
-29.7417

> <Gold.PLP.part.repulsive>
0.3722

> <Gold.PLP.ligand.clash>
0.0000

> <Gold.PLP.ligand.torsion>
1.5343

> <Gold.PLP.Chemscore.Hbond>
4.0000

> <Gold.PLP.Chemscore.CHOScore>
1.3152

> <Gold.PLP.Chemscore.Metal>
0.0000

> <Gold.Chemscore.Hbonds>
donor molecule, donor type, donor heavy atom, donor atom, acceptor molecule, acceptor atom, score
      L1  H    13    34       P1  7957  0.34
      L1  H    15    47       P1  7948  1.98
      P1  H  7989  7998       L1     8  1.00
      L1  C     9    30       P1  7948  0.93
      L1  C     9    30       P1  7957  0.56

> <Gold.PLP.Chemscore.Internal.Correction>
0.3462

> <Gold.Rescore>
     Score         DG    S(hbond)    S(metal)    S(lipo)     H(rot)  DE(clash)    DE(int)     intcor
     11.30     -14.07       2.89        0.00      60.96       3.19       1.15       1.62       ----

> <Gold.Chemscore.Fitness>
11.2991

> <Gold.Chemscore.DG>
-14.0744

> <Gold.Chemscore.ZeroCoef>
-5.4800

> <Gold.Chemscore.Hbond>
2.8850

> <Gold.Chemscore.Metal>
0.0000

> <Gold.Chemscore.Lipo>
60.9570

> <Gold.Chemscore.Internal_Hbond>
0.0000

> <Gold.Chemscore.DEClash>
1.1529

> <Gold.Chemscore.DEInternal>
1.6224

> <Gold.Chemscore.Rot>
3.1928

> <Gold.Chemscore.Internal.Correction>
   9.000000E+99

> <Gold.Chemscore.Hbonds>
donor molecule, donor type, donor heavy atom, donor atom, acceptor molecule, acceptor atom, score
      L1  H    13    34       P1  7957  0.33
      L1  H    15    47       P1  7948  0.94
      P1  H  7989  7998       L1     8  0.49

> <Gold.Chemscore.Hbond.Weighted>
-9.6360

> <Gold.Chemscore.Metal.Weighted>
-0.0000

> <Gold.Chemscore.Lipo.Weighted>
-7.1320

> <Gold.Chemscore.Internal_Hbond.Weighted>
0.0000

> <Gold.Chemscore.DEClash.Weighted>
1.1529

> <Gold.Chemscore.DEInternal.Weighted>
1.6224

> <Gold.Chemscore.Rot.Weighted>
8.1736

> <Gold.Chemscore.Internal.Correction.Weighted>
   9.000000E+99

> <Gold.Protein.RotatedTorsions>
[ 6907 6896 6895 6894 ] final  161.09 input  -60.11 | X-H torsion
[ 7974 7965 7964 7962 ] final -171.07 input  175.53 | X-H torsion
[ 8008 7997 7996 7995 ] final  172.36 input   59.86 | X-H torsion
[ 10167 10162 10161 10158 ] final -134.03 input  -65.29 | X-H torsion
[ 10718 10713 10712 10709 ] final  -86.72 input   66.30 | X-H torsion
[ 10763 10752 10751 10750 ] final  -57.82 input  -60.55 | X-H torsion
[ 11005 11000 10999 10996 ] final -119.42 input  -57.11 | X-H torsion

> <Gold.Protein.ActiveResidues>
 VAL166  LYS551  ARG553  GLY616  TRP617  ASP618  TYR619  PRO620  LYS621  CYS622 
 ASP623  PHE694  ASN695  SER759  ASP760  ASP761  ALA762  ILE779  LEU786  VAL792 
 PHE793  MET794  SER795  GLU796  ALA797  LYS798  CYS799  TRP800  GLU811  SER814 

> <Gold.Protein.RotatedAtoms>
  151.9608  133.3694  159.4034 H   0  0  0  0  0  0  0  0  0  0  0  0  # atno 6907 bound_to 6896
  150.6964  134.4242  159.5228 H   0  0  0  0  0  0  0  0  0  0  0  0  # atno 6908 bound_to 6896
  152.1931  134.8654  160.0566 H   0  0  0  0  0  0  0  0  0  0  0  0  # atno 6909 bound_to 6896
  144.7162  140.1978  143.6341 H   0  0  0  0  0  0  0  0  0  0  0  0  # atno 7974 bound_to 7965
  156.1182  140.1488  156.9242 H   0  0  0  0  0  0  0  0  0  0  0  0  # atno 8008 bound_to 7997
  154.4816  140.0877  156.7432 H   0  0  0  0  0  0  0  0  0  0  0  0  # atno 8009 bound_to 7997
  155.4476  140.3433  155.4299 H   0  0  0  0  0  0  0  0  0  0  0  0  # atno 8010 bound_to 7997
  139.8922  143.6709  152.2610 H   0  0  0  0  0  0  0  0  0  0  0  0  # atno 10167 bound_to 10162
  155.9988  130.4775  150.4758 H   0  0  0  0  0  0  0  0  0  0  0  0  # atno 10718 bound_to 10713
  154.2284  135.6365  153.5167 H   0  0  0  0  0  0  0  0  0  0  0  0  # atno 10763 bound_to 10752
  152.9954  135.5513  154.6039 H   0  0  0  0  0  0  0  0  0  0  0  0  # atno 10764 bound_to 10752
  154.5516  135.2902  155.0977 H   0  0  0  0  0  0  0  0  0  0  0  0  # atno 10765 bound_to 10752
  141.0216  134.0115  157.3274 H   0  0  0  0  0  0  0  0  0  0  0  0  # atno 11005 bound_to 11000
  145.8708  139.2271  143.1662 LP  0  0  0  0  0  0  0  0  0  0  0  0  # atno 17320 bound_to 7965
  146.0086  140.8456  142.9982 LP  0  0  0  0  0  0  0  0  0  0  0  0  # atno 17321 bound_to 7965
  139.7100  144.7622  151.1129 LP  0  0  0  0  0  0  0  0  0  0  0  0  # atno 17342 bound_to 10162
  140.7724  143.5344  150.9385 LP  0  0  0  0  0  0  0  0  0  0  0  0  # atno 17343 bound_to 10162
  157.2768  131.0598  151.2223 LP  0  0  0  0  0  0  0  0  0  0  0  0  # atno 17370 bound_to 10713
  157.3284  130.6972  149.6310 LP  0  0  0  0  0  0  0  0  0  0  0  0  # atno 17371 bound_to 10713
  139.9150  135.0195  156.7844 LP  0  0  0  0  0  0  0  0  0  0  0  0  # atno 17394 bound_to 11000
  140.6562  133.9686  155.7781 LP  0  0  0  0  0  0  0  0  0  0  0  0  # atno 17395 bound_to 11000

$$$$
