#       Name:                AV-unprocessed.smi:109
#       Creating user name   scv26
#       Creation time:       Thu Mar 26 18:12:27 2020


#       File generated by GOLD software.
#

@<TRIPOS>MOLECULE
AV-unprocessed.smi:109
    71    74     1
SMALL
NO_CHARGES


@<TRIPOS>ATOM
      1 ****        -1.8038   3.0083  -4.0410 O.3            1 S1                 0.0000
      2 ****        -1.4670   2.4573  -2.7859 C.3            1 S1                 0.0000
      3 ****        -2.7423   2.2280  -1.9573 C.3            1 S1                 0.0000
      4 ****        -2.4899   1.7077  -0.5197 C.3            1 S1                 0.0000
      5 ****        -1.8108   0.4106  -0.5792 N.pl3          1 S1                 0.0000
      6 ****        -0.4745   0.2847  -0.4119 C.ar           1 S1                 0.0000
      7 ****         0.3140   1.3600  -0.1529 N.ar           1 S1                 0.0000
      8 ****         1.6331   1.2046  -0.0075 C.ar           1 S1                 0.0000
      9 ****         2.3537   0.0835  -0.0797 N.ar           1 S1                 0.0000
     10 ****         1.5669  -1.0019  -0.3340 C.ar           1 S1                 0.0000
     11 ****         0.1549  -0.9833  -0.5104 C.ar           1 S1                 0.0000
     12 ****        -0.3052  -2.2706  -0.7548 N.2            1 S1                 0.0000
     13 ****         0.7758  -3.0033  -0.7266 C.2            1 S1                 0.0000
     14 ****         1.9461  -2.3207  -0.4785 N.pl3          1 S1                 0.0000
     15 ****         3.3299  -2.8793  -0.4065 C.3            1 S1                 0.0000
     16 ****         4.1337  -2.1447  -1.2810 O.3            1 S1                 0.0000
     17 ****         5.4183  -1.9391  -0.7046 C.3            1 S1                 0.0000
     18 ****         6.3308  -3.1222  -1.0942 C.3            1 S1                 0.0000
     19 ****         7.6881  -2.8007  -0.8735 O.3            1 S1                 0.0000
     20 ****         5.0884  -1.7920   0.7872 C.3            1 S1                 0.0000
     21 ****         6.1813  -1.9926   1.6658 O.3            1 S1                 0.0000
     22 ****         3.9174  -2.7481   1.0103 C.3            1 S1                 0.0000
     23 ****         4.3448  -4.0050   1.5021 O.3            1 S1                 0.0000
     24 ****        -3.7912   1.5723   0.3237 C.3            1 S1                 0.0000
     25 ****        -4.5925   2.8953   0.4276 C.3            1 S1                 0.0000
     26 ****        -5.8550   2.7531   1.2939 C.3            1 S1                 0.0000
     27 ****        -5.5183   2.2339   2.6966 C.3            1 S1                 0.0000
     28 ****        -4.7509   0.9095   2.6103 C.3            1 S1                 0.0000
     29 ****        -3.4836   1.0580   1.7539 C.3            1 S1                 0.0000
     30 ****         3.2352  -3.9117  -0.7469 H              1 S1                 0.0000
     31 ****         5.8341  -1.0138  -1.1056 H              1 S1                 0.0000
     32 ****         4.7324  -0.7745   0.9493 H              1 S1                 0.0000
     33 ****         3.1890  -2.3294   1.7063 H              1 S1                 0.0000
     34 ****        -2.3530   2.3929  -4.5021 H              1 S1                 0.0000
     35 ****        -0.9286   1.5243  -2.9521 H              1 S1                 0.0000
     36 ****        -0.7915   3.1402  -2.2702 H              1 S1                 0.0000
     37 ****        -3.2607   3.1843  -1.9179 H              1 S1                 0.0000
     38 ****        -3.4050   1.5410  -2.4854 H              1 S1                 0.0000
     39 ****        -1.8669   2.4407  -0.0073 H              1 S1                 0.0000
     40 ****        -2.4092  -0.3817  -0.7648 H              1 S1                 0.0000
     41 ****         2.1909   2.1076   0.1928 H              1 S1                 0.0000
     42 ****         0.7483  -4.0711  -0.8893 H              1 S1                 0.0000
     43 ****         6.0737  -4.0340  -0.5562 H              1 S1                 0.0000
     44 ****         6.2167  -3.3395  -2.1564 H              1 S1                 0.0000
     45 ****         8.2180  -3.5359  -1.1421 H              1 S1                 0.0000
     46 ****         6.8752  -1.3993   1.4204 H              1 S1                 0.0000
     47 ****         4.8311  -3.8588   2.2996 H              1 S1                 0.0000
     48 ****        -4.4325   0.8368  -0.1651 H              1 S1                 0.0000
     49 ****        -3.9555   3.6802   0.8374 H              1 S1                 0.0000
     50 ****        -4.9128   3.2356  -0.5555 H              1 S1                 0.0000
     51 ****        -6.3643   3.7144   1.3673 H              1 S1                 0.0000
     52 ****        -6.5540   2.0702   0.8094 H              1 S1                 0.0000
     53 ****        -4.9183   2.9734   3.2284 H              1 S1                 0.0000
     54 ****        -6.4326   2.1000   3.2751 H              1 S1                 0.0000
     55 ****        -4.4849   0.5700   3.6117 H              1 S1                 0.0000
     56 ****        -5.3939   0.1390   2.1829 H              1 S1                 0.0000
     57 ****        -2.9814   0.0913   1.7187 H              1 S1                 0.0000
     58 ****        -2.7915   1.7417   2.2477 H              1 S1                 0.0000
     59 ****        -0.9716   3.1786  -4.5687 LP             1 S1                 0.0000
     60 ****        -2.2972   3.8682  -3.9102 LP             1 S1                 0.0000
     61 ****        -0.0935   2.2696  -0.0709 LP             1 S1                 0.0000
     62 ****         3.3460   0.0440   0.0378 LP             1 S1                 0.0000
     63 ****        -1.2464  -2.5678  -0.9153 LP             1 S1                 0.0000
     64 ****         3.7053  -1.2589  -1.4597 LP             1 S1                 0.0000
     65 ****         4.2327  -2.6464  -2.1404 LP             1 S1                 0.0000
     66 ****         7.8370  -2.6144   0.0976 LP             1 S1                 0.0000
     67 ****         7.9350  -1.9933  -1.4094 LP             1 S1                 0.0000
     68 ****         6.5032  -2.9366   1.5940 LP             1 S1                 0.0000
     69 ****         5.8964  -1.8081   2.6064 LP             1 S1                 0.0000
     70 ****         4.9298  -4.4524   0.8256 LP             1 S1                 0.0000
     71 ****         3.5508  -4.5829   1.6905 LP             1 S1                 0.0000
@<TRIPOS>BOND
    1    1    2 1     
    2    1   34 1     
    3    2    3 1     
    4    2   35 1     
    5    2   36 1     
    6    3    4 1     
    7    3   37 1     
    8    3   38 1     
    9    4    5 1     
   10    4   24 1     
   11    4   39 1     
   12    5    6 1     
   13    5   40 1     
   14    6   11 ar    
   15    6    7 ar    
   16    7    8 ar    
   17    8    9 ar    
   18    8   41 1     
   19    9   10 ar    
   20   10   14 1     
   21   10   11 ar    
   22   11   12 1     
   23   12   13 2     
   24   13   14 1     
   25   13   42 1     
   26   14   15 1     
   27   15   30 1     
   28   15   22 1     
   29   15   16 1     
   30   16   17 1     
   31   17   31 1     
   32   17   18 1     
   33   17   20 1     
   34   18   19 1     
   35   18   43 1     
   36   18   44 1     
   37   19   45 1     
   38   20   32 1     
   39   20   21 1     
   40   20   22 1     
   41   21   46 1     
   42   22   33 1     
   43   22   23 1     
   44   23   47 1     
   45   24   29 1     
   46   24   25 1     
   47   24   48 1     
   48   25   26 1     
   49   25   49 1     
   50   25   50 1     
   51   26   27 1     
   52   26   51 1     
   53   26   52 1     
   54   27   28 1     
   55   27   53 1     
   56   27   54 1     
   57   28   29 1     
   58   28   55 1     
   59   28   56 1     
   60   29   57 1     
   61   29   58 1     
   62    1   59 1     
   63    1   60 1     
   64    7   61 1     
   65    9   62 1     
   66   12   63 1     
   67   16   64 1     
   68   16   65 1     
   69   19   66 1     
   70   19   67 1     
   71   21   68 1     
   72   21   69 1     
   73   23   70 1     
   74   23   71 1     
@<TRIPOS>SUBSTRUCTURE
      1 S1             1
@<TRIPOS>SET
LONE_PAIRS      STATIC     ATOMS    <user>   **** ""
13 59 60 61 62 63 64 65 66 67 68 69 70 71
DONOR_HYDROGENS      STATIC     ATOMS    <user>   **** ""
5 34 40 45 46 47
ATOM$BLUE        STATIC     ATOMS    COLORGROUP SYSTEM
13 59 60 61 62 63 64 65 66 67 68 69 70 71
ATOM$RED        STATIC     ATOMS    COLORGROUP SYSTEM
5 34 40 45 46 47
