AV-unprocessed.smi:774|AV-procd|sdf|3694|dock10
  -GOLD-   22720 1113D 1   1.00000     0.00000
 Structure written by MMmdl.
 37 38  0  0  0  0  0  0  0  0  1 V2000
  146.0448  129.4062  152.6129 C   0  0  0  0  0  0  0  0  0  0  0  0
  146.1656  130.9120  152.3651 C   0  0  0  0  0  0  0  0  0  0  0  0
  144.8132  131.5240  151.3224 S   0  0  0  0  0  0  0  0  0  0  0  0
  145.3236  133.2531  151.0998 C   0  0  1  0  0  0  0  0  0  0  0  0
  144.4489  134.0161  150.1062 C   0  0  0  0  0  0  0  0  0  0  0  0
  144.6886  135.4885  150.4422 C   0  0  0  0  0  0  0  0  0  0  0  0
  145.0117  135.5345  151.9474 C   0  0  2  0  0  0  0  0  0  0  0  0
  146.2107  136.3309  152.1980 N   0  0  0  0  0  0  0  0  0  0  0  0
  146.2418  137.4837  152.8813 C   0  0  0  0  0  0  0  0  0  0  0  0
  145.2468  138.0004  153.3899 O   0  0  0  0  0  0  0  0  0  0  0  0
  147.4911  137.9742  152.9521 N   0  0  0  0  0  0  0  0  0  0  0  0
  147.9230  139.1934  153.5394 C   0  0  0  0  0  0  0  0  0  0  0  0
  147.0609  140.2750  153.8409 C   0  0  0  0  0  0  0  0  0  0  0  0
  147.6091  141.4453  154.4001 C   0  0  0  0  0  0  0  0  0  0  0  0
  148.9975  141.4936  154.6312 C   0  0  0  0  0  0  0  0  0  0  0  0
  149.8329  140.4754  154.3359 N   0  0  0  0  0  0  0  0  0  0  0  0
  149.3004  139.3572  153.7982 C   0  0  0  0  0  0  0  0  0  0  0  0
  145.2070  134.0708  152.3891 C   0  0  0  0  0  0  0  0  0  0  0  0
  146.8631  129.0491  153.2384 H   0  0  0  0  0  0  0  0  0  0  0  0
  146.0754  128.8506  151.6756 H   0  0  0  0  0  0  0  0  0  0  0  0
  145.1093  129.1635  153.1174 H   0  0  0  0  0  0  0  0  0  0  0  0
  146.1543  131.4492  153.3138 H   0  0  0  0  0  0  0  0  0  0  0  0
  147.1175  131.1301  151.8815 H   0  0  0  0  0  0  0  0  0  0  0  0
  146.3604  133.2761  150.7611 H   0  0  0  0  0  0  0  0  0  0  0  0
  144.6878  133.7857  149.0677 H   0  0  0  0  0  0  0  0  0  0  0  0
  143.3986  133.7705  150.2691 H   0  0  0  0  0  0  0  0  0  0  0  0
  145.5327  135.8536  149.8547 H   0  0  0  0  0  0  0  0  0  0  0  0
  143.8285  136.1083  150.1869 H   0  0  0  0  0  0  0  0  0  0  0  0
  144.1624  135.9629  152.4831 H   0  0  0  0  0  0  0  0  0  0  0  0
  147.0778  135.9777  151.8210 H   0  0  0  0  0  0  0  0  0  0  0  0
  148.2238  137.3869  152.5812 H   0  0  0  0  0  0  0  0  0  0  0  0
  146.0013  140.2358  153.6405 H   0  0  0  0  0  0  0  0  0  0  0  0
  146.9793  142.2888  154.6414 H   0  0  0  0  0  0  0  0  0  0  0  0
  149.4502  142.3762  155.0585 H   0  0  0  0  0  0  0  0  0  0  0  0
  149.9987  138.5647  153.5712 H   0  0  0  0  0  0  0  0  0  0  0  0
  144.3262  133.7528  152.9489 H   0  0  0  0  0  0  0  0  0  0  0  0
  146.0676  133.9261  153.0437 H   0  0  0  0  0  0  0  0  0  0  0  0
  1  2  1  0  0  0  0
  1 19  1  0  0  0  0
  1 20  1  0  0  0  0
  1 21  1  0  0  0  0
  2  3  1  0  0  0  0
  2 22  1  0  0  0  0
  2 23  1  0  0  0  0
  3  4  1  0  0  0  0
  4 18  1  0  0  0  0
  4  5  1  0  0  0  0
  4 24  1  0  0  0  0
  5  6  1  0  0  0  0
  5 25  1  0  0  0  0
  5 26  1  0  0  0  0
  6  7  1  0  0  0  0
  6 27  1  0  0  0  0
  6 28  1  0  0  0  0
  7  8  1  0  0  0  0
  7 18  1  0  0  0  0
  7 29  1  0  0  0  0
  8  9  1  0  0  0  0
  8 30  1  0  0  0  0
  9 10  2  0  0  0  0
  9 11  1  0  0  0  0
 11 12  1  0  0  0  0
 11 31  1  0  0  0  0
 12 17  1  0  0  0  0
 12 13  2  0  0  0  0
 13 14  1  0  0  0  0
 13 32  1  0  0  0  0
 14 15  2  0  0  0  0
 14 33  1  0  0  0  0
 15 16  1  0  0  0  0
 15 34  1  0  0  0  0
 16 17  2  0  0  0  0
 17 35  1  0  0  0  0
 18 36  1  0  0  0  0
 18 37  1  0  0  0  0
M  END
> <s_m_source_file>
AV-unprocessed.smi

> <i_m_source_file_index>
774

> <i_lp_mmshare_version>
43012

> <i_f3d_flags>
0

> <s_epik_input>
W0NIM11bQ0gyXVNbQ0BASF0xW0NIMl1bQ0gyXVtDQEhdKFtDSDJdMSlbTkhdQyg9TylbTkhdYzJbY0hdW2NIXVtjSF1uW2NIXTI=

> <s_epik_cmdline>
J2VwaWtfcHl0aG9uJywgJy1waCcsICc3LjAnLCAnLXRuJywgJzgnLCAnLW1hJywgJzIwMCcsICctbWV0YWxfYmluZGluZycsICctaW1hZScsICc8aW5maWxlLm1hZT4nLCAnLW9tYWUnLCAnPG91dGZpbGUubWFlPic=

> <r_epik_Ionization_Penalty>
0.00485718

> <r_epik_Ionization_Penalty_Charging>
0

> <r_epik_Ionization_Penalty_Neutral>
0.00485718

> <r_epik_State_Penalty>
0.00349461

> <r_epik_Charging_Adjusted_Penalty>
0.00349461

> <i_epik_Tot_Q>
0

> <i_epik_Tot_abs_Q>
0

> <r_epik_Metal_State_Penalty>
-0

> <b_epik_Metal_Only>
0

> <s_lp_Force_Field>
OPLS_2005

> <r_lp_Energy>
19.7013

> <b_lp_Chiralities_Consistent>
1

> <s_lp_Variant>
AV-unprocessed.smi:774-4

> <Gold.Version>
5.8.1

> <Gold.Id.Protein>
6NUR|6NUR_protein|mol2

> <Gold.PLP.Fitness>
42.0059

> <Gold.PLP.PLP>
-31.0391

> <Gold.PLP.part.hbond>
-2.9800

> <Gold.PLP.part.metal>
0.0000

> <Gold.PLP.part.buried>
-1.0764

> <Gold.PLP.part.nonpolar>
-27.6345

> <Gold.PLP.part.repulsive>
0.3665

> <Gold.PLP.ligand.clash>
0.0000

> <Gold.PLP.ligand.torsion>
0.1393

> <Gold.PLP.Chemscore.Hbond>
2.7440

> <Gold.PLP.Chemscore.CHOScore>
1.0000

> <Gold.PLP.Chemscore.Metal>
0.0000

> <Gold.Chemscore.Hbonds>
donor molecule, donor type, donor heavy atom, donor atom, acceptor molecule, acceptor atom, score
      L1  H     8    30       P1  7948  0.88
      L1  H    11    31       P1  7948  1.00
      P1  H  7989  7998       L1    16  0.80
      L1  C    15    34       P1  8028  1.00

> <Gold.PLP.Chemscore.Internal.Correction>
0.0134

> <Gold.Rescore>
     Score         DG    S(hbond)    S(metal)    S(lipo)     H(rot)  DE(clash)    DE(int)     intcor
     17.43     -20.10       2.41        0.00      84.68       1.30       1.24       1.42       ----

> <Gold.Chemscore.Fitness>
17.4341

> <Gold.Chemscore.DG>
-20.0979

> <Gold.Chemscore.ZeroCoef>
-5.4800

> <Gold.Chemscore.Hbond>
2.4097

> <Gold.Chemscore.Metal>
0.0000

> <Gold.Chemscore.Lipo>
84.6844

> <Gold.Chemscore.Internal_Hbond>
0.0000

> <Gold.Chemscore.DEClash>
1.2429

> <Gold.Chemscore.DEInternal>
1.4209

> <Gold.Chemscore.Rot>
1.3041

> <Gold.Chemscore.Internal.Correction>
   9.000000E+99

> <Gold.Chemscore.Hbonds>
donor molecule, donor type, donor heavy atom, donor atom, acceptor molecule, acceptor atom, score
      L1  H     8    30       P1  7948  0.86
      L1  H    11    31       P1  7948  0.93
      P1  H  7989  7998       L1    16  0.55

> <Gold.Chemscore.Hbond.Weighted>
-8.0483

> <Gold.Chemscore.Metal.Weighted>
-0.0000

> <Gold.Chemscore.Lipo.Weighted>
-9.9081

> <Gold.Chemscore.Internal_Hbond.Weighted>
0.0000

> <Gold.Chemscore.DEClash.Weighted>
1.2429

> <Gold.Chemscore.DEInternal.Weighted>
1.4209

> <Gold.Chemscore.Rot.Weighted>
3.3384

> <Gold.Chemscore.Internal.Correction.Weighted>
   9.000000E+99

> <Gold.Protein.RotatedTorsions>
[ 6907 6896 6895 6894 ] final  -15.44 input  -60.11 | X-H torsion
[ 7974 7965 7964 7962 ] final   51.92 input  175.53 | X-H torsion
[ 8008 7997 7996 7995 ] final   67.11 input   59.86 | X-H torsion
[ 10167 10162 10161 10158 ] final  154.95 input  -65.29 | X-H torsion
[ 10718 10713 10712 10709 ] final -177.23 input   66.30 | X-H torsion
[ 10763 10752 10751 10750 ] final  166.62 input  -60.55 | X-H torsion
[ 11005 11000 10999 10996 ] final  160.72 input  -57.11 | X-H torsion

> <Gold.Protein.ActiveResidues>
 VAL166  LYS551  ARG553  GLY616  TRP617  ASP618  TYR619  PRO620  LYS621  CYS622 
 ASP623  PHE694  ASN695  SER759  ASP760  ASP761  ALA762  ILE779  LEU786  VAL792 
 PHE793  MET794  SER795  GLU796  ALA797  LYS798  CYS799  TRP800  GLU811  SER814 

> <Gold.Protein.RotatedAtoms>
  151.3238  135.0825  159.9314 H   0  0  0  0  0  0  0  0  0  0  0  0  # atno 6907 bound_to 6896
  152.5250  133.9611  159.7728 H   0  0  0  0  0  0  0  0  0  0  0  0  # atno 6908 bound_to 6896
  150.9937  133.6071  159.2734 H   0  0  0  0  0  0  0  0  0  0  0  0  # atno 6909 bound_to 6896
  145.9865  139.4295  143.0100 H   0  0  0  0  0  0  0  0  0  0  0  0  # atno 7974 bound_to 7965
  155.6879  140.3496  155.4881 H   0  0  0  0  0  0  0  0  0  0  0  0  # atno 8008 bound_to 7997
  155.9550  140.1126  157.0967 H   0  0  0  0  0  0  0  0  0  0  0  0  # atno 8009 bound_to 7997
  154.4130  140.1187  156.5089 H   0  0  0  0  0  0  0  0  0  0  0  0  # atno 8010 bound_to 7997
  139.4822  144.5142  151.7978 H   0  0  0  0  0  0  0  0  0  0  0  0  # atno 10167 bound_to 10162
  156.8263  130.9637  151.3109 H   0  0  0  0  0  0  0  0  0  0  0  0  # atno 10718 bound_to 10713
  154.3417  135.2754  155.2419 H   0  0  0  0  0  0  0  0  0  0  0  0  # atno 10763 bound_to 10752
  154.4687  135.5888  153.6310 H   0  0  0  0  0  0  0  0  0  0  0  0  # atno 10764 bound_to 10752
  152.9857  135.6083  154.3619 H   0  0  0  0  0  0  0  0  0  0  0  0  # atno 10765 bound_to 10752
  140.2087  134.8284  157.3097 H   0  0  0  0  0  0  0  0  0  0  0  0  # atno 11005 bound_to 11000
  145.7693  140.9903  143.1158 LP  0  0  0  0  0  0  0  0  0  0  0  0  # atno 17320 bound_to 7965
  144.6876  139.9427  143.7475 LP  0  0  0  0  0  0  0  0  0  0  0  0  # atno 17321 bound_to 7965
  140.4648  144.1670  150.5910 LP  0  0  0  0  0  0  0  0  0  0  0  0  # atno 17342 bound_to 10162
  140.4445  143.2512  151.9429 LP  0  0  0  0  0  0  0  0  0  0  0  0  # atno 17343 bound_to 10162
  157.6430  130.8821  149.9485 LP  0  0  0  0  0  0  0  0  0  0  0  0  # atno 17370 bound_to 10713
  156.0959  130.3659  150.0307 LP  0  0  0  0  0  0  0  0  0  0  0  0  # atno 17371 bound_to 10713
  140.1975  134.4296  155.7681 LP  0  0  0  0  0  0  0  0  0  0  0  0  # atno 17394 bound_to 11000
  141.2226  133.7056  156.8128 LP  0  0  0  0  0  0  0  0  0  0  0  0  # atno 17395 bound_to 11000

$$$$
