AV-unprocessed.smi:3316|AV-procd|sdf|12758|dock1
  -GOLD-   2272019 93D 1   1.00000     0.00000
 Structure written by MMmdl.
 41 43  0  0  0  0  0  0  0  0  2 V2000
  147.5311  132.4855  156.1823 C   0  0  0  0  0  0  0  0  0  0  0  0
  148.2744  132.3773  154.8419 C   0  0  1  0  0  0  0  0  0  0  0  0
  148.5540  133.7666  154.2360 C   0  0  0  0  0  0  0  0  0  0  0  0
  147.9950  133.8812  152.8735 N   0  3  0  0  0  0  0  0  0  0  0  0
  146.5208  133.8719  152.8168 C   0  0  0  0  0  0  0  0  0  0  0  0
  146.0293  133.6075  151.3820 C   0  0  2  0  0  0  0  0  0  0  0  0
  144.5292  133.9781  151.1532 C   0  0  0  0  0  0  0  0  0  0  0  0
  143.9210  132.6674  150.6035 C   0  0  1  0  0  0  0  0  0  0  0  0
  144.5571  132.3792  149.2602 C   0  0  0  0  0  0  0  0  0  0  0  0
  145.8271  132.0385  149.4877 C   0  0  0  0  0  0  0  0  0  0  0  0
  146.0515  132.1085  150.9843 C   0  0  2  0  0  0  0  0  0  0  0  0
  144.6697  131.6545  151.4740 C   0  0  0  0  0  0  0  0  0  0  0  0
  149.5487  131.5524  154.9829 C   0  0  0  0  0  0  0  0  0  0  0  0
  150.5948  131.9864  155.8247 C   0  0  0  0  0  0  0  0  0  0  0  0
  151.7472  131.1830  155.9387 C   0  0  0  0  0  0  0  0  0  0  0  0
  151.9024  130.0124  155.2849 N   0  0  0  0  0  0  0  0  0  0  0  0
  150.9007  129.6020  154.4785 C   0  0  0  0  0  0  0  0  0  0  0  0
  149.7087  130.3305  154.2937 C   0  0  0  0  0  0  0  0  0  0  0  0
  147.2919  131.4976  156.5775 H   0  0  0  0  0  0  0  0  0  0  0  0
  146.5926  133.0288  156.0687 H   0  0  0  0  0  0  0  0  0  0  0  0
  148.1263  133.0081  156.9316 H   0  0  0  0  0  0  0  0  0  0  0  0
  147.6124  131.8482  154.1542 H   0  0  0  0  0  0  0  0  0  0  0  0
  148.1163  134.5456  154.8615 H   0  0  0  0  0  0  0  0  0  0  0  0
  149.6282  133.9544  154.2039 H   0  0  0  0  0  0  0  0  0  0  0  0
  148.3156  134.7535  152.4774 H   0  0  0  0  0  0  0  0  0  0  0  0
  146.1485  133.0958  153.4866 H   0  0  0  0  0  0  0  0  0  0  0  0
  146.1380  134.8233  153.1872 H   0  0  0  0  0  0  0  0  0  0  0  0
  146.6645  134.1692  150.6939 H   0  0  0  0  0  0  0  0  0  0  0  0
  144.0387  134.2619  152.0855 H   0  0  0  0  0  0  0  0  0  0  0  0
  144.4127  134.8078  150.4548 H   0  0  0  0  0  0  0  0  0  0  0  0
  142.8335  132.5915  150.6242 H   0  0  0  0  0  0  0  0  0  0  0  0
  144.0554  132.4690  148.3080 H   0  0  0  0  0  0  0  0  0  0  0  0
  146.5864  131.7931  148.7599 H   0  0  0  0  0  0  0  0  0  0  0  0
  146.8963  131.5199  151.3432 H   0  0  0  0  0  0  0  0  0  0  0  0
  144.5043  131.7835  152.5446 H   0  0  0  0  0  0  0  0  0  0  0  0
  144.4440  130.6191  151.2100 H   0  0  0  0  0  0  0  0  0  0  0  0
  150.5231  132.9137  156.3739 H   0  0  0  0  0  0  0  0  0  0  0  0
  152.5649  131.4882  156.5748 H   0  0  0  0  0  0  0  0  0  0  0  0
  151.0515  128.6632  153.9668 H   0  0  0  0  0  0  0  0  0  0  0  0
  148.9386  129.9537  153.6367 H   0  0  0  0  0  0  0  0  0  0  0  0
  148.3492  133.1222  152.3092 H   0  0  0  0  0  0  0  0  0  0  0  0
  1  2  1  0  0  0  0
  1 19  1  0  0  0  0
  1 20  1  0  0  0  0
  1 21  1  0  0  0  0
  2  3  1  0  0  0  0
  2 13  1  0  0  0  0
  2 22  1  0  0  0  0
  3  4  1  0  0  0  0
  3 23  1  0  0  0  0
  3 24  1  0  0  0  0
  4  5  1  0  0  0  0
  4 25  1  0  0  0  0
  4 41  1  0  0  0  0
  5  6  1  0  0  0  0
  5 26  1  0  0  0  0
  5 27  1  0  0  0  0
  6 11  1  0  0  0  0
  6  7  1  0  0  0  0
  6 28  1  0  0  0  0
  7  8  1  0  0  0  0
  7 29  1  0  0  0  0
  7 30  1  0  0  0  0
  8 12  1  0  0  0  0
  8  9  1  0  0  0  0
  8 31  1  0  0  0  0
  9 10  2  0  0  0  0
  9 32  1  0  0  0  0
 10 11  1  0  0  0  0
 10 33  1  0  0  0  0
 11 12  1  0  0  0  0
 11 34  1  0  0  0  0
 12 35  1  0  0  0  0
 12 36  1  0  0  0  0
 13 18  1  0  0  0  0
 13 14  2  0  0  0  0
 14 15  1  0  0  0  0
 14 37  1  0  0  0  0
 15 16  2  0  0  0  0
 15 38  1  0  0  0  0
 16 17  1  0  0  0  0
 17 18  2  0  0  0  0
 17 39  1  0  0  0  0
 18 40  1  0  0  0  0
M  CHG  1   4   1
M  END
> <s_m_source_file>
AV-unprocessed.smi

> <i_m_source_file_index>
3316

> <i_lp_mmshare_version>
43012

> <i_f3d_flags>
0

> <s_epik_input>
W2NIXTFbY0hdbltjSF1bY0hdYzFbQ0BIXShbQ0gzXSlbQ0gyXVtOSF1bQ0gyXVtDQEhdKFtDSDJdW0NASF0yMylbQ0BIXShbQ0gyXTMpW0NIXT1bQ0hdMg==

> <s_epik_cmdline>
J2VwaWtfcHl0aG9uJywgJy1waCcsICc3LjAnLCAnLXRuJywgJzgnLCAnLW1hJywgJzIwMCcsICctbWV0YWxfYmluZGluZycsICctaW1hZScsICc8aW5maWxlLm1hZT4nLCAnLW9tYWUnLCAnPG91dGZpbGUubWFlPic=

> <r_lp_tautomer_probability>
1

> <r_epik_Ionization_Penalty>
0.00280406

> <r_epik_Ionization_Penalty_Charging>
0.000446589

> <r_epik_Ionization_Penalty_Neutral>
0.00235747

> <r_epik_State_Penalty>
-0

> <r_epik_Charging_Adjusted_Penalty>
0.000446589

> <i_epik_Tot_Q>
1

> <i_epik_Tot_abs_Q>
1

> <r_epik_Metal_State_Penalty>
-0

> <b_epik_Metal_Only>
0

> <s_lp_Force_Field>
OPLS_2005

> <r_lp_Energy>
65.494

> <b_lp_Chiralities_Consistent>
1

> <s_lp_Variant>
AV-unprocessed.smi:3316-6

> <Gold.Version>
5.8.1

> <Gold.Id.Protein>
6NUR|6NUR_protein|mol2

> <Gold.PLP.Fitness>
43.8719

> <Gold.PLP.PLP>
-36.6733

> <Gold.PLP.part.hbond>
-1.0000

> <Gold.PLP.part.metal>
0.0000

> <Gold.PLP.part.buried>
-3.7941

> <Gold.PLP.part.nonpolar>
-30.9963

> <Gold.PLP.part.repulsive>
0.0439

> <Gold.PLP.ligand.clash>
0.0000

> <Gold.PLP.ligand.torsion>
0.9774

> <Gold.PLP.Chemscore.Hbond>
2.0000

> <Gold.PLP.Chemscore.CHOScore>
1.0000

> <Gold.PLP.Chemscore.Metal>
0.0000

> <Gold.Chemscore.Hbonds>
donor molecule, donor type, donor heavy atom, donor atom, acceptor molecule, acceptor atom, score
      L1  H     4    25       P1  7948  2.00
      L1  C    17    39       P1 10737  0.78

> <Gold.PLP.Chemscore.Internal.Correction>
0.1533

> <Gold.Rescore>
     Score         DG    S(hbond)    S(metal)    S(lipo)     H(rot)  DE(clash)    DE(int)     intcor
     15.99     -16.94       0.89        0.00     102.36       1.36       0.02       0.94       ----

> <Gold.Chemscore.Fitness>
15.9852

> <Gold.Chemscore.DG>
-16.9446

> <Gold.Chemscore.ZeroCoef>
-5.4800

> <Gold.Chemscore.Hbond>
0.8924

> <Gold.Chemscore.Metal>
0.0000

> <Gold.Chemscore.Lipo>
102.3580

> <Gold.Chemscore.Internal_Hbond>
0.0000

> <Gold.Chemscore.DEClash>
0.0234

> <Gold.Chemscore.DEInternal>
0.9360

> <Gold.Chemscore.Rot>
1.3640

> <Gold.Chemscore.Internal.Correction>
   9.000000E+99

> <Gold.Chemscore.Hbonds>
donor molecule, donor type, donor heavy atom, donor atom, acceptor molecule, acceptor atom, score
      L1  H     4    25       P1  7948  0.30

> <Gold.Chemscore.Hbond.Weighted>
-2.9806

> <Gold.Chemscore.Metal.Weighted>
-0.0000

> <Gold.Chemscore.Lipo.Weighted>
-11.9759

> <Gold.Chemscore.Internal_Hbond.Weighted>
0.0000

> <Gold.Chemscore.DEClash.Weighted>
0.0234

> <Gold.Chemscore.DEInternal.Weighted>
0.9360

> <Gold.Chemscore.Rot.Weighted>
3.4919

> <Gold.Chemscore.Internal.Correction.Weighted>
   9.000000E+99

> <Gold.Protein.RotatedTorsions>
[ 6907 6896 6895 6894 ] final  -95.82 input  -60.11 | X-H torsion
[ 7974 7965 7964 7962 ] final -166.60 input  175.53 | X-H torsion
[ 8008 7997 7996 7995 ] final -151.94 input   59.86 | X-H torsion
[ 10167 10162 10161 10158 ] final  -50.88 input  -65.29 | X-H torsion
[ 10718 10713 10712 10709 ] final   -3.28 input   66.30 | X-H torsion
[ 10763 10752 10751 10750 ] final -162.15 input  -60.55 | X-H torsion
[ 11005 11000 10999 10996 ] final   69.66 input  -57.11 | X-H torsion

> <Gold.Protein.ActiveResidues>
 VAL166  LYS551  ARG553  GLY616  TRP617  ASP618  TYR619  PRO620  LYS621  CYS622 
 ASP623  PHE694  ASN695  SER759  ASP760  ASP761  ALA762  ILE779  LEU786  VAL792 
 PHE793  MET794  SER795  GLU796  ALA797  LYS798  CYS799  TRP800  GLU811  SER814 

> <Gold.Protein.RotatedAtoms>
  150.6973  134.1598  159.4171 H   0  0  0  0  0  0  0  0  0  0  0  0  # atno 6907 bound_to 6896
  151.9579  135.0135  160.0555 H   0  0  0  0  0  0  0  0  0  0  0  0  # atno 6908 bound_to 6896
  152.1953  133.4767  159.5066 H   0  0  0  0  0  0  0  0  0  0  0  0  # atno 6909 bound_to 6896
  144.7242  140.2643  143.6260 H   0  0  0  0  0  0  0  0  0  0  0  0  # atno 7974 bound_to 7965
  155.6473  140.0708  157.2599 H   0  0  0  0  0  0  0  0  0  0  0  0  # atno 8008 bound_to 7997
  154.4170  140.1740  156.1686 H   0  0  0  0  0  0  0  0  0  0  0  0  # atno 8009 bound_to 7997
  155.9806  140.3354  155.6663 H   0  0  0  0  0  0  0  0  0  0  0  0  # atno 8010 bound_to 7997
  140.6616  143.2640  151.4424 H   0  0  0  0  0  0  0  0  0  0  0  0  # atno 10167 bound_to 10162
  156.7783  130.5322  149.5755 H   0  0  0  0  0  0  0  0  0  0  0  0  # atno 10718 bound_to 10713
  154.7240  135.3032  154.9001 H   0  0  0  0  0  0  0  0  0  0  0  0  # atno 10763 bound_to 10752
  153.9865  135.6724  153.4756 H   0  0  0  0  0  0  0  0  0  0  0  0  # atno 10764 bound_to 10752
  153.0858  135.4985  154.8513 H   0  0  0  0  0  0  0  0  0  0  0  0  # atno 10765 bound_to 10752
  139.9641  134.7011  156.0583 H   0  0  0  0  0  0  0  0  0  0  0  0  # atno 11005 bound_to 11000
  145.8105  139.2001  143.1995 LP  0  0  0  0  0  0  0  0  0  0  0  0  # atno 17320 bound_to 7965
  146.0599  140.7981  142.9740 LP  0  0  0  0  0  0  0  0  0  0  0  0  # atno 17321 bound_to 7965
  139.5851  144.1622  152.2018 LP  0  0  0  0  0  0  0  0  0  0  0  0  # atno 17342 bound_to 10162
  140.0960  144.5580  150.7022 LP  0  0  0  0  0  0  0  0  0  0  0  0  # atno 17343 bound_to 10162
  156.1234  130.6126  151.0227 LP  0  0  0  0  0  0  0  0  0  0  0  0  # atno 17370 bound_to 10713
  157.6658  131.0872  150.7731 LP  0  0  0  0  0  0  0  0  0  0  0  0  # atno 17371 bound_to 10713
  141.1320  133.6584  156.3490 LP  0  0  0  0  0  0  0  0  0  0  0  0  # atno 17394 bound_to 11000
  140.5435  134.6097  157.5387 LP  0  0  0  0  0  0  0  0  0  0  0  0  # atno 17395 bound_to 11000

$$$$
