#       Name:                AV-unprocessed.smi:2538
#       Creating user name   scv26
#       Creation time:       Fri Mar 27 14:02:45 2020


#       File generated by GOLD software.
#

@<TRIPOS>MOLECULE
AV-unprocessed.smi:2538
    51    52     1
SMALL
NO_CHARGES


@<TRIPOS>ATOM
      1 ****        -1.8756   1.7634  -5.1741 C.3            1 S1                 0.0000
      2 ****        -1.7899   1.7353  -3.6582 C.ar           1 S1                 0.0000
      3 ****        -2.9811   1.6314  -2.9049 C.ar           1 S1                 0.0000
      4 ****        -2.9455   1.6027  -1.4936 C.ar           1 S1                 0.0000
      5 ****        -3.9722   1.5073  -0.5697 N.2            1 S1                 0.0000
      6 ****        -3.3021   1.5299   0.5788 C.2            1 S1                 0.0000
      7 ****        -1.9607   1.6275   0.5075 N.pl3          1 S1                 0.0000
      8 ****        -1.0215   1.6670   1.6138 C.3            1 S1                 0.0000
      9 ****        -0.2550   0.3403   1.7774 C.3            1 S1                 0.0000
     10 ****        -1.1943  -0.6813   2.0502 O.3            1 S1                 0.0000
     11 ****         0.7630   0.4019   2.9366 C.3            1 S1                 0.0000
     12 ****         1.9880  -0.3791   2.6781 N.pl3          1 S1                 0.0000
     13 ****         2.8877   0.1563   1.6477 C.3            1 S1                 0.0000
     14 ****         2.0315  -2.0828   3.0165 S.o2           1 S1                 0.0000
     15 ****         3.4491  -2.4550   3.1461 O.2            1 S1                 0.0000
     16 ****         1.1073  -2.3366   4.1330 O.2            1 S1                 0.0000
     17 ****         1.3543  -2.8597   1.4685 C.3            1 S1                 0.0000
     18 ****         0.2596  -3.8806   1.8102 C.3            1 S1                 0.0000
     19 ****         2.4803  -3.4982   0.6426 C.3            1 S1                 0.0000
     20 ****        -1.6753   1.6819  -0.8518 C.ar           1 S1                 0.0000
     21 ****        -0.4830   1.7858  -1.5898 C.ar           1 S1                 0.0000
     22 ****        -0.5365   1.8113  -2.9992 C.ar           1 S1                 0.0000
     23 ****         0.7565   1.9209  -3.7875 C.3            1 S1                 0.0000
     24 ****        -2.9115   1.7611  -5.5144 H              1 S1                 0.0000
     25 ****        -1.3803   0.8905  -5.6001 H              1 S1                 0.0000
     26 ****        -1.3978   2.6603  -5.5690 H              1 S1                 0.0000
     27 ****        -3.9358   1.5721  -3.4063 H              1 S1                 0.0000
     28 ****        -3.8155   1.4686   1.5272 H              1 S1                 0.0000
     29 ****        -0.3237   2.4850   1.4303 H              1 S1                 0.0000
     30 ****        -1.5621   1.9155   2.5284 H              1 S1                 0.0000
     31 ****         0.2417   0.1172   0.8341 H              1 S1                 0.0000
     32 ****        -1.6186  -0.4885   2.8721 H              1 S1                 0.0000
     33 ****         1.0683   1.4369   3.0946 H              1 S1                 0.0000
     34 ****         0.3119   0.0971   3.8815 H              1 S1                 0.0000
     35 ****         2.5582  -0.1488   0.6547 H              1 S1                 0.0000
     36 ****         3.9007  -0.2155   1.8007 H              1 S1                 0.0000
     37 ****         2.9201   1.2453   1.6862 H              1 S1                 0.0000
     38 ****         0.9020  -2.0704   0.8725 H              1 S1                 0.0000
     39 ****        -0.1510  -4.3308   0.9063 H              1 S1                 0.0000
     40 ****        -0.5668  -3.4129   2.3452 H              1 S1                 0.0000
     41 ****         0.6506  -4.6838   2.4352 H              1 S1                 0.0000
     42 ****         2.0960  -3.9111  -0.2903 H              1 S1                 0.0000
     43 ****         2.9650  -4.3076   1.1897 H              1 S1                 0.0000
     44 ****         3.2432  -2.7627   0.3858 H              1 S1                 0.0000
     45 ****         0.4646   1.8437  -1.0746 H              1 S1                 0.0000
     46 ****         1.6259   1.9092  -3.1296 H              1 S1                 0.0000
     47 ****         0.7781   2.8509  -4.3559 H              1 S1                 0.0000
     48 ****         0.8535   1.0871  -4.4830 H              1 S1                 0.0000
     49 ****        -4.9578   1.4394  -0.7250 LP             1 S1                 0.0000
     50 ****        -0.7256  -1.5624   2.1115 LP             1 S1                 0.0000
     51 ****        -1.8758  -0.7164   1.3192 LP             1 S1                 0.0000
@<TRIPOS>BOND
    1    1    2 1     
    2    1   24 1     
    3    1   25 1     
    4    1   26 1     
    5    2   22 ar    
    6    2    3 ar    
    7    3    4 ar    
    8    3   27 1     
    9    4   20 ar    
   10    4    5 1     
   11    5    6 2     
   12    6    7 1     
   13    6   28 1     
   14    7    8 1     
   15    7   20 1     
   16    8    9 1     
   17    8   29 1     
   18    8   30 1     
   19    9   10 1     
   20    9   11 1     
   21    9   31 1     
   22   10   32 1     
   23   11   12 1     
   24   11   33 1     
   25   11   34 1     
   26   12   13 1     
   27   12   14 1     
   28   13   35 1     
   29   13   36 1     
   30   13   37 1     
   31   14   15 2     
   32   14   16 2     
   33   14   17 1     
   34   17   18 1     
   35   17   19 1     
   36   17   38 1     
   37   18   39 1     
   38   18   40 1     
   39   18   41 1     
   40   19   42 1     
   41   19   43 1     
   42   19   44 1     
   43   20   21 ar    
   44   21   22 ar    
   45   21   45 1     
   46   22   23 1     
   47   23   46 1     
   48   23   47 1     
   49   23   48 1     
   50    5   49 1     
   51   10   50 1     
   52   10   51 1     
@<TRIPOS>SUBSTRUCTURE
      1 S1             1
@<TRIPOS>SET
LONE_PAIRS      STATIC     ATOMS    <user>   **** ""
5 49 50 51 15 16
DONOR_HYDROGENS      STATIC     ATOMS    <user>   **** ""
1 32
ATOM$BLUE        STATIC     ATOMS    COLORGROUP SYSTEM
5 49 50 51 15 16
ATOM$RED        STATIC     ATOMS    COLORGROUP SYSTEM
1 32
