AV-unprocessed.smi:2415|AV-procd|sdf|9543|dock4
  -GOLD-   2272013173D 1   1.00000     0.00000
 Structure written by MMmdl.
 33 34  0  0  0  0  0  0  0  0  1 V2000
  153.3476  141.3135  161.6030 C   0  0  0  0  0  0  0  0  0  0  0  0
  152.7600  142.0844  160.4405 C   0  0  0  0  0  0  0  0  0  0  0  0
  152.6723  143.4917  160.4571 C   0  0  0  0  0  0  0  0  0  0  0  0
  152.1031  144.0898  159.3142 C   0  0  0  0  0  0  0  0  0  0  0  0
  151.9468  145.5908  159.2004 C   0  0  0  0  0  0  0  0  0  0  0  0
  151.6683  143.3545  158.2680 N   0  0  0  0  0  0  0  0  0  0  0  0
  151.8111  142.0244  158.3501 C   0  0  0  0  0  0  0  0  0  0  0  0
  151.3598  141.2488  157.2832 N   0  0  0  0  0  0  0  0  0  0  0  0
  150.6635  142.0062  156.2435 C   0  0  0  0  0  0  0  0  0  0  0  0
  149.8892  141.0763  155.3004 C   0  0  0  0  0  0  0  0  0  0  0  0
  150.7898  140.1301  154.7450 O   0  0  0  0  0  0  0  0  0  0  0  0
  151.3484  139.2995  155.7537 C   0  0  0  0  0  0  0  0  0  0  0  0
  152.1721  140.1349  156.7632 C   0  0  2  0  0  0  0  0  0  0  0  0
  152.7130  139.1694  157.8353 C   0  0  0  0  0  0  0  0  0  0  0  0
  151.8125  138.5345  158.5899 N   0  0  0  0  0  0  0  0  0  0  0  0
  153.9229  139.0097  157.9890 O   0  0  0  0  0  0  0  0  0  0  0  0
  152.3262  141.3561  159.3886 N   0  0  0  0  0  0  0  0  0  0  0  0
  153.5619  141.9734  162.4441 H   0  0  0  0  0  0  0  0  0  0  0  0
  154.2771  140.8288  161.3034 H   0  0  0  0  0  0  0  0  0  0  0  0
  152.6516  140.5456  161.9416 H   0  0  0  0  0  0  0  0  0  0  0  0
  153.0200  144.0771  161.2956 H   0  0  0  0  0  0  0  0  0  0  0  0
  152.5070  146.1039  159.9824 H   0  0  0  0  0  0  0  0  0  0  0  0
  150.8965  145.8682  159.2925 H   0  0  0  0  0  0  0  0  0  0  0  0
  152.3127  145.9407  158.2345 H   0  0  0  0  0  0  0  0  0  0  0  0
  149.9690  142.7240  156.6817 H   0  0  0  0  0  0  0  0  0  0  0  0
  151.3962  142.5838  155.6779 H   0  0  0  0  0  0  0  0  0  0  0  0
  149.0776  140.5697  155.8254 H   0  0  0  0  0  0  0  0  0  0  0  0
  149.4370  141.6520  154.4928 H   0  0  0  0  0  0  0  0  0  0  0  0
  150.5491  138.7479  156.2534 H   0  0  0  0  0  0  0  0  0  0  0  0
  151.9835  138.5576  155.2679 H   0  0  0  0  0  0  0  0  0  0  0  0
  153.0193  140.5737  156.2324 H   0  0  0  0  0  0  0  0  0  0  0  0
  152.1184  137.8974  159.3108 H   0  0  0  0  0  0  0  0  0  0  0  0
  150.8279  138.7008  158.4404 H   0  0  0  0  0  0  0  0  0  0  0  0
  1  2  1  0  0  0  0
  1 18  1  0  0  0  0
  1 19  1  0  0  0  0
  1 20  1  0  0  0  0
  2 17  1  0  0  0  0
  2  3  2  0  0  0  0
  3  4  1  0  0  0  0
  3 21  1  0  0  0  0
  4  5  1  0  0  0  0
  4  6  2  0  0  0  0
  5 22  1  0  0  0  0
  5 23  1  0  0  0  0
  5 24  1  0  0  0  0
  6  7  1  0  0  0  0
  7  8  1  0  0  0  0
  7 17  2  0  0  0  0
  8 13  1  0  0  0  0
  8  9  1  0  0  0  0
  9 10  1  0  0  0  0
  9 25  1  0  0  0  0
  9 26  1  0  0  0  0
 10 11  1  0  0  0  0
 10 27  1  0  0  0  0
 10 28  1  0  0  0  0
 11 12  1  0  0  0  0
 12 13  1  0  0  0  0
 12 29  1  0  0  0  0
 12 30  1  0  0  0  0
 13 14  1  0  0  0  0
 13 31  1  0  0  0  0
 14 15  1  0  0  0  0
 14 16  2  0  0  0  0
 15 32  1  0  0  0  0
 15 33  1  0  0  0  0
M  END
> <s_m_source_file>
AV-unprocessed.smi

> <i_m_source_file_index>
2415

> <i_lp_mmshare_version>
43012

> <i_f3d_flags>
0

> <s_epik_input>
W0NIM11jMVtjSF1jKFtDSDNdKW5jKG4xKU4yW0NIMl1bQ0gyXU9bQ0gyXVtDQEhdMkMoPU8pW05IMl0=

> <s_epik_cmdline>
J2VwaWtfcHl0aG9uJywgJy1waCcsICc3LjAnLCAnLXRuJywgJzgnLCAnLW1hJywgJzIwMCcsICctbWV0YWxfYmluZGluZycsICctaW1hZScsICc8aW5maWxlLm1hZT4nLCAnLW9tYWUnLCAnPG91dGZpbGUubWFlPic=

> <r_lp_tautomer_probability>
1

> <r_epik_Ionization_Penalty>
2.01639e-05

> <r_epik_Ionization_Penalty_Charging>
0

> <r_epik_Ionization_Penalty_Neutral>
2.01639e-05

> <r_epik_State_Penalty>
-0

> <r_epik_Charging_Adjusted_Penalty>
0

> <i_epik_Tot_Q>
0

> <i_epik_Tot_abs_Q>
0

> <r_epik_Metal_State_Penalty>
-0

> <b_epik_Metal_Only>
0

> <s_lp_Force_Field>
OPLS_2005

> <r_lp_Energy>
9.24332

> <b_lp_Chiralities_Consistent>
1

> <s_lp_Variant>
AV-unprocessed.smi:2415-2

> <Gold.Version>
5.8.1

> <Gold.Id.Protein>
6NUR|6NUR_protein|mol2

> <Gold.PLP.Fitness>
39.0529

> <Gold.PLP.PLP>
-34.5408

> <Gold.PLP.part.hbond>
-1.8316

> <Gold.PLP.part.metal>
0.0000

> <Gold.PLP.part.buried>
-2.3205

> <Gold.PLP.part.nonpolar>
-28.8399

> <Gold.PLP.part.repulsive>
0.2377

> <Gold.PLP.ligand.clash>
1.4441

> <Gold.PLP.ligand.torsion>
0.2413

> <Gold.PLP.Chemscore.Hbond>
2.0000

> <Gold.PLP.Chemscore.CHOScore>
0.0000

> <Gold.PLP.Chemscore.Metal>
0.0000

> <Gold.Chemscore.Hbonds>
donor molecule, donor type, donor heavy atom, donor atom, acceptor molecule, acceptor atom, score
      P1  H  7989  7998       L1    11  1.00
      P1  H  7997  8008       L1    16  1.00

> <Gold.PLP.Chemscore.Internal.Correction>
0.4388

> <Gold.Rescore>
     Score         DG    S(hbond)    S(metal)    S(lipo)     H(rot)  DE(clash)    DE(int)     intcor
     16.19     -17.94       1.87        0.00      84.75       1.44       0.00       1.75       ----

> <Gold.Chemscore.Fitness>
16.1865

> <Gold.Chemscore.DG>
-17.9426

> <Gold.Chemscore.ZeroCoef>
-5.4800

> <Gold.Chemscore.Hbond>
1.8678

> <Gold.Chemscore.Metal>
0.0000

> <Gold.Chemscore.Lipo>
84.7462

> <Gold.Chemscore.Internal_Hbond>
0.0000

> <Gold.Chemscore.DEClash>
0.0019

> <Gold.Chemscore.DEInternal>
1.7543

> <Gold.Chemscore.Rot>
1.4419

> <Gold.Chemscore.Internal.Correction>
   9.000000E+99

> <Gold.Chemscore.Hbonds>
donor molecule, donor type, donor heavy atom, donor atom, acceptor molecule, acceptor atom, score
      P1  H  7989  7998       L1    11  0.65
      P1  H  7997  8008       L1    16  0.91

> <Gold.Chemscore.Hbond.Weighted>
-6.2385

> <Gold.Chemscore.Metal.Weighted>
-0.0000

> <Gold.Chemscore.Lipo.Weighted>
-9.9153

> <Gold.Chemscore.Internal_Hbond.Weighted>
0.0000

> <Gold.Chemscore.DEClash.Weighted>
0.0019

> <Gold.Chemscore.DEInternal.Weighted>
1.7543

> <Gold.Chemscore.Rot.Weighted>
3.6912

> <Gold.Chemscore.Internal.Correction.Weighted>
   9.000000E+99

> <Gold.Protein.RotatedTorsions>
[ 6907 6896 6895 6894 ] final   74.33 input  -60.11 | X-H torsion
[ 7974 7965 7964 7962 ] final  149.09 input  175.53 | X-H torsion
[ 8008 7997 7996 7995 ] final -108.84 input   59.86 | X-H torsion
[ 10167 10162 10161 10158 ] final -119.77 input  -65.29 | X-H torsion
[ 10718 10713 10712 10709 ] final -149.49 input   66.30 | X-H torsion
[ 10763 10752 10751 10750 ] final   78.50 input  -60.55 | X-H torsion
[ 11005 11000 10999 10996 ] final   14.50 input  -57.11 | X-H torsion

> <Gold.Protein.ActiveResidues>
 VAL166  LYS551  ARG553  GLY616  TRP617  ASP618  TYR619  PRO620  LYS621  CYS622 
 ASP623  PHE694  ASN695  SER759  ASP760  ASP761  ALA762  ILE779  LEU786  VAL792 
 PHE793  MET794  SER795  GLU796  ALA797  LYS798  CYS799  TRP800  GLU811  SER814 

> <Gold.Protein.RotatedAtoms>
  152.4970  134.4288  159.9504 H   0  0  0  0  0  0  0  0  0  0  0  0  # atno 6907 bound_to 6896
  151.4265  133.3677  159.2771 H   0  0  0  0  0  0  0  0  0  0  0  0  # atno 6908 bound_to 6896
  150.9185  134.8626  159.7533 H   0  0  0  0  0  0  0  0  0  0  0  0  # atno 6909 bound_to 6896
  144.8464  139.6236  143.5993 H   0  0  0  0  0  0  0  0  0  0  0  0  # atno 7974 bound_to 7965
  154.9503  140.0401  157.2140 H   0  0  0  0  0  0  0  0  0  0  0  0  # atno 8008 bound_to 7997
  154.7985  140.2848  155.5917 H   0  0  0  0  0  0  0  0  0  0  0  0  # atno 8009 bound_to 7997
  156.2958  140.2559  156.2848 H   0  0  0  0  0  0  0  0  0  0  0  0  # atno 8010 bound_to 7997
  140.0431  143.5134  152.2120 H   0  0  0  0  0  0  0  0  0  0  0  0  # atno 10167 bound_to 10162
  156.4338  130.8089  151.2316 H   0  0  0  0  0  0  0  0  0  0  0  0  # atno 10718 bound_to 10713
  153.0879  135.4875  154.8633 H   0  0  0  0  0  0  0  0  0  0  0  0  # atno 10763 bound_to 10752
  154.7233  135.3044  154.9014 H   0  0  0  0  0  0  0  0  0  0  0  0  # atno 10764 bound_to 10752
  153.9671  135.6805  153.4799 H   0  0  0  0  0  0  0  0  0  0  0  0  # atno 10765 bound_to 10752
  140.4688  134.1052  155.7729 H   0  0  0  0  0  0  0  0  0  0  0  0  # atno 11005 bound_to 11000
  146.2748  139.6724  142.9271 LP  0  0  0  0  0  0  0  0  0  0  0  0  # atno 17320 bound_to 7965
  145.4588  141.0432  143.2763 LP  0  0  0  0  0  0  0  0  0  0  0  0  # atno 17321 bound_to 7965
  139.6001  144.7580  151.3192 LP  0  0  0  0  0  0  0  0  0  0  0  0  # atno 17342 bound_to 10162
  140.7251  143.7026  150.7832 LP  0  0  0  0  0  0  0  0  0  0  0  0  # atno 17343 bound_to 10162
  157.7508  131.0190  150.3648 LP  0  0  0  0  0  0  0  0  0  0  0  0  # atno 17370 bound_to 10713
  156.3991  130.3912  149.6973 LP  0  0  0  0  0  0  0  0  0  0  0  0  # atno 17371 bound_to 10713
  141.1586  133.8835  157.1909 LP  0  0  0  0  0  0  0  0  0  0  0  0  # atno 17394 bound_to 11000
  139.9898  135.0069  156.9948 LP  0  0  0  0  0  0  0  0  0  0  0  0  # atno 17395 bound_to 11000

$$$$
