#       Name:                AV-unprocessed.smi:1897
#       Creating user name   scv26
#       Creation time:       Fri Mar 27 09:43:30 2020


#       File generated by GOLD software.
#

@<TRIPOS>MOLECULE
AV-unprocessed.smi:1897
    43    45     1
SMALL
NO_CHARGES


@<TRIPOS>ATOM
      1 ****        -4.3643   3.5454  -1.4783 C.3            1 S1                 0.0000
      2 ****        -2.8944   3.4057  -1.2755 C.2            1 S1                 0.0000
      3 ****        -2.3210   3.4643  -0.0710 N.2            1 S1                 0.0000
      4 ****        -0.9444   3.3093  -0.1395 N.2            1 S1                 0.0000
      5 ****        -0.4982   3.1208  -1.3902 C.2            1 S1                 0.0000
      6 ****         0.8050   2.9380  -1.6741 N.pl3          1 S1                -1.0000
      7 ****         1.3920   1.7132  -1.6588 C.2            1 S1                 0.0000
      8 ****         2.5896   1.5343  -1.8757 O.2            1 S1                 0.0000
      9 ****         0.6135   0.6509  -1.3751 N.am           1 S1                 0.0000
     10 ****         1.0476  -0.7375  -1.2393 C.3            1 S1                 0.0000
     11 ****        -0.0581  -1.7370  -1.6334 C.3            1 S1                 0.0000
     12 ****        -0.0474  -2.7964  -0.5270 C.3            1 S1                 0.0000
     13 ****         0.3786  -2.0397   0.6560 N.4            1 S1                 1.0000
     14 ****         0.7522  -2.7937   1.8704 C.3            1 S1                 0.0000
     15 ****         1.0019  -1.7903   3.0162 C.3            1 S1                 0.0000
     16 ****         2.0138  -0.6931   2.6182 C.3            1 S1                 0.0000
     17 ****         1.6314  -0.0252   1.2806 C.3            1 S1                 0.0000
     18 ****         1.4345  -1.1150   0.2097 C.3            1 S1                 0.0000
     19 ****        -1.7769   3.1412  -2.6033 S.3            1 S1                 0.0000
     20 ****        -4.8410   2.5665  -1.4282 H              1 S1                 0.0000
     21 ****        -4.5695   3.9861  -2.4540 H              1 S1                 0.0000
     22 ****        -4.7956   4.1871  -0.7093 H              1 S1                 0.0000
     23 ****        -0.3646   0.8360  -1.2077 H              1 S1                 0.0000
     24 ****         1.9090  -0.9116  -1.8870 H              1 S1                 0.0000
     25 ****        -1.0307  -1.2420  -1.6479 H              1 S1                 0.0000
     26 ****         0.1021  -2.1700  -2.6214 H              1 S1                 0.0000
     27 ****        -1.0209  -3.2657  -0.3831 H              1 S1                 0.0000
     28 ****         0.6844  -3.5746  -0.7495 H              1 S1                 0.0000
     29 ****        -0.0518  -3.4792   2.1397 H              1 S1                 0.0000
     30 ****         1.6419  -3.3955   1.6797 H              1 S1                 0.0000
     31 ****         0.0571  -1.3189   3.2907 H              1 S1                 0.0000
     32 ****         1.3512  -2.3163   3.9053 H              1 S1                 0.0000
     33 ****         2.0824   0.0580   3.4056 H              1 S1                 0.0000
     34 ****         3.0066  -1.1359   2.5285 H              1 S1                 0.0000
     35 ****         0.7180   0.5588   1.4044 H              1 S1                 0.0000
     36 ****         2.4147   0.6707   0.9786 H              1 S1                 0.0000
     37 ****         2.3621  -1.6875   0.1400 H              1 S1                 0.0000
     38 ****        -0.4094  -1.4595   0.9061 H              1 S1                 0.0000
     39 ****        -2.8254   3.6037   0.7812 LP             1 S1                 0.0000
     40 ****        -0.3461   3.3354   0.6613 LP             1 S1                 0.0000
     41 ****         1.3627   3.7351  -1.9053 LP             1 S1                 0.0000
     42 ****         3.1833   2.3136  -2.0761 LP             1 S1                 0.0000
     43 ****         2.9694   0.6095  -1.8517 LP             1 S1                 0.0000
@<TRIPOS>BOND
    1    1    2 1     
    2    1   20 1     
    3    1   21 1     
    4    1   22 1     
    5    2   19 1     
    6    2    3 2     
    7    3    4 1     
    8    4    5 2     
    9    5    6 1     
   10    5   19 1     
   11    6    7 1     
   12    7    8 2     
   13    7    9 am    
   14    9   10 1     
   15    9   23 1     
   16   10   18 1     
   17   10   11 1     
   18   10   24 1     
   19   11   12 1     
   20   11   25 1     
   21   11   26 1     
   22   12   13 1     
   23   12   27 1     
   24   12   28 1     
   25   13   18 1     
   26   13   14 1     
   27   13   38 1     
   28   14   15 1     
   29   14   29 1     
   30   14   30 1     
   31   15   16 1     
   32   15   31 1     
   33   15   32 1     
   34   16   17 1     
   35   16   33 1     
   36   16   34 1     
   37   17   18 1     
   38   17   35 1     
   39   17   36 1     
   40   18   37 1     
   41    3   39 1     
   42    4   40 1     
   43    6   41 1     
   44    8   42 1     
   45    8   43 1     
@<TRIPOS>SUBSTRUCTURE
      1 S1             1
@<TRIPOS>SET
LONE_PAIRS      STATIC     ATOMS    <user>   **** ""
5 39 40 41 42 43
DONOR_HYDROGENS      STATIC     ATOMS    <user>   **** ""
2 23 38
ATOM$BLUE        STATIC     ATOMS    COLORGROUP SYSTEM
5 39 40 41 42 43
ATOM$RED        STATIC     ATOMS    COLORGROUP SYSTEM
2 23 38
