#       Name:                AV-unprocessed.smi:910
#       Creating user name   scv26
#       Creation time:       Fri Mar 27 02:03:35 2020


#       File generated by GOLD software.
#

@<TRIPOS>MOLECULE
AV-unprocessed.smi:910
    53    54     1
SMALL
NO_CHARGES


@<TRIPOS>ATOM
      1 ****        -6.1796   1.1030   2.0212 C.3            1 S1                 0.0000
      2 ****        -4.7042   0.8528   2.0088 C.2            1 S1                 0.0000
      3 ****        -4.0355  -0.3485   2.0418 N.pl3          1 S1                 1.0000
      4 ****        -2.7232  -0.1281   2.0186 C.2            1 S1                 0.0000
      5 ****        -1.7463  -1.1499   2.0395 N.am           1 S1                 0.0000
      6 ****        -0.4181  -0.9614   2.0400 C.2            1 S1                 0.0000
      7 ****         0.1309   0.1407   2.0541 O.2            1 S1                 0.0000
      8 ****         0.2467  -2.1264   2.0223 N.am           1 S1                 0.0000
      9 ****         1.6991  -2.2637   1.9801 C.3            1 S1                 0.0000
     10 ****         2.2271  -2.2231   0.5390 C.3            1 S1                 0.0000
     11 ****         2.1213  -0.8979   0.0415 O.3            1 S1                 0.0000
     12 ****         2.4809  -0.7489  -1.3250 C.3            1 S1                 0.0000
     13 ****         1.2514  -1.0566  -2.2055 C.3            1 S1                 0.0000
     14 ****         1.5334  -0.7751  -3.6885 C.3            1 S1                 0.0000
     15 ****         2.0048   0.6713  -3.8944 C.3            1 S1                 0.0000
     16 ****         3.2339   0.9795  -3.0258 C.3            1 S1                 0.0000
     17 ****         2.9636   0.7043  -1.5326 C.3            1 S1                 0.0000
     18 ****         4.2105   1.0159  -0.6888 C.3            1 S1                 0.0000
     19 ****        -2.4633   1.2060   1.9675 O.3            1 S1                 0.0000
     20 ****        -3.7073   1.8032   1.9592 C.2            1 S1                 0.0000
     21 ****        -3.7441   3.2932   1.9045 C.3            1 S1                 0.0000
     22 ****        -6.4479   1.8434   2.7751 H              1 S1                 0.0000
     23 ****        -6.7354   0.1917   2.2423 H              1 S1                 0.0000
     24 ****        -6.5234   1.4742   1.0556 H              1 S1                 0.0000
     25 ****        -4.5086  -1.2426   2.0786 H              1 S1                 0.0000
     26 ****        -0.2867  -2.9836   2.0166 H              1 S1                 0.0000
     27 ****         2.1852  -1.5022   2.5925 H              1 S1                 0.0000
     28 ****         1.9497  -3.2254   2.4282 H              1 S1                 0.0000
     29 ****         3.2746  -2.5265   0.5234 H              1 S1                 0.0000
     30 ****         1.6758  -2.9290  -0.0829 H              1 S1                 0.0000
     31 ****         3.2983  -1.4266  -1.5801 H              1 S1                 0.0000
     32 ****         0.9456  -2.0959  -2.0889 H              1 S1                 0.0000
     33 ****         0.4072  -0.4493  -1.8762 H              1 S1                 0.0000
     34 ****         2.2953  -1.4650  -4.0534 H              1 S1                 0.0000
     35 ****         0.6369  -0.9622  -4.2802 H              1 S1                 0.0000
     36 ****         2.2408   0.8393  -4.9456 H              1 S1                 0.0000
     37 ****         1.1966   1.3598  -3.6445 H              1 S1                 0.0000
     38 ****         4.0764   0.3750  -3.3649 H              1 S1                 0.0000
     39 ****         3.5263   2.0206  -3.1661 H              1 S1                 0.0000
     40 ****         2.1675   1.3761  -1.2074 H              1 S1                 0.0000
     41 ****         5.0438   0.3657  -0.9571 H              1 S1                 0.0000
     42 ****         4.0139   0.8815   0.3752 H              1 S1                 0.0000
     43 ****         4.5336   2.0472  -0.8321 H              1 S1                 0.0000
     44 ****        -4.6476   3.6428   1.4043 H              1 S1                 0.0000
     45 ****        -2.8856   3.6848   1.3587 H              1 S1                 0.0000
     46 ****        -3.7287   3.7160   2.9090 H              1 S1                 0.0000
     47 ****        -2.0853  -2.1004   2.0423 H              1 S1                 0.0000
     48 ****        -0.4214   0.9743   2.0663 LP             1 S1                 0.0000
     49 ****         1.1290   0.2022   2.0534 LP             1 S1                 0.0000
     50 ****         2.7195  -0.3111   0.5873 LP             1 S1                 0.0000
     51 ****         1.1730  -0.5991   0.1489 LP             1 S1                 0.0000
     52 ****        -1.9562   1.4353   1.1367 LP             1 S1                 0.0000
     53 ****        -1.9387   1.4944   2.7685 LP             1 S1                 0.0000
@<TRIPOS>BOND
    1    1   22 1     
    2    1   23 1     
    3    1   24 1     
    4    1    2 1     
    5    2    3 1     
    6    2   20 2     
    7    3   25 1     
    8    3    4 2     
    9    4   19 1     
   10    4    5 1     
   11    5    6 am    
   12    5   47 1     
   13    6    8 am    
   14    6    7 2     
   15    8    9 1     
   16    8   26 1     
   17    9   10 1     
   18    9   27 1     
   19    9   28 1     
   20   10   11 1     
   21   10   29 1     
   22   10   30 1     
   23   11   12 1     
   24   12   17 1     
   25   12   13 1     
   26   12   31 1     
   27   13   14 1     
   28   13   32 1     
   29   13   33 1     
   30   14   15 1     
   31   14   34 1     
   32   14   35 1     
   33   15   16 1     
   34   15   36 1     
   35   15   37 1     
   36   16   17 1     
   37   16   38 1     
   38   16   39 1     
   39   17   18 1     
   40   17   40 1     
   41   18   41 1     
   42   18   42 1     
   43   18   43 1     
   44   19   20 1     
   45   20   21 1     
   46   21   44 1     
   47   21   45 1     
   48   21   46 1     
   49    7   48 1     
   50    7   49 1     
   51   11   50 1     
   52   11   51 1     
   53   19   52 1     
   54   19   53 1     
@<TRIPOS>SUBSTRUCTURE
      1 S1             1
@<TRIPOS>SET
LONE_PAIRS      STATIC     ATOMS    <user>   **** ""
6 48 49 50 51 52 53
DONOR_HYDROGENS      STATIC     ATOMS    <user>   **** ""
3 25 47 26
ATOM$BLUE        STATIC     ATOMS    COLORGROUP SYSTEM
6 48 49 50 51 52 53
ATOM$RED        STATIC     ATOMS    COLORGROUP SYSTEM
3 25 47 26
