AV-unprocessed.smi:2427|AV-procd|sdf|9578|dock8
  -GOLD-   2272013213D 1   1.00000     0.00000
 Structure written by MMmdl.
 35 36  0  0  0  0  0  0  0  0  3 V2000
  146.2069  132.7643  153.5157 O   0  0  0  0  0  0  0  0  0  0  0  0
  147.1088  132.3811  152.7692 C   0  0  0  0  0  0  0  0  0  0  0  0
  148.4786  133.0736  152.7788 C   0  0  0  0  0  0  0  0  0  0  0  0
  149.2507  132.7991  154.0023 N   0  0  0  0  0  0  0  0  0  0  0  0
  149.6973  133.9114  154.7428 C   0  0  0  0  0  0  0  0  0  0  0  0
  150.4173  133.7762  155.8738 C   0  0  0  0  0  0  0  0  0  0  0  0
  150.8741  134.9295  156.6178 N   0  3  0  0  0  0  0  0  0  0  0  0
  150.5080  136.0437  156.2587 O   0  0  0  0  0  0  0  0  0  0  0  0
  151.6130  134.7614  157.5834 O   0  5  0  0  0  0  0  0  0  0  0  0
  150.7246  132.4311  156.3204 C   0  0  0  0  0  0  0  0  0  0  0  0
  150.3044  131.3633  155.6140 C   0  0  0  0  0  0  0  0  0  0  0  0
  149.5267  131.5131  154.3798 C   0  0  0  0  0  0  0  0  0  0  0  0
  149.1469  130.5419  153.7250 O   0  0  0  0  0  0  0  0  0  0  0  0
  146.9755  131.3506  151.9206 N   0  0  0  0  0  0  0  0  0  0  0  0
  145.7598  130.5682  151.7230 C   0  0  0  0  0  0  0  0  0  0  0  0
  144.6462  131.4022  151.0658 C   0  0  2  0  0  0  0  0  0  0  0  0
  145.0673  132.1894  149.8241 C   0  0  0  0  0  0  0  0  0  0  0  0
  144.0236  133.2818  149.7921 C   0  0  0  0  0  0  0  0  0  0  0  0
  143.8440  133.5900  151.2765 C   0  0  0  0  0  0  0  0  0  0  0  0
  144.1695  132.3898  151.9749 O   0  0  0  0  0  0  0  0  0  0  0  0
  149.0284  132.7502  151.8940 H   0  0  0  0  0  0  0  0  0  0  0  0
  148.3469  134.1504  152.6548 H   0  0  0  0  0  0  0  0  0  0  0  0
  149.4235  134.8688  154.3234 H   0  0  0  0  0  0  0  0  0  0  0  0
  151.2945  132.2704  157.2239 H   0  0  0  0  0  0  0  0  0  0  0  0
  150.5453  130.3703  155.9646 H   0  0  0  0  0  0  0  0  0  0  0  0
  147.7716  131.1010  151.3519 H   0  0  0  0  0  0  0  0  0  0  0  0
  146.0107  129.7272  151.0764 H   0  0  0  0  0  0  0  0  0  0  0  0
  145.4122  130.1360  152.6627 H   0  0  0  0  0  0  0  0  0  0  0  0
  143.8012  130.7596  150.8124 H   0  0  0  0  0  0  0  0  0  0  0  0
  146.0578  132.6253  149.9613 H   0  0  0  0  0  0  0  0  0  0  0  0
  145.0812  131.5831  148.9179 H   0  0  0  0  0  0  0  0  0  0  0  0
  144.3280  134.1515  149.2094 H   0  0  0  0  0  0  0  0  0  0  0  0
  143.0933  132.8966  149.3724 H   0  0  0  0  0  0  0  0  0  0  0  0
  144.5372  134.3709  151.5916 H   0  0  0  0  0  0  0  0  0  0  0  0
  142.8321  133.9225  151.5089 H   0  0  0  0  0  0  0  0  0  0  0  0
  1  2  2  0  0  0  0
  2  3  1  0  0  0  0
  2 14  1  0  0  0  0
  3  4  1  0  0  0  0
  3 21  1  0  0  0  0
  3 22  1  0  0  0  0
  4 12  1  0  0  0  0
  4  5  1  0  0  0  0
  5  6  2  0  0  0  0
  5 23  1  0  0  0  0
  6  7  1  0  0  0  0
  6 10  1  0  0  0  0
  7  8  2  0  0  0  0
  7  9  1  0  0  0  0
 10 11  2  0  0  0  0
 10 24  1  0  0  0  0
 11 12  1  0  0  0  0
 11 25  1  0  0  0  0
 12 13  2  0  0  0  0
 14 15  1  0  0  0  0
 14 26  1  0  0  0  0
 15 16  1  0  0  0  0
 15 27  1  0  0  0  0
 15 28  1  0  0  0  0
 16 20  1  0  0  0  0
 16 17  1  0  0  0  0
 16 29  1  0  0  0  0
 17 18  1  0  0  0  0
 17 30  1  0  0  0  0
 17 31  1  0  0  0  0
 18 19  1  0  0  0  0
 18 32  1  0  0  0  0
 18 33  1  0  0  0  0
 19 20  1  0  0  0  0
 19 34  1  0  0  0  0
 19 35  1  0  0  0  0
M  CHG  1   7   1
M  CHG  1   9  -1
M  END
> <s_m_source_file>
AV-unprocessed.smi

> <i_m_source_file_index>
2427

> <i_lp_mmshare_version>
43012

> <i_f3d_flags>
0

> <s_epik_input>
TzFbQ0gyXVtDSDJdW0NIMl1bQ0BIXTFbQ0gyXVtOSF1DKD1PKVtDSDJdbjJbY0hdYyhbTitdKD1PKVtPLV0pW2NIXVtjSF1jMj1P

> <s_epik_cmdline>
J2VwaWtfcHl0aG9uJywgJy1waCcsICc3LjAnLCAnLXRuJywgJzgnLCAnLW1hJywgJzIwMCcsICctbWV0YWxfYmluZGluZycsICctaW1hZScsICc8aW5maWxlLm1hZT4nLCAnLW9tYWUnLCAnPG91dGZpbGUubWFlPic=

> <r_lp_tautomer_probability>
1

> <r_epik_Ionization_Penalty>
2.69366e-08

> <r_epik_Ionization_Penalty_Charging>
7.76344e-11

> <r_epik_Ionization_Penalty_Neutral>
2.6859e-08

> <r_epik_State_Penalty>
-0

> <r_epik_Charging_Adjusted_Penalty>
7.76344e-11

> <i_epik_Tot_Q>
0

> <i_epik_Tot_abs_Q>
2

> <r_epik_Metal_State_Penalty>
-0

> <b_epik_Metal_Only>
0

> <s_lp_Force_Field>
OPLS_2005

> <r_lp_Energy>
28.4558

> <b_lp_Chiralities_Consistent>
1

> <s_lp_Variant>
AV-unprocessed.smi:2427-1

> <Gold.Version>
5.8.1

> <Gold.Id.Protein>
6NUR|6NUR_protein|mol2

> <Gold.PLP.Fitness>
42.4031

> <Gold.PLP.PLP>
-36.7616

> <Gold.PLP.part.hbond>
-2.0000

> <Gold.PLP.part.metal>
0.0000

> <Gold.PLP.part.buried>
-4.2380

> <Gold.PLP.part.nonpolar>
-30.8560

> <Gold.PLP.part.repulsive>
0.4521

> <Gold.PLP.ligand.clash>
0.0000

> <Gold.PLP.ligand.torsion>
0.2246

> <Gold.PLP.Chemscore.Hbond>
1.0146

> <Gold.PLP.Chemscore.CHOScore>
1.0000

> <Gold.PLP.Chemscore.Metal>
0.0000

> <Gold.Chemscore.Hbonds>
donor molecule, donor type, donor heavy atom, donor atom, acceptor molecule, acceptor atom, score
      L1  H    14    26       P1 10747  1.00
      L1  C     5    23       P1  7948  0.28

> <Gold.PLP.Chemscore.Internal.Correction>
0.0471

> <Gold.Rescore>
     Score         DG    S(hbond)    S(metal)    S(lipo)     H(rot)  DE(clash)    DE(int)     intcor
     10.56     -14.26       1.34        0.00      78.44       1.90       0.04       3.66       ----

> <Gold.Chemscore.Fitness>
10.5581

> <Gold.Chemscore.DG>
-14.2593

> <Gold.Chemscore.ZeroCoef>
-5.4800

> <Gold.Chemscore.Hbond>
1.3405

> <Gold.Chemscore.Metal>
0.0000

> <Gold.Chemscore.Lipo>
78.4399

> <Gold.Chemscore.Internal_Hbond>
0.0000

> <Gold.Chemscore.DEClash>
0.0444

> <Gold.Chemscore.DEInternal>
3.6568

> <Gold.Chemscore.Rot>
1.9044

> <Gold.Chemscore.Internal.Correction>
   9.000000E+99

> <Gold.Chemscore.Hbonds>
donor molecule, donor type, donor heavy atom, donor atom, acceptor molecule, acceptor atom, score
      L1  H    14    26       P1 10747  1.00
      P1  H  6896  6909       L1     9  0.02

> <Gold.Chemscore.Hbond.Weighted>
-4.4771

> <Gold.Chemscore.Metal.Weighted>
-0.0000

> <Gold.Chemscore.Lipo.Weighted>
-9.1775

> <Gold.Chemscore.Internal_Hbond.Weighted>
0.0000

> <Gold.Chemscore.DEClash.Weighted>
0.0444

> <Gold.Chemscore.DEInternal.Weighted>
3.6568

> <Gold.Chemscore.Rot.Weighted>
4.8753

> <Gold.Chemscore.Internal.Correction.Weighted>
   9.000000E+99

> <Gold.Protein.RotatedTorsions>
[ 6907 6896 6895 6894 ] final   30.35 input  -60.11 | X-H torsion
[ 7974 7965 7964 7962 ] final -105.06 input  175.53 | X-H torsion
[ 8008 7997 7996 7995 ] final   46.84 input   59.86 | X-H torsion
[ 10167 10162 10161 10158 ] final -131.22 input  -65.29 | X-H torsion
[ 10718 10713 10712 10709 ] final -179.30 input   66.30 | X-H torsion
[ 10763 10752 10751 10750 ] final  162.05 input  -60.55 | X-H torsion
[ 11005 11000 10999 10996 ] final  -92.04 input  -57.11 | X-H torsion

> <Gold.Protein.ActiveResidues>
 VAL166  LYS551  ARG553  GLY616  TRP617  ASP618  TYR619  PRO620  LYS621  CYS622 
 ASP623  PHE694  ASN695  SER759  ASP760  ASP761  ALA762  ILE779  LEU786  VAL792 
 PHE793  MET794  SER795  GLU796  ALA797  LYS798  CYS799  TRP800  GLU811  SER814 

> <Gold.Protein.RotatedAtoms>
  152.0447  134.9690  160.0574 H   0  0  0  0  0  0  0  0  0  0  0  0  # atno 6907 bound_to 6896
  152.1115  133.4298  159.4641 H   0  0  0  0  0  0  0  0  0  0  0  0  # atno 6908 bound_to 6896
  150.6844  134.2562  159.4574 H   0  0  0  0  0  0  0  0  0  0  0  0  # atno 6909 bound_to 6896
  145.2352  140.9185  143.3181 H   0  0  0  0  0  0  0  0  0  0  0  0  # atno 7974 bound_to 7965
  155.3592  140.3417  155.4240 H   0  0  0  0  0  0  0  0  0  0  0  0  # atno 8008 bound_to 7997
  156.1723  140.1636  156.8460 H   0  0  0  0  0  0  0  0  0  0  0  0  # atno 8009 bound_to 7997
  154.5246  140.0759  156.8217 H   0  0  0  0  0  0  0  0  0  0  0  0  # atno 8010 bound_to 7997
  139.9212  143.6380  152.2553 H   0  0  0  0  0  0  0  0  0  0  0  0  # atno 10167 bound_to 10162
  156.8571  130.9739  151.3087 H   0  0  0  0  0  0  0  0  0  0  0  0  # atno 10718 bound_to 10713
  154.2724  135.2765  155.2732 H   0  0  0  0  0  0  0  0  0  0  0  0  # atno 10763 bound_to 10752
  154.5290  135.5735  153.6746 H   0  0  0  0  0  0  0  0  0  0  0  0  # atno 10764 bound_to 10752
  152.9943  135.6223  154.2879 H   0  0  0  0  0  0  0  0  0  0  0  0  # atno 10765 bound_to 10752
  141.1531  133.7795  156.9964 H   0  0  0  0  0  0  0  0  0  0  0  0  # atno 11005 bound_to 11000
  144.9639  139.3950  143.6342 LP  0  0  0  0  0  0  0  0  0  0  0  0  # atno 17320 bound_to 7965
  146.3343  139.8706  142.8841 LP  0  0  0  0  0  0  0  0  0  0  0  0  # atno 17321 bound_to 7965
  139.6860  144.7651  151.1523 LP  0  0  0  0  0  0  0  0  0  0  0  0  # atno 17342 bound_to 10162
  140.7662  143.5656  150.9051 LP  0  0  0  0  0  0  0  0  0  0  0  0  # atno 17343 bound_to 10162
  157.6271  130.8700  149.9208 LP  0  0  0  0  0  0  0  0  0  0  0  0  # atno 17370 bound_to 10713
  156.0796  130.3674  150.0606 LP  0  0  0  0  0  0  0  0  0  0  0  0  # atno 17371 bound_to 10713
  140.0969  134.9559  157.1863 LP  0  0  0  0  0  0  0  0  0  0  0  0  # atno 17394 bound_to 11000
  140.3370  134.2746  155.7218 LP  0  0  0  0  0  0  0  0  0  0  0  0  # atno 17395 bound_to 11000

$$$$
