AV-unprocessed.smi:148|AV-procd|sdf|1230|dock10
  -GOLD-   2262018433D 1   1.00000     0.00000
 Structure written by MMmdl.
 63 67  0  0  0  0  0  0  0  0  1 V2000
  149.7247  142.0292  156.1709 O   0  0  0  0  0  0  0  0  0  0  0  0
  149.9071  141.5317  157.4795 C   0  0  0  0  0  0  0  0  0  0  0  0
  151.3920  141.1860  157.7641 C   0  0  2  0  0  0  0  0  0  0  0  0
  151.7086  139.7117  157.4011 C   0  0  0  0  0  0  0  0  0  0  0  0
  150.9351  138.7445  158.1609 N   0  0  0  0  0  0  0  0  0  0  0  0
  151.3989  137.9201  159.1611 C   0  0  0  0  0  0  0  0  0  0  0  0
  150.5011  137.1415  159.7002 N   0  0  0  0  0  0  0  0  0  0  0  0
  149.3334  137.4384  159.0071 C   0  0  0  0  0  0  0  0  0  0  0  0
  147.9894  136.9701  159.0697 C   0  0  0  0  0  0  0  0  0  0  0  0
  147.5303  136.0338  159.9324 N   0  0  0  0  0  0  0  0  0  0  0  0
  147.5363  136.5807  161.2901 C   0  0  0  0  0  0  0  0  0  0  0  0
  146.8086  135.6578  162.2764 C   0  0  0  0  0  0  0  0  0  0  0  0
  147.4043  134.2476  162.2256 C   0  0  0  0  0  0  0  0  0  0  0  0
  147.3459  133.7136  160.7892 C   0  0  0  0  0  0  0  0  0  0  0  0
  148.0651  134.6661  159.7957 C   0  0  1  0  0  0  0  0  0  0  0  0
  148.0559  134.1367  158.3258 C   0  0  1  0  0  0  0  0  0  0  0  0
  146.7118  134.3580  157.5994 C   0  0  0  0  0  0  0  0  0  0  0  0
  147.0051  135.3096  156.4386 C   0  0  0  0  0  0  0  0  0  0  0  0
  148.4419  134.9793  156.0500 C   0  0  0  0  0  0  0  0  0  0  0  0
  149.1376  134.7338  157.3913 C   0  0  2  0  0  0  0  0  0  0  0  0
  150.2411  133.8673  157.2260 O   0  0  0  0  0  0  0  0  0  0  0  0
  147.0846  137.5233  158.2246 N   0  0  0  0  0  0  0  0  0  0  0  0
  147.4693  138.4588  157.3512 C   0  0  0  0  0  0  0  0  0  0  0  0
  148.6833  138.9835  157.1697 N   0  0  0  0  0  0  0  0  0  0  0  0
  149.5910  138.4427  158.0322 C   0  0  0  0  0  0  0  0  0  0  0  0
  151.7894  141.4759  159.2384 C   0  0  1  0  0  0  0  0  0  0  0  0
  153.2231  141.1207  159.5975 C   0  0  0  0  0  0  0  0  0  0  0  0
  153.4410  141.9002  160.8895 C   0  0  0  0  0  0  0  0  0  0  0  0
  152.6430  143.0714  160.7708 O   0  0  0  0  0  0  0  0  0  0  0  0
  151.7701  142.9522  159.6523 C   0  0  0  0  0  0  0  0  0  0  0  0
  149.3940  142.9128  156.2272 H   0  0  0  0  0  0  0  0  0  0  0  0
  149.5324  142.2567  158.2025 H   0  0  0  0  0  0  0  0  0  0  0  0
  149.2669  140.6540  157.5554 H   0  0  0  0  0  0  0  0  0  0  0  0
  152.0086  141.8124  157.1172 H   0  0  0  0  0  0  0  0  0  0  0  0
  151.5096  139.5212  156.3466 H   0  0  0  0  0  0  0  0  0  0  0  0
  152.7684  139.5075  157.5584 H   0  0  0  0  0  0  0  0  0  0  0  0
  152.4284  137.9223  159.4887 H   0  0  0  0  0  0  0  0  0  0  0  0
  148.5682  136.7249  161.6143 H   0  0  0  0  0  0  0  0  0  0  0  0
  147.0616  137.5634  161.3008 H   0  0  0  0  0  0  0  0  0  0  0  0
  146.8803  136.0602  163.2871 H   0  0  0  0  0  0  0  0  0  0  0  0
  145.7467  135.6192  162.0296 H   0  0  0  0  0  0  0  0  0  0  0  0
  148.4379  134.2668  162.5731 H   0  0  0  0  0  0  0  0  0  0  0  0
  146.8589  133.5838  162.8969 H   0  0  0  0  0  0  0  0  0  0  0  0
  147.7890  132.7189  160.7682 H   0  0  0  0  0  0  0  0  0  0  0  0
  146.2995  133.5847  160.5164 H   0  0  0  0  0  0  0  0  0  0  0  0
  149.1073  134.7038  160.1134 H   0  0  0  0  0  0  0  0  0  0  0  0
  148.1844  133.0539  158.3474 H   0  0  0  0  0  0  0  0  0  0  0  0
  146.3631  133.4059  157.1963 H   0  0  0  0  0  0  0  0  0  0  0  0
  145.9166  134.7263  158.2470 H   0  0  0  0  0  0  0  0  0  0  0  0
  146.3066  135.1888  155.6102 H   0  0  0  0  0  0  0  0  0  0  0  0
  146.9437  136.3435  156.7809 H   0  0  0  0  0  0  0  0  0  0  0  0
  148.4497  134.0716  155.4439 H   0  0  0  0  0  0  0  0  0  0  0  0
  148.9155  135.7719  155.4698 H   0  0  0  0  0  0  0  0  0  0  0  0
  149.5109  135.6826  157.7715 H   0  0  0  0  0  0  0  0  0  0  0  0
  150.3674  133.7162  156.3010 H   0  0  0  0  0  0  0  0  0  0  0  0
  146.6927  138.8438  156.7068 H   0  0  0  0  0  0  0  0  0  0  0  0
  151.1250  140.9233  159.9049 H   0  0  0  0  0  0  0  0  0  0  0  0
  153.3842  140.0510  159.7324 H   0  0  0  0  0  0  0  0  0  0  0  0
  153.9082  141.4756  158.8260 H   0  0  0  0  0  0  0  0  0  0  0  0
  153.0858  141.3251  161.7455 H   0  0  0  0  0  0  0  0  0  0  0  0
  154.4898  142.1458  161.0572 H   0  0  0  0  0  0  0  0  0  0  0  0
  152.1572  143.5838  158.8515 H   0  0  0  0  0  0  0  0  0  0  0  0
  150.7696  143.3025  159.9061 H   0  0  0  0  0  0  0  0  0  0  0  0
  1  2  1  0  0  0  0
  1 31  1  0  0  0  0
  2  3  1  0  0  0  0
  2 32  1  0  0  0  0
  2 33  1  0  0  0  0
  3  4  1  0  0  0  0
  3 26  1  0  0  0  0
  3 34  1  0  0  0  0
  4  5  1  0  0  0  0
  4 35  1  0  0  0  0
  4 36  1  0  0  0  0
  5 25  1  0  0  0  0
  5  6  1  0  0  0  0
  6  7  2  0  0  0  0
  6 37  1  0  0  0  0
  7  8  1  0  0  0  0
  8 25  2  0  0  0  0
  8  9  1  0  0  0  0
  9 10  1  0  0  0  0
  9 22  2  0  0  0  0
 10 15  1  0  0  0  0
 10 11  1  0  0  0  0
 11 12  1  0  0  0  0
 11 38  1  0  0  0  0
 11 39  1  0  0  0  0
 12 13  1  0  0  0  0
 12 40  1  0  0  0  0
 12 41  1  0  0  0  0
 13 14  1  0  0  0  0
 13 42  1  0  0  0  0
 13 43  1  0  0  0  0
 14 15  1  0  0  0  0
 14 44  1  0  0  0  0
 14 45  1  0  0  0  0
 15 16  1  0  0  0  0
 15 46  1  0  0  0  0
 16 20  1  0  0  0  0
 16 17  1  0  0  0  0
 16 47  1  0  0  0  0
 17 18  1  0  0  0  0
 17 48  1  0  0  0  0
 17 49  1  0  0  0  0
 18 19  1  0  0  0  0
 18 50  1  0  0  0  0
 18 51  1  0  0  0  0
 19 20  1  0  0  0  0
 19 52  1  0  0  0  0
 19 53  1  0  0  0  0
 20 21  1  0  0  0  0
 20 54  1  0  0  0  0
 21 55  1  0  0  0  0
 22 23  1  0  0  0  0
 23 24  2  0  0  0  0
 23 56  1  0  0  0  0
 24 25  1  0  0  0  0
 26 30  1  0  0  0  0
 26 27  1  0  0  0  0
 26 57  1  0  0  0  0
 27 28  1  0  0  0  0
 27 58  1  0  0  0  0
 27 59  1  0  0  0  0
 28 29  1  0  0  0  0
 28 60  1  0  0  0  0
 28 61  1  0  0  0  0
 29 30  1  0  0  0  0
 30 62  1  0  0  0  0
 30 63  1  0  0  0  0
M  END
> <s_m_source_file>
AV-unprocessed.smi

> <i_m_source_file_index>
148

> <i_lp_mmshare_version>
43012

> <i_f3d_flags>
0

> <s_epik_input>
W0NIMl0xT1tDSDJdW0NIMl1bQ0BIXTFbQ0BIXShbQ0gyXVtPSF0pW0NIMl1uKFtjSF1uMiljKGMyMyluW2NIXW5jM040W0NIMl1bQ0gyXVtDSDJdW0NIMl1bQ0BIXTRbQ0BASF01W0NIMl1bQ0gyXVtDSDJdW0NASF01W09IXQ==

> <s_epik_cmdline>
J2VwaWtfcHl0aG9uJywgJy1waCcsICc3LjAnLCAnLXRuJywgJzgnLCAnLW1hJywgJzIwMCcsICctbWV0YWxfYmluZGluZycsICctaW1hZScsICc8aW5maWxlLm1hZT4nLCAnLW9tYWUnLCAnPG91dGZpbGUubWFlPic=

> <r_lp_tautomer_probability>
1

> <r_epik_Ionization_Penalty>
0.00556303

> <r_epik_Ionization_Penalty_Charging>
0

> <r_epik_Ionization_Penalty_Neutral>
0.00556303

> <r_epik_State_Penalty>
0.00401767

> <r_epik_Charging_Adjusted_Penalty>
0.00401767

> <i_epik_Tot_Q>
0

> <i_epik_Tot_abs_Q>
0

> <r_epik_Metal_State_Penalty>
-0

> <b_epik_Metal_Only>
0

> <s_lp_Force_Field>
OPLS_2005

> <r_lp_Energy>
68.4818

> <b_lp_Chiralities_Consistent>
1

> <s_lp_Variant>
AV-unprocessed.smi:148-29

> <Gold.Version>
5.8.1

> <Gold.Id.Protein>
6NUR|6NUR_protein|mol2

> <Gold.PLP.Fitness>
50.3209

> <Gold.PLP.PLP>
-44.1450

> <Gold.PLP.part.hbond>
-3.0257

> <Gold.PLP.part.metal>
0.0000

> <Gold.PLP.part.buried>
-7.1401

> <Gold.PLP.part.nonpolar>
-34.3172

> <Gold.PLP.part.repulsive>
0.0338

> <Gold.PLP.ligand.clash>
0.0000

> <Gold.PLP.ligand.torsion>
0.9914

> <Gold.PLP.Chemscore.Hbond>
2.5800

> <Gold.PLP.Chemscore.CHOScore>
0.0000

> <Gold.PLP.Chemscore.Metal>
0.0000

> <Gold.Chemscore.Hbonds>
donor molecule, donor type, donor heavy atom, donor atom, acceptor molecule, acceptor atom, score
      L1  H     1    31       P1  8028  1.00
      P1  H  6896  6907       L1     7  0.65
      P1  H  6896  6909       L1    21  0.66

> <Gold.PLP.Chemscore.Internal.Correction>
0.4187

> <Gold.Rescore>
     Score         DG    S(hbond)    S(metal)    S(lipo)     H(rot)  DE(clash)    DE(int)     intcor
     11.83     -15.66       1.94        0.00     104.18       3.32       0.11       3.72       ----

> <Gold.Chemscore.Fitness>
11.8319

> <Gold.Chemscore.DG>
-15.6634

> <Gold.Chemscore.ZeroCoef>
-5.4800

> <Gold.Chemscore.Hbond>
1.9444

> <Gold.Chemscore.Metal>
0.0000

> <Gold.Chemscore.Lipo>
104.1797

> <Gold.Chemscore.Internal_Hbond>
0.0000

> <Gold.Chemscore.DEClash>
0.1100

> <Gold.Chemscore.DEInternal>
3.7215

> <Gold.Chemscore.Rot>
3.3203

> <Gold.Chemscore.Internal.Correction>
   9.000000E+99

> <Gold.Chemscore.Hbonds>
donor molecule, donor type, donor heavy atom, donor atom, acceptor molecule, acceptor atom, score
      L1  H     1    31       P1  8028  0.98
      P1  H  6896  6907       L1     7  0.45
      P1  H  6896  6909       L1    21  0.23

> <Gold.Chemscore.Hbond.Weighted>
-6.4943

> <Gold.Chemscore.Metal.Weighted>
-0.0000

> <Gold.Chemscore.Lipo.Weighted>
-12.1890

> <Gold.Chemscore.Internal_Hbond.Weighted>
0.0000

> <Gold.Chemscore.DEClash.Weighted>
0.1100

> <Gold.Chemscore.DEInternal.Weighted>
3.7215

> <Gold.Chemscore.Rot.Weighted>
8.5000

> <Gold.Chemscore.Internal.Correction.Weighted>
   9.000000E+99

> <Gold.Protein.RotatedTorsions>
[ 6907 6896 6895 6894 ] final  -11.86 input  -60.11 | X-H torsion
[ 7974 7965 7964 7962 ] final  152.87 input  175.53 | X-H torsion
[ 8008 7997 7996 7995 ] final   37.89 input   59.86 | X-H torsion
[ 10167 10162 10161 10158 ] final  -61.55 input  -65.29 | X-H torsion
[ 10718 10713 10712 10709 ] final -151.55 input   66.30 | X-H torsion
[ 10763 10752 10751 10750 ] final  -32.37 input  -60.55 | X-H torsion
[ 11005 11000 10999 10996 ] final  144.05 input  -57.11 | X-H torsion

> <Gold.Protein.ActiveResidues>
 VAL166  LYS551  ARG553  GLY616  TRP617  ASP618  TYR619  PRO620  LYS621  CYS622 
 ASP623  PHE694  ASN695  SER759  ASP760  ASP761  ALA762  ILE779  LEU786  VAL792 
 PHE793  MET794  SER795  GLU796  ALA797  LYS798  CYS799  TRP800  GLU811  SER814 

> <Gold.Protein.RotatedAtoms>
  151.3796  135.0937  159.9491 H   0  0  0  0  0  0  0  0  0  0  0  0  # atno 6907 bound_to 6896
  152.5112  133.9085  159.7486 H   0  0  0  0  0  0  0  0  0  0  0  0  # atno 6908 bound_to 6896
  150.9516  133.6488  159.2800 H   0  0  0  0  0  0  0  0  0  0  0  0  # atno 6909 bound_to 6896
  144.8192  139.6726  143.6108 H   0  0  0  0  0  0  0  0  0  0  0  0  # atno 7974 bound_to 7965
  155.2112  140.3323  155.4328 H   0  0  0  0  0  0  0  0  0  0  0  0  # atno 8008 bound_to 7997
  156.2369  140.1877  156.7142 H   0  0  0  0  0  0  0  0  0  0  0  0  # atno 8009 bound_to 7997
  154.6076  140.0613  156.9437 H   0  0  0  0  0  0  0  0  0  0  0  0  # atno 8010 bound_to 7997
  140.5998  143.2359  151.5954 H   0  0  0  0  0  0  0  0  0  0  0  0  # atno 10167 bound_to 10162
  156.4608  130.8212  151.2443 H   0  0  0  0  0  0  0  0  0  0  0  0  # atno 10718 bound_to 10713
  153.8127  135.6881  153.4838 H   0  0  0  0  0  0  0  0  0  0  0  0  # atno 10763 bound_to 10752
  153.1618  135.4577  154.9781 H   0  0  0  0  0  0  0  0  0  0  0  0  # atno 10764 bound_to 10752
  154.7961  135.3319  154.7606 H   0  0  0  0  0  0  0  0  0  0  0  0  # atno 10765 bound_to 10752
  140.0602  134.9209  157.1171 H   0  0  0  0  0  0  0  0  0  0  0  0  # atno 11005 bound_to 11000
  146.2497  139.6174  142.9435 LP  0  0  0  0  0  0  0  0  0  0  0  0  # atno 17320 bound_to 7965
  145.5143  141.0434  143.2470 LP  0  0  0  0  0  0  0  0  0  0  0  0  # atno 17321 bound_to 7965
  139.5283  144.2992  152.1088 LP  0  0  0  0  0  0  0  0  0  0  0  0  # atno 17342 bound_to 10162
  140.2170  144.4505  150.6359 LP  0  0  0  0  0  0  0  0  0  0  0  0  # atno 17343 bound_to 10162
  157.7498  131.0108  150.3319 LP  0  0  0  0  0  0  0  0  0  0  0  0  # atno 17370 bound_to 10713
  156.3719  130.3865  149.7169 LP  0  0  0  0  0  0  0  0  0  0  0  0  # atno 17371 bound_to 10713
  140.3782  134.2316  155.7173 LP  0  0  0  0  0  0  0  0  0  0  0  0  # atno 17394 bound_to 11000
  141.1970  133.8070  157.0648 LP  0  0  0  0  0  0  0  0  0  0  0  0  # atno 17395 bound_to 11000

$$$$
