AV-unprocessed.smi:513|AV-procd|sdf|2772|dock4
  -GOLD-   2262023243D 1   1.00000     0.00000
 Structure written by MMmdl.
 43 45  0  0  0  0  0  0  0  0  2 V2000
  151.9616  138.7002  154.9606 C   0  0  0  0  0  0  0  0  0  0  0  0
  150.8692  139.4135  154.4087 O   0  0  0  0  0  0  0  0  0  0  0  0
  149.6241  138.7960  154.6837 C   0  0  0  0  0  0  0  0  0  0  0  0
  149.3965  138.7999  156.1995 C   0  0  0  0  0  0  0  0  0  0  0  0
  149.8648  140.0427  156.8069 N   0  0  0  0  0  0  0  0  0  0  0  0
  149.4503  141.3171  156.5631 C   0  0  0  0  0  0  0  0  0  0  0  0
  148.4364  141.6126  155.6495 N   0  0  0  0  0  0  0  0  0  0  0  0
  148.6270  141.5992  154.2011 C   0  0  0  0  0  0  0  0  0  0  0  0
  147.5259  140.7831  153.4981 C   0  0  0  0  0  0  0  0  0  0  0  0
  146.1863  141.2963  153.8536 N   0  3  0  0  0  0  0  0  0  0  0  0
  145.9867  141.4040  155.3138 C   0  0  0  0  0  0  0  0  0  0  0  0
  147.1349  142.2058  155.9540 C   0  0  0  0  0  0  0  0  0  0  0  0
  150.1302  142.2586  157.2225 N   0  0  0  0  0  0  0  0  0  0  0  0
  151.0402  141.5259  157.9687 C   0  0  0  0  0  0  0  0  0  0  0  0
  150.9089  140.1976  157.7220 C   0  0  0  0  0  0  0  0  0  0  0  0
  151.7889  139.1943  158.3386 C   0  0  0  0  0  0  0  0  0  0  0  0
  151.7076  137.9888  158.1141 O   0  0  0  0  0  0  0  0  0  0  0  0
  152.7113  139.7350  159.1714 N   0  0  0  0  0  0  0  0  0  0  0  0
  152.8917  141.0583  159.4666 C   0  0  0  0  0  0  0  0  0  0  0  0
  153.7885  141.3990  160.2378 O   0  0  0  0  0  0  0  0  0  0  0  0
  152.0496  141.9636  158.8727 N   0  0  0  0  0  0  0  0  0  0  0  0
  152.1950  143.3952  159.1434 C   0  0  0  0  0  0  0  0  0  0  0  0
  153.3433  139.0878  159.6198 H   0  0  0  0  0  0  0  0  0  0  0  0
  152.8934  139.2075  154.7105 H   0  0  0  0  0  0  0  0  0  0  0  0
  152.0131  137.6861  154.5622 H   0  0  0  0  0  0  0  0  0  0  0  0
  151.8886  138.6462  156.0476 H   0  0  0  0  0  0  0  0  0  0  0  0
  148.8168  139.3305  154.1804 H   0  0  0  0  0  0  0  0  0  0  0  0
  149.6290  137.7720  154.3065 H   0  0  0  0  0  0  0  0  0  0  0  0
  148.3438  138.6520  156.4178 H   0  0  0  0  0  0  0  0  0  0  0  0
  149.8944  137.9505  156.6628 H   0  0  0  0  0  0  0  0  0  0  0  0
  148.6365  142.6251  153.8299 H   0  0  0  0  0  0  0  0  0  0  0  0
  149.6026  141.1739  153.9628 H   0  0  0  0  0  0  0  0  0  0  0  0
  147.6513  140.8232  152.4161 H   0  0  0  0  0  0  0  0  0  0  0  0
  147.5929  139.7341  153.7899 H   0  0  0  0  0  0  0  0  0  0  0  0
  146.0887  142.2189  153.4544 H   0  0  0  0  0  0  0  0  0  0  0  0
  145.0284  141.8841  155.5112 H   0  0  0  0  0  0  0  0  0  0  0  0
  145.9369  140.4014  155.7404 H   0  0  0  0  0  0  0  0  0  0  0  0
  146.9956  142.2979  157.0304 H   0  0  0  0  0  0  0  0  0  0  0  0
  147.1239  143.2280  155.5727 H   0  0  0  0  0  0  0  0  0  0  0  0
  152.3324  143.5867  160.2090 H   0  0  0  0  0  0  0  0  0  0  0  0
  151.3202  143.9651  158.8304 H   0  0  0  0  0  0  0  0  0  0  0  0
  153.0604  143.7918  158.6109 H   0  0  0  0  0  0  0  0  0  0  0  0
  145.4788  140.6925  153.4598 H   0  0  0  0  0  0  0  0  0  0  0  0
  1  2  1  0  0  0  0
  1 24  1  0  0  0  0
  1 25  1  0  0  0  0
  1 26  1  0  0  0  0
  2  3  1  0  0  0  0
  3  4  1  0  0  0  0
  3 27  1  0  0  0  0
  3 28  1  0  0  0  0
  4  5  1  0  0  0  0
  4 29  1  0  0  0  0
  4 30  1  0  0  0  0
  5 15  1  0  0  0  0
  5  6  1  0  0  0  0
  6  7  1  0  0  0  0
  6 13  2  0  0  0  0
  7 12  1  0  0  0  0
  7  8  1  0  0  0  0
  8  9  1  0  0  0  0
  8 31  1  0  0  0  0
  8 32  1  0  0  0  0
  9 10  1  0  0  0  0
  9 33  1  0  0  0  0
  9 34  1  0  0  0  0
 10 11  1  0  0  0  0
 10 35  1  0  0  0  0
 10 43  1  0  0  0  0
 11 12  1  0  0  0  0
 11 36  1  0  0  0  0
 11 37  1  0  0  0  0
 12 38  1  0  0  0  0
 12 39  1  0  0  0  0
 13 14  1  0  0  0  0
 14 21  1  0  0  0  0
 14 15  2  0  0  0  0
 15 16  1  0  0  0  0
 16 17  2  0  0  0  0
 16 18  1  0  0  0  0
 18 23  1  0  0  0  0
 18 19  1  0  0  0  0
 19 20  2  0  0  0  0
 19 21  1  0  0  0  0
 21 22  1  0  0  0  0
 22 40  1  0  0  0  0
 22 41  1  0  0  0  0
 22 42  1  0  0  0  0
M  CHG  1  10   1
M  END
> <s_m_source_file>
AV-unprocessed.smi

> <i_m_source_file_index>
513

> <i_lp_mmshare_version>
43012

> <i_f3d_flags>
0

> <s_epik_input>
W0NIM11uMWMoPU8pW25IXWMoPU8pYyhjMTIpbihbQ0gyXVtDSDJdT1tDSDNdKWMobjIpTjNbQ0gyXVtDSDJdW05IXVtDSDJdW0NIMl0z

> <s_epik_cmdline>
J2VwaWtfcHl0aG9uJywgJy1waCcsICc3LjAnLCAnLXRuJywgJzgnLCAnLW1hJywgJzIwMCcsICctbWV0YWxfYmluZGluZycsICctaW1hZScsICc8aW5maWxlLm1hZT4nLCAnLW9tYWUnLCAnPG91dGZpbGUubWFlPic=

> <r_epik_Ionization_Penalty>
0.00860422

> <r_epik_Ionization_Penalty_Charging>
0.00860232

> <r_epik_Ionization_Penalty_Neutral>
1.90009e-06

> <r_epik_State_Penalty>
0.00646614

> <r_epik_Charging_Adjusted_Penalty>
0.0150685

> <i_epik_Tot_Q>
1

> <i_epik_Tot_abs_Q>
1

> <r_epik_Metal_State_Penalty>
0.0348233

> <b_epik_Metal_Only>
0

> <s_lp_Force_Field>
OPLS_2005

> <r_lp_Energy>
48.3968

> <b_lp_Chiralities_Consistent>
1

> <s_lp_Variant>
AV-unprocessed.smi:513-1

> <Gold.Version>
5.8.1

> <Gold.Id.Protein>
6NUR|6NUR_protein|mol2

> <Gold.PLP.Fitness>
39.4924

> <Gold.PLP.PLP>
-32.9569

> <Gold.PLP.part.hbond>
-2.0000

> <Gold.PLP.part.metal>
0.0000

> <Gold.PLP.part.buried>
-2.5959

> <Gold.PLP.part.nonpolar>
-28.3184

> <Gold.PLP.part.repulsive>
0.4401

> <Gold.PLP.ligand.clash>
0.0000

> <Gold.PLP.ligand.torsion>
1.4618

> <Gold.PLP.Chemscore.Hbond>
2.9840

> <Gold.PLP.Chemscore.CHOScore>
0.0000

> <Gold.PLP.Chemscore.Metal>
0.0000

> <Gold.Chemscore.Hbonds>
donor molecule, donor type, donor heavy atom, donor atom, acceptor molecule, acceptor atom, score
      L1  H    10    43       P1 10175  1.84
      P1  H  7989  7998       L1     2  1.00

> <Gold.PLP.Chemscore.Internal.Correction>
0.5070

> <Gold.Rescore>
     Score         DG    S(hbond)    S(metal)    S(lipo)     H(rot)  DE(clash)    DE(int)     intcor
     12.26     -13.81       1.79        0.00      54.58       1.57       0.10       1.45       ----

> <Gold.Chemscore.Fitness>
12.2607

> <Gold.Chemscore.DG>
-13.8144

> <Gold.Chemscore.ZeroCoef>
-5.4800

> <Gold.Chemscore.Hbond>
1.7863

> <Gold.Chemscore.Metal>
0.0000

> <Gold.Chemscore.Lipo>
54.5786

> <Gold.Chemscore.Internal_Hbond>
0.0000

> <Gold.Chemscore.DEClash>
0.1028

> <Gold.Chemscore.DEInternal>
1.4509

> <Gold.Chemscore.Rot>
1.5693

> <Gold.Chemscore.Internal.Correction>
   9.000000E+99

> <Gold.Chemscore.Hbonds>
donor molecule, donor type, donor heavy atom, donor atom, acceptor molecule, acceptor atom, score
      L1  H    10    43       P1 10175  0.75
      P1  H  7989  7998       L1     2  0.50

> <Gold.Chemscore.Hbond.Weighted>
-5.9662

> <Gold.Chemscore.Metal.Weighted>
-0.0000

> <Gold.Chemscore.Lipo.Weighted>
-6.3857

> <Gold.Chemscore.Internal_Hbond.Weighted>
0.0000

> <Gold.Chemscore.DEClash.Weighted>
0.1028

> <Gold.Chemscore.DEInternal.Weighted>
1.4509

> <Gold.Chemscore.Rot.Weighted>
4.0175

> <Gold.Chemscore.Internal.Correction.Weighted>
   9.000000E+99

> <Gold.Protein.RotatedTorsions>
[ 6907 6896 6895 6894 ] final  113.22 input  -60.11 | X-H torsion
[ 7974 7965 7964 7962 ] final  114.33 input  175.53 | X-H torsion
[ 8008 7997 7996 7995 ] final  155.47 input   59.86 | X-H torsion
[ 10167 10162 10161 10158 ] final  -69.91 input  -65.29 | X-H torsion
[ 10718 10713 10712 10709 ] final  130.56 input   66.30 | X-H torsion
[ 10763 10752 10751 10750 ] final   52.72 input  -60.55 | X-H torsion
[ 11005 11000 10999 10996 ] final   14.64 input  -57.11 | X-H torsion

> <Gold.Protein.ActiveResidues>
 VAL166  LYS551  ARG553  GLY616  TRP617  ASP618  TYR619  PRO620  LYS621  CYS622 
 ASP623  PHE694  ASN695  SER759  ASP760  ASP761  ALA762  ILE779  LEU786  VAL792 
 PHE793  MET794  SER795  GLU796  ALA797  LYS798  CYS799  TRP800  GLU811  SER814 

> <Gold.Protein.RotatedAtoms>
  152.4873  133.8406  159.7150 H   0  0  0  0  0  0  0  0  0  0  0  0  # atno 6907 bound_to 6896
  150.8971  133.7158  159.2895 H   0  0  0  0  0  0  0  0  0  0  0  0  # atno 6908 bound_to 6896
  151.4612  135.1042  159.9777 H   0  0  0  0  0  0  0  0  0  0  0  0  # atno 6909 bound_to 6896
  145.2058  139.2930  143.4294 H   0  0  0  0  0  0  0  0  0  0  0  0  # atno 7974 bound_to 7965
  156.2476  140.1938  156.6806 H   0  0  0  0  0  0  0  0  0  0  0  0  # atno 8008 bound_to 7997
  154.6325  140.0594  156.9775 H   0  0  0  0  0  0  0  0  0  0  0  0  # atno 8009 bound_to 7997
  155.1689  140.3266  155.4399 H   0  0  0  0  0  0  0  0  0  0  0  0  # atno 8010 bound_to 7997
  140.5394  143.2316  151.7117 H   0  0  0  0  0  0  0  0  0  0  0  0  # atno 10167 bound_to 10162
  157.5050  131.1095  150.9374 H   0  0  0  0  0  0  0  0  0  0  0  0  # atno 10718 bound_to 10713
  152.9790  135.5803  154.4625 H   0  0  0  0  0  0  0  0  0  0  0  0  # atno 10763 bound_to 10752
  154.4199  135.2771  155.1984 H   0  0  0  0  0  0  0  0  0  0  0  0  # atno 10764 bound_to 10752
  154.3738  135.6162  153.5808 H   0  0  0  0  0  0  0  0  0  0  0  0  # atno 10765 bound_to 10752
  140.4673  134.1067  155.7726 H   0  0  0  0  0  0  0  0  0  0  0  0  # atno 11005 bound_to 11000
  146.3408  140.2317  142.8593 LP  0  0  0  0  0  0  0  0  0  0  0  0  # atno 17320 bound_to 7965
  144.9904  140.8541  143.5343 LP  0  0  0  0  0  0  0  0  0  0  0  0  # atno 17321 bound_to 7965
  139.4983  144.3992  152.0199 LP  0  0  0  0  0  0  0  0  0  0  0  0  # atno 17342 bound_to 10162
  140.3100  144.3549  150.6036 LP  0  0  0  0  0  0  0  0  0  0  0  0  # atno 17343 bound_to 10162
  157.0032  130.5608  149.5313 LP  0  0  0  0  0  0  0  0  0  0  0  0  # atno 17370 bound_to 10713
  156.0253  130.5347  150.8388 LP  0  0  0  0  0  0  0  0  0  0  0  0  # atno 17371 bound_to 10713
  141.1594  133.8822  157.1890 LP  0  0  0  0  0  0  0  0  0  0  0  0  # atno 17394 bound_to 11000
  139.9907  135.0065  156.9969 LP  0  0  0  0  0  0  0  0  0  0  0  0  # atno 17395 bound_to 11000

$$$$
