AV-unprocessed.smi:2507|AV-procd|sdf|9863|dock9
  -GOLD-   2272013493D 1   1.00000     0.00000
 Structure written by MMmdl.
 44 45  0  0  0  0  0  0  0  0  1 V2000
  151.2631  145.5264  159.6447 C   0  0  0  0  0  0  0  0  0  0  0  0
  151.4712  144.8056  158.3080 C   0  0  0  0  0  0  0  0  0  0  0  0
  151.6011  143.3172  158.4830 C   0  0  0  0  0  0  0  0  0  0  0  0
  152.5719  142.8232  159.2399 N   0  0  0  0  0  0  0  0  0  0  0  0
  152.4113  141.4792  159.1928 N   0  0  0  0  0  0  0  0  0  0  0  0
  153.3258  140.6300  159.9252 C   0  0  0  0  0  0  0  0  0  0  0  0
  151.3399  141.1078  158.4070 C   0  0  0  0  0  0  0  0  0  0  0  0
  150.8029  142.2739  157.9393 C   0  0  0  0  0  0  0  0  0  0  0  0
  149.6848  142.4650  157.0870 N   0  0  0  0  0  0  0  0  0  0  0  0
  148.6666  141.6156  156.8733 C   0  0  0  0  0  0  0  0  0  0  0  0
  148.5299  140.5206  157.4193 O   0  0  0  0  0  0  0  0  0  0  0  0
  147.8001  142.1085  155.9786 N   0  0  0  0  0  0  0  0  0  0  0  0
  146.5962  141.4196  155.5343 C   0  0  0  0  0  0  0  0  0  0  0  0
  145.3561  142.2981  155.7560 C   0  0  0  0  0  0  0  0  0  0  0  0
  144.8539  142.9582  154.4618 C   0  0  2  0  0  0  0  0  0  0  0  0
  146.0103  143.3059  153.5040 C   0  0  0  0  0  0  0  0  0  0  0  0
  145.4815  144.0318  152.2616 C   0  0  0  0  0  0  0  0  0  0  0  0
  144.6349  145.2359  152.6872 C   0  0  0  0  0  0  0  0  0  0  0  0
  143.5548  144.8024  153.6910 C   0  0  0  0  0  0  0  0  0  0  0  0
  144.1598  144.1558  154.8066 O   0  0  0  0  0  0  0  0  0  0  0  0
  151.1640  146.6015  159.4945 H   0  0  0  0  0  0  0  0  0  0  0  0
  152.1060  145.3614  160.3165 H   0  0  0  0  0  0  0  0  0  0  0  0
  150.3603  145.1746  160.1452 H   0  0  0  0  0  0  0  0  0  0  0  0
  150.6374  145.0325  157.6433 H   0  0  0  0  0  0  0  0  0  0  0  0
  152.3611  145.2023  157.8180 H   0  0  0  0  0  0  0  0  0  0  0  0
  153.0190  139.5874  159.8383 H   0  0  0  0  0  0  0  0  0  0  0  0
  153.3290  140.9109  160.9789 H   0  0  0  0  0  0  0  0  0  0  0  0
  154.3328  140.7388  159.5212 H   0  0  0  0  0  0  0  0  0  0  0  0
  151.0688  140.0729  158.2591 H   0  0  0  0  0  0  0  0  0  0  0  0
  149.6668  143.3345  156.5745 H   0  0  0  0  0  0  0  0  0  0  0  0
  147.9847  143.0169  155.5789 H   0  0  0  0  0  0  0  0  0  0  0  0
  146.6881  141.1673  154.4765 H   0  0  0  0  0  0  0  0  0  0  0  0
  146.5005  140.4816  156.0831 H   0  0  0  0  0  0  0  0  0  0  0  0
  144.5548  141.7037  156.1974 H   0  0  0  0  0  0  0  0  0  0  0  0
  145.5989  143.0745  156.4828 H   0  0  0  0  0  0  0  0  0  0  0  0
  144.1654  142.2743  153.9620 H   0  0  0  0  0  0  0  0  0  0  0  0
  146.7349  143.9404  154.0160 H   0  0  0  0  0  0  0  0  0  0  0  0
  146.5418  142.4012  153.2072 H   0  0  0  0  0  0  0  0  0  0  0  0
  146.3078  144.3521  151.6266 H   0  0  0  0  0  0  0  0  0  0  0  0
  144.8746  143.3477  151.6670 H   0  0  0  0  0  0  0  0  0  0  0  0
  145.2754  145.9904  153.1453 H   0  0  0  0  0  0  0  0  0  0  0  0
  144.1754  145.7021  151.8153 H   0  0  0  0  0  0  0  0  0  0  0  0
  143.0027  145.6726  154.0461 H   0  0  0  0  0  0  0  0  0  0  0  0
  142.8299  144.1362  153.2209 H   0  0  0  0  0  0  0  0  0  0  0  0
  1  2  1  0  0  0  0
  1 21  1  0  0  0  0
  1 22  1  0  0  0  0
  1 23  1  0  0  0  0
  2  3  1  0  0  0  0
  2 24  1  0  0  0  0
  2 25  1  0  0  0  0
  3  8  1  0  0  0  0
  3  4  2  0  0  0  0
  4  5  1  0  0  0  0
  5  6  1  0  0  0  0
  5  7  1  0  0  0  0
  6 26  1  0  0  0  0
  6 27  1  0  0  0  0
  6 28  1  0  0  0  0
  7  8  2  0  0  0  0
  7 29  1  0  0  0  0
  8  9  1  0  0  0  0
  9 10  1  0  0  0  0
  9 30  1  0  0  0  0
 10 11  2  0  0  0  0
 10 12  1  0  0  0  0
 12 13  1  0  0  0  0
 12 31  1  0  0  0  0
 13 14  1  0  0  0  0
 13 32  1  0  0  0  0
 13 33  1  0  0  0  0
 14 15  1  0  0  0  0
 14 34  1  0  0  0  0
 14 35  1  0  0  0  0
 15 20  1  0  0  0  0
 15 16  1  0  0  0  0
 15 36  1  0  0  0  0
 16 17  1  0  0  0  0
 16 37  1  0  0  0  0
 16 38  1  0  0  0  0
 17 18  1  0  0  0  0
 17 39  1  0  0  0  0
 17 40  1  0  0  0  0
 18 19  1  0  0  0  0
 18 41  1  0  0  0  0
 18 42  1  0  0  0  0
 19 20  1  0  0  0  0
 19 43  1  0  0  0  0
 19 44  1  0  0  0  0
M  END
> <s_m_source_file>
AV-unprocessed.smi

> <i_m_source_file_index>
2507

> <i_lp_mmshare_version>
43012

> <i_f3d_flags>
0

> <s_epik_input>
W0NIM11bQ0gyXWMxbm4oW0NIM10pW2NIXWMxW05IXUMoPU8pW05IXVtDSDJdW0NIMl1bQ0BASF0yW0NIMl1bQ0gyXVtDSDJdW0NIMl1PMg==

> <s_epik_cmdline>
J2VwaWtfcHl0aG9uJywgJy1waCcsICc3LjAnLCAnLXRuJywgJzgnLCAnLW1hJywgJzIwMCcsICctbWV0YWxfYmluZGluZycsICctaW1hZScsICc8aW5maWxlLm1hZT4nLCAnLW9tYWUnLCAnPG91dGZpbGUubWFlPic=

> <r_lp_tautomer_probability>
1

> <r_epik_Ionization_Penalty>
0.00072031

> <r_epik_Ionization_Penalty_Charging>
0

> <r_epik_Ionization_Penalty_Neutral>
0.00072031

> <r_epik_State_Penalty>
-0

> <r_epik_Charging_Adjusted_Penalty>
0

> <i_epik_Tot_Q>
0

> <i_epik_Tot_abs_Q>
0

> <r_epik_Metal_State_Penalty>
-0

> <b_epik_Metal_Only>
0

> <s_lp_Force_Field>
OPLS_2005

> <r_lp_Energy>
7.60695

> <b_lp_Chiralities_Consistent>
1

> <s_lp_Variant>
AV-unprocessed.smi:2507-1

> <Gold.Version>
5.8.1

> <Gold.Id.Protein>
6NUR|6NUR_protein|mol2

> <Gold.PLP.Fitness>
46.7380

> <Gold.PLP.PLP>
-42.1383

> <Gold.PLP.part.hbond>
-2.2970

> <Gold.PLP.part.metal>
0.0000

> <Gold.PLP.part.buried>
-6.1891

> <Gold.PLP.part.nonpolar>
-33.6345

> <Gold.PLP.part.repulsive>
0.1560

> <Gold.PLP.ligand.clash>
0.0000

> <Gold.PLP.ligand.torsion>
0.7208

> <Gold.PLP.Chemscore.Hbond>
2.0000

> <Gold.PLP.Chemscore.CHOScore>
0.0000

> <Gold.PLP.Chemscore.Metal>
0.0000

> <Gold.Chemscore.Hbonds>
donor molecule, donor type, donor heavy atom, donor atom, acceptor molecule, acceptor atom, score
      L1  H     9    30       P1  8028  1.00
      L1  H    12    31       P1  8028  1.00

> <Gold.PLP.Chemscore.Internal.Correction>
0.0412

> <Gold.Rescore>
     Score         DG    S(hbond)    S(metal)    S(lipo)     H(rot)  DE(clash)    DE(int)     intcor
     17.40     -19.22       1.74        0.00     100.76       1.50       0.08       1.74       ----

> <Gold.Chemscore.Fitness>
17.3994

> <Gold.Chemscore.DG>
-19.2169

> <Gold.Chemscore.ZeroCoef>
-5.4800

> <Gold.Chemscore.Hbond>
1.7360

> <Gold.Chemscore.Metal>
0.0000

> <Gold.Chemscore.Lipo>
100.7647

> <Gold.Chemscore.Internal_Hbond>
0.0000

> <Gold.Chemscore.DEClash>
0.0799

> <Gold.Chemscore.DEInternal>
1.7376

> <Gold.Chemscore.Rot>
1.5042

> <Gold.Chemscore.Internal.Correction>
   9.000000E+99

> <Gold.Chemscore.Hbonds>
donor molecule, donor type, donor heavy atom, donor atom, acceptor molecule, acceptor atom, score
      L1  H     9    30       P1  8028  0.99
      L1  H    12    31       P1  8028  0.75

> <Gold.Chemscore.Hbond.Weighted>
-5.7981

> <Gold.Chemscore.Metal.Weighted>
-0.0000

> <Gold.Chemscore.Lipo.Weighted>
-11.7895

> <Gold.Chemscore.Internal_Hbond.Weighted>
0.0000

> <Gold.Chemscore.DEClash.Weighted>
0.0799

> <Gold.Chemscore.DEInternal.Weighted>
1.7376

> <Gold.Chemscore.Rot.Weighted>
3.8507

> <Gold.Chemscore.Internal.Correction.Weighted>
   9.000000E+99

> <Gold.Protein.RotatedTorsions>
[ 6907 6896 6895 6894 ] final -138.64 input  -60.11 | X-H torsion
[ 7974 7965 7964 7962 ] final  -81.99 input  175.53 | X-H torsion
[ 8008 7997 7996 7995 ] final  -65.64 input   59.86 | X-H torsion
[ 10167 10162 10161 10158 ] final   94.46 input  -65.29 | X-H torsion
[ 10718 10713 10712 10709 ] final -172.69 input   66.30 | X-H torsion
[ 10763 10752 10751 10750 ] final  140.07 input  -60.55 | X-H torsion
[ 11005 11000 10999 10996 ] final   61.43 input  -57.11 | X-H torsion

> <Gold.Protein.ActiveResidues>
 VAL166  LYS551  ARG553  GLY616  TRP617  ASP618  TYR619  PRO620  LYS621  CYS622 
 ASP623  PHE694  ASN695  SER759  ASP760  ASP761  ALA762  ILE779  LEU786  VAL792 
 PHE793  MET794  SER795  GLU796  ALA797  LYS798  CYS799  TRP800  GLU811  SER814 

> <Gold.Protein.RotatedAtoms>
  151.0376  133.5735  159.2654 H   0  0  0  0  0  0  0  0  0  0  0  0  # atno 6907 bound_to 6896
  151.2793  135.0708  159.9173 H   0  0  0  0  0  0  0  0  0  0  0  0  # atno 6908 bound_to 6896
  152.5358  134.0093  159.7985 H   0  0  0  0  0  0  0  0  0  0  0  0  # atno 6909 bound_to 6896
  145.5392  140.9512  143.1560 H   0  0  0  0  0  0  0  0  0  0  0  0  # atno 7974 bound_to 7965
  154.4684  140.0929  156.7082 H   0  0  0  0  0  0  0  0  0  0  0  0  # atno 8008 bound_to 7997
  155.4792  140.3467  155.4319 H   0  0  0  0  0  0  0  0  0  0  0  0  # atno 8009 bound_to 7997
  156.0997  140.1419  156.9472 H   0  0  0  0  0  0  0  0  0  0  0  0  # atno 8010 bound_to 7997
  139.8081  144.6785  150.9676 H   0  0  0  0  0  0  0  0  0  0  0  0  # atno 10167 bound_to 10162
  156.7593  130.9407  151.3117 H   0  0  0  0  0  0  0  0  0  0  0  0  # atno 10718 bound_to 10713
  153.9166  135.3005  155.3448 H   0  0  0  0  0  0  0  0  0  0  0  0  # atno 10763 bound_to 10752
  154.7597  135.4940  153.9443 H   0  0  0  0  0  0  0  0  0  0  0  0  # atno 10764 bound_to 10752
  153.1164  135.6772  153.9513 H   0  0  0  0  0  0  0  0  0  0  0  0  # atno 10765 bound_to 10752
  140.0161  134.6222  155.9707 H   0  0  0  0  0  0  0  0  0  0  0  0  # atno 11005 bound_to 11000
  144.7586  139.7013  143.7244 LP  0  0  0  0  0  0  0  0  0  0  0  0  # atno 17320 bound_to 7965
  146.1992  139.5277  142.9754 LP  0  0  0  0  0  0  0  0  0  0  0  0  # atno 17321 bound_to 7965
  140.7818  143.4212  151.0838 LP  0  0  0  0  0  0  0  0  0  0  0  0  # atno 17342 bound_to 10162
  139.7880  143.8259  152.3148 LP  0  0  0  0  0  0  0  0  0  0  0  0  # atno 17343 bound_to 10162
  157.6742  130.9079  150.0110 LP  0  0  0  0  0  0  0  0  0  0  0  0  # atno 17370 bound_to 10713
  156.1349  130.3643  149.9672 LP  0  0  0  0  0  0  0  0  0  0  0  0  # atno 17371 bound_to 10713
  141.1744  133.6539  156.4772 LP  0  0  0  0  0  0  0  0  0  0  0  0  # atno 17394 bound_to 11000
  140.4468  134.6965  157.5019 LP  0  0  0  0  0  0  0  0  0  0  0  0  # atno 17395 bound_to 11000

$$$$
