#       Name:                AV-unprocessed.smi:45
#       Creating user name   scv26
#       Creation time:       Thu Mar 26 16:27:02 2020


#       File generated by GOLD software.
#

@<TRIPOS>MOLECULE
AV-unprocessed.smi:45
    70    73     1
SMALL
NO_CHARGES


@<TRIPOS>ATOM
      1 ****        -8.0668   0.4219   0.2832 C.3            1 S1                 0.0000
      2 ****        -7.2095   1.0719   1.2100 O.3            1 S1                 0.0000
      3 ****        -5.8625   1.1379   0.9185 C.ar           1 S1                 0.0000
      4 ****        -5.2816   0.5929  -0.2548 C.ar           1 S1                 0.0000
      5 ****        -3.8965   0.7005  -0.4844 C.ar           1 S1                 0.0000
      6 ****        -3.0681   1.3501   0.4525 C.ar           1 S1                 0.0000
      7 ****        -1.5771   1.4726   0.2053 C.3            1 S1                 0.0000
      8 ****        -0.9222   0.1936  -0.0346 N.pl3          1 S1                 0.0000
      9 ****         0.4647   0.1162  -0.2485 C.ar           1 S1                 0.0000
     10 ****         1.1464   1.2755  -0.3851 N.ar           1 S1                 0.0000
     11 ****         2.4690   1.2694  -0.5952 C.ar           1 S1                 0.0000
     12 ****         3.1449   2.4815  -0.7302 N.pl3          1 S1                 0.0000
     13 ****         4.3870   2.5791  -1.4892 C.3            1 S1                 0.0000
     14 ****         4.3956   3.9768  -2.1061 C.3            1 S1                 0.0000
     15 ****         3.5774   4.7935  -1.1149 C.3            1 S1                 0.0000
     16 ****         2.5161   3.7996  -0.6211 C.3            1 S1                 0.0000
     17 ****         2.0179   4.1262   0.8030 C.3            1 S1                 0.0000
     18 ****         1.3311   5.3594   0.8005 O.3            1 S1                 0.0000
     19 ****         3.1650   0.1254  -0.6903 N.pl3          1 S1                 1.0000
     20 ****         2.5316  -1.0654  -0.5669 C.ar           1 S1                 0.0000
     21 ****         1.1390  -1.1268  -0.3441 C.ar           1 S1                 0.0000
     22 ****         0.4535  -2.4566  -0.1770 C.2            1 S1                 0.0000
     23 ****        -0.4278  -2.6211   0.6666 O.2            1 S1                 0.0000
     24 ****         0.8565  -3.4170  -1.0240 N.am           1 S1                 0.0000
     25 ****         0.3636  -4.7893  -1.0227 C.3            1 S1                 0.0000
     26 ****         0.9995  -5.6324   0.0686 C.ar           1 S1                 0.0000
     27 ****         2.3019  -5.9048  -0.0683 N.ar           1 S1                 0.0000
     28 ****         2.8746  -6.6490   0.9028 C.ar           1 S1                 0.0000
     29 ****         2.1395  -7.1154   2.0109 C.ar           1 S1                 0.0000
     30 ****         0.7750  -6.7637   2.0471 C.ar           1 S1                 0.0000
     31 ****         0.2069  -6.0207   1.0726 N.ar           1 S1                 0.0000
     32 ****        -3.6387   1.8966   1.6186 C.ar           1 S1                 0.0000
     33 ****        -5.0242   1.7902   1.8503 C.ar           1 S1                 0.0000
     34 ****        -5.6899   2.4702   3.2921 Cl             1 S1                 0.0000
     35 ****         1.6728   3.8125  -1.3133 H              1 S1                 0.0000
     36 ****        -9.0902   0.4548   0.6565 H              1 S1                 0.0000
     37 ****        -7.7960  -0.6272   0.1572 H              1 S1                 0.0000
     38 ****        -8.0545   0.9186  -0.6879 H              1 S1                 0.0000
     39 ****        -5.8784   0.0866  -0.9978 H              1 S1                 0.0000
     40 ****        -3.4719   0.2824  -1.3854 H              1 S1                 0.0000
     41 ****        -1.4270   2.1224  -0.6576 H              1 S1                 0.0000
     42 ****        -1.1056   1.9598   1.0596 H              1 S1                 0.0000
     43 ****        -1.4461  -0.6549   0.1292 H              1 S1                 0.0000
     44 ****         5.2258   2.4552  -0.8036 H              1 S1                 0.0000
     45 ****         4.4634   1.8133  -2.2620 H              1 S1                 0.0000
     46 ****         5.4016   4.3692  -2.2574 H              1 S1                 0.0000
     47 ****         3.8901   3.9587  -3.0726 H              1 S1                 0.0000
     48 ****         4.2198   5.1091  -0.2911 H              1 S1                 0.0000
     49 ****         3.1425   5.6883  -1.5612 H              1 S1                 0.0000
     50 ****         1.3321   3.3683   1.1788 H              1 S1                 0.0000
     51 ****         2.8505   4.1779   1.5055 H              1 S1                 0.0000
     52 ****         1.0535   5.5526   1.6833 H              1 S1                 0.0000
     53 ****         3.1687  -1.9349  -0.6438 H              1 S1                 0.0000
     54 ****         1.5751  -3.1951  -1.6973 H              1 S1                 0.0000
     55 ****        -0.7243  -4.7994  -0.9308 H              1 S1                 0.0000
     56 ****         0.5914  -5.2372  -1.9905 H              1 S1                 0.0000
     57 ****         3.9254  -6.8736   0.7947 H              1 S1                 0.0000
     58 ****         2.5955  -7.7101   2.7885 H              1 S1                 0.0000
     59 ****         0.1381  -7.0792   2.8600 H              1 S1                 0.0000
     60 ****        -3.0143   2.4000   2.3423 H              1 S1                 0.0000
     61 ****         4.1726   0.1422  -0.8491 H              1 S1                 0.0000
     62 ****        -7.3005   0.5937   2.0835 LP             1 S1                 0.0000
     63 ****        -7.5377   2.0114   1.3086 LP             1 S1                 0.0000
     64 ****         0.6581   2.1464  -0.3287 LP             1 S1                 0.0000
     65 ****         0.5322   5.2987   0.2020 LP             1 S1                 0.0000
     66 ****         1.9389   6.0827   0.4728 LP             1 S1                 0.0000
     67 ****        -0.7016  -1.8627   1.2581 LP             1 S1                 0.0000
     68 ****        -0.8700  -3.5131   0.7604 LP             1 S1                 0.0000
     69 ****         2.8267  -5.5733  -0.8523 LP             1 S1                 0.0000
     70 ****        -0.7615  -5.7726   1.1009 LP             1 S1                 0.0000
@<TRIPOS>BOND
    1    1    2 1     
    2    1   36 1     
    3    1   37 1     
    4    1   38 1     
    5    2    3 1     
    6    3   33 ar    
    7    3    4 ar    
    8    4    5 ar    
    9    4   39 1     
   10    5    6 ar    
   11    5   40 1     
   12    6    7 1     
   13    6   32 ar    
   14    7    8 1     
   15    7   41 1     
   16    7   42 1     
   17    8    9 1     
   18    8   43 1     
   19    9   21 ar    
   20    9   10 ar    
   21   10   11 ar    
   22   11   12 1     
   23   11   19 ar    
   24   12   16 1     
   25   12   13 1     
   26   13   14 1     
   27   13   44 1     
   28   13   45 1     
   29   14   15 1     
   30   14   46 1     
   31   14   47 1     
   32   15   16 1     
   33   15   48 1     
   34   15   49 1     
   35   16   35 1     
   36   16   17 1     
   37   17   18 1     
   38   17   50 1     
   39   17   51 1     
   40   18   52 1     
   41   19   20 ar    
   42   19   61 1     
   43   20   21 ar    
   44   20   53 1     
   45   21   22 1     
   46   22   23 2     
   47   22   24 am    
   48   24   25 1     
   49   24   54 1     
   50   25   26 1     
   51   25   55 1     
   52   25   56 1     
   53   26   31 ar    
   54   26   27 ar    
   55   27   28 ar    
   56   28   29 ar    
   57   28   57 1     
   58   29   30 ar    
   59   29   58 1     
   60   30   31 ar    
   61   30   59 1     
   62   32   33 ar    
   63   32   60 1     
   64   33   34 1     
   65    2   62 1     
   66    2   63 1     
   67   10   64 1     
   68   18   65 1     
   69   18   66 1     
   70   23   67 1     
   71   23   68 1     
   72   27   69 1     
   73   31   70 1     
@<TRIPOS>SUBSTRUCTURE
      1 S1             1
@<TRIPOS>SET
LONE_PAIRS      STATIC     ATOMS    <user>   **** ""
9 62 63 64 65 66 67 68 69 70
DONOR_HYDROGENS      STATIC     ATOMS    <user>   **** ""
4 43 52 61 54
ATOM$BLUE        STATIC     ATOMS    COLORGROUP SYSTEM
9 62 63 64 65 66 67 68 69 70
ATOM$RED        STATIC     ATOMS    COLORGROUP SYSTEM
4 43 52 61 54
