#       Name:                AV-unprocessed.smi:224
#       Creating user name   scv26
#       Creation time:       Thu Mar 26 20:17:33 2020


#       File generated by GOLD software.
#

@<TRIPOS>MOLECULE
AV-unprocessed.smi:224
    65    68     1
SMALL
NO_CHARGES


@<TRIPOS>ATOM
      1 ****        -2.9439   5.5224  -3.4861 C.3            1 S1                 0.0000
      2 ****        -1.5855   4.8740  -3.1897 C.3            1 S1                 0.0000
      3 ****        -0.8705   4.7720  -4.4046 O.3            1 S1                 0.0000
      4 ****        -1.7362   3.4699  -2.5737 C.3            1 S1                 0.0000
      5 ****        -0.4301   2.8799  -2.1799 N.4            1 S1                 1.0000
      6 ****         0.1164   3.4187  -0.9051 C.3            1 S1                 0.0000
      7 ****         1.5346   2.8790  -0.6441 C.3            1 S1                 0.0000
      8 ****         1.5673   1.4192  -0.7129 N.pl3          1 S1                 0.0000
      9 ****         1.3874   0.6910   0.4224 C.ar           1 S1                 0.0000
     10 ****         0.8104   1.2714   1.5088 N.ar           1 S1                 0.0000
     11 ****         0.6026   0.5678   2.6249 C.ar           1 S1                 0.0000
     12 ****         0.8922  -0.7105   2.8696 N.ar           1 S1                 0.0000
     13 ****         1.4841  -1.2991   1.7915 C.ar           1 S1                 0.0000
     14 ****         1.7718  -0.6760   0.5433 C.ar           1 S1                 0.0000
     15 ****         2.3995  -1.5851  -0.3004 N.2            1 S1                 0.0000
     16 ****         2.4643  -2.6835   0.4009 C.2            1 S1                 0.0000
     17 ****         1.9263  -2.6048   1.6652 N.pl3          1 S1                 0.0000
     18 ****         1.8631  -3.6735   2.6513 C.3            1 S1                 0.0000
     19 ****         0.6995  -4.6671   2.4156 C.3            1 S1                 0.0000
     20 ****         0.9051  -5.3291   1.1805 O.3            1 S1                 0.0000
     21 ****         0.5894  -5.7124   3.5279 C.3            1 S1                 0.0000
     22 ****        -0.6789  -5.3126   4.2720 C.3            1 S1                 0.0000
     23 ****        -1.5056  -4.8224   3.2321 O.3            1 S1                 0.0000
     24 ****        -0.6916  -4.0016   2.4074 C.3            1 S1                 0.0000
     25 ****         1.0295   0.8649  -1.9548 C.3            1 S1                 0.0000
     26 ****        -0.3939   1.3889  -2.2501 C.3            1 S1                 0.0000
     27 ****        -1.4632   0.7088  -1.3674 C.3            1 S1                 0.0000
     28 ****        -3.5267   5.6436  -2.5725 H              1 S1                 0.0000
     29 ****        -3.5334   4.9190  -4.1775 H              1 S1                 0.0000
     30 ****        -2.8198   6.5112  -3.9292 H              1 S1                 0.0000
     31 ****        -1.0304   5.5311  -2.5212 H              1 S1                 0.0000
     32 ****        -1.3944   4.2894  -5.0262 H              1 S1                 0.0000
     33 ****        -2.3927   3.5027  -1.7029 H              1 S1                 0.0000
     34 ****        -2.2284   2.8250  -3.3037 H              1 S1                 0.0000
     35 ****         0.1571   4.5065  -0.9379 H              1 S1                 0.0000
     36 ****        -0.5480   3.1609  -0.0799 H              1 S1                 0.0000
     37 ****         2.2150   3.2651  -1.4039 H              1 S1                 0.0000
     38 ****         1.9184   3.2407   0.3106 H              1 S1                 0.0000
     39 ****         0.1347   1.1053   3.4365 H              1 S1                 0.0000
     40 ****         2.9054  -3.5897   0.0115 H              1 S1                 0.0000
     41 ****         2.8183  -4.2007   2.6433 H              1 S1                 0.0000
     42 ****         1.7738  -3.2230   3.6406 H              1 S1                 0.0000
     43 ****         0.1834  -5.9223   1.0366 H              1 S1                 0.0000
     44 ****         0.4557  -6.7134   3.1139 H              1 S1                 0.0000
     45 ****         1.4609  -5.7450   4.1828 H              1 S1                 0.0000
     46 ****        -1.1417  -6.1481   4.7973 H              1 S1                 0.0000
     47 ****        -0.4789  -4.5169   4.9917 H              1 S1                 0.0000
     48 ****        -0.6580  -3.0129   2.8653 H              1 S1                 0.0000
     49 ****        -1.1183  -3.8874   1.4101 H              1 S1                 0.0000
     50 ****         1.6984   1.1627  -2.7630 H              1 S1                 0.0000
     51 ****         1.0269  -0.2236  -1.9589 H              1 S1                 0.0000
     52 ****        -0.6180   1.1139  -3.2817 H              1 S1                 0.0000
     53 ****        -1.3832  -0.3765  -1.4337 H              1 S1                 0.0000
     54 ****        -2.4736   0.9724  -1.6795 H              1 S1                 0.0000
     55 ****        -1.3647   0.9767  -0.3163 H              1 S1                 0.0000
     56 ****         0.2161   3.1821  -2.8956 H              1 S1                 0.0000
     57 ****        -0.0075   4.2917  -4.2476 LP             1 S1                 0.0000
     58 ****        -0.6825   5.6869  -4.7620 LP             1 S1                 0.0000
     59 ****         0.5395   2.2333   1.4715 LP             1 S1                 0.0000
     60 ****         0.7001  -1.1774   3.7327 LP             1 S1                 0.0000
     61 ****         2.7270  -1.4321  -1.2328 LP             1 S1                 0.0000
     62 ****         1.7631  -5.8419   1.2108 LP             1 S1                 0.0000
     63 ****         0.9438  -4.6582   0.4399 LP             1 S1                 0.0000
     64 ****        -2.2577  -4.2860   3.6150 LP             1 S1                 0.0000
     65 ****        -1.8762  -5.5837   2.7001 LP             1 S1                 0.0000
@<TRIPOS>BOND
    1    1    2 1     
    2    1   28 1     
    3    1   29 1     
    4    1   30 1     
    5    2    3 1     
    6    2    4 1     
    7    2   31 1     
    8    3   32 1     
    9    4    5 1     
   10    4   33 1     
   11    4   34 1     
   12    5   26 1     
   13    5    6 1     
   14    5   56 1     
   15    6    7 1     
   16    6   35 1     
   17    6   36 1     
   18    7    8 1     
   19    7   37 1     
   20    7   38 1     
   21    8    9 1     
   22    8   25 1     
   23    9   14 ar    
   24    9   10 ar    
   25   10   11 ar    
   26   11   12 ar    
   27   11   39 1     
   28   12   13 ar    
   29   13   17 1     
   30   13   14 ar    
   31   14   15 1     
   32   15   16 2     
   33   16   17 1     
   34   16   40 1     
   35   17   18 1     
   36   18   19 1     
   37   18   41 1     
   38   18   42 1     
   39   19   24 1     
   40   19   20 1     
   41   19   21 1     
   42   20   43 1     
   43   21   22 1     
   44   21   44 1     
   45   21   45 1     
   46   22   23 1     
   47   22   46 1     
   48   22   47 1     
   49   23   24 1     
   50   24   48 1     
   51   24   49 1     
   52   25   26 1     
   53   25   50 1     
   54   25   51 1     
   55   26   27 1     
   56   26   52 1     
   57   27   53 1     
   58   27   54 1     
   59   27   55 1     
   60    3   57 1     
   61    3   58 1     
   62   10   59 1     
   63   12   60 1     
   64   15   61 1     
   65   20   62 1     
   66   20   63 1     
   67   23   64 1     
   68   23   65 1     
@<TRIPOS>SUBSTRUCTURE
      1 S1             1
@<TRIPOS>SET
LONE_PAIRS      STATIC     ATOMS    <user>   **** ""
9 57 58 59 60 61 62 63 64 65
DONOR_HYDROGENS      STATIC     ATOMS    <user>   **** ""
3 32 56 43
ATOM$BLUE        STATIC     ATOMS    COLORGROUP SYSTEM
9 57 58 59 60 61 62 63 64 65
ATOM$RED        STATIC     ATOMS    COLORGROUP SYSTEM
3 32 56 43
