AV-unprocessed.smi:3193|AV-procd|sdf|12205|dock7
  -GOLD-   2272018 43D 1   1.00000     0.00000
 Structure written by MMmdl.
 41 42  0  0  0  0  0  0  0  0  3 V2000
  153.1583  141.6598  159.2095 C   0  0  0  0  0  0  0  0  0  0  0  0
  152.3133  142.9341  159.0306 C   0  0  2  0  0  0  0  0  0  0  0  0
  152.6491  143.9358  160.1560 C   0  0  0  0  0  0  0  0  0  0  0  0
  151.8785  145.2538  160.0041 C   0  0  0  0  0  0  0  0  0  0  0  0
  150.3687  144.9975  159.9493 C   0  0  0  0  0  0  0  0  0  0  0  0
  150.0228  144.0107  158.8255 C   0  0  0  0  0  0  0  0  0  0  0  0
  150.7790  142.6706  158.9682 C   0  0  1  0  0  0  0  0  0  0  0  0
  150.3591  141.7211  157.8226 C   0  0  0  0  0  0  0  0  0  0  0  0
  150.4688  142.3642  156.4974 N   0  3  0  0  0  0  0  0  0  0  0  0
  150.1035  141.4865  155.3685 C   0  0  0  0  0  0  0  0  0  0  0  0
  148.9153  140.5847  155.7320 C   0  0  0  0  0  0  0  0  0  0  0  0
  147.6976  140.9680  155.0133 N   0  0  0  0  0  0  0  0  0  0  0  0
  147.1327  142.2157  154.9390 C   0  0  0  0  0  0  0  0  0  0  0  0
  146.0117  142.0919  154.1591 C   0  0  0  0  0  0  0  0  0  0  0  0
  145.9385  140.7748  153.7920 N   0  3  0  0  0  0  0  0  0  0  0  0
  146.9645  140.0929  154.3119 C   0  0  0  0  0  0  0  0  0  0  0  0
  152.8430  141.0921  160.0855 H   0  0  0  0  0  0  0  0  0  0  0  0
  154.2128  141.9057  159.3387 H   0  0  0  0  0  0  0  0  0  0  0  0
  153.0968  141.0082  158.3388 H   0  0  0  0  0  0  0  0  0  0  0  0
  152.6163  143.3910  158.0870 H   0  0  0  0  0  0  0  0  0  0  0  0
  152.4198  143.4910  161.1255 H   0  0  0  0  0  0  0  0  0  0  0  0
  153.7190  144.1476  160.1617 H   0  0  0  0  0  0  0  0  0  0  0  0
  152.1134  145.9211  160.8339 H   0  0  0  0  0  0  0  0  0  0  0  0
  152.1983  145.7642  159.0948 H   0  0  0  0  0  0  0  0  0  0  0  0
  150.0274  144.6011  160.9064 H   0  0  0  0  0  0  0  0  0  0  0  0
  149.8378  145.9375  159.7963 H   0  0  0  0  0  0  0  0  0  0  0  0
  148.9461  143.8359  158.8289 H   0  0  0  0  0  0  0  0  0  0  0  0
  150.2563  144.4648  157.8613 H   0  0  0  0  0  0  0  0  0  0  0  0
  150.4641  142.2258  159.9139 H   0  0  0  0  0  0  0  0  0  0  0  0
  151.0048  140.8419  157.8059 H   0  0  0  0  0  0  0  0  0  0  0  0
  149.3428  141.3591  157.9850 H   0  0  0  0  0  0  0  0  0  0  0  0
  149.8575  143.1684  156.4884 H   0  0  0  0  0  0  0  0  0  0  0  0
  149.8579  142.0996  154.5001 H   0  0  0  0  0  0  0  0  0  0  0  0
  150.9659  140.8751  155.0995 H   0  0  0  0  0  0  0  0  0  0  0  0
  149.1335  139.5413  155.4983 H   0  0  0  0  0  0  0  0  0  0  0  0
  148.7033  140.6371  156.8009 H   0  0  0  0  0  0  0  0  0  0  0  0
  147.5569  143.0776  155.4338 H   0  0  0  0  0  0  0  0  0  0  0  0
  145.2789  142.8221  153.8475 H   0  0  0  0  0  0  0  0  0  0  0  0
  147.1599  139.0423  154.1883 H   0  0  0  0  0  0  0  0  0  0  0  0
  151.4199  142.6813  156.3725 H   0  0  0  0  0  0  0  0  0  0  0  0
  145.2119  140.3723  153.2125 H   0  0  0  0  0  0  0  0  0  0  0  0
  1  2  1  0  0  0  0
  1 17  1  0  0  0  0
  1 18  1  0  0  0  0
  1 19  1  0  0  0  0
  2  7  1  0  0  0  0
  2  3  1  0  0  0  0
  2 20  1  0  0  0  0
  3  4  1  0  0  0  0
  3 21  1  0  0  0  0
  3 22  1  0  0  0  0
  4  5  1  0  0  0  0
  4 23  1  0  0  0  0
  4 24  1  0  0  0  0
  5  6  1  0  0  0  0
  5 25  1  0  0  0  0
  5 26  1  0  0  0  0
  6  7  1  0  0  0  0
  6 27  1  0  0  0  0
  6 28  1  0  0  0  0
  7  8  1  0  0  0  0
  7 29  1  0  0  0  0
  8  9  1  0  0  0  0
  8 30  1  0  0  0  0
  8 31  1  0  0  0  0
  9 10  1  0  0  0  0
  9 32  1  0  0  0  0
  9 40  1  0  0  0  0
 10 11  1  0  0  0  0
 10 33  1  0  0  0  0
 10 34  1  0  0  0  0
 11 12  1  0  0  0  0
 11 35  1  0  0  0  0
 11 36  1  0  0  0  0
 12 16  1  0  0  0  0
 12 13  1  0  0  0  0
 13 14  2  0  0  0  0
 13 37  1  0  0  0  0
 14 15  1  0  0  0  0
 14 38  1  0  0  0  0
 15 16  2  0  0  0  0
 15 41  1  0  0  0  0
 16 39  1  0  0  0  0
M  CHG  1   9   1
M  CHG  1  15   1
M  END
> <s_m_source_file>
AV-unprocessed.smi

> <i_m_source_file_index>
3193

> <i_lp_mmshare_version>
43012

> <i_f3d_flags>
0

> <s_epik_input>
W0NIM11bQ0BASF0xW0NIMl1bQ0gyXVtDSDJdW0NIMl1bQ0BIXTFbQ0gyXVtOSF1bQ0gyXVtDSDJdbjJbY0hdW2NIXW5bY0hdMg==

> <s_epik_cmdline>
J2VwaWtfcHl0aG9uJywgJy1waCcsICc3LjAnLCAnLXRuJywgJzgnLCAnLW1hJywgJzIwMCcsICctbWV0YWxfYmluZGluZycsICctaW1hZScsICc8aW5maWxlLm1hZT4nLCAnLW9tYWUnLCAnPG91dGZpbGUubWFlPic=

> <r_lp_tautomer_probability>
1

> <r_epik_Ionization_Penalty>
1.50262

> <r_epik_Ionization_Penalty_Charging>
0.00193432

> <r_epik_Ionization_Penalty_Neutral>
1.50068

> <r_epik_State_Penalty>
1.11854

> <r_epik_Charging_Adjusted_Penalty>
1.12048

> <i_epik_Tot_Q>
2

> <i_epik_Tot_abs_Q>
2

> <r_epik_Metal_State_Penalty>
5.11322

> <b_epik_Metal_Only>
0

> <s_lp_Force_Field>
OPLS_2005

> <r_lp_Energy>
26.3387

> <b_lp_Chiralities_Consistent>
1

> <s_lp_Variant>
AV-unprocessed.smi:3193-5

> <Gold.Version>
5.8.1

> <Gold.Id.Protein>
6NUR|6NUR_protein|mol2

> <Gold.PLP.Fitness>
46.8035

> <Gold.PLP.PLP>
-32.9206

> <Gold.PLP.part.hbond>
-2.0000

> <Gold.PLP.part.metal>
0.0000

> <Gold.PLP.part.buried>
-3.5196

> <Gold.PLP.part.nonpolar>
-28.9842

> <Gold.PLP.part.repulsive>
0.0734

> <Gold.PLP.ligand.clash>
0.0000

> <Gold.PLP.ligand.torsion>
0.5807

> <Gold.PLP.Chemscore.Hbond>
4.0000

> <Gold.PLP.Chemscore.CHOScore>
1.0000

> <Gold.PLP.Chemscore.Metal>
0.0000

> <Gold.Chemscore.Hbonds>
donor molecule, donor type, donor heavy atom, donor atom, acceptor molecule, acceptor atom, score
      L1  H     9    32       P1  8028  2.00
      L1  H    15    41       P1 10175  1.98
      L1  C    13    37       P1  8028  1.00

> <Gold.PLP.Chemscore.Internal.Correction>
0.0443

> <Gold.Rescore>
     Score         DG    S(hbond)    S(metal)    S(lipo)     H(rot)  DE(clash)    DE(int)     intcor
     17.74     -18.40       1.93        0.00      98.60       1.98       0.04       0.62       ----

> <Gold.Chemscore.Fitness>
17.7408

> <Gold.Chemscore.DG>
-18.3991

> <Gold.Chemscore.ZeroCoef>
-5.4800

> <Gold.Chemscore.Hbond>
1.9297

> <Gold.Chemscore.Metal>
0.0000

> <Gold.Chemscore.Lipo>
98.5998

> <Gold.Chemscore.Internal_Hbond>
0.0000

> <Gold.Chemscore.DEClash>
0.0358

> <Gold.Chemscore.DEInternal>
0.6225

> <Gold.Chemscore.Rot>
1.9774

> <Gold.Chemscore.Internal.Correction>
   9.000000E+99

> <Gold.Chemscore.Hbonds>
donor molecule, donor type, donor heavy atom, donor atom, acceptor molecule, acceptor atom, score
      L1  H     9    32       P1  8028  0.94
      L1  H    15    41       P1 10175  0.93

> <Gold.Chemscore.Hbond.Weighted>
-6.4451

> <Gold.Chemscore.Metal.Weighted>
-0.0000

> <Gold.Chemscore.Lipo.Weighted>
-11.5362

> <Gold.Chemscore.Internal_Hbond.Weighted>
0.0000

> <Gold.Chemscore.DEClash.Weighted>
0.0358

> <Gold.Chemscore.DEInternal.Weighted>
0.6225

> <Gold.Chemscore.Rot.Weighted>
5.0622

> <Gold.Chemscore.Internal.Correction.Weighted>
   9.000000E+99

> <Gold.Protein.RotatedTorsions>
[ 6907 6896 6895 6894 ] final -167.18 input  -60.11 | X-H torsion
[ 7974 7965 7964 7962 ] final  100.83 input  175.53 | X-H torsion
[ 8008 7997 7996 7995 ] final -137.44 input   59.86 | X-H torsion
[ 10167 10162 10161 10158 ] final -107.66 input  -65.29 | X-H torsion
[ 10718 10713 10712 10709 ] final  -85.66 input   66.30 | X-H torsion
[ 10763 10752 10751 10750 ] final  168.86 input  -60.55 | X-H torsion
[ 11005 11000 10999 10996 ] final  -29.17 input  -57.11 | X-H torsion

> <Gold.Protein.ActiveResidues>
 VAL166  LYS551  ARG553  GLY616  TRP617  ASP618  TYR619  PRO620  LYS621  CYS622 
 ASP623  PHE694  ASN695  SER759  ASP760  ASP761  ALA762  ILE779  LEU786  VAL792 
 PHE793  MET794  SER795  GLU796  ALA797  LYS798  CYS799  TRP800  GLU811  SER814 

> <Gold.Protein.RotatedAtoms>
  151.4555  133.3606  159.2801 H   0  0  0  0  0  0  0  0  0  0  0  0  # atno 6907 bound_to 6896
  150.9062  134.8478  159.7404 H   0  0  0  0  0  0  0  0  0  0  0  0  # atno 6908 bound_to 6896
  152.4907  134.4480  159.9617 H   0  0  0  0  0  0  0  0  0  0  0  0  # atno 6909 bound_to 6896
  145.3804  139.2381  143.3407 H   0  0  0  0  0  0  0  0  0  0  0  0  # atno 7974 bound_to 7965
  155.4119  140.0513  157.3031 H   0  0  0  0  0  0  0  0  0  0  0  0  # atno 8008 bound_to 7997
  154.4942  140.2132  155.9442 H   0  0  0  0  0  0  0  0  0  0  0  0  # atno 8009 bound_to 7997
  156.1383  140.3159  155.8461 H   0  0  0  0  0  0  0  0  0  0  0  0  # atno 8010 bound_to 7997
  140.1745  143.4016  152.1329 H   0  0  0  0  0  0  0  0  0  0  0  0  # atno 10167 bound_to 10162
  155.9995  130.4738  150.4597 H   0  0  0  0  0  0  0  0  0  0  0  0  # atno 10718 bound_to 10713
  154.3748  135.2753  155.2245 H   0  0  0  0  0  0  0  0  0  0  0  0  # atno 10763 bound_to 10752
  154.4377  135.5962  153.6113 H   0  0  0  0  0  0  0  0  0  0  0  0  # atno 10764 bound_to 10752
  152.9837  135.6011  154.3983 H   0  0  0  0  0  0  0  0  0  0  0  0  # atno 10765 bound_to 10752
  140.9273  133.7360  156.0886 H   0  0  0  0  0  0  0  0  0  0  0  0  # atno 11005 bound_to 11000
  146.2845  140.4470  142.8763 LP  0  0  0  0  0  0  0  0  0  0  0  0  # atno 17320 bound_to 7965
  144.8512  140.7004  143.6167 LP  0  0  0  0  0  0  0  0  0  0  0  0  # atno 17321 bound_to 7965
  139.5323  144.7172  151.5013 LP  0  0  0  0  0  0  0  0  0  0  0  0  # atno 17342 bound_to 10162
  140.6560  143.8598  150.6836 LP  0  0  0  0  0  0  0  0  0  0  0  0  # atno 17343 bound_to 10162
  157.2622  131.0569  151.2313 LP  0  0  0  0  0  0  0  0  0  0  0  0  # atno 17370 bound_to 10713
  157.3423  130.7040  149.6389 LP  0  0  0  0  0  0  0  0  0  0  0  0  # atno 17371 bound_to 10713
  140.7909  134.3618  157.5465 LP  0  0  0  0  0  0  0  0  0  0  0  0  # atno 17394 bound_to 11000
  139.8788  134.9140  156.3096 LP  0  0  0  0  0  0  0  0  0  0  0  0  # atno 17395 bound_to 11000

$$$$
