#       Name:                AV-unprocessed.smi:1123
#       Creating user name   scv26
#       Creation time:       Fri Mar 27 03:39:02 2020


#       File generated by GOLD software.
#

@<TRIPOS>MOLECULE
AV-unprocessed.smi:1123
    44    45     1
SMALL
NO_CHARGES


@<TRIPOS>ATOM
      1 ****        -3.1962  -2.4819  -1.7001 C.3            1 S1                 0.0000
      2 ****        -2.8925  -1.6434  -0.4414 C.3            1 S1                 0.0000
      3 ****        -1.3915  -1.3658  -0.2617 C.2            1 S1                 0.0000
      4 ****        -0.5501  -2.1458  -0.7095 O.2            1 S1                 0.0000
      5 ****        -1.0702  -0.2439   0.4023 N.am           1 S1                 0.0000
      6 ****         0.2874   0.1946   0.7008 C.3            1 S1                 0.0000
      7 ****         0.9321   0.8934  -0.5109 C.3            1 S1                 0.0000
      8 ****         2.3220   1.3035  -0.3181 N.3            1 S1                 0.0000
      9 ****         2.9176   1.7362  -1.5780 C.3            1 S1                 0.0000
     10 ****         4.3817   2.1751  -1.4033 C.3            1 S1                 0.0000
     11 ****         4.4539   3.2126  -0.4311 O.3            1 S1                 0.0000
     12 ****         3.9265   2.8178   0.8309 C.3            1 S1                 0.0000
     13 ****         2.4618   2.3755   0.6657 C.3            1 S1                 0.0000
     14 ****        -3.4411  -2.2432   0.7690 N.pl3          1 S1                 0.0000
     15 ****        -4.0549  -1.6703   1.8068 C.2            1 S1                 0.0000
     16 ****        -4.3862  -2.5163   2.7721 N.2            1 S1                 0.0000
     17 ****        -3.9027  -3.6752   2.2345 C.2            1 S1                 0.0000
     18 ****        -3.3182  -3.5665   1.0417 N.2            1 S1                 0.0000
     19 ****        -2.8272  -1.9870  -2.5992 H              1 S1                 0.0000
     20 ****        -4.2706  -2.6214  -1.8232 H              1 S1                 0.0000
     21 ****        -2.7383  -3.4710  -1.6563 H              1 S1                 0.0000
     22 ****        -3.3885  -0.6802  -0.5723 H              1 S1                 0.0000
     23 ****        -1.8213   0.3432   0.7347 H              1 S1                 0.0000
     24 ****         0.2263   0.8722   1.5517 H              1 S1                 0.0000
     25 ****         0.8942  -0.6544   1.0203 H              1 S1                 0.0000
     26 ****         0.8882   0.2050  -1.3560 H              1 S1                 0.0000
     27 ****         0.3304   1.7571  -0.7982 H              1 S1                 0.0000
     28 ****         2.8701   0.9266  -2.3071 H              1 S1                 0.0000
     29 ****         2.3416   2.5642  -1.9941 H              1 S1                 0.0000
     30 ****         5.0041   1.3337  -1.0948 H              1 S1                 0.0000
     31 ****         4.7834   2.5424  -2.3477 H              1 S1                 0.0000
     32 ****         4.5290   2.0092   1.2472 H              1 S1                 0.0000
     33 ****         3.9936   3.6565   1.5239 H              1 S1                 0.0000
     34 ****         1.8580   3.2335   0.3666 H              1 S1                 0.0000
     35 ****         2.0871   2.0514   1.6359 H              1 S1                 0.0000
     36 ****        -4.2598  -0.6112   1.8591 H              1 S1                 0.0000
     37 ****        -3.9782  -4.6266   2.7402 H              1 S1                 0.0000
     38 ****        -0.8409  -2.9697  -1.1959 LP             1 S1                 0.0000
     39 ****         0.4238  -1.9551  -0.5867 LP             1 S1                 0.0000
     40 ****         2.8025   0.4978   0.0283 LP             1 S1                 0.0000
     41 ****         3.9341   3.9997  -0.7634 LP             1 S1                 0.0000
     42 ****         5.4119   3.4726  -0.3107 LP             1 S1                 0.0000
     43 ****        -4.8539  -2.3535   3.6409 LP             1 S1                 0.0000
     44 ****        -2.8947  -4.2820   0.4862 LP             1 S1                 0.0000
@<TRIPOS>BOND
    1    1    2 1     
    2    1   19 1     
    3    1   20 1     
    4    1   21 1     
    5    2    3 1     
    6    2   14 1     
    7    2   22 1     
    8    3    4 2     
    9    3    5 am    
   10    5    6 1     
   11    5   23 1     
   12    6    7 1     
   13    6   24 1     
   14    6   25 1     
   15    7    8 1     
   16    7   26 1     
   17    7   27 1     
   18    8   13 1     
   19    8    9 1     
   20    9   10 1     
   21    9   28 1     
   22    9   29 1     
   23   10   11 1     
   24   10   30 1     
   25   10   31 1     
   26   11   12 1     
   27   12   13 1     
   28   12   32 1     
   29   12   33 1     
   30   13   34 1     
   31   13   35 1     
   32   14   18 1     
   33   14   15 1     
   34   15   16 2     
   35   15   36 1     
   36   16   17 1     
   37   17   18 2     
   38   17   37 1     
   39    4   38 1     
   40    4   39 1     
   41    8   40 1     
   42   11   41 1     
   43   11   42 1     
   44   16   43 1     
   45   18   44 1     
@<TRIPOS>SUBSTRUCTURE
      1 S1             1
@<TRIPOS>SET
LONE_PAIRS      STATIC     ATOMS    <user>   **** ""
7 38 39 40 41 42 43 44
DONOR_HYDROGENS      STATIC     ATOMS    <user>   **** ""
1 23
ATOM$BLUE        STATIC     ATOMS    COLORGROUP SYSTEM
7 38 39 40 41 42 43 44
ATOM$RED        STATIC     ATOMS    COLORGROUP SYSTEM
1 23
