AV-unprocessed.smi:248|AV-procd|sdf|1897|dock9
  -GOLD-   2262020563D 1   1.00000     0.00000
 Structure written by MMmdl.
 62 65  0  0  0  0  0  0  0  0  1 V2000
  152.1575  145.0622  159.1684 C   0  0  0  0  0  0  0  0  0  0  0  0
  151.9445  143.6745  159.7920 C   0  0  0  0  0  0  0  0  0  0  0  0
  152.1935  143.7265  161.3094 C   0  0  0  0  0  0  0  0  0  0  0  0
  152.8021  142.6164  159.0583 C   0  0  0  0  0  0  0  0  0  0  0  0
  152.0993  141.3396  158.8512 N   0  0  0  0  0  0  0  0  0  0  0  0
  150.6542  141.4665  158.6152 C   0  0  0  0  0  0  0  0  0  0  0  0
  150.0603  140.2562  157.8886 C   0  0  0  0  0  0  0  0  0  0  0  0
  150.4995  139.0339  158.5460 N   0  0  0  0  0  0  0  0  0  0  0  0
  149.8003  137.9429  158.1555 C   0  0  0  0  0  0  0  0  0  0  0  0
  149.7761  137.5851  156.8445 N   0  0  0  0  0  0  0  0  0  0  0  0
  149.0943  136.5010  156.4624 C   0  0  0  0  0  0  0  0  0  0  0  0
  148.3901  135.6500  157.2123 N   0  0  0  0  0  0  0  0  0  0  0  0
  148.4201  136.0062  158.5293 C   0  0  0  0  0  0  0  0  0  0  0  0
  149.0883  137.1345  159.0794 C   0  0  0  0  0  0  0  0  0  0  0  0
  148.8869  137.1880  160.4521 N   0  0  0  0  0  0  0  0  0  0  0  0
  148.1435  136.1446  160.7010 C   0  0  0  0  0  0  0  0  0  0  0  0
  147.8354  135.3641  159.6079 N   0  0  0  0  0  0  0  0  0  0  0  0
  147.0264  134.1521  159.5956 C   0  0  0  0  0  0  0  0  0  0  0  0
  145.7478  134.1581  160.4941 C   0  0  0  0  0  0  0  0  0  0  0  0
  145.0487  132.8040  160.1679 C   0  0  0  0  0  0  0  0  0  0  0  0
  143.8470  132.5460  160.8597 O   0  0  0  0  0  0  0  0  0  0  0  0
  146.1364  134.2681  161.9947 C   0  0  0  0  0  0  0  0  0  0  0  0
  144.9587  134.6166  162.9237 C   0  0  0  0  0  0  0  0  0  0  0  0
  144.3208  135.8048  162.4739 O   0  0  0  0  0  0  0  0  0  0  0  0
  143.7500  135.6681  161.1792 C   0  0  0  0  0  0  0  0  0  0  0  0
  144.8521  135.3782  160.1423 C   0  0  0  0  0  0  0  0  0  0  0  0
  151.9542  138.8389  158.6237 C   0  0  2  0  0  0  0  0  0  0  0  0
  152.3078  137.7766  159.6898 C   0  0  0  0  0  0  0  0  0  0  0  0
  152.7478  140.1466  158.8636 C   0  0  0  0  0  0  0  0  0  0  0  0
  153.9643  140.0640  159.0405 O   0  0  0  0  0  0  0  0  0  0  0  0
  153.1885  145.3963  159.2897 H   0  0  0  0  0  0  0  0  0  0  0  0
  151.5096  145.8064  159.6322 H   0  0  0  0  0  0  0  0  0  0  0  0
  151.9339  145.0537  158.1011 H   0  0  0  0  0  0  0  0  0  0  0  0
  150.8956  143.4150  159.6431 H   0  0  0  0  0  0  0  0  0  0  0  0
  153.2430  143.9225  161.5313 H   0  0  0  0  0  0  0  0  0  0  0  0
  151.9163  142.7910  161.7950 H   0  0  0  0  0  0  0  0  0  0  0  0
  151.6025  144.5146  161.7768 H   0  0  0  0  0  0  0  0  0  0  0  0
  153.1136  143.0133  158.0913 H   0  0  0  0  0  0  0  0  0  0  0  0
  153.7362  142.4630  159.6014 H   0  0  0  0  0  0  0  0  0  0  0  0
  150.1675  141.5793  159.5849 H   0  0  0  0  0  0  0  0  0  0  0  0
  150.4266  142.3688  158.0467 H   0  0  0  0  0  0  0  0  0  0  0  0
  148.9710  140.3245  157.8842 H   0  0  0  0  0  0  0  0  0  0  0  0
  150.3871  140.2543  156.8469 H   0  0  0  0  0  0  0  0  0  0  0  0
  149.1192  136.2828  155.4049 H   0  0  0  0  0  0  0  0  0  0  0  0
  147.8046  135.9087  161.6994 H   0  0  0  0  0  0  0  0  0  0  0  0
  146.7490  133.9568  158.5588 H   0  0  0  0  0  0  0  0  0  0  0  0
  147.6776  133.3258  159.8847 H   0  0  0  0  0  0  0  0  0  0  0  0
  144.8228  132.7478  159.1025 H   0  0  0  0  0  0  0  0  0  0  0  0
  145.7245  131.9746  160.3804 H   0  0  0  0  0  0  0  0  0  0  0  0
  143.2153  132.2008  160.2474 H   0  0  0  0  0  0  0  0  0  0  0  0
  146.6247  133.3529  162.3307 H   0  0  0  0  0  0  0  0  0  0  0  0
  146.8639  135.0657  162.1328 H   0  0  0  0  0  0  0  0  0  0  0  0
  144.2389  133.8034  163.0047 H   0  0  0  0  0  0  0  0  0  0  0  0
  145.3315  134.7909  163.9333 H   0  0  0  0  0  0  0  0  0  0  0  0
  142.9735  134.9049  161.1838 H   0  0  0  0  0  0  0  0  0  0  0  0
  143.2506  136.6034  160.9265 H   0  0  0  0  0  0  0  0  0  0  0  0
  145.4581  136.2807  160.0936 H   0  0  0  0  0  0  0  0  0  0  0  0
  144.4138  135.2566  159.1513 H   0  0  0  0  0  0  0  0  0  0  0  0
  152.2933  138.4667  157.6554 H   0  0  0  0  0  0  0  0  0  0  0  0
  153.3849  137.6280  159.7724 H   0  0  0  0  0  0  0  0  0  0  0  0
  151.8827  136.8021  159.4489 H   0  0  0  0  0  0  0  0  0  0  0  0
  151.9374  138.0673  160.6737 H   0  0  0  0  0  0  0  0  0  0  0  0
  1  2  1  0  0  0  0
  1 31  1  0  0  0  0
  1 32  1  0  0  0  0
  1 33  1  0  0  0  0
  2  3  1  0  0  0  0
  2  4  1  0  0  0  0
  2 34  1  0  0  0  0
  3 35  1  0  0  0  0
  3 36  1  0  0  0  0
  3 37  1  0  0  0  0
  4  5  1  0  0  0  0
  4 38  1  0  0  0  0
  4 39  1  0  0  0  0
  5 29  1  0  0  0  0
  5  6  1  0  0  0  0
  6  7  1  0  0  0  0
  6 40  1  0  0  0  0
  6 41  1  0  0  0  0
  7  8  1  0  0  0  0
  7 42  1  0  0  0  0
  7 43  1  0  0  0  0
  8  9  1  0  0  0  0
  8 27  1  0  0  0  0
  9 14  1  0  0  0  0
  9 10  2  0  0  0  0
 10 11  1  0  0  0  0
 11 12  2  0  0  0  0
 11 44  1  0  0  0  0
 12 13  1  0  0  0  0
 13 17  1  0  0  0  0
 13 14  2  0  0  0  0
 14 15  1  0  0  0  0
 15 16  2  0  0  0  0
 16 17  1  0  0  0  0
 16 45  1  0  0  0  0
 17 18  1  0  0  0  0
 18 19  1  0  0  0  0
 18 46  1  0  0  0  0
 18 47  1  0  0  0  0
 19 26  1  0  0  0  0
 19 20  1  0  0  0  0
 19 22  1  0  0  0  0
 20 21  1  0  0  0  0
 20 48  1  0  0  0  0
 20 49  1  0  0  0  0
 21 50  1  0  0  0  0
 22 23  1  0  0  0  0
 22 51  1  0  0  0  0
 22 52  1  0  0  0  0
 23 24  1  0  0  0  0
 23 53  1  0  0  0  0
 23 54  1  0  0  0  0
 24 25  1  0  0  0  0
 25 26  1  0  0  0  0
 25 55  1  0  0  0  0
 25 56  1  0  0  0  0
 26 57  1  0  0  0  0
 26 58  1  0  0  0  0
 27 28  1  0  0  0  0
 27 29  1  0  0  0  0
 27 59  1  0  0  0  0
 28 60  1  0  0  0  0
 28 61  1  0  0  0  0
 28 62  1  0  0  0  0
 29 30  2  0  0  0  0
M  END
> <s_m_source_file>
AV-unprocessed.smi

> <i_m_source_file_index>
248

> <i_lp_mmshare_version>
43012

> <i_f3d_flags>
0

> <s_epik_input>
W0NIM11bQ0hdKFtDSDNdKVtDSDJdTjFbQ0gyXVtDSDJdTihbQ0BASF0oW0NIM10pQzE9TyljKG5bY0hdbjIpYyhjMjMpbltjSF1uM1tDSDJdQzQoW0NIMl1bT0hdKVtDSDJdW0NIMl1PW0NIMl1bQ0gyXTQ=

> <s_epik_cmdline>
J2VwaWtfcHl0aG9uJywgJy1waCcsICc3LjAnLCAnLXRuJywgJzgnLCAnLW1hJywgJzIwMCcsICctbWV0YWxfYmluZGluZycsICctaW1hZScsICc8aW5maWxlLm1hZT4nLCAnLW9tYWUnLCAnPG91dGZpbGUubWFlPic=

> <r_lp_tautomer_probability>
1

> <r_epik_Ionization_Penalty>
0.000593973

> <r_epik_Ionization_Penalty_Charging>
0

> <r_epik_Ionization_Penalty_Neutral>
0.000593973

> <r_epik_State_Penalty>
0.000283267

> <r_epik_Charging_Adjusted_Penalty>
0.000283267

> <i_epik_Tot_Q>
0

> <i_epik_Tot_abs_Q>
0

> <r_epik_Metal_State_Penalty>
-0

> <b_epik_Metal_Only>
0

> <s_lp_Force_Field>
OPLS_2005

> <r_lp_Energy>
47.3368

> <b_lp_Chiralities_Consistent>
1

> <s_lp_Variant>
AV-unprocessed.smi:248-2

> <Gold.Version>
5.8.1

> <Gold.Id.Protein>
6NUR|6NUR_protein|mol2

> <Gold.PLP.Fitness>
45.9620

> <Gold.PLP.PLP>
-43.6029

> <Gold.PLP.part.hbond>
-2.1254

> <Gold.PLP.part.metal>
0.0000

> <Gold.PLP.part.buried>
-6.5893

> <Gold.PLP.part.nonpolar>
-34.9442

> <Gold.PLP.part.repulsive>
0.0186

> <Gold.PLP.ligand.clash>
0.0000

> <Gold.PLP.ligand.torsion>
1.3986

> <Gold.PLP.Chemscore.Hbond>
1.5913

> <Gold.PLP.Chemscore.CHOScore>
0.0000

> <Gold.PLP.Chemscore.Metal>
0.0000

> <Gold.Chemscore.Hbonds>
donor molecule, donor type, donor heavy atom, donor atom, acceptor molecule, acceptor atom, score
      P1  H  6931  6943       L1    15  0.64
      P1  H  7997  8008       L1    30  0.98

> <Gold.PLP.Chemscore.Internal.Correction>
0.3823

> <Gold.Rescore>
     Score         DG    S(hbond)    S(metal)    S(lipo)     H(rot)  DE(clash)    DE(int)     intcor
     13.77     -15.06       1.44        0.00     101.09       2.75       0.00       1.28       ----

> <Gold.Chemscore.Fitness>
13.7746

> <Gold.Chemscore.DG>
-15.0608

> <Gold.Chemscore.ZeroCoef>
-5.4800

> <Gold.Chemscore.Hbond>
1.4368

> <Gold.Chemscore.Metal>
0.0000

> <Gold.Chemscore.Lipo>
101.0936

> <Gold.Chemscore.Internal_Hbond>
0.0000

> <Gold.Chemscore.DEClash>
0.0029

> <Gold.Chemscore.DEInternal>
1.2833

> <Gold.Chemscore.Rot>
2.7523

> <Gold.Chemscore.Internal.Correction>
   9.000000E+99

> <Gold.Chemscore.Hbonds>
donor molecule, donor type, donor heavy atom, donor atom, acceptor molecule, acceptor atom, score
      P1  H  6931  6943       L1    15  0.55
      P1  H  7997  8008       L1    30  0.72

> <Gold.Chemscore.Hbond.Weighted>
-4.7988

> <Gold.Chemscore.Metal.Weighted>
-0.0000

> <Gold.Chemscore.Lipo.Weighted>
-11.8280

> <Gold.Chemscore.Internal_Hbond.Weighted>
0.0000

> <Gold.Chemscore.DEClash.Weighted>
0.0029

> <Gold.Chemscore.DEInternal.Weighted>
1.2833

> <Gold.Chemscore.Rot.Weighted>
7.0459

> <Gold.Chemscore.Internal.Correction.Weighted>
   9.000000E+99

> <Gold.Protein.RotatedTorsions>
[ 6907 6896 6895 6894 ] final -171.62 input  -60.11 | X-H torsion
[ 7974 7965 7964 7962 ] final -133.89 input  175.53 | X-H torsion
[ 8008 7997 7996 7995 ] final -114.00 input   59.86 | X-H torsion
[ 10167 10162 10161 10158 ] final  -25.79 input  -65.29 | X-H torsion
[ 10718 10713 10712 10709 ] final  -24.56 input   66.30 | X-H torsion
[ 10763 10752 10751 10750 ] final   36.68 input  -60.55 | X-H torsion
[ 11005 11000 10999 10996 ] final   59.12 input  -57.11 | X-H torsion

> <Gold.Protein.ActiveResidues>
 VAL166  LYS551  ARG553  GLY616  TRP617  ASP618  TYR619  PRO620  LYS621  CYS622 
 ASP623  PHE694  ASN695  SER759  ASP760  ASP761  ALA762  ILE779  LEU786  VAL792 
 PHE793  MET794  SER795  GLU796  ALA797  LYS798  CYS799  TRP800  GLU811  SER814 

> <Gold.Protein.RotatedAtoms>
  151.5267  133.3456  159.2910 H   0  0  0  0  0  0  0  0  0  0  0  0  # atno 6907 bound_to 6896
  150.8619  134.7975  159.7100 H   0  0  0  0  0  0  0  0  0  0  0  0  # atno 6908 bound_to 6896
  152.4635  134.5137  159.9813 H   0  0  0  0  0  0  0  0  0  0  0  0  # atno 6909 bound_to 6896
  144.9152  140.6946  143.5000 H   0  0  0  0  0  0  0  0  0  0  0  0  # atno 7974 bound_to 7965
  155.0294  140.0393  157.2468 H   0  0  0  0  0  0  0  0  0  0  0  0  # atno 8008 bound_to 7997
  154.7309  140.2730  155.6433 H   0  0  0  0  0  0  0  0  0  0  0  0  # atno 8009 bound_to 7997
  156.2841  140.2684  156.2009 H   0  0  0  0  0  0  0  0  0  0  0  0  # atno 8010 bound_to 7997
  140.7285  143.4234  151.0915 H   0  0  0  0  0  0  0  0  0  0  0  0  # atno 10167 bound_to 10162
  156.4760  130.4534  149.6840 H   0  0  0  0  0  0  0  0  0  0  0  0  # atno 10718 bound_to 10713
  153.0067  135.6299  154.2024 H   0  0  0  0  0  0  0  0  0  0  0  0  # atno 10763 bound_to 10752
  154.1767  135.2815  155.3066 H   0  0  0  0  0  0  0  0  0  0  0  0  # atno 10764 bound_to 10752
  154.5866  135.5630  153.7297 H   0  0  0  0  0  0  0  0  0  0  0  0  # atno 10765 bound_to 10752
  140.0327  134.5988  155.9485 H   0  0  0  0  0  0  0  0  0  0  0  0  # atno 11005 bound_to 11000
  145.3387  139.1738  143.4497 LP  0  0  0  0  0  0  0  0  0  0  0  0  # atno 17320 bound_to 7965
  146.3178  140.3425  142.8649 LP  0  0  0  0  0  0  0  0  0  0  0  0  # atno 17321 bound_to 7965
  139.7882  143.8256  152.3148 LP  0  0  0  0  0  0  0  0  0  0  0  0  # atno 17342 bound_to 10162
  139.8231  144.7287  150.9547 LP  0  0  0  0  0  0  0  0  0  0  0  0  # atno 17343 bound_to 10162
  156.3570  130.7461  151.2429 LP  0  0  0  0  0  0  0  0  0  0  0  0  # atno 17370 bound_to 10713
  157.7487  131.0361  150.4394 LP  0  0  0  0  0  0  0  0  0  0  0  0  # atno 17371 bound_to 10713
  141.1840  133.6552  156.5139 LP  0  0  0  0  0  0  0  0  0  0  0  0  # atno 17394 bound_to 11000
  140.4199  134.7197  157.4884 LP  0  0  0  0  0  0  0  0  0  0  0  0  # atno 17395 bound_to 11000

$$$$
