AV-unprocessed.smi:2033|AV-procd|sdf|8260|dock1
  -GOLD-   2272010533D 1   1.00000     0.00000
 Structure written by MMmdl.
 33 34  0  0  0  0  0  0  0  0  1 V2000
  152.4083  137.5063  158.1920 C   0  0  0  0  0  0  0  0  0  0  0  0
  151.4308  136.7162  157.3908 C   0  0  0  0  0  0  0  0  0  0  0  0
  150.6489  135.7702  157.9255 N   0  0  0  0  0  0  0  0  0  0  0  0
  149.8234  135.1747  156.9819 N   0  0  0  0  0  0  0  0  0  0  0  0
  150.0088  135.6911  155.7593 C   0  0  0  0  0  0  0  0  0  0  0  0
  149.2959  135.2672  154.6069 N   0  0  0  0  0  0  0  0  0  0  0  0
  148.4942  134.1967  154.4690 C   0  0  0  0  0  0  0  0  0  0  0  0
  148.2391  133.3786  155.3533 O   0  0  0  0  0  0  0  0  0  0  0  0
  147.9964  134.1223  153.2261 N   0  0  0  0  0  0  0  0  0  0  0  0
  147.1234  133.0639  152.7155 C   0  0  1  0  0  0  0  0  0  0  0  0
  146.8158  133.3008  151.2199 C   0  0  0  0  0  0  0  0  0  0  0  0
  145.5300  132.6148  150.7310 C   0  0  0  0  0  0  0  0  0  0  0  0
  145.5485  131.0809  150.8060 C   0  0  0  0  0  0  0  0  0  0  0  0
  145.6207  130.5335  152.2418 C   0  0  0  0  0  0  0  0  0  0  0  0
  146.9690  130.5824  152.7932 N   0  0  0  0  0  0  0  0  0  0  0  0
  147.7119  131.6749  153.0277 C   0  0  0  0  0  0  0  0  0  0  0  0
  148.8521  131.5687  153.4795 O   0  0  0  0  0  0  0  0  0  0  0  0
  151.2159  136.9616  155.6623 S   0  0  0  0  0  0  0  0  0  0  0  0
  152.4786  137.1170  159.2083 H   0  0  0  0  0  0  0  0  0  0  0  0
  152.0943  138.5490  158.2378 H   0  0  0  0  0  0  0  0  0  0  0  0
  153.3947  137.4568  157.7305 H   0  0  0  0  0  0  0  0  0  0  0  0
  149.4165  135.8439  153.7874 H   0  0  0  0  0  0  0  0  0  0  0  0
  148.2630  134.8367  152.5641 H   0  0  0  0  0  0  0  0  0  0  0  0
  146.1879  133.1299  153.2745 H   0  0  0  0  0  0  0  0  0  0  0  0
  146.7003  134.3698  151.0358 H   0  0  0  0  0  0  0  0  0  0  0  0
  147.6632  132.9878  150.6081 H   0  0  0  0  0  0  0  0  0  0  0  0
  144.6783  132.9967  151.2953 H   0  0  0  0  0  0  0  0  0  0  0  0
  145.3545  132.9082  149.6956 H   0  0  0  0  0  0  0  0  0  0  0  0
  144.6317  130.7115  150.3451 H   0  0  0  0  0  0  0  0  0  0  0  0
  146.3660  130.6803  150.2049 H   0  0  0  0  0  0  0  0  0  0  0  0
  144.9207  131.0525  152.8984 H   0  0  0  0  0  0  0  0  0  0  0  0
  145.3170  129.4864  152.2389 H   0  0  0  0  0  0  0  0  0  0  0  0
  147.3895  129.6907  153.0116 H   0  0  0  0  0  0  0  0  0  0  0  0
  1  2  1  0  0  0  0
  1 19  1  0  0  0  0
  1 20  1  0  0  0  0
  1 21  1  0  0  0  0
  2 18  1  0  0  0  0
  2  3  2  0  0  0  0
  3  4  1  0  0  0  0
  4  5  2  0  0  0  0
  5  6  1  0  0  0  0
  5 18  1  0  0  0  0
  6  7  1  0  0  0  0
  6 22  1  0  0  0  0
  7  8  2  0  0  0  0
  7  9  1  0  0  0  0
  9 10  1  0  0  0  0
  9 23  1  0  0  0  0
 10 16  1  0  0  0  0
 10 11  1  0  0  0  0
 10 24  1  0  0  0  0
 11 12  1  0  0  0  0
 11 25  1  0  0  0  0
 11 26  1  0  0  0  0
 12 13  1  0  0  0  0
 12 27  1  0  0  0  0
 12 28  1  0  0  0  0
 13 14  1  0  0  0  0
 13 29  1  0  0  0  0
 13 30  1  0  0  0  0
 14 15  1  0  0  0  0
 14 31  1  0  0  0  0
 14 32  1  0  0  0  0
 15 16  1  0  0  0  0
 15 33  1  0  0  0  0
 16 17  2  0  0  0  0
M  END
> <s_m_source_file>
AV-unprocessed.smi

> <i_m_source_file_index>
2033

> <i_lp_mmshare_version>
43012

> <i_f3d_flags>
0

> <s_epik_input>
W0NIM11jMW5uYyhzMSlbTkhdQyg9TylbTkhdW0NAQEhdMltDSDJdW0NIMl1bQ0gyXVtDSDJdW05IXUMyPU8=

> <s_epik_cmdline>
J2VwaWtfcHl0aG9uJywgJy1waCcsICc3LjAnLCAnLXRuJywgJzgnLCAnLW1hJywgJzIwMCcsICctbWV0YWxfYmluZGluZycsICctaW1hZScsICc8aW5maWxlLm1hZT4nLCAnLW9tYWUnLCAnPG91dGZpbGUubWFlPic=

> <r_lp_tautomer_probability>
1

> <r_epik_Ionization_Penalty>
0.00079266

> <r_epik_Ionization_Penalty_Charging>
0

> <r_epik_Ionization_Penalty_Neutral>
0.00079266

> <r_epik_State_Penalty>
-0

> <r_epik_Charging_Adjusted_Penalty>
0

> <i_epik_Tot_Q>
0

> <i_epik_Tot_abs_Q>
0

> <r_epik_Metal_State_Penalty>
0.265831

> <b_epik_Metal_Only>
0

> <s_lp_Force_Field>
OPLS_2005

> <r_lp_Energy>
9.00356

> <b_lp_Chiralities_Consistent>
1

> <s_lp_Variant>
AV-unprocessed.smi:2033-2

> <Gold.Version>
5.8.1

> <Gold.Id.Protein>
6NUR|6NUR_protein|mol2

> <Gold.PLP.Fitness>
31.3520

> <Gold.PLP.PLP>
-23.7224

> <Gold.PLP.part.hbond>
-3.3566

> <Gold.PLP.part.metal>
0.0000

> <Gold.PLP.part.buried>
-3.6938

> <Gold.PLP.part.nonpolar>
-16.8537

> <Gold.PLP.part.repulsive>
0.1398

> <Gold.PLP.ligand.clash>
0.0000

> <Gold.PLP.ligand.torsion>
0.0750

> <Gold.PLP.Chemscore.Hbond>
2.5840

> <Gold.PLP.Chemscore.CHOScore>
0.0000

> <Gold.PLP.Chemscore.Metal>
0.0000

> <Gold.Chemscore.Hbonds>
donor molecule, donor type, donor heavy atom, donor atom, acceptor molecule, acceptor atom, score
      L1  H     6    22       P1  7948  0.99
      L1  H     9    23       P1  7948  1.00
      P1  H  6896  6907       L1     3  0.58

> <Gold.PLP.Chemscore.Internal.Correction>
0.0276

> <Gold.Rescore>
     Score         DG    S(hbond)    S(metal)    S(lipo)     H(rot)  DE(clash)    DE(int)     intcor
     12.03     -17.11       2.52        0.00      49.44       1.00       0.02       5.06       ----

> <Gold.Chemscore.Fitness>
12.0345

> <Gold.Chemscore.DG>
-17.1133

> <Gold.Chemscore.ZeroCoef>
-5.4800

> <Gold.Chemscore.Hbond>
2.5177

> <Gold.Chemscore.Metal>
0.0000

> <Gold.Chemscore.Lipo>
49.4367

> <Gold.Chemscore.Internal_Hbond>
0.0000

> <Gold.Chemscore.DEClash>
0.0173

> <Gold.Chemscore.DEInternal>
5.0615

> <Gold.Chemscore.Rot>
1.0000

> <Gold.Chemscore.Internal.Correction>
   9.000000E+99

> <Gold.Chemscore.Hbonds>
donor molecule, donor type, donor heavy atom, donor atom, acceptor molecule, acceptor atom, score
      L1  H     6    22       P1  7948  0.50
      L1  H     9    23       P1  7948  0.50
      P1  H  6896  6907       L1     3  0.49

> <Gold.Chemscore.Hbond.Weighted>
-8.4092

> <Gold.Chemscore.Metal.Weighted>
-0.0000

> <Gold.Chemscore.Lipo.Weighted>
-5.7841

> <Gold.Chemscore.Internal_Hbond.Weighted>
0.0000

> <Gold.Chemscore.DEClash.Weighted>
0.0173

> <Gold.Chemscore.DEInternal.Weighted>
5.0615

> <Gold.Chemscore.Rot.Weighted>
2.5600

> <Gold.Chemscore.Internal.Correction.Weighted>
   9.000000E+99

> <Gold.Protein.RotatedTorsions>
[ 6907 6896 6895 6894 ] final  -59.53 input  -60.11 | X-H torsion
[ 7974 7965 7964 7962 ] final -151.28 input  175.53 | X-H torsion
[ 8008 7997 7996 7995 ] final   97.42 input   59.86 | X-H torsion
[ 10167 10162 10161 10158 ] final   73.61 input  -65.29 | X-H torsion
[ 10718 10713 10712 10709 ] final  164.52 input   66.30 | X-H torsion
[ 10763 10752 10751 10750 ] final  -50.23 input  -60.55 | X-H torsion
[ 11005 11000 10999 10996 ] final   60.31 input  -57.11 | X-H torsion

> <Gold.Protein.ActiveResidues>
 VAL166  LYS551  ARG553  GLY616  TRP617  ASP618  TYR619  PRO620  LYS621  CYS622 
 ASP623  PHE694  ASN695  SER759  ASP760  ASP761  ALA762  ILE779  LEU786  VAL792 
 PHE793  MET794  SER795  GLU796  ALA797  LYS798  CYS799  TRP800  GLU811  SER814 

> <Gold.Protein.RotatedAtoms>
  150.7923  134.6956  159.6521 H   0  0  0  0  0  0  0  0  0  0  0  0  # atno 6907 bound_to 6896
  152.4031  134.6250  160.0070 H   0  0  0  0  0  0  0  0  0  0  0  0  # atno 6908 bound_to 6896
  151.6515  133.3284  159.3189 H   0  0  0  0  0  0  0  0  0  0  0  0  # atno 6909 bound_to 6896
  144.7859  140.4819  143.5807 H   0  0  0  0  0  0  0  0  0  0  0  0  # atno 7974 bound_to 7965
  156.0900  140.3258  155.7803 H   0  0  0  0  0  0  0  0  0  0  0  0  # atno 8008 bound_to 7997
  155.5012  140.0569  157.2956 H   0  0  0  0  0  0  0  0  0  0  0  0  # atno 8009 bound_to 7997
  154.4632  140.1976  156.0205 H   0  0  0  0  0  0  0  0  0  0  0  0  # atno 8010 bound_to 7997
  140.0226  144.5529  150.7570 H   0  0  0  0  0  0  0  0  0  0  0  0  # atno 10167 bound_to 10162
  157.0931  131.0423  151.2529 H   0  0  0  0  0  0  0  0  0  0  0  0  # atno 10718 bound_to 10713
  154.1069  135.6555  153.4878 H   0  0  0  0  0  0  0  0  0  0  0  0  # atno 10763 bound_to 10752
  153.0269  135.5238  154.7231 H   0  0  0  0  0  0  0  0  0  0  0  0  # atno 10764 bound_to 10752
  154.6399  135.2987  155.0085 H   0  0  0  0  0  0  0  0  0  0  0  0  # atno 10765 bound_to 10752
  140.0241  134.6109  155.9598 H   0  0  0  0  0  0  0  0  0  0  0  0  # atno 11005 bound_to 11000
  145.5924  139.1497  143.3175 LP  0  0  0  0  0  0  0  0  0  0  0  0  # atno 17320 bound_to 7965
  146.2090  140.6049  142.9068 LP  0  0  0  0  0  0  0  0  0  0  0  0  # atno 17321 bound_to 7965
  140.7336  143.2719  151.3862 LP  0  0  0  0  0  0  0  0  0  0  0  0  # atno 17342 bound_to 10162
  139.6130  144.1061  152.2317 LP  0  0  0  0  0  0  0  0  0  0  0  0  # atno 17343 bound_to 10162
  157.4704  130.7705  149.7318 LP  0  0  0  0  0  0  0  0  0  0  0  0  # atno 17370 bound_to 10713
  155.9893  130.3953  150.3080 LP  0  0  0  0  0  0  0  0  0  0  0  0  # atno 17371 bound_to 10713
  141.1792  133.6544  156.4951 LP  0  0  0  0  0  0  0  0  0  0  0  0  # atno 17394 bound_to 11000
  140.4336  134.7079  157.4955 LP  0  0  0  0  0  0  0  0  0  0  0  0  # atno 17395 bound_to 11000

$$$$
