AV-unprocessed.smi:3287|AV-procd|sdf|12601|dock6
  -GOLD-   2272018523D 1   1.00000     0.00000
 Structure written by MMmdl.
 43 44  0  0  0  0  0  0  0  0  2 V2000
  144.1254  132.5247  149.5119 C   0  0  0  0  0  0  0  0  0  0  0  0
  145.0430  133.4922  150.2805 C   0  0  1  0  0  0  0  0  0  0  0  0
  144.3894  134.8871  150.3518 C   0  0  0  0  0  0  0  0  0  0  0  0
  145.2665  135.9013  151.0992 C   0  0  0  0  0  0  0  0  0  0  0  0
  145.6014  135.4048  152.5177 C   0  0  2  0  0  0  0  0  0  0  0  0
  146.4856  136.3530  153.2307 N   0  3  0  0  0  0  0  0  0  0  0  0
  145.9288  137.7088  153.4275 C   0  0  0  0  0  0  0  0  0  0  0  0
  146.6076  138.7357  152.5046 C   0  0  2  0  0  0  0  0  0  0  0  0
  147.3751  138.0443  151.5383 O   0  0  0  0  0  0  0  0  0  0  0  0
  147.4557  139.7127  153.3038 C   0  0  0  0  0  0  0  0  0  0  0  0
  148.5992  139.2662  153.9985 C   0  0  0  0  0  0  0  0  0  0  0  0
  149.3610  140.2084  154.7188 C   0  0  0  0  0  0  0  0  0  0  0  0
  149.0538  141.5218  154.7765 N   0  0  0  0  0  0  0  0  0  0  0  0
  147.9595  141.9446  154.1087 C   0  0  0  0  0  0  0  0  0  0  0  0
  147.1309  141.0856  153.3595 C   0  0  0  0  0  0  0  0  0  0  0  0
  146.2719  134.0223  152.4446 C   0  0  0  0  0  0  0  0  0  0  0  0
  145.4029  132.9858  151.7024 C   0  0  2  0  0  0  0  0  0  0  0  0
  146.1139  131.6207  151.6910 C   0  0  0  0  0  0  0  0  0  0  0  0
  143.2038  132.3312  150.0613 H   0  0  0  0  0  0  0  0  0  0  0  0
  144.6114  131.5679  149.3228 H   0  0  0  0  0  0  0  0  0  0  0  0
  143.8508  132.9361  148.5402 H   0  0  0  0  0  0  0  0  0  0  0  0
  145.9683  133.5889  149.7102 H   0  0  0  0  0  0  0  0  0  0  0  0
  144.1907  135.2563  149.3448 H   0  0  0  0  0  0  0  0  0  0  0  0
  143.4200  134.8139  150.8472 H   0  0  0  0  0  0  0  0  0  0  0  0
  146.1858  136.0715  150.5370 H   0  0  0  0  0  0  0  0  0  0  0  0
  144.7457  136.8580  151.1378 H   0  0  0  0  0  0  0  0  0  0  0  0
  144.6781  135.3013  153.0901 H   0  0  0  0  0  0  0  0  0  0  0  0
  146.6630  135.9740  154.1503 H   0  0  0  0  0  0  0  0  0  0  0  0
  144.8591  137.6886  153.2185 H   0  0  0  0  0  0  0  0  0  0  0  0
  146.0456  138.0046  154.4714 H   0  0  0  0  0  0  0  0  0  0  0  0
  145.8425  139.3003  151.9695 H   0  0  0  0  0  0  0  0  0  0  0  0
  147.8544  137.3549  151.9734 H   0  0  0  0  0  0  0  0  0  0  0  0
  148.8922  138.2266  153.9836 H   0  0  0  0  0  0  0  0  0  0  0  0
  150.2417  139.8983  155.2613 H   0  0  0  0  0  0  0  0  0  0  0  0
  147.7380  142.9999  154.1711 H   0  0  0  0  0  0  0  0  0  0  0  0
  146.2687  141.4773  152.8402 H   0  0  0  0  0  0  0  0  0  0  0  0
  147.2393  134.1087  151.9469 H   0  0  0  0  0  0  0  0  0  0  0  0
  146.4788  133.6673  153.4554 H   0  0  0  0  0  0  0  0  0  0  0  0
  144.4758  132.8670  152.2656 H   0  0  0  0  0  0  0  0  0  0  0  0
  147.0131  131.6464  151.0747 H   0  0  0  0  0  0  0  0  0  0  0  0
  145.4677  130.8307  151.3098 H   0  0  0  0  0  0  0  0  0  0  0  0
  146.4112  131.3255  152.6977 H   0  0  0  0  0  0  0  0  0  0  0  0
  147.3647  136.4186  152.7380 H   0  0  0  0  0  0  0  0  0  0  0  0
  1  2  1  0  0  0  0
  1 19  1  0  0  0  0
  1 20  1  0  0  0  0
  1 21  1  0  0  0  0
  2 17  1  0  0  0  0
  2  3  1  0  0  0  0
  2 22  1  0  0  0  0
  3  4  1  0  0  0  0
  3 23  1  0  0  0  0
  3 24  1  0  0  0  0
  4  5  1  0  0  0  0
  4 25  1  0  0  0  0
  4 26  1  0  0  0  0
  5  6  1  0  0  0  0
  5 16  1  0  0  0  0
  5 27  1  0  0  0  0
  6  7  1  0  0  0  0
  6 28  1  0  0  0  0
  6 43  1  0  0  0  0
  7  8  1  0  0  0  0
  7 29  1  0  0  0  0
  7 30  1  0  0  0  0
  8  9  1  0  0  0  0
  8 10  1  0  0  0  0
  8 31  1  0  0  0  0
  9 32  1  0  0  0  0
 10 15  1  0  0  0  0
 10 11  2  0  0  0  0
 11 12  1  0  0  0  0
 11 33  1  0  0  0  0
 12 13  2  0  0  0  0
 12 34  1  0  0  0  0
 13 14  1  0  0  0  0
 14 15  2  0  0  0  0
 14 35  1  0  0  0  0
 15 36  1  0  0  0  0
 16 17  1  0  0  0  0
 16 37  1  0  0  0  0
 16 38  1  0  0  0  0
 17 18  1  0  0  0  0
 17 39  1  0  0  0  0
 18 40  1  0  0  0  0
 18 41  1  0  0  0  0
 18 42  1  0  0  0  0
M  CHG  1   6   1
M  END
> <s_m_source_file>
AV-unprocessed.smi

> <i_m_source_file_index>
3287

> <i_lp_mmshare_version>
43012

> <i_f3d_flags>
0

> <s_epik_input>
W0NIM11bQ0BASF0xW0NIMl1bQ0gyXVtDQEhdKFtDSDJdW0NASF0xW0NIM10pW05IXVtDSDJdW0NASF0oW09IXSljMltjSF1bY0hdbltjSF1bY0hdMg==

> <s_epik_cmdline>
J2VwaWtfcHl0aG9uJywgJy1waCcsICc3LjAnLCAnLXRuJywgJzgnLCAnLW1hJywgJzIwMCcsICctbWV0YWxfYmluZGluZycsICctaW1hZScsICc8aW5maWxlLm1hZT4nLCAnLW9tYWUnLCAnPG91dGZpbGUubWFlPic=

> <r_lp_tautomer_probability>
1

> <r_epik_Ionization_Penalty>
0.00537262

> <r_epik_Ionization_Penalty_Charging>
0.00321624

> <r_epik_Ionization_Penalty_Neutral>
0.00215638

> <r_epik_State_Penalty>
-0

> <r_epik_Charging_Adjusted_Penalty>
0.00321624

> <i_epik_Tot_Q>
1

> <i_epik_Tot_abs_Q>
1

> <r_epik_Metal_State_Penalty>
-0

> <b_epik_Metal_Only>
0

> <s_lp_Force_Field>
OPLS_2005

> <r_lp_Energy>
15.7848

> <b_lp_Chiralities_Consistent>
1

> <s_lp_Variant>
AV-unprocessed.smi:3287-12

> <Gold.Version>
5.8.1

> <Gold.Id.Protein>
6NUR|6NUR_protein|mol2

> <Gold.PLP.Fitness>
50.1325

> <Gold.PLP.PLP>
-37.9040

> <Gold.PLP.part.hbond>
-3.4466

> <Gold.PLP.part.metal>
0.0000

> <Gold.PLP.part.buried>
-2.2380

> <Gold.PLP.part.nonpolar>
-31.4922

> <Gold.PLP.part.repulsive>
0.1437

> <Gold.PLP.ligand.clash>
0.0000

> <Gold.PLP.ligand.torsion>
1.0721

> <Gold.PLP.Chemscore.Hbond>
3.7960

> <Gold.PLP.Chemscore.CHOScore>
0.9905

> <Gold.PLP.Chemscore.Metal>
0.0000

> <Gold.Chemscore.Hbonds>
donor molecule, donor type, donor heavy atom, donor atom, acceptor molecule, acceptor atom, score
      L1  H     6    43       P1  7948  2.00
      L1  H     9    32       P1  7948  0.91
      P1  H  7954  7966       L1     9  0.85
      L1  C    14    35       P1  8028  0.97

> <Gold.PLP.Chemscore.Internal.Correction>
0.0133

> <Gold.Rescore>
     Score         DG    S(hbond)    S(metal)    S(lipo)     H(rot)  DE(clash)    DE(int)     intcor
     18.41     -19.66       2.26        0.00      98.45       1.90       0.13       1.12       ----

> <Gold.Chemscore.Fitness>
18.4120

> <Gold.Chemscore.DG>
-19.6579

> <Gold.Chemscore.ZeroCoef>
-5.4800

> <Gold.Chemscore.Hbond>
2.2551

> <Gold.Chemscore.Metal>
0.0000

> <Gold.Chemscore.Lipo>
98.4499

> <Gold.Chemscore.Internal_Hbond>
0.0000

> <Gold.Chemscore.DEClash>
0.1265

> <Gold.Chemscore.DEInternal>
1.1194

> <Gold.Chemscore.Rot>
1.9035

> <Gold.Chemscore.Internal.Correction>
   9.000000E+99

> <Gold.Chemscore.Hbonds>
donor molecule, donor type, donor heavy atom, donor atom, acceptor molecule, acceptor atom, score
      L1  H     6    43       P1  7948  1.00
      L1  H     9    32       P1  7948  0.84
      P1  H  7954  7966       L1     9  0.15

> <Gold.Chemscore.Hbond.Weighted>
-7.5321

> <Gold.Chemscore.Metal.Weighted>
-0.0000

> <Gold.Chemscore.Lipo.Weighted>
-11.5186

> <Gold.Chemscore.Internal_Hbond.Weighted>
0.0000

> <Gold.Chemscore.DEClash.Weighted>
0.1265

> <Gold.Chemscore.DEInternal.Weighted>
1.1194

> <Gold.Chemscore.Rot.Weighted>
4.8729

> <Gold.Chemscore.Internal.Correction.Weighted>
   9.000000E+99

> <Gold.Protein.RotatedTorsions>
[ 6907 6896 6895 6894 ] final  -89.82 input  -60.11 | X-H torsion
[ 7974 7965 7964 7962 ] final  177.23 input  175.53 | X-H torsion
[ 8008 7997 7996 7995 ] final  -73.13 input   59.86 | X-H torsion
[ 10167 10162 10161 10158 ] final   57.47 input  -65.29 | X-H torsion
[ 10718 10713 10712 10709 ] final  -19.56 input   66.30 | X-H torsion
[ 10763 10752 10751 10750 ] final  -92.65 input  -60.55 | X-H torsion
[ 11005 11000 10999 10996 ] final  116.88 input  -57.11 | X-H torsion

> <Gold.Protein.ActiveResidues>
 VAL166  LYS551  ARG553  GLY616  TRP617  ASP618  TYR619  PRO620  LYS621  CYS622 
 ASP623  PHE694  ASN695  SER759  ASP760  ASP761  ALA762  ILE779  LEU786  VAL792 
 PHE793  MET794  SER795  GLU796  ALA797  LYS798  CYS799  TRP800  GLU811  SER814 

> <Gold.Protein.RotatedAtoms>
  150.6876  134.2528  159.4517 H   0  0  0  0  0  0  0  0  0  0  0  0  # atno 6907 bound_to 6896
  152.0464  134.9678  160.0583 H   0  0  0  0  0  0  0  0  0  0  0  0  # atno 6908 bound_to 6896
  152.1159  133.4292  159.4690 H   0  0  0  0  0  0  0  0  0  0  0  0  # atno 6909 bound_to 6896
  144.7172  140.0216  143.6440 H   0  0  0  0  0  0  0  0  0  0  0  0  # atno 7974 bound_to 7965
  154.5222  140.0785  156.8192 H   0  0  0  0  0  0  0  0  0  0  0  0  # atno 8008 bound_to 7997
  155.3552  140.3415  155.4221 H   0  0  0  0  0  0  0  0  0  0  0  0  # atno 8009 bound_to 7997
  156.1693  140.1614  156.8463 H   0  0  0  0  0  0  0  0  0  0  0  0  # atno 8010 bound_to 7997
  140.1976  144.4021  150.6543 H   0  0  0  0  0  0  0  0  0  0  0  0  # atno 10167 bound_to 10162
  156.5439  130.4685  149.6485 H   0  0  0  0  0  0  0  0  0  0  0  0  # atno 10718 bound_to 10713
  154.6882  135.5223  153.8355 H   0  0  0  0  0  0  0  0  0  0  0  0  # atno 10763 bound_to 10752
  153.0613  135.6569  154.0467 H   0  0  0  0  0  0  0  0  0  0  0  0  # atno 10764 bound_to 10752
  154.0345  135.2982  155.3343 H   0  0  0  0  0  0  0  0  0  0  0  0  # atno 10765 bound_to 10752
  139.9056  134.9603  156.7265 H   0  0  0  0  0  0  0  0  0  0  0  0  # atno 11005 bound_to 11000
  146.0176  139.3223  143.0832 LP  0  0  0  0  0  0  0  0  0  0  0  0  # atno 17320 bound_to 7965
  145.8607  140.9477  143.0702 LP  0  0  0  0  0  0  0  0  0  0  0  0  # atno 17321 bound_to 7965
  140.6412  143.2204  151.6285 LP  0  0  0  0  0  0  0  0  0  0  0  0  # atno 17342 bound_to 10162
  139.5230  144.3146  152.0963 LP  0  0  0  0  0  0  0  0  0  0  0  0  # atno 17343 bound_to 10162
  156.2946  130.7143  151.2000 LP  0  0  0  0  0  0  0  0  0  0  0  0  # atno 17370 bound_to 10713
  157.7400  131.0522  150.5194 LP  0  0  0  0  0  0  0  0  0  0  0  0  # atno 17371 bound_to 10713
  140.6959  133.9349  155.7994 LP  0  0  0  0  0  0  0  0  0  0  0  0  # atno 17394 bound_to 11000
  141.0407  134.0625  157.3905 LP  0  0  0  0  0  0  0  0  0  0  0  0  # atno 17395 bound_to 11000

$$$$
