AV-unprocessed.smi:1029|AV-procd|sdf|4475|dock1
  -GOLD-   22720 2453D 1   1.00000     0.00000
 Structure written by MMmdl.
 46 47  0  0  0  0  0  0  0  0  2 V2000
  151.7294  141.2034  157.5196 C   0  0  0  0  0  0  0  0  0  0  0  0
  151.3729  140.3491  156.3391 C   0  0  0  0  0  0  0  0  0  0  0  0
  150.1040  140.1886  155.7154 C   0  0  0  0  0  0  0  0  0  0  0  0
  150.3733  139.3053  154.7040 C   0  0  0  0  0  0  0  0  0  0  0  0
  149.5182  138.7879  153.7837 N   0  0  0  0  0  0  0  0  0  0  0  0
  148.2577  139.1596  153.4993 C   0  0  0  0  0  0  0  0  0  0  0  0
  147.6479  140.0877  154.0313 O   0  0  0  0  0  0  0  0  0  0  0  0
  147.7291  138.3845  152.5413 N   0  0  0  0  0  0  0  0  0  0  0  0
  146.3773  138.5176  152.0081 C   0  0  0  0  0  0  0  0  0  0  0  0
  145.4386  137.4123  152.5339 C   0  0  1  0  0  0  0  0  0  0  0  0
  144.1008  137.8522  152.3991 O   0  0  0  0  0  0  0  0  0  0  0  0
  145.5781  136.1133  151.7134 C   0  0  0  0  0  0  0  0  0  0  0  0
  146.6469  135.2211  152.2333 N   0  3  2  0  0  0  0  0  0  0  0  0
  146.6678  133.8829  151.5848 C   0  0  0  0  0  0  0  0  0  0  0  0
  147.8730  133.0549  152.0613 C   0  0  0  0  0  0  0  0  0  0  0  0
  147.8816  132.9084  153.5922 C   0  0  1  0  0  0  0  0  0  0  0  0
  149.0991  132.1108  154.0804 C   0  0  0  0  0  0  0  0  0  0  0  0
  147.8212  134.3045  154.2340 C   0  0  0  0  0  0  0  0  0  0  0  0
  146.6169  135.1074  153.7141 C   0  0  0  0  0  0  0  0  0  0  0  0
  151.6794  138.9442  154.7019 O   0  0  0  0  0  0  0  0  0  0  0  0
  152.3112  139.6212  155.7516 N   0  0  0  0  0  0  0  0  0  0  0  0
  150.8709  141.7823  157.8603 H   0  0  0  0  0  0  0  0  0  0  0  0
  152.5250  141.9060  157.2706 H   0  0  0  0  0  0  0  0  0  0  0  0
  152.0718  140.5938  158.3563 H   0  0  0  0  0  0  0  0  0  0  0  0
  149.1664  140.6522  155.9821 H   0  0  0  0  0  0  0  0  0  0  0  0
  149.8883  138.0215  153.2411 H   0  0  0  0  0  0  0  0  0  0  0  0
  148.3020  137.6487  152.1543 H   0  0  0  0  0  0  0  0  0  0  0  0
  145.9681  139.5132  152.1903 H   0  0  0  0  0  0  0  0  0  0  0  0
  146.4724  138.4268  150.9256 H   0  0  0  0  0  0  0  0  0  0  0  0
  145.6510  137.2230  153.5858 H   0  0  0  0  0  0  0  0  0  0  0  0
  144.0755  138.7898  152.5178 H   0  0  0  0  0  0  0  0  0  0  0  0
  144.6197  135.5914  151.7296 H   0  0  0  0  0  0  0  0  0  0  0  0
  145.7807  136.3390  150.6654 H   0  0  0  0  0  0  0  0  0  0  0  0
  145.7395  133.3541  151.8070 H   0  0  0  0  0  0  0  0  0  0  0  0
  146.7191  133.9852  150.5014 H   0  0  0  0  0  0  0  0  0  0  0  0
  147.8501  132.0707  151.5921 H   0  0  0  0  0  0  0  0  0  0  0  0
  148.7962  133.5326  151.7294 H   0  0  0  0  0  0  0  0  0  0  0  0
  146.9859  132.3593  153.8866 H   0  0  0  0  0  0  0  0  0  0  0  0
  150.0329  132.6096  153.8190 H   0  0  0  0  0  0  0  0  0  0  0  0
  149.1188  131.1146  153.6376 H   0  0  0  0  0  0  0  0  0  0  0  0
  149.0792  131.9884  155.1637 H   0  0  0  0  0  0  0  0  0  0  0  0
  147.7611  134.2151  155.3193 H   0  0  0  0  0  0  0  0  0  0  0  0
  148.7410  134.8505  154.0197 H   0  0  0  0  0  0  0  0  0  0  0  0
  146.6347  136.1022  154.1611 H   0  0  0  0  0  0  0  0  0  0  0  0
  145.6838  134.6354  154.0264 H   0  0  0  0  0  0  0  0  0  0  0  0
  147.5218  135.6724  152.0056 H   0  0  0  0  0  0  0  0  0  0  0  0
  1  2  1  0  0  0  0
  1 22  1  0  0  0  0
  1 23  1  0  0  0  0
  1 24  1  0  0  0  0
  2 21  2  0  0  0  0
  2  3  1  0  0  0  0
  3  4  2  0  0  0  0
  3 25  1  0  0  0  0
  4  5  1  0  0  0  0
  4 20  1  0  0  0  0
  5  6  1  0  0  0  0
  5 26  1  0  0  0  0
  6  7  2  0  0  0  0
  6  8  1  0  0  0  0
  8  9  1  0  0  0  0
  8 27  1  0  0  0  0
  9 10  1  0  0  0  0
  9 28  1  0  0  0  0
  9 29  1  0  0  0  0
 10 11  1  0  0  0  0
 10 12  1  0  0  0  0
 10 30  1  0  0  0  0
 11 31  1  0  0  0  0
 12 13  1  0  0  0  0
 12 32  1  0  0  0  0
 12 33  1  0  0  0  0
 13 19  1  0  0  0  0
 13 14  1  0  0  0  0
 13 46  1  0  0  0  0
 14 15  1  0  0  0  0
 14 34  1  0  0  0  0
 14 35  1  0  0  0  0
 15 16  1  0  0  0  0
 15 36  1  0  0  0  0
 15 37  1  0  0  0  0
 16 17  1  0  0  0  0
 16 18  1  0  0  0  0
 16 38  1  0  0  0  0
 17 39  1  0  0  0  0
 17 40  1  0  0  0  0
 17 41  1  0  0  0  0
 18 19  1  0  0  0  0
 18 42  1  0  0  0  0
 18 43  1  0  0  0  0
 19 44  1  0  0  0  0
 19 45  1  0  0  0  0
 20 21  1  0  0  0  0
M  CHG  1  13   1
M  END
> <s_m_source_file>
AV-unprocessed.smi

> <i_m_source_file_index>
1029

> <i_lp_mmshare_version>
43012

> <i_f3d_flags>
0

> <s_epik_input>
W0NIM11jMVtjSF1jKG9uMSlbTkhdQyg9TylbTkhdW0NIMl1bQ0BIXShbT0hdKVtDSDJdTjJbQ0gyXVtDSDJdW0NIXShbQ0gzXSlbQ0gyXVtDSDJdMg==

> <s_epik_cmdline>
J2VwaWtfcHl0aG9uJywgJy1waCcsICc3LjAnLCAnLXRuJywgJzgnLCAnLW1hJywgJzIwMCcsICctbWV0YWxfYmluZGluZycsICctaW1hZScsICc8aW5maWxlLm1hZT4nLCAnLW9tYWUnLCAnPG91dGZpbGUubWFlPic=

> <r_lp_tautomer_probability>
1

> <r_epik_Ionization_Penalty>
0.00211787

> <r_epik_Ionization_Penalty_Charging>
0.00153238

> <r_epik_Ionization_Penalty_Neutral>
0.000585488

> <r_epik_State_Penalty>
-0

> <r_epik_Charging_Adjusted_Penalty>
0.00153238

> <i_epik_Tot_Q>
1

> <i_epik_Tot_abs_Q>
1

> <r_epik_Metal_State_Penalty>
-0

> <b_epik_Metal_Only>
0

> <s_lp_Force_Field>
OPLS_2005

> <r_lp_Energy>
20.5913

> <b_lp_Chiralities_Consistent>
1

> <s_lp_Variant>
AV-unprocessed.smi:1029-2

> <Gold.Version>
5.8.1

> <Gold.Id.Protein>
6NUR|6NUR_protein|mol2

> <Gold.PLP.Fitness>
49.3909

> <Gold.PLP.PLP>
-35.5323

> <Gold.PLP.part.hbond>
-7.7179

> <Gold.PLP.part.metal>
0.0000

> <Gold.PLP.part.buried>
-1.7076

> <Gold.PLP.part.nonpolar>
-28.0094

> <Gold.PLP.part.repulsive>
0.3919

> <Gold.PLP.ligand.clash>
0.0000

> <Gold.PLP.ligand.torsion>
0.7515

> <Gold.PLP.Chemscore.Hbond>
5.0282

> <Gold.PLP.Chemscore.CHOScore>
0.0000

> <Gold.PLP.Chemscore.Metal>
0.0000

> <Gold.Chemscore.Hbonds>
donor molecule, donor type, donor heavy atom, donor atom, acceptor molecule, acceptor atom, score
      L1  H     5    26       P1  7948  0.05
      L1  H     8    27       P1  7948  1.00
      L1  H    11    31       P1 10175  1.00
      L1  H    13    46       P1  7948  1.92
      P1  H  7997  8009       L1    21  0.71

> <Gold.PLP.Chemscore.Internal.Correction>
0.2772

> <Gold.Rescore>
     Score         DG    S(hbond)    S(metal)    S(lipo)     H(rot)  DE(clash)    DE(int)     intcor
     17.57     -19.73       3.88        0.00      65.06       2.46       0.25       1.91       ----

> <Gold.Chemscore.Fitness>
17.5704

> <Gold.Chemscore.DG>
-19.7344

> <Gold.Chemscore.ZeroCoef>
-5.4800

> <Gold.Chemscore.Hbond>
3.8762

> <Gold.Chemscore.Metal>
0.0000

> <Gold.Chemscore.Lipo>
65.0557

> <Gold.Chemscore.Internal_Hbond>
0.0000

> <Gold.Chemscore.DEClash>
0.2507

> <Gold.Chemscore.DEInternal>
1.9134

> <Gold.Chemscore.Rot>
2.4624

> <Gold.Chemscore.Internal.Correction>
   9.000000E+99

> <Gold.Chemscore.Hbonds>
donor molecule, donor type, donor heavy atom, donor atom, acceptor molecule, acceptor atom, score
      L1  H     5    26       P1  7948  0.05
      L1  H     8    27       P1  7948  0.96
      L1  H    11    31       P1 10175  1.00
      L1  H    13    46       P1  7948  0.91
      P1  H  7997  8009       L1    21  0.66

> <Gold.Chemscore.Hbond.Weighted>
-12.9466

> <Gold.Chemscore.Metal.Weighted>
-0.0000

> <Gold.Chemscore.Lipo.Weighted>
-7.6115

> <Gold.Chemscore.Internal_Hbond.Weighted>
0.0000

> <Gold.Chemscore.DEClash.Weighted>
0.2507

> <Gold.Chemscore.DEInternal.Weighted>
1.9134

> <Gold.Chemscore.Rot.Weighted>
6.3037

> <Gold.Chemscore.Internal.Correction.Weighted>
   9.000000E+99

> <Gold.Protein.RotatedTorsions>
[ 6907 6896 6895 6894 ] final   -4.11 input  -60.11 | X-H torsion
[ 7974 7965 7964 7962 ] final   26.04 input  175.53 | X-H torsion
[ 8008 7997 7996 7995 ] final -154.24 input   59.86 | X-H torsion
[ 10167 10162 10161 10158 ] final   39.23 input  -65.29 | X-H torsion
[ 10718 10713 10712 10709 ] final   23.36 input   66.30 | X-H torsion
[ 10763 10752 10751 10750 ] final -179.65 input  -60.55 | X-H torsion
[ 11005 11000 10999 10996 ] final  -39.80 input  -57.11 | X-H torsion

> <Gold.Protein.ActiveResidues>
 VAL166  LYS551  ARG553  GLY616  TRP617  ASP618  TYR619  PRO620  LYS621  CYS622 
 ASP623  PHE694  ASN695  SER759  ASP760  ASP761  ALA762  ILE779  LEU786  VAL792 
 PHE793  MET794  SER795  GLU796  ALA797  LYS798  CYS799  TRP800  GLU811  SER814 

> <Gold.Protein.RotatedAtoms>
  151.5029  135.1062  159.9833 H   0  0  0  0  0  0  0  0  0  0  0  0  # atno 6907 bound_to 6896
  152.4694  133.7991  159.6954 H   0  0  0  0  0  0  0  0  0  0  0  0  # atno 6908 bound_to 6896
  150.8695  133.7463  159.2991 H   0  0  0  0  0  0  0  0  0  0  0  0  # atno 6909 bound_to 6896
  146.1858  139.7382  142.8868 H   0  0  0  0  0  0  0  0  0  0  0  0  # atno 7974 bound_to 7965
  155.6833  140.0747  157.2476 H   0  0  0  0  0  0  0  0  0  0  0  0  # atno 8008 bound_to 7997
  154.4101  140.1678  156.2058 H   0  0  0  0  0  0  0  0  0  0  0  0  # atno 8009 bound_to 7997
  155.9516  140.3377  155.6415 H   0  0  0  0  0  0  0  0  0  0  0  0  # atno 8010 bound_to 7997
  140.3859  144.1917  150.6130 H   0  0  0  0  0  0  0  0  0  0  0  0  # atno 10167 bound_to 10162
  157.1650  130.6734  149.6057 H   0  0  0  0  0  0  0  0  0  0  0  0  # atno 10718 bound_to 10713
  154.5324  135.2800  155.1169 H   0  0  0  0  0  0  0  0  0  0  0  0  # atno 10763 bound_to 10752
  154.2684  135.6308  153.5304 H   0  0  0  0  0  0  0  0  0  0  0  0  # atno 10764 bound_to 10752
  152.9960  135.5622  154.5841 H   0  0  0  0  0  0  0  0  0  0  0  0  # atno 10765 bound_to 10752
  141.0129  133.6899  156.2236 H   0  0  0  0  0  0  0  0  0  0  0  0  # atno 11005 bound_to 11000
  145.3943  141.0377  143.3106 LP  0  0  0  0  0  0  0  0  0  0  0  0  # atno 17320 bound_to 7965
  144.8394  139.5496  143.6907 LP  0  0  0  0  0  0  0  0  0  0  0  0  # atno 17321 bound_to 7965
  140.4889  143.2354  151.8847 LP  0  0  0  0  0  0  0  0  0  0  0  0  # atno 17342 bound_to 10162
  139.4792  144.5187  151.8831 LP  0  0  0  0  0  0  0  0  0  0  0  0  # atno 17343 bound_to 10162
  155.9747  130.4698  150.6409 LP  0  0  0  0  0  0  0  0  0  0  0  0  # atno 17370 bound_to 10713
  157.4097  131.0822  151.1232 LP  0  0  0  0  0  0  0  0  0  0  0  0  # atno 17371 bound_to 10713
  140.6704  134.4874  157.5587 LP  0  0  0  0  0  0  0  0  0  0  0  0  # atno 17394 bound_to 11000
  139.9100  134.8366  156.1564 LP  0  0  0  0  0  0  0  0  0  0  0  0  # atno 17395 bound_to 11000

$$$$
