#       Name:                AV-unprocessed.smi:2473
#       Creating user name   scv26
#       Creation time:       Fri Mar 27 13:38:51 2020


#       File generated by GOLD software.
#

@<TRIPOS>MOLECULE
AV-unprocessed.smi:2473
    50    51     1
SMALL
NO_CHARGES


@<TRIPOS>ATOM
      1 ****        -2.8444  -2.7116  -3.4578 C.3            1 S1                 0.0000
      2 ****        -2.2539  -2.1611  -2.1517 C.3            1 S1                 0.0000
      3 ****        -2.3294  -0.6214  -2.1141 C.3            1 S1                 0.0000
      4 ****        -1.7824  -0.0091  -0.8040 C.3            1 S1                 0.0000
      5 ****        -0.2461   0.0895  -0.7465 C.2            1 S1                 0.0000
      6 ****         0.4665  -0.5722  -1.5017 O.2            1 S1                 0.0000
      7 ****         0.2560   0.9596   0.1422 N.am           1 S1                 0.0000
      8 ****         1.6776   1.2020   0.3416 C.3            1 S1                 0.0000
      9 ****         1.8954   2.3509   1.3340 C.3            1 S1                 0.0000
     10 ****         3.3446   2.6370   1.5766 C.2            1 S1                 0.0000
     11 ****         4.0911   2.0941   2.5456 N.pl3          1 S1                 1.0000
     12 ****         5.3758   2.5603   2.4762 C.2            1 S1                 0.0000
     13 ****         5.4176   3.4222   1.4115 C.2            1 S1                 0.0000
     14 ****         4.1555   3.4468   0.8754 N.pl3          1 S1                 0.0000
     15 ****         3.7151   4.2265  -0.2835 C.3            1 S1                 0.0000
     16 ****        -2.4064  -0.6974   0.4369 C.3            1 S1                 0.0000
     17 ****        -2.4133  -2.2509   0.4302 C.3            1 S1                 0.0000
     18 ****        -1.0162  -2.8422   0.7214 C.3            1 S1                 0.0000
     19 ****        -3.3517  -2.7345   1.5547 C.3            1 S1                 0.0000
     20 ****        -2.9634  -2.7637  -0.9230 C.3            1 S1                 0.0000
     21 ****        -3.8970  -2.4463  -3.5619 H              1 S1                 0.0000
     22 ****        -2.7701  -3.7989  -3.4945 H              1 S1                 0.0000
     23 ****        -2.3138  -2.3168  -4.3245 H              1 S1                 0.0000
     24 ****        -1.2084  -2.4647  -2.1321 H              1 S1                 0.0000
     25 ****        -1.8025  -0.2035  -2.9734 H              1 S1                 0.0000
     26 ****        -3.3697  -0.3150  -2.2323 H              1 S1                 0.0000
     27 ****        -2.1200   1.0285  -0.7906 H              1 S1                 0.0000
     28 ****        -0.3896   1.4789   0.7198 H              1 S1                 0.0000
     29 ****         2.1479   0.2897   0.7123 H              1 S1                 0.0000
     30 ****         2.1443   1.4394  -0.6154 H              1 S1                 0.0000
     31 ****         1.4317   3.2723   0.9801 H              1 S1                 0.0000
     32 ****         1.4511   2.1169   2.3025 H              1 S1                 0.0000
     33 ****         6.1440   2.2505   3.1700 H              1 S1                 0.0000
     34 ****         6.2327   4.0039   1.0055 H              1 S1                 0.0000
     35 ****         4.5706   4.7358  -0.7281 H              1 S1                 0.0000
     36 ****         2.9825   4.9669   0.0378 H              1 S1                 0.0000
     37 ****         3.2697   3.5611  -1.0235 H              1 S1                 0.0000
     38 ****        -1.9319  -0.3359   1.3504 H              1 S1                 0.0000
     39 ****        -3.4387  -0.3503   0.5031 H              1 S1                 0.0000
     40 ****        -1.0613  -3.9280   0.8117 H              1 S1                 0.0000
     41 ****        -0.6101  -2.4551   1.6564 H              1 S1                 0.0000
     42 ****        -0.2914  -2.6276  -0.0598 H              1 S1                 0.0000
     43 ****        -3.4059  -3.8233   1.5876 H              1 S1                 0.0000
     44 ****        -4.3682  -2.3641   1.4180 H              1 S1                 0.0000
     45 ****        -3.0095  -2.3935   2.5325 H              1 S1                 0.0000
     46 ****        -4.0268  -2.5278  -0.9905 H              1 S1                 0.0000
     47 ****        -2.8982  -3.8521  -0.9576 H              1 S1                 0.0000
     48 ****         3.7506   1.4319   3.2314 H              1 S1                 0.0000
     49 ****         0.0499  -1.1890  -2.1695 LP             1 S1                 0.0000
     50 ****         1.4619  -0.4927  -1.4472 LP             1 S1                 0.0000
@<TRIPOS>BOND
    1    1    2 1     
    2    1   21 1     
    3    1   22 1     
    4    1   23 1     
    5    2   20 1     
    6    2    3 1     
    7    2   24 1     
    8    3    4 1     
    9    3   25 1     
   10    3   26 1     
   11    4    5 1     
   12    4   16 1     
   13    4   27 1     
   14    5    6 2     
   15    5    7 am    
   16    7    8 1     
   17    7   28 1     
   18    8    9 1     
   19    8   29 1     
   20    8   30 1     
   21    9   10 1     
   22    9   31 1     
   23    9   32 1     
   24   10   14 1     
   25   10   11 2     
   26   11   12 1     
   27   11   48 1     
   28   12   13 2     
   29   12   33 1     
   30   13   14 1     
   31   13   34 1     
   32   14   15 1     
   33   15   35 1     
   34   15   36 1     
   35   15   37 1     
   36   16   17 1     
   37   16   38 1     
   38   16   39 1     
   39   17   18 1     
   40   17   19 1     
   41   17   20 1     
   42   18   40 1     
   43   18   41 1     
   44   18   42 1     
   45   19   43 1     
   46   19   44 1     
   47   19   45 1     
   48   20   46 1     
   49   20   47 1     
   50    6   49 1     
   51    6   50 1     
@<TRIPOS>SUBSTRUCTURE
      1 S1             1
@<TRIPOS>SET
LONE_PAIRS      STATIC     ATOMS    <user>   **** ""
2 49 50
DONOR_HYDROGENS      STATIC     ATOMS    <user>   **** ""
2 28 48
ATOM$BLUE        STATIC     ATOMS    COLORGROUP SYSTEM
2 49 50
ATOM$RED        STATIC     ATOMS    COLORGROUP SYSTEM
2 28 48
