AV-unprocessed.smi:319|AV-procd|sdf|2331|dock4
  -GOLD-   2262022233D 1   1.00000     0.00000
 Structure written by MMmdl.
 38 39  0  0  0  0  0  0  0  0  1 V2000
  148.4408  137.2361  159.2275 C   0  0  0  0  0  0  0  0  0  0  0  0
  147.2352  137.1481  157.8735 S   0  0  0  0  0  0  0  0  0  0  0  0
  147.8035  138.4558  156.8303 C   0  0  0  0  0  0  0  0  0  0  0  0
  147.2597  138.7260  155.6429 N   0  0  0  0  0  0  0  0  0  0  0  0
  147.8718  139.8017  154.9933 C   0  0  0  0  0  0  0  0  0  0  0  0
  147.3737  140.2243  153.6444 C   0  0  0  0  0  0  0  0  0  0  0  0
  148.9087  140.3563  155.7085 C   0  0  0  0  0  0  0  0  0  0  0  0
  149.7875  141.5059  155.3267 C   0  0  0  0  0  0  0  0  0  0  0  0
  150.7824  141.8212  156.4434 C   0  0  0  0  0  0  0  0  0  0  0  0
  151.5747  140.9596  156.8234 O   0  0  0  0  0  0  0  0  0  0  0  0
  150.7340  143.0616  156.9530 N   0  0  0  0  0  0  0  0  0  0  0  0
  151.6104  143.5833  157.9963 C   0  0  0  0  0  0  0  0  0  0  0  0
  151.7500  142.5675  159.1492 C   0  0  0  0  0  0  0  0  0  0  0  0
  152.6026  143.1330  160.2967 C   0  0  0  0  0  0  0  0  0  0  0  0
  152.0396  144.4697  160.8047 C   0  0  0  0  0  0  0  0  0  0  0  0
  151.9065  145.4856  159.6594 C   0  0  0  0  0  0  0  0  0  0  0  0
  151.0521  144.9233  158.5118 C   0  0  0  0  0  0  0  0  0  0  0  0
  149.1386  139.5341  157.2309 S   0  0  0  0  0  0  0  0  0  0  0  0
  148.2059  136.4825  159.9788 H   0  0  0  0  0  0  0  0  0  0  0  0
  148.4125  138.2136  159.7089 H   0  0  0  0  0  0  0  0  0  0  0  0
  149.4502  137.0458  158.8626 H   0  0  0  0  0  0  0  0  0  0  0  0
  147.2433  141.3051  153.5909 H   0  0  0  0  0  0  0  0  0  0  0  0
  146.4114  139.7685  153.4093 H   0  0  0  0  0  0  0  0  0  0  0  0
  148.0734  139.9352  152.8602 H   0  0  0  0  0  0  0  0  0  0  0  0
  150.3218  141.2868  154.4015 H   0  0  0  0  0  0  0  0  0  0  0  0
  149.1830  142.3917  155.1285 H   0  0  0  0  0  0  0  0  0  0  0  0
  150.0475  143.6991  156.5768 H   0  0  0  0  0  0  0  0  0  0  0  0
  152.5978  143.7707  157.5696 H   0  0  0  0  0  0  0  0  0  0  0  0
  150.7625  142.3029  159.5302 H   0  0  0  0  0  0  0  0  0  0  0  0
  152.1980  141.6423  158.7849 H   0  0  0  0  0  0  0  0  0  0  0  0
  152.6487  142.4138  161.1149 H   0  0  0  0  0  0  0  0  0  0  0  0
  153.6280  143.2756  159.9526 H   0  0  0  0  0  0  0  0  0  0  0  0
  151.0638  144.3049  161.2631 H   0  0  0  0  0  0  0  0  0  0  0  0
  152.6845  144.8724  161.5863 H   0  0  0  0  0  0  0  0  0  0  0  0
  151.4652  146.4104  160.0322 H   0  0  0  0  0  0  0  0  0  0  0  0
  152.8972  145.7451  159.2840 H   0  0  0  0  0  0  0  0  0  0  0  0
  151.0091  145.6481  157.6978 H   0  0  0  0  0  0  0  0  0  0  0  0
  150.0267  144.7884  158.8593 H   0  0  0  0  0  0  0  0  0  0  0  0
  1  2  1  0  0  0  0
  1 19  1  0  0  0  0
  1 20  1  0  0  0  0
  1 21  1  0  0  0  0
  2  3  1  0  0  0  0
  3 18  1  0  0  0  0
  3  4  2  0  0  0  0
  4  5  1  0  0  0  0
  5  6  1  0  0  0  0
  5  7  2  0  0  0  0
  6 22  1  0  0  0  0
  6 23  1  0  0  0  0
  6 24  1  0  0  0  0
  7  8  1  0  0  0  0
  7 18  1  0  0  0  0
  8  9  1  0  0  0  0
  8 25  1  0  0  0  0
  8 26  1  0  0  0  0
  9 10  2  0  0  0  0
  9 11  1  0  0  0  0
 11 12  1  0  0  0  0
 11 27  1  0  0  0  0
 12 17  1  0  0  0  0
 12 13  1  0  0  0  0
 12 28  1  0  0  0  0
 13 14  1  0  0  0  0
 13 29  1  0  0  0  0
 13 30  1  0  0  0  0
 14 15  1  0  0  0  0
 14 31  1  0  0  0  0
 14 32  1  0  0  0  0
 15 16  1  0  0  0  0
 15 33  1  0  0  0  0
 15 34  1  0  0  0  0
 16 17  1  0  0  0  0
 16 35  1  0  0  0  0
 16 36  1  0  0  0  0
 17 37  1  0  0  0  0
 17 38  1  0  0  0  0
M  END
> <s_m_source_file>
AV-unprocessed.smi

> <i_m_source_file_index>
319

> <i_lp_mmshare_version>
43012

> <i_f3d_flags>
0

> <s_epik_input>
W0NIM11TYzFuYyhbQ0gzXSljKHMxKVtDSDJdQyg9TylbTkhdW0NIXTJbQ0gyXVtDSDJdW0NIMl1bQ0gyXVtDSDJdMg==

> <s_epik_cmdline>
J2VwaWtfcHl0aG9uJywgJy1waCcsICc3LjAnLCAnLXRuJywgJzgnLCAnLW1hJywgJzIwMCcsICctbWV0YWxfYmluZGluZycsICctaW1hZScsICc8aW5maWxlLm1hZT4nLCAnLW9tYWUnLCAnPG91dGZpbGUubWFlPic=

> <r_lp_tautomer_probability>
1

> <r_epik_Ionization_Penalty>
2.85285e-06

> <r_epik_Ionization_Penalty_Charging>
0

> <r_epik_Ionization_Penalty_Neutral>
2.85285e-06

> <r_epik_State_Penalty>
-0

> <r_epik_Charging_Adjusted_Penalty>
0

> <i_epik_Tot_Q>
0

> <i_epik_Tot_abs_Q>
0

> <r_epik_Metal_State_Penalty>
-0

> <b_epik_Metal_Only>
0

> <s_lp_Force_Field>
OPLS_2005

> <r_lp_Energy>
6.2973

> <b_lp_Chiralities_Consistent>
1

> <s_lp_Variant>
AV-unprocessed.smi:319-1

> <Gold.Version>
5.8.1

> <Gold.Id.Protein>
6NUR|6NUR_protein|mol2

> <Gold.PLP.Fitness>
37.1833

> <Gold.PLP.PLP>
-34.5180

> <Gold.PLP.part.hbond>
-1.0000

> <Gold.PLP.part.metal>
0.0000

> <Gold.PLP.part.buried>
-5.5038

> <Gold.PLP.part.nonpolar>
-29.1522

> <Gold.PLP.part.repulsive>
0.0414

> <Gold.PLP.ligand.clash>
0.0000

> <Gold.PLP.ligand.torsion>
0.1725

> <Gold.PLP.Chemscore.Hbond>
1.0000

> <Gold.PLP.Chemscore.CHOScore>
0.0000

> <Gold.PLP.Chemscore.Metal>
0.0000

> <Gold.Chemscore.Hbonds>
donor molecule, donor type, donor heavy atom, donor atom, acceptor molecule, acceptor atom, score
      L1  H    11    27       P1  8028  1.00

> <Gold.PLP.Chemscore.Internal.Correction>
0.0104

> <Gold.Rescore>
     Score         DG    S(hbond)    S(metal)    S(lipo)     H(rot)  DE(clash)    DE(int)     intcor
     15.66     -17.08       1.00        0.00      99.70       1.33       0.03       1.40       ----

> <Gold.Chemscore.Fitness>
15.6567

> <Gold.Chemscore.DG>
-17.0800

> <Gold.Chemscore.ZeroCoef>
-5.4800

> <Gold.Chemscore.Hbond>
0.9991

> <Gold.Chemscore.Metal>
0.0000

> <Gold.Chemscore.Lipo>
99.6996

> <Gold.Chemscore.Internal_Hbond>
0.0000

> <Gold.Chemscore.DEClash>
0.0253

> <Gold.Chemscore.DEInternal>
1.3980

> <Gold.Chemscore.Rot>
1.3289

> <Gold.Chemscore.Internal.Correction>
   9.000000E+99

> <Gold.Chemscore.Hbonds>
donor molecule, donor type, donor heavy atom, donor atom, acceptor molecule, acceptor atom, score
      L1  H    11    27       P1  8028  1.00

> <Gold.Chemscore.Hbond.Weighted>
-3.3371

> <Gold.Chemscore.Metal.Weighted>
-0.0000

> <Gold.Chemscore.Lipo.Weighted>
-11.6648

> <Gold.Chemscore.Internal_Hbond.Weighted>
0.0000

> <Gold.Chemscore.DEClash.Weighted>
0.0253

> <Gold.Chemscore.DEInternal.Weighted>
1.3980

> <Gold.Chemscore.Rot.Weighted>
3.4019

> <Gold.Chemscore.Internal.Correction.Weighted>
   9.000000E+99

> <Gold.Protein.RotatedTorsions>
[ 6907 6896 6895 6894 ] final   79.91 input  -60.11 | X-H torsion
[ 7974 7965 7964 7962 ] final  141.08 input  175.53 | X-H torsion
[ 8008 7997 7996 7995 ] final -160.90 input   59.86 | X-H torsion
[ 10167 10162 10161 10158 ] final   87.51 input  -65.29 | X-H torsion
[ 10718 10713 10712 10709 ] final -157.75 input   66.30 | X-H torsion
[ 10763 10752 10751 10750 ] final   64.69 input  -60.55 | X-H torsion
[ 11005 11000 10999 10996 ] final   24.74 input  -57.11 | X-H torsion

> <Gold.Protein.ActiveResidues>
 VAL166  LYS551  ARG553  GLY616  TRP617  ASP618  TYR619  PRO620  LYS621  CYS622 
 ASP623  PHE694  ASN695  SER759  ASP760  ASP761  ALA762  ILE779  LEU786  VAL792 
 PHE793  MET794  SER795  GLU796  ALA797  LYS798  CYS799  TRP800  GLU811  SER814 

> <Gold.Protein.RotatedAtoms>
  152.5216  134.3439  159.9226 H   0  0  0  0  0  0  0  0  0  0  0  0  # atno 6907 bound_to 6896
  151.3389  133.3964  159.2677 H   0  0  0  0  0  0  0  0  0  0  0  0  # atno 6908 bound_to 6896
  150.9820  134.9191  159.7907 H   0  0  0  0  0  0  0  0  0  0  0  0  # atno 6909 bound_to 6896
  144.9128  139.5270  143.5700 H   0  0  0  0  0  0  0  0  0  0  0  0  # atno 7974 bound_to 7965
  155.7842  140.0869  157.2043 H   0  0  0  0  0  0  0  0  0  0  0  0  # atno 8008 bound_to 7997
  154.3988  140.1502  156.3146 H   0  0  0  0  0  0  0  0  0  0  0  0  # atno 8009 bound_to 7997
  155.8623  140.3429  155.5767 H   0  0  0  0  0  0  0  0  0  0  0  0  # atno 8010 bound_to 7997
  139.8766  144.6463  150.8889 H   0  0  0  0  0  0  0  0  0  0  0  0  # atno 10167 bound_to 10162
  156.5446  130.8578  151.2760 H   0  0  0  0  0  0  0  0  0  0  0  0  # atno 10718 bound_to 10713
  153.0066  135.5384  154.6549 H   0  0  0  0  0  0  0  0  0  0  0  0  # atno 10763 bound_to 10752
  154.5772  135.2847  155.0771 H   0  0  0  0  0  0  0  0  0  0  0  0  # atno 10764 bound_to 10752
  154.1914  135.6499  153.5113 H   0  0  0  0  0  0  0  0  0  0  0  0  # atno 10765 bound_to 10752
  140.3554  134.2183  155.7676 H   0  0  0  0  0  0  0  0  0  0  0  0  # atno 11005 bound_to 11000
  146.3167  139.7947  142.8978 LP  0  0  0  0  0  0  0  0  0  0  0  0  # atno 17320 bound_to 7965
  145.3426  141.0291  143.3384 LP  0  0  0  0  0  0  0  0  0  0  0  0  # atno 17321 bound_to 7965
  140.7752  143.3620  151.1811 LP  0  0  0  0  0  0  0  0  0  0  0  0  # atno 17342 bound_to 10162
  139.7234  143.9187  152.2994 LP  0  0  0  0  0  0  0  0  0  0  0  0  # atno 17343 bound_to 10162
  157.7399  130.9840  150.2342 LP  0  0  0  0  0  0  0  0  0  0  0  0  # atno 17370 bound_to 10713
  156.2940  130.3749  149.7814 LP  0  0  0  0  0  0  0  0  0  0  0  0  # atno 17371 bound_to 10713
  141.2000  133.7998  157.0510 LP  0  0  0  0  0  0  0  0  0  0  0  0  # atno 17394 bound_to 11000
  140.0669  134.9724  157.1401 LP  0  0  0  0  0  0  0  0  0  0  0  0  # atno 17395 bound_to 11000

$$$$
