#       Name:                AV-unprocessed.smi:3347
#       Creating user name   scv26
#       Creation time:       Fri Mar 27 19:32:59 2020


#       File generated by GOLD software.
#

@<TRIPOS>MOLECULE
AV-unprocessed.smi:3347
    43    45     1
SMALL
NO_CHARGES


@<TRIPOS>ATOM
      1 ****        -0.4318   1.8059  -0.7541 O.2            1 S1                 0.0000
      2 ****        -0.8485   1.0331  -1.6165 C.2            1 S1                 0.0000
      3 ****        -0.0718   0.1351  -2.2393 N.am           1 S1                 0.0000
      4 ****         1.3609  -0.0422  -2.0213 C.3            1 S1                 0.0000
      5 ****         1.6594  -1.0938  -0.9349 C.3            1 S1                 0.0000
      6 ****         3.1480  -1.3823  -0.7517 C.3            1 S1                 0.0000
      7 ****         3.2461  -1.9871   0.6539 C.3            1 S1                 0.0000
      8 ****         2.0198  -1.5820   1.3798 N.4            1 S1                 1.0000
      9 ****         2.2700  -1.0046   2.7177 C.3            1 S1                 0.0000
     10 ****         2.4068  -2.0416   3.8066 C.3            1 S1                 0.0000
     11 ****         1.1379  -1.2244   3.6921 C.3            1 S1                 0.0000
     12 ****         1.2407  -0.7028   0.4848 C.3            1 S1                 0.0000
     13 ****        -2.1206   0.9520  -2.0424 N.am           1 S1                 0.0000
     14 ****        -3.2471   1.7157  -1.6322 C.ar           1 S1                 0.0000
     15 ****        -3.1712   2.9682  -0.9751 C.ar           1 S1                 0.0000
     16 ****        -4.3665   3.6305  -0.6349 C.ar           1 S1                 0.0000
     17 ****        -5.5919   3.0228  -0.9697 C.ar           1 S1                 0.0000
     18 ****        -5.6794   1.8364  -1.6067 N.ar           1 S1                 0.0000
     19 ****        -4.5296   1.2075  -1.9302 C.ar           1 S1                 0.0000
     20 ****        -0.5014  -0.4619  -2.9311 H              1 S1                 0.0000
     21 ****         1.7972  -0.3646  -2.9670 H              1 S1                 0.0000
     22 ****         1.8344   0.9108  -1.7786 H              1 S1                 0.0000
     23 ****         1.1623  -2.0294  -1.1974 H              1 S1                 0.0000
     24 ****         3.5478  -2.0430  -1.5217 H              1 S1                 0.0000
     25 ****         3.7156  -0.4510  -0.7860 H              1 S1                 0.0000
     26 ****         3.2705  -3.0760   0.6047 H              1 S1                 0.0000
     27 ****         4.1563  -1.6595   1.1587 H              1 S1                 0.0000
     28 ****         2.8572  -0.0882   2.7495 H              1 S1                 0.0000
     29 ****         2.3555  -3.0923   3.5269 H              1 S1                 0.0000
     30 ****         3.0728  -1.8136   4.6362 H              1 S1                 0.0000
     31 ****         0.9691  -0.4588   4.4467 H              1 S1                 0.0000
     32 ****         0.2428  -1.7318   3.3364 H              1 S1                 0.0000
     33 ****         1.5051   0.3391   0.6753 H              1 S1                 0.0000
     34 ****         0.1695  -0.8151   0.6549 H              1 S1                 0.0000
     35 ****        -2.3187   0.2181  -2.7067 H              1 S1                 0.0000
     36 ****        -2.2309   3.4399  -0.7374 H              1 S1                 0.0000
     37 ****        -4.3440   4.5864  -0.1331 H              1 S1                 0.0000
     38 ****        -6.5263   3.5053  -0.7238 H              1 S1                 0.0000
     39 ****        -4.6384   0.2615  -2.4406 H              1 S1                 0.0000
     40 ****         1.4734  -2.4219   1.5073 H              1 S1                 0.0000
     41 ****         0.5312   1.7834  -0.4858 LP             1 S1                 0.0000
     42 ****        -1.0563   2.4563  -0.3216 LP             1 S1                 0.0000
     43 ****        -6.5676   1.4359  -1.8319 LP             1 S1                 0.0000
@<TRIPOS>BOND
    1    1    2 2     
    2    2    3 am    
    3    2   13 am    
    4    3    4 1     
    5    3   20 1     
    6    4    5 1     
    7    4   21 1     
    8    4   22 1     
    9    5   12 1     
   10    5    6 1     
   11    5   23 1     
   12    6    7 1     
   13    6   24 1     
   14    6   25 1     
   15    7    8 1     
   16    7   26 1     
   17    7   27 1     
   18    8    9 1     
   19    8   12 1     
   20    8   40 1     
   21    9   11 1     
   22    9   10 1     
   23    9   28 1     
   24   10   11 1     
   25   10   29 1     
   26   10   30 1     
   27   11   31 1     
   28   11   32 1     
   29   12   33 1     
   30   12   34 1     
   31   13   14 1     
   32   13   35 1     
   33   14   19 ar    
   34   14   15 ar    
   35   15   16 ar    
   36   15   36 1     
   37   16   17 ar    
   38   16   37 1     
   39   17   18 ar    
   40   17   38 1     
   41   18   19 ar    
   42   19   39 1     
   43    1   41 1     
   44    1   42 1     
   45   18   43 1     
@<TRIPOS>SUBSTRUCTURE
      1 S1             1
@<TRIPOS>SET
LONE_PAIRS      STATIC     ATOMS    <user>   **** ""
3 41 42 43
DONOR_HYDROGENS      STATIC     ATOMS    <user>   **** ""
3 20 40 35
ATOM$BLUE        STATIC     ATOMS    COLORGROUP SYSTEM
3 41 42 43
ATOM$RED        STATIC     ATOMS    COLORGROUP SYSTEM
3 20 40 35
