AV-unprocessed.smi:2067|AV-procd|sdf|8424|dock5
  -GOLD-   2272011113D 1   1.00000     0.00000
 Structure written by MMmdl.
 47 48  0  0  0  0  0  0  0  0  1 V2000
  148.3154  138.7128  154.2750 C   0  0  0  0  0  0  0  0  0  0  0  0
  149.8425  138.8768  154.3207 C   0  0  1  0  0  0  0  0  0  0  0  0
  150.2836  139.8362  155.4443 C   0  0  0  0  0  0  0  0  0  0  0  0
  151.8087  140.0254  155.4571 C   0  0  0  0  0  0  0  0  0  0  0  0
  152.5351  138.6770  155.5695 C   0  0  0  0  0  0  0  0  0  0  0  0
  152.1009  137.7151  154.4509 C   0  0  0  0  0  0  0  0  0  0  0  0
  150.5697  137.5175  154.4279 C   0  0  1  0  0  0  0  0  0  0  0  0
  150.1439  136.8641  155.6187 O   0  0  0  0  0  0  0  0  0  0  0  0
  148.9986  136.0410  155.4583 C   0  0  0  0  0  0  0  0  0  0  0  0
  149.3675  134.8549  154.5634 C   0  0  0  0  0  0  0  0  0  0  0  0
  148.2954  134.5579  153.6265 N   0  0  0  0  0  0  0  0  0  0  0  0
  147.7124  133.3139  153.4114 C   0  0  0  0  0  0  0  0  0  0  0  0
  148.1368  132.2068  154.0827 C   0  0  0  0  0  0  0  0  0  0  0  0
  149.2160  132.2237  155.0198 C   0  0  0  0  0  0  0  0  0  0  0  0
  150.0853  132.2546  155.7842 N   0  0  0  0  0  0  0  0  0  0  0  0
  147.5412  130.8906  153.8627 C   0  0  0  0  0  0  0  0  0  0  0  0
  147.9056  129.8669  154.4459 O   0  0  0  0  0  0  0  0  0  0  0  0
  146.5043  130.8644  152.9074 N   0  0  0  0  0  0  0  0  0  0  0  0
  145.8910  129.5773  152.6442 C   0  0  0  0  0  0  0  0  0  0  0  0
  146.0664  131.9894  152.1777 C   0  0  0  0  0  0  0  0  0  0  0  0
  145.1804  131.9017  151.3220 O   0  0  0  0  0  0  0  0  0  0  0  0
  146.6892  133.2292  152.4631 N   0  0  0  0  0  0  0  0  0  0  0  0
  146.1713  134.3517  151.7075 C   0  0  0  0  0  0  0  0  0  0  0  0
  147.9314  138.2838  155.2011 H   0  0  0  0  0  0  0  0  0  0  0  0
  148.0153  138.0590  153.4559 H   0  0  0  0  0  0  0  0  0  0  0  0
  147.8227  139.6741  154.1265 H   0  0  0  0  0  0  0  0  0  0  0  0
  150.1389  139.3289  153.3730 H   0  0  0  0  0  0  0  0  0  0  0  0
  149.7983  140.8049  155.3191 H   0  0  0  0  0  0  0  0  0  0  0  0
  149.9558  139.4516  156.4111 H   0  0  0  0  0  0  0  0  0  0  0  0
  152.1213  140.5343  154.5442 H   0  0  0  0  0  0  0  0  0  0  0  0
  152.0963  140.6728  156.2860 H   0  0  0  0  0  0  0  0  0  0  0  0
  153.6137  138.8312  155.5293 H   0  0  0  0  0  0  0  0  0  0  0  0
  152.3235  138.2300  156.5414 H   0  0  0  0  0  0  0  0  0  0  0  0
  152.4234  138.1176  153.4899 H   0  0  0  0  0  0  0  0  0  0  0  0
  152.6154  136.7613  154.5632 H   0  0  0  0  0  0  0  0  0  0  0  0
  150.2957  136.9152  153.5596 H   0  0  0  0  0  0  0  0  0  0  0  0
  148.6798  135.6773  156.4359 H   0  0  0  0  0  0  0  0  0  0  0  0
  148.1619  136.5912  155.0268 H   0  0  0  0  0  0  0  0  0  0  0  0
  150.2887  135.0556  154.0156 H   0  0  0  0  0  0  0  0  0  0  0  0
  149.5503  133.9866  155.1963 H   0  0  0  0  0  0  0  0  0  0  0  0
  147.6669  135.3400  153.5103 H   0  0  0  0  0  0  0  0  0  0  0  0
  144.9367  129.6975  152.1324 H   0  0  0  0  0  0  0  0  0  0  0  0
  145.7038  129.0842  153.5997 H   0  0  0  0  0  0  0  0  0  0  0  0
  146.5939  129.0097  152.0327 H   0  0  0  0  0  0  0  0  0  0  0  0
  146.3850  134.1626  150.6541 H   0  0  0  0  0  0  0  0  0  0  0  0
  146.6438  135.2782  152.0238 H   0  0  0  0  0  0  0  0  0  0  0  0
  145.0983  134.4133  151.8995 H   0  0  0  0  0  0  0  0  0  0  0  0
  1  2  1  0  0  0  0
  1 24  1  0  0  0  0
  1 25  1  0  0  0  0
  1 26  1  0  0  0  0
  2  7  1  0  0  0  0
  2  3  1  0  0  0  0
  2 27  1  0  0  0  0
  3  4  1  0  0  0  0
  3 28  1  0  0  0  0
  3 29  1  0  0  0  0
  4  5  1  0  0  0  0
  4 30  1  0  0  0  0
  4 31  1  0  0  0  0
  5  6  1  0  0  0  0
  5 32  1  0  0  0  0
  5 33  1  0  0  0  0
  6  7  1  0  0  0  0
  6 34  1  0  0  0  0
  6 35  1  0  0  0  0
  7  8  1  0  0  0  0
  7 36  1  0  0  0  0
  8  9  1  0  0  0  0
  9 10  1  0  0  0  0
  9 37  1  0  0  0  0
  9 38  1  0  0  0  0
 10 11  1  0  0  0  0
 10 39  1  0  0  0  0
 10 40  1  0  0  0  0
 11 12  1  0  0  0  0
 11 41  1  0  0  0  0
 12 22  1  0  0  0  0
 12 13  2  0  0  0  0
 13 14  1  0  0  0  0
 13 16  1  0  0  0  0
 14 15  3  0  0  0  0
 16 17  2  0  0  0  0
 16 18  1  0  0  0  0
 18 19  1  0  0  0  0
 18 20  1  0  0  0  0
 19 42  1  0  0  0  0
 19 43  1  0  0  0  0
 19 44  1  0  0  0  0
 20 21  2  0  0  0  0
 20 22  1  0  0  0  0
 22 23  1  0  0  0  0
 23 45  1  0  0  0  0
 23 46  1  0  0  0  0
 23 47  1  0  0  0  0
M  END
> <s_m_source_file>
AV-unprocessed.smi

> <i_m_source_file_index>
2067

> <i_lp_mmshare_version>
43012

> <i_f3d_flags>
0

> <s_epik_input>
W0NIM11bQ0BASF0xW0NIMl1bQ0gyXVtDSDJdW0NIMl1bQ0BIXTFPW0NIMl1bQ0gyXVtOSF1jMmMoQyNOKWMoPU8pbihbQ0gzXSljKD1PKW4yW0NIM10=

> <s_epik_cmdline>
J2VwaWtfcHl0aG9uJywgJy1waCcsICc3LjAnLCAnLXRuJywgJzgnLCAnLW1hJywgJzIwMCcsICctbWV0YWxfYmluZGluZycsICctaW1hZScsICc8aW5maWxlLm1hZT4nLCAnLW9tYWUnLCAnPG91dGZpbGUubWFlPic=

> <r_epik_Ionization_Penalty>
0.00056529

> <r_epik_Ionization_Penalty_Charging>
3.94678e-10

> <r_epik_Ionization_Penalty_Neutral>
0.000565289

> <r_epik_State_Penalty>
0.000354611

> <r_epik_Charging_Adjusted_Penalty>
0.000354611

> <i_epik_Tot_Q>
0

> <i_epik_Tot_abs_Q>
0

> <r_epik_Metal_State_Penalty>
-0

> <b_epik_Metal_Only>
0

> <s_lp_Force_Field>
OPLS_2005

> <r_lp_Energy>
33.1423

> <b_lp_Chiralities_Consistent>
1

> <s_lp_Variant>
AV-unprocessed.smi:2067-2

> <Gold.Version>
5.8.1

> <Gold.Id.Protein>
6NUR|6NUR_protein|mol2

> <Gold.PLP.Fitness>
35.5144

> <Gold.PLP.PLP>
-36.9331

> <Gold.PLP.part.hbond>
-0.5294

> <Gold.PLP.part.metal>
0.0000

> <Gold.PLP.part.buried>
0.6696

> <Gold.PLP.part.nonpolar>
-36.5460

> <Gold.PLP.part.repulsive>
0.2662

> <Gold.PLP.ligand.clash>
10.2522

> <Gold.PLP.ligand.torsion>
0.7149

> <Gold.PLP.Chemscore.Hbond>
0.0000

> <Gold.PLP.Chemscore.CHOScore>
0.0000

> <Gold.PLP.Chemscore.Metal>
0.0000

> <Gold.PLP.Chemscore.Internal.Correction>
10.2633

> <Gold.Rescore>
     Score         DG    S(hbond)    S(metal)    S(lipo)     H(rot)  DE(clash)    DE(int)     intcor
      5.94      -9.64       0.03        0.00      73.09       1.76       0.21       3.50       ----

> <Gold.Chemscore.Fitness>
5.9357

> <Gold.Chemscore.DG>
-9.6385

> <Gold.Chemscore.ZeroCoef>
-5.4800

> <Gold.Chemscore.Hbond>
0.0325

> <Gold.Chemscore.Metal>
0.0000

> <Gold.Chemscore.Lipo>
73.0882

> <Gold.Chemscore.Internal_Hbond>
0.0000

> <Gold.Chemscore.DEClash>
0.2075

> <Gold.Chemscore.DEInternal>
3.4953

> <Gold.Chemscore.Rot>
1.7583

> <Gold.Chemscore.Internal.Correction>
   9.000000E+99

> <Gold.Chemscore.Hbond.Weighted>
-0.1084

> <Gold.Chemscore.Metal.Weighted>
-0.0000

> <Gold.Chemscore.Lipo.Weighted>
-8.5513

> <Gold.Chemscore.Internal_Hbond.Weighted>
0.0000

> <Gold.Chemscore.DEClash.Weighted>
0.2075

> <Gold.Chemscore.DEInternal.Weighted>
3.4953

> <Gold.Chemscore.Rot.Weighted>
4.5012

> <Gold.Chemscore.Internal.Correction.Weighted>
   9.000000E+99

> <Gold.Protein.RotatedTorsions>
[ 6907 6896 6895 6894 ] final  137.95 input  -60.11 | X-H torsion
[ 7974 7965 7964 7962 ] final  -10.71 input  175.53 | X-H torsion
[ 8008 7997 7996 7995 ] final -137.35 input   59.86 | X-H torsion
[ 10167 10162 10161 10158 ] final -123.57 input  -65.29 | X-H torsion
[ 10718 10713 10712 10709 ] final  -19.76 input   66.30 | X-H torsion
[ 10763 10752 10751 10750 ] final  -23.04 input  -60.55 | X-H torsion
[ 11005 11000 10999 10996 ] final -149.35 input  -57.11 | X-H torsion

> <Gold.Protein.ActiveResidues>
 VAL166  LYS551  ARG553  GLY616  TRP617  ASP618  TYR619  PRO620  LYS621  CYS622 
 ASP623  PHE694  ASN695  SER759  ASP760  ASP761  ALA762  ILE779  LEU786  VAL792 
 PHE793  MET794  SER795  GLU796  ALA797  LYS798  CYS799  TRP800  GLU811  SER814 

> <Gold.Protein.RotatedAtoms>
  152.2721  133.5392  159.5445 H   0  0  0  0  0  0  0  0  0  0  0  0  # atno 6907 bound_to 6896
  150.7163  134.0682  159.3864 H   0  0  0  0  0  0  0  0  0  0  0  0  # atno 6908 bound_to 6896
  151.8597  135.0529  160.0519 H   0  0  0  0  0  0  0  0  0  0  0  0  # atno 6909 bound_to 6896
  146.2212  140.2804  142.8362 H   0  0  0  0  0  0  0  0  0  0  0  0  # atno 7974 bound_to 7965
  155.4104  140.0512  157.3032 H   0  0  0  0  0  0  0  0  0  0  0  0  # atno 8008 bound_to 7997
  154.4949  140.2134  155.9429 H   0  0  0  0  0  0  0  0  0  0  0  0  # atno 8009 bound_to 7997
  156.1392  140.3157  155.8473 H   0  0  0  0  0  0  0  0  0  0  0  0  # atno 8010 bound_to 7997
  140.0021  143.5529  152.2299 H   0  0  0  0  0  0  0  0  0  0  0  0  # atno 10167 bound_to 10162
  156.5412  130.4678  149.6498 H   0  0  0  0  0  0  0  0  0  0  0  0  # atno 10718 bound_to 10713
  153.6615  135.6976  153.5176 H   0  0  0  0  0  0  0  0  0  0  0  0  # atno 10763 bound_to 10752
  153.2628  135.4239  155.0910 H   0  0  0  0  0  0  0  0  0  0  0  0  # atno 10764 bound_to 10752
  154.8450  135.3559  154.6160 H   0  0  0  0  0  0  0  0  0  0  0  0  # atno 10765 bound_to 10752
  140.7516  134.3399  157.5124 H   0  0  0  0  0  0  0  0  0  0  0  0  # atno 11005 bound_to 11000
  144.9201  140.7858  143.5753 LP  0  0  0  0  0  0  0  0  0  0  0  0  # atno 17320 bound_to 7965
  145.2740  139.1944  143.4826 LP  0  0  0  0  0  0  0  0  0  0  0  0  # atno 17321 bound_to 7965
  139.6264  144.7638  151.2629 LP  0  0  0  0  0  0  0  0  0  0  0  0  # atno 17342 bound_to 10162
  140.7414  143.6556  150.8209 LP  0  0  0  0  0  0  0  0  0  0  0  0  # atno 17343 bound_to 10162
  156.2970  130.7156  151.2018 LP  0  0  0  0  0  0  0  0  0  0  0  0  # atno 17370 bound_to 10713
  157.7405  131.0516  150.5162 LP  0  0  0  0  0  0  0  0  0  0  0  0  # atno 17371 bound_to 10713
  139.8786  134.9146  156.3110 LP  0  0  0  0  0  0  0  0  0  0  0  0  # atno 17394 bound_to 11000
  140.9745  133.7306  156.0582 LP  0  0  0  0  0  0  0  0  0  0  0  0  # atno 17395 bound_to 11000

$$$$
