AV-unprocessed.smi:3248|AV-procd|sdf|12413|dock5
  -GOLD-   2272018293D 1   1.00000     0.00000
 Structure written by MMmdl.
 38 39  0  0  0  0  0  0  0  0  1 V2000
  151.1559  139.4617  156.5976 C   0  0  0  0  0  0  0  0  0  0  0  0
  150.3751  140.7753  156.4271 C   0  0  2  0  0  0  0  0  0  0  0  0
  150.0644  141.1093  154.9502 C   0  0  0  0  0  0  0  0  0  0  0  0
  148.6442  141.2489  154.6825 N   0  0  0  0  0  0  0  0  0  0  0  0
  147.7460  142.1252  155.2552 C   0  0  0  0  0  0  0  0  0  0  0  0
  146.5242  141.8761  154.6989 C   0  0  0  0  0  0  0  0  0  0  0  0
  146.7782  140.8124  153.7882 C   0  0  0  0  0  0  0  0  0  0  0  0
  148.0466  140.4358  153.7846 N   0  0  0  0  0  0  0  0  0  0  0  0
  151.1309  141.8628  157.0419 N   0  0  0  0  0  0  0  0  0  0  0  0
  151.5770  141.8878  158.3099 C   0  0  0  0  0  0  0  0  0  0  0  0
  151.4227  140.9413  159.0814 O   0  0  0  0  0  0  0  0  0  0  0  0
  152.3049  142.9945  158.6012 N   0  0  0  0  0  0  0  0  0  0  0  0
  151.9475  144.3077  158.0432 C   0  0  0  0  0  0  0  0  0  0  0  0
  151.0733  145.0506  159.0725 C   0  0  0  0  0  0  0  0  0  0  0  0
  151.7791  145.1813  160.3045 O   0  0  0  0  0  0  0  0  0  0  0  0
  152.1940  143.9328  160.8552 C   0  0  0  0  0  0  0  0  0  0  0  0
  153.0884  143.1987  159.8360 C   0  0  1  0  0  0  0  0  0  0  0  0
  153.7482  141.9345  160.4258 C   0  0  0  0  0  0  0  0  0  0  0  0
  150.5869  138.6074  156.2303 H   0  0  0  0  0  0  0  0  0  0  0  0
  151.3785  139.2724  157.6482 H   0  0  0  0  0  0  0  0  0  0  0  0
  152.1021  139.4896  156.0563 H   0  0  0  0  0  0  0  0  0  0  0  0
  149.4326  140.6654  156.9669 H   0  0  0  0  0  0  0  0  0  0  0  0
  150.5556  142.0375  154.6551 H   0  0  0  0  0  0  0  0  0  0  0  0
  150.4598  140.3286  154.2986 H   0  0  0  0  0  0  0  0  0  0  0  0
  148.0477  142.8453  156.0017 H   0  0  0  0  0  0  0  0  0  0  0  0
  145.5909  142.3762  154.9110 H   0  0  0  0  0  0  0  0  0  0  0  0
  146.0829  140.3045  153.1363 H   0  0  0  0  0  0  0  0  0  0  0  0
  151.3381  142.6585  156.4562 H   0  0  0  0  0  0  0  0  0  0  0  0
  152.8527  144.8796  157.8338 H   0  0  0  0  0  0  0  0  0  0  0  0
  151.4138  144.2443  157.0944 H   0  0  0  0  0  0  0  0  0  0  0  0
  150.8196  146.0449  158.7049 H   0  0  0  0  0  0  0  0  0  0  0  0
  150.1330  144.5219  159.2383 H   0  0  0  0  0  0  0  0  0  0  0  0
  152.7446  144.1267  161.7759 H   0  0  0  0  0  0  0  0  0  0  0  0
  151.3235  143.3314  161.1227 H   0  0  0  0  0  0  0  0  0  0  0  0
  153.9164  143.8627  159.5816 H   0  0  0  0  0  0  0  0  0  0  0  0
  154.4660  142.2071  161.1999 H   0  0  0  0  0  0  0  0  0  0  0  0
  154.2905  141.3765  159.6618 H   0  0  0  0  0  0  0  0  0  0  0  0
  153.0259  141.2650  160.8920 H   0  0  0  0  0  0  0  0  0  0  0  0
  1  2  1  0  0  0  0
  1 19  1  0  0  0  0
  1 20  1  0  0  0  0
  1 21  1  0  0  0  0
  2  3  1  0  0  0  0
  2  9  1  0  0  0  0
  2 22  1  0  0  0  0
  3  4  1  0  0  0  0
  3 23  1  0  0  0  0
  3 24  1  0  0  0  0
  4  8  1  0  0  0  0
  4  5  1  0  0  0  0
  5  6  2  0  0  0  0
  5 25  1  0  0  0  0
  6  7  1  0  0  0  0
  6 26  1  0  0  0  0
  7  8  2  0  0  0  0
  7 27  1  0  0  0  0
  9 10  1  0  0  0  0
  9 28  1  0  0  0  0
 10 11  2  0  0  0  0
 10 12  1  0  0  0  0
 12 17  1  0  0  0  0
 12 13  1  0  0  0  0
 13 14  1  0  0  0  0
 13 29  1  0  0  0  0
 13 30  1  0  0  0  0
 14 15  1  0  0  0  0
 14 31  1  0  0  0  0
 14 32  1  0  0  0  0
 15 16  1  0  0  0  0
 16 17  1  0  0  0  0
 16 33  1  0  0  0  0
 16 34  1  0  0  0  0
 17 18  1  0  0  0  0
 17 35  1  0  0  0  0
 18 36  1  0  0  0  0
 18 37  1  0  0  0  0
 18 38  1  0  0  0  0
M  END
> <s_m_source_file>
AV-unprocessed.smi

> <i_m_source_file_index>
3248

> <i_lp_mmshare_version>
43012

> <i_f3d_flags>
0

> <s_epik_input>
bjFbY0hdW2NIXVtjSF1uMVtDSDJdW0NAQEhdKFtDSDNdKVtOSF1DKD1PKU4yW0NIMl1bQ0gyXU9bQ0gyXVtDQEhdMltDSDNd

> <s_epik_cmdline>
J2VwaWtfcHl0aG9uJywgJy1waCcsICc3LjAnLCAnLXRuJywgJzgnLCAnLW1hJywgJzIwMCcsICctbWV0YWxfYmluZGluZycsICctaW1hZScsICc8aW5maWxlLm1hZT4nLCAnLW9tYWUnLCAnPG91dGZpbGUubWFlPic=

> <r_lp_tautomer_probability>
1

> <r_epik_Ionization_Penalty>
4.45233e-05

> <r_epik_Ionization_Penalty_Charging>
0

> <r_epik_Ionization_Penalty_Neutral>
4.45233e-05

> <r_epik_State_Penalty>
-0

> <r_epik_Charging_Adjusted_Penalty>
0

> <i_epik_Tot_Q>
0

> <i_epik_Tot_abs_Q>
0

> <r_epik_Metal_State_Penalty>
-0

> <b_epik_Metal_Only>
0

> <s_lp_Force_Field>
OPLS_2005

> <r_lp_Energy>
31.5175

> <b_lp_Chiralities_Consistent>
1

> <s_lp_Variant>
AV-unprocessed.smi:3248-1

> <Gold.Version>
5.8.1

> <Gold.Id.Protein>
6NUR|6NUR_protein|mol2

> <Gold.PLP.Fitness>
43.3897

> <Gold.PLP.PLP>
-38.9719

> <Gold.PLP.part.hbond>
-0.0854

> <Gold.PLP.part.metal>
0.0000

> <Gold.PLP.part.buried>
-3.3780

> <Gold.PLP.part.nonpolar>
-36.9978

> <Gold.PLP.part.repulsive>
0.7835

> <Gold.PLP.ligand.clash>
0.0000

> <Gold.PLP.ligand.torsion>
1.0142

> <Gold.PLP.Chemscore.Hbond>
0.0000

> <Gold.PLP.Chemscore.CHOScore>
2.0000

> <Gold.PLP.Chemscore.Metal>
0.0000

> <Gold.Chemscore.Hbonds>
donor molecule, donor type, donor heavy atom, donor atom, acceptor molecule, acceptor atom, score
      L1  C     5    25       P1  8028  0.93
      L1  C     7    27       P1 10175  1.00

> <Gold.PLP.Chemscore.Internal.Correction>
0.4461

> <Gold.Rescore>
     Score         DG    S(hbond)    S(metal)    S(lipo)     H(rot)  DE(clash)    DE(int)     intcor
      9.21     -12.76       0.00        0.00      93.31       1.42       0.04       3.51       ----

> <Gold.Chemscore.Fitness>
9.2055

> <Gold.Chemscore.DG>
-12.7642

> <Gold.Chemscore.ZeroCoef>
-5.4800

> <Gold.Chemscore.Hbond>
0.0000

> <Gold.Chemscore.Metal>
0.0000

> <Gold.Chemscore.Lipo>
93.3096

> <Gold.Chemscore.Internal_Hbond>
0.0000

> <Gold.Chemscore.DEClash>
0.0449

> <Gold.Chemscore.DEInternal>
3.5138

> <Gold.Chemscore.Rot>
1.4191

> <Gold.Chemscore.Internal.Correction>
   9.000000E+99

> <Gold.Chemscore.Hbond.Weighted>
-0.0000

> <Gold.Chemscore.Metal.Weighted>
-0.0000

> <Gold.Chemscore.Lipo.Weighted>
-10.9172

> <Gold.Chemscore.Internal_Hbond.Weighted>
0.0000

> <Gold.Chemscore.DEClash.Weighted>
0.0449

> <Gold.Chemscore.DEInternal.Weighted>
3.5138

> <Gold.Chemscore.Rot.Weighted>
3.6330

> <Gold.Chemscore.Internal.Correction.Weighted>
   9.000000E+99

> <Gold.Protein.RotatedTorsions>
[ 6907 6896 6895 6894 ] final -144.67 input  -60.11 | X-H torsion
[ 7974 7965 7964 7962 ] final  -15.05 input  175.53 | X-H torsion
[ 8008 7997 7996 7995 ] final -149.01 input   59.86 | X-H torsion
[ 10167 10162 10161 10158 ] final -168.69 input  -65.29 | X-H torsion
[ 10718 10713 10712 10709 ] final   58.81 input   66.30 | X-H torsion
[ 10763 10752 10751 10750 ] final -134.66 input  -60.55 | X-H torsion
[ 11005 11000 10999 10996 ] final  108.77 input  -57.11 | X-H torsion

> <Gold.Protein.ActiveResidues>
 VAL166  LYS551  ARG553  GLY616  TRP617  ASP618  TYR619  PRO620  LYS621  CYS622 
 ASP623  PHE694  ASN695  SER759  ASP760  ASP761  ALA762  ILE779  LEU786  VAL792 
 PHE793  MET794  SER795  GLU796  ALA797  LYS798  CYS799  TRP800  GLU811  SER814 

> <Gold.Protein.RotatedAtoms>
  151.1173  133.5129  159.2603 H   0  0  0  0  0  0  0  0  0  0  0  0  # atno 6907 bound_to 6896
  151.1901  135.0398  159.8839 H   0  0  0  0  0  0  0  0  0  0  0  0  # atno 6908 bound_to 6896
  152.5454  134.1014  159.8373 H   0  0  0  0  0  0  0  0  0  0  0  0  # atno 6909 bound_to 6896
  146.2048  140.3437  142.8411 H   0  0  0  0  0  0  0  0  0  0  0  0  # atno 7974 bound_to 7965
  155.6008  140.0662  157.2733 H   0  0  0  0  0  0  0  0  0  0  0  0  # atno 8008 bound_to 7997
  154.4279  140.1818  156.1219 H   0  0  0  0  0  0  0  0  0  0  0  0  # atno 8009 bound_to 7997
  156.0160  140.3322  155.6993 H   0  0  0  0  0  0  0  0  0  0  0  0  # atno 8010 bound_to 7997
  139.5969  144.1093  152.1699 H   0  0  0  0  0  0  0  0  0  0  0  0  # atno 10167 bound_to 10162
  157.5626  130.8847  149.9135 H   0  0  0  0  0  0  0  0  0  0  0  0  # atno 10718 bound_to 10713
  154.8715  135.3727  154.4772 H   0  0  0  0  0  0  0  0  0  0  0  0  # atno 10763 bound_to 10752
  153.5428  135.7026  153.5633 H   0  0  0  0  0  0  0  0  0  0  0  0  # atno 10764 bound_to 10752
  153.3787  135.4002  155.1805 H   0  0  0  0  0  0  0  0  0  0  0  0  # atno 10765 bound_to 10752
  139.8850  134.9440  156.6023 H   0  0  0  0  0  0  0  0  0  0  0  0  # atno 11005 bound_to 11000
  144.8767  140.7346  143.6012 LP  0  0  0  0  0  0  0  0  0  0  0  0  # atno 17320 bound_to 7965
  145.3357  139.1746  143.4513 LP  0  0  0  0  0  0  0  0  0  0  0  0  # atno 17321 bound_to 7965
  140.0680  144.5803  150.7213 LP  0  0  0  0  0  0  0  0  0  0  0  0  # atno 17342 bound_to 10162
  140.7219  143.2597  151.4250 LP  0  0  0  0  0  0  0  0  0  0  0  0  # atno 17343 bound_to 10162
  156.0677  130.3690  150.0843 LP  0  0  0  0  0  0  0  0  0  0  0  0  # atno 17370 bound_to 10713
  156.9006  130.9619  151.3577 LP  0  0  0  0  0  0  0  0  0  0  0  0  # atno 17371 bound_to 10713
  140.7874  133.8610  155.8617 LP  0  0  0  0  0  0  0  0  0  0  0  0  # atno 17394 bound_to 11000
  140.9707  134.1534  157.4578 LP  0  0  0  0  0  0  0  0  0  0  0  0  # atno 17395 bound_to 11000

$$$$
