AV-unprocessed.smi:1671|AV-procd|sdf|6700|dock5
  -GOLD-   22720 7433D 1   1.00000     0.00000
 Structure written by MMmdl.
 44 45  0  0  0  0  0  0  0  0  1 V2000
  149.3721  133.1453  153.6885 C   0  0  0  0  0  0  0  0  0  0  0  0
  149.1697  133.6547  155.4174 S   0  0  0  0  0  0  0  0  0  0  0  0
  149.1195  135.4635  155.2425 C   0  0  1  0  0  0  0  0  0  0  0  0
  148.1453  136.0690  156.2653 C   0  0  0  0  0  0  0  0  0  0  0  0
  150.5134  136.0903  155.3685 C   0  0  0  0  0  0  0  0  0  0  0  0
  151.4947  135.3852  155.6060 O   0  0  0  0  0  0  0  0  0  0  0  0
  150.5885  137.4201  155.2019 N   0  0  0  0  0  0  0  0  0  0  0  0
  151.8172  138.2034  155.2793 C   0  0  0  0  0  0  0  0  0  0  0  0
  151.7564  139.3769  156.2470 C   0  0  0  0  0  0  0  0  0  0  0  0
  151.0563  140.5641  155.9454 C   0  0  0  0  0  0  0  0  0  0  0  0
  151.0474  141.6106  156.8869 C   0  0  0  0  0  0  0  0  0  0  0  0
  151.7414  141.4470  158.1095 C   0  0  0  0  0  0  0  0  0  0  0  0
  151.7428  142.4812  159.0709 N   0  0  0  0  0  0  0  0  0  0  0  0
  151.7242  143.8623  158.5926 C   0  0  0  0  0  0  0  0  0  0  0  0
  151.4314  144.8268  159.7532 C   0  0  0  0  0  0  0  0  0  0  0  0
  152.3733  144.6165  160.8000 O   0  0  0  0  0  0  0  0  0  0  0  0
  152.2991  143.2965  161.3314 C   0  0  2  0  0  0  0  0  0  0  0  0
  153.2780  143.1952  162.5056 C   0  0  0  0  0  0  0  0  0  0  0  0
  152.6230  142.2799  160.2192 C   0  0  0  0  0  0  0  0  0  0  0  0
  152.4254  140.3098  158.3882 N   0  0  0  0  0  0  0  0  0  0  0  0
  152.4296  139.3093  157.4828 C   0  0  0  0  0  0  0  0  0  0  0  0
  149.3537  132.0581  153.6157 H   0  0  0  0  0  0  0  0  0  0  0  0
  150.3229  133.4984  153.2898 H   0  0  0  0  0  0  0  0  0  0  0  0
  148.5648  133.5455  153.0752 H   0  0  0  0  0  0  0  0  0  0  0  0
  148.7272  135.6811  154.2477 H   0  0  0  0  0  0  0  0  0  0  0  0
  148.1067  137.1558  156.1827 H   0  0  0  0  0  0  0  0  0  0  0  0
  148.4319  135.8216  157.2882 H   0  0  0  0  0  0  0  0  0  0  0  0
  147.1340  135.6935  156.1076 H   0  0  0  0  0  0  0  0  0  0  0  0
  149.7358  137.9244  155.0063 H   0  0  0  0  0  0  0  0  0  0  0  0
  152.6513  137.5503  155.5424 H   0  0  0  0  0  0  0  0  0  0  0  0
  152.0339  138.5931  154.2845 H   0  0  0  0  0  0  0  0  0  0  0  0
  150.5343  140.6808  155.0072 H   0  0  0  0  0  0  0  0  0  0  0  0
  150.5244  142.5259  156.6542 H   0  0  0  0  0  0  0  0  0  0  0  0
  152.6889  144.1020  158.1431 H   0  0  0  0  0  0  0  0  0  0  0  0
  150.9636  143.9859  157.8207 H   0  0  0  0  0  0  0  0  0  0  0  0
  151.5055  145.8589  159.4110 H   0  0  0  0  0  0  0  0  0  0  0  0
  150.4161  144.6879  160.1282 H   0  0  0  0  0  0  0  0  0  0  0  0
  151.2894  143.1187  161.7065 H   0  0  0  0  0  0  0  0  0  0  0  0
  153.2503  142.2020  162.9547 H   0  0  0  0  0  0  0  0  0  0  0  0
  153.0300  143.9183  163.2830 H   0  0  0  0  0  0  0  0  0  0  0  0
  154.3017  143.3895  162.1840 H   0  0  0  0  0  0  0  0  0  0  0  0
  152.5330  141.2728  160.6234 H   0  0  0  0  0  0  0  0  0  0  0  0
  153.6570  142.3975  159.8914 H   0  0  0  0  0  0  0  0  0  0  0  0
  152.9878  138.4261  157.7564 H   0  0  0  0  0  0  0  0  0  0  0  0
  1  2  1  0  0  0  0
  1 22  1  0  0  0  0
  1 23  1  0  0  0  0
  1 24  1  0  0  0  0
  2  3  1  0  0  0  0
  3  4  1  0  0  0  0
  3  5  1  0  0  0  0
  3 25  1  0  0  0  0
  4 26  1  0  0  0  0
  4 27  1  0  0  0  0
  4 28  1  0  0  0  0
  5  6  2  0  0  0  0
  5  7  1  0  0  0  0
  7  8  1  0  0  0  0
  7 29  1  0  0  0  0
  8  9  1  0  0  0  0
  8 30  1  0  0  0  0
  8 31  1  0  0  0  0
  9 21  1  0  0  0  0
  9 10  2  0  0  0  0
 10 11  1  0  0  0  0
 10 32  1  0  0  0  0
 11 12  2  0  0  0  0
 11 33  1  0  0  0  0
 12 13  1  0  0  0  0
 12 20  1  0  0  0  0
 13 19  1  0  0  0  0
 13 14  1  0  0  0  0
 14 15  1  0  0  0  0
 14 34  1  0  0  0  0
 14 35  1  0  0  0  0
 15 16  1  0  0  0  0
 15 36  1  0  0  0  0
 15 37  1  0  0  0  0
 16 17  1  0  0  0  0
 17 18  1  0  0  0  0
 17 19  1  0  0  0  0
 17 38  1  0  0  0  0
 18 39  1  0  0  0  0
 18 40  1  0  0  0  0
 18 41  1  0  0  0  0
 19 42  1  0  0  0  0
 19 43  1  0  0  0  0
 20 21  2  0  0  0  0
 21 44  1  0  0  0  0
M  END
> <s_m_source_file>
AV-unprocessed.smi

> <i_m_source_file_index>
1671

> <i_lp_mmshare_version>
43012

> <i_f3d_flags>
0

> <s_epik_input>
W0NIM11TW0NASF0oW0NIM10pQyg9TylbTkhdW0NIMl1jMVtjSF1bY0hdYyhuW2NIXTEpTjJbQ0gyXVtDSDJdT1tDQEBIXShbQ0gzXSlbQ0gyXTI=

> <s_epik_cmdline>
J2VwaWtfcHl0aG9uJywgJy1waCcsICc3LjAnLCAnLXRuJywgJzgnLCAnLW1hJywgJzIwMCcsICctbWV0YWxfYmluZGluZycsICctaW1hZScsICc8aW5maWxlLm1hZT4nLCAnLW9tYWUnLCAnPG91dGZpbGUubWFlPic=

> <r_lp_tautomer_probability>
1

> <r_epik_Ionization_Penalty>
0.00480033

> <r_epik_Ionization_Penalty_Charging>
0

> <r_epik_Ionization_Penalty_Neutral>
0.00480033

> <r_epik_State_Penalty>
0.00347981

> <r_epik_Charging_Adjusted_Penalty>
0.00347981

> <i_epik_Tot_Q>
0

> <i_epik_Tot_abs_Q>
0

> <r_epik_Metal_State_Penalty>
-0

> <b_epik_Metal_Only>
0

> <s_lp_Force_Field>
OPLS_2005

> <r_lp_Energy>
15.0592

> <b_lp_Chiralities_Consistent>
1

> <s_lp_Variant>
AV-unprocessed.smi:1671-4

> <Gold.Version>
5.8.1

> <Gold.Id.Protein>
6NUR|6NUR_protein|mol2

> <Gold.PLP.Fitness>
42.2949

> <Gold.PLP.PLP>
-41.0235

> <Gold.PLP.part.hbond>
-1.0000

> <Gold.PLP.part.metal>
0.0000

> <Gold.PLP.part.buried>
-3.2826

> <Gold.PLP.part.nonpolar>
-36.1023

> <Gold.PLP.part.repulsive>
0.2535

> <Gold.PLP.ligand.clash>
0.0000

> <Gold.PLP.ligand.torsion>
1.0546

> <Gold.PLP.Chemscore.Hbond>
1.0000

> <Gold.PLP.Chemscore.CHOScore>
0.0000

> <Gold.PLP.Chemscore.Metal>
0.0000

> <Gold.Chemscore.Hbonds>
donor molecule, donor type, donor heavy atom, donor atom, acceptor molecule, acceptor atom, score
      P1  H 10752 10763       L1     6  1.00

> <Gold.PLP.Chemscore.Internal.Correction>
0.3807

> <Gold.Rescore>
     Score         DG    S(hbond)    S(metal)    S(lipo)     H(rot)  DE(clash)    DE(int)     intcor
     15.72     -16.99       0.99        0.00     105.62       1.63       0.05       1.22       ----

> <Gold.Chemscore.Fitness>
15.7174

> <Gold.Chemscore.DG>
-16.9905

> <Gold.Chemscore.ZeroCoef>
-5.4800

> <Gold.Chemscore.Hbond>
0.9936

> <Gold.Chemscore.Metal>
0.0000

> <Gold.Chemscore.Lipo>
105.6194

> <Gold.Chemscore.Internal_Hbond>
0.0000

> <Gold.Chemscore.DEClash>
0.0525

> <Gold.Chemscore.DEInternal>
1.2205

> <Gold.Chemscore.Rot>
1.6272

> <Gold.Chemscore.Internal.Correction>
   9.000000E+99

> <Gold.Chemscore.Hbonds>
donor molecule, donor type, donor heavy atom, donor atom, acceptor molecule, acceptor atom, score
      P1  H 10752 10763       L1     6  0.98

> <Gold.Chemscore.Hbond.Weighted>
-3.3187

> <Gold.Chemscore.Metal.Weighted>
-0.0000

> <Gold.Chemscore.Lipo.Weighted>
-12.3575

> <Gold.Chemscore.Internal_Hbond.Weighted>
0.0000

> <Gold.Chemscore.DEClash.Weighted>
0.0525

> <Gold.Chemscore.DEInternal.Weighted>
1.2205

> <Gold.Chemscore.Rot.Weighted>
4.1657

> <Gold.Chemscore.Internal.Correction.Weighted>
   9.000000E+99

> <Gold.Protein.RotatedTorsions>
[ 6907 6896 6895 6894 ] final -174.83 input  -60.11 | X-H torsion
[ 7974 7965 7964 7962 ] final  -37.23 input  175.53 | X-H torsion
[ 8008 7997 7996 7995 ] final  -53.34 input   59.86 | X-H torsion
[ 10167 10162 10161 10158 ] final  174.52 input  -65.29 | X-H torsion
[ 10718 10713 10712 10709 ] final  143.42 input   66.30 | X-H torsion
[ 10763 10752 10751 10750 ] final   72.60 input  -60.55 | X-H torsion
[ 11005 11000 10999 10996 ] final -121.58 input  -57.11 | X-H torsion

> <Gold.Protein.ActiveResidues>
 VAL166  LYS551  ARG553  GLY616  TRP617  ASP618  TYR619  PRO620  LYS621  CYS622 
 ASP623  PHE694  ASN695  SER759  ASP760  ASP761  ALA762  ILE779  LEU786  VAL792 
 PHE793  MET794  SER795  GLU796  ALA797  LYS798  CYS799  TRP800  GLU811  SER814 

> <Gold.Protein.RotatedAtoms>
  151.5787  133.3380  159.3003 H   0  0  0  0  0  0  0  0  0  0  0  0  # atno 6907 bound_to 6896
  150.8325  134.7588  159.6877 H   0  0  0  0  0  0  0  0  0  0  0  0  # atno 6908 bound_to 6896
  152.4407  134.5603  159.9944 H   0  0  0  0  0  0  0  0  0  0  0  0  # atno 6909 bound_to 6896
  146.0593  140.6372  142.9005 H   0  0  0  0  0  0  0  0  0  0  0  0  # atno 7974 bound_to 7965
  154.4130  140.1202  156.5138 H   0  0  0  0  0  0  0  0  0  0  0  0  # atno 8008 bound_to 7997
  155.6772  140.3496  155.4822 H   0  0  0  0  0  0  0  0  0  0  0  0  # atno 8009 bound_to 7997
  155.9582  140.1118  157.0908 H   0  0  0  0  0  0  0  0  0  0  0  0  # atno 8010 bound_to 7997
  139.5145  144.3137  152.0267 H   0  0  0  0  0  0  0  0  0  0  0  0  # atno 10167 bound_to 10162
  157.3691  131.0976  151.0845 H   0  0  0  0  0  0  0  0  0  0  0  0  # atno 10718 bound_to 10713
  153.0469  135.5094  154.7768 H   0  0  0  0  0  0  0  0  0  0  0  0  # atno 10763 bound_to 10752
  154.6661  135.2946  154.9806 H   0  0  0  0  0  0  0  0  0  0  0  0  # atno 10764 bound_to 10752
  154.0640  135.6687  153.4868 H   0  0  0  0  0  0  0  0  0  0  0  0  # atno 10765 bound_to 10752
  141.0059  134.0335  157.3477 H   0  0  0  0  0  0  0  0  0  0  0  0  # atno 11005 bound_to 11000
  144.7165  140.4228  143.7040 LP  0  0  0  0  0  0  0  0  0  0  0  0  # atno 17320 bound_to 7965
  145.6589  139.1578  143.2819 LP  0  0  0  0  0  0  0  0  0  0  0  0  # atno 17321 bound_to 7965
  140.2581  144.4097  150.6196 LP  0  0  0  0  0  0  0  0  0  0  0  0  # atno 17342 bound_to 10162
  140.6177  143.2173  151.6758 LP  0  0  0  0  0  0  0  0  0  0  0  0  # atno 17343 bound_to 10162
  157.1956  130.6371  149.5720 LP  0  0  0  0  0  0  0  0  0  0  0  0  # atno 17370 bound_to 10713
  155.9752  130.4708  150.6442 LP  0  0  0  0  0  0  0  0  0  0  0  0  # atno 17371 bound_to 10713
  139.9063  135.0180  156.7500 LP  0  0  0  0  0  0  0  0  0  0  0  0  # atno 17394 bound_to 11000
  140.6813  133.9472  155.7912 LP  0  0  0  0  0  0  0  0  0  0  0  0  # atno 17395 bound_to 11000

$$$$
