AV-unprocessed.smi:699|AV-procd|sdf|3402|dock1
  -GOLD-   22720 0383D 1   1.00000     0.00000
 Structure written by MMmdl.
 34 35  0  0  0  0  0  0  0  0  1 V2000
  142.2682  134.4617  154.6921 N   0  0  0  0  0  0  0  0  0  0  0  0
  142.5396  135.4946  153.8905 C   0  0  0  0  0  0  0  0  0  0  0  0
  141.7458  136.4193  153.7262 O   0  0  0  0  0  0  0  0  0  0  0  0
  143.8977  135.4829  153.1727 C   0  0  1  0  0  0  0  0  0  0  0  0
  144.2644  134.1077  152.5968 C   0  0  0  0  0  0  0  0  0  0  0  0
  145.2529  134.4225  151.4781 C   0  0  0  0  0  0  0  0  0  0  0  0
  144.7234  135.7120  150.8508 C   0  0  0  0  0  0  0  0  0  0  0  0
  143.9582  136.4525  151.9669 C   0  0  2  0  0  0  0  0  0  0  0  0
  144.6086  137.7072  152.3409 N   0  0  0  0  0  0  0  0  0  0  0  0
  145.8698  137.8219  152.7812 C   0  0  0  0  0  0  0  0  0  0  0  0
  146.6226  136.8604  152.9340 O   0  0  0  0  0  0  0  0  0  0  0  0
  146.1760  139.1053  153.0413 N   0  0  0  0  0  0  0  0  0  0  0  0
  147.3960  139.6590  153.5187 C   0  0  0  0  0  0  0  0  0  0  0  0
  148.4501  138.7653  153.8013 C   0  0  0  0  0  0  0  0  0  0  0  0
  149.6679  139.2808  154.2878 C   0  0  0  0  0  0  0  0  0  0  0  0
  149.8816  140.5949  154.5077 N   0  0  0  0  0  0  0  0  0  0  0  0
  148.8686  141.4483  154.2487 C   0  0  0  0  0  0  0  0  0  0  0  0
  147.6120  141.0376  153.7602 C   0  0  0  0  0  0  0  0  0  0  0  0
  141.3845  134.4267  155.1792 H   0  0  0  0  0  0  0  0  0  0  0  0
  142.9414  133.7181  154.8054 H   0  0  0  0  0  0  0  0  0  0  0  0
  144.6806  135.7507  153.8858 H   0  0  0  0  0  0  0  0  0  0  0  0
  144.6974  133.4465  153.3479 H   0  0  0  0  0  0  0  0  0  0  0  0
  143.3891  133.6073  152.1793 H   0  0  0  0  0  0  0  0  0  0  0  0
  146.2416  134.6012  151.9031 H   0  0  0  0  0  0  0  0  0  0  0  0
  145.3433  133.6107  150.7557 H   0  0  0  0  0  0  0  0  0  0  0  0
  145.5266  136.3029  150.4087 H   0  0  0  0  0  0  0  0  0  0  0  0
  144.0304  135.4647  150.0455 H   0  0  0  0  0  0  0  0  0  0  0  0
  142.9525  136.6777  151.6050 H   0  0  0  0  0  0  0  0  0  0  0  0
  144.0572  138.5482  152.2528 H   0  0  0  0  0  0  0  0  0  0  0  0
  145.4241  139.7681  152.9227 H   0  0  0  0  0  0  0  0  0  0  0  0
  148.3341  137.7026  153.6456 H   0  0  0  0  0  0  0  0  0  0  0  0
  150.4920  138.6183  154.5076 H   0  0  0  0  0  0  0  0  0  0  0  0
  149.0631  142.4929  154.4421 H   0  0  0  0  0  0  0  0  0  0  0  0
  146.8492  141.7820  153.5948 H   0  0  0  0  0  0  0  0  0  0  0  0
  1  2  1  0  0  0  0
  1 19  1  0  0  0  0
  1 20  1  0  0  0  0
  2  3  2  0  0  0  0
  2  4  1  0  0  0  0
  4  8  1  0  0  0  0
  4  5  1  0  0  0  0
  4 21  1  0  0  0  0
  5  6  1  0  0  0  0
  5 22  1  0  0  0  0
  5 23  1  0  0  0  0
  6  7  1  0  0  0  0
  6 24  1  0  0  0  0
  6 25  1  0  0  0  0
  7  8  1  0  0  0  0
  7 26  1  0  0  0  0
  7 27  1  0  0  0  0
  8  9  1  0  0  0  0
  8 28  1  0  0  0  0
  9 10  1  0  0  0  0
  9 29  1  0  0  0  0
 10 11  2  0  0  0  0
 10 12  1  0  0  0  0
 12 13  1  0  0  0  0
 12 30  1  0  0  0  0
 13 18  1  0  0  0  0
 13 14  2  0  0  0  0
 14 15  1  0  0  0  0
 14 31  1  0  0  0  0
 15 16  2  0  0  0  0
 15 32  1  0  0  0  0
 16 17  1  0  0  0  0
 17 18  2  0  0  0  0
 17 33  1  0  0  0  0
 18 34  1  0  0  0  0
M  END
> <s_m_source_file>
AV-unprocessed.smi

> <i_m_source_file_index>
699

> <i_lp_mmshare_version>
43012

> <i_f3d_flags>
0

> <s_epik_input>
W05IMl1DKD1PKVtDQEBIXTFbQ0gyXVtDSDJdW0NIMl1bQ0BIXTFbTkhdQyg9TylbTkhdYzJbY0hdW2NIXW5bY0hdW2NIXTI=

> <s_epik_cmdline>
J2VwaWtfcHl0aG9uJywgJy1waCcsICc3LjAnLCAnLXRuJywgJzgnLCAnLW1hJywgJzIwMCcsICctbWV0YWxfYmluZGluZycsICctaW1hZScsICc8aW5maWxlLm1hZT4nLCAnLW9tYWUnLCAnPG91dGZpbGUubWFlPic=

> <r_epik_Ionization_Penalty>
0.113907

> <r_epik_Ionization_Penalty_Charging>
0

> <r_epik_Ionization_Penalty_Neutral>
0.113907

> <r_epik_State_Penalty>
0.103543

> <r_epik_Charging_Adjusted_Penalty>
0.103543

> <i_epik_Tot_Q>
0

> <i_epik_Tot_abs_Q>
0

> <r_epik_Metal_State_Penalty>
0.0867106

> <b_epik_Metal_Only>
0

> <s_lp_Force_Field>
OPLS_2005

> <r_lp_Energy>
21.0397

> <b_lp_Chiralities_Consistent>
1

> <s_lp_Variant>
AV-unprocessed.smi:699-4

> <Gold.Version>
5.8.1

> <Gold.Id.Protein>
6NUR|6NUR_protein|mol2

> <Gold.PLP.Fitness>
43.7015

> <Gold.PLP.PLP>
-28.4207

> <Gold.PLP.part.hbond>
-6.0000

> <Gold.PLP.part.metal>
0.0000

> <Gold.PLP.part.buried>
-0.8757

> <Gold.PLP.part.nonpolar>
-23.3961

> <Gold.PLP.part.repulsive>
3.4976

> <Gold.PLP.ligand.clash>
0.0000

> <Gold.PLP.ligand.torsion>
0.4630

> <Gold.PLP.Chemscore.Hbond>
4.4010

> <Gold.PLP.Chemscore.CHOScore>
1.0000

> <Gold.PLP.Chemscore.Metal>
0.0000

> <Gold.Chemscore.Hbonds>
donor molecule, donor type, donor heavy atom, donor atom, acceptor molecule, acceptor atom, score
      L1  H     1    19       P1 11000  1.00
      L1  H     1    20       P1 10957  0.58
      L1  H     9    29       P1 10175  1.00
      L1  H    12    30       P1 10175  1.00
      P1  H  7989  7998       L1    16  0.80
      L1  C    17    33       P1  8028  1.00

> <Gold.PLP.Chemscore.Internal.Correction>
0.0037

> <Gold.Rescore>
     Score         DG    S(hbond)    S(metal)    S(lipo)     H(rot)  DE(clash)    DE(int)     intcor
     16.93     -22.06       4.07        0.00      58.02       1.49       1.96       3.17       ----

> <Gold.Chemscore.Fitness>
16.9298

> <Gold.Chemscore.DG>
-22.0627

> <Gold.Chemscore.ZeroCoef>
-5.4800

> <Gold.Chemscore.Hbond>
4.0739

> <Gold.Chemscore.Metal>
0.0000

> <Gold.Chemscore.Lipo>
58.0186

> <Gold.Chemscore.Internal_Hbond>
0.0000

> <Gold.Chemscore.DEClash>
1.9618

> <Gold.Chemscore.DEInternal>
3.1711

> <Gold.Chemscore.Rot>
1.4892

> <Gold.Chemscore.Internal.Correction>
   9.000000E+99

> <Gold.Chemscore.Hbonds>
donor molecule, donor type, donor heavy atom, donor atom, acceptor molecule, acceptor atom, score
      L1  H     1    19       P1 11000  0.91
      L1  H     1    20       P1 10957  0.57
      L1  H     9    29       P1 10175  0.98
      L1  H    12    30       P1 10175  0.99
      P1  H  7989  7998       L1    16  0.21

> <Gold.Chemscore.Hbond.Weighted>
-13.6068

> <Gold.Chemscore.Metal.Weighted>
-0.0000

> <Gold.Chemscore.Lipo.Weighted>
-6.7882

> <Gold.Chemscore.Internal_Hbond.Weighted>
0.0000

> <Gold.Chemscore.DEClash.Weighted>
1.9618

> <Gold.Chemscore.DEInternal.Weighted>
3.1711

> <Gold.Chemscore.Rot.Weighted>
3.8123

> <Gold.Chemscore.Internal.Correction.Weighted>
   9.000000E+99

> <Gold.Protein.RotatedTorsions>
[ 6907 6896 6895 6894 ] final   54.87 input  -60.11 | X-H torsion
[ 7974 7965 7964 7962 ] final   79.70 input  175.53 | X-H torsion
[ 8008 7997 7996 7995 ] final   -4.08 input   59.86 | X-H torsion
[ 10167 10162 10161 10158 ] final   -6.21 input  -65.29 | X-H torsion
[ 10718 10713 10712 10709 ] final  -50.92 input   66.30 | X-H torsion
[ 10763 10752 10751 10750 ] final   16.40 input  -60.55 | X-H torsion
[ 11005 11000 10999 10996 ] final -166.34 input  -57.11 | X-H torsion

> <Gold.Protein.ActiveResidues>
 VAL166  LYS551  ARG553  GLY616  TRP617  ASP618  TYR619  PRO620  LYS621  CYS622 
 ASP623  PHE694  ASN695  SER759  ASP760  ASP761  ALA762  ILE779  LEU786  VAL792 
 PHE793  MET794  SER795  GLU796  ALA797  LYS798  CYS799  TRP800  GLU811  SER814 

> <Gold.Protein.RotatedAtoms>
  152.3482  134.7042  160.0243 H   0  0  0  0  0  0  0  0  0  0  0  0  # atno 6907 bound_to 6896
  151.7405  133.3316  159.3372 H   0  0  0  0  0  0  0  0  0  0  0  0  # atno 6908 bound_to 6896
  150.7523  134.6216  159.6183 H   0  0  0  0  0  0  0  0  0  0  0  0  # atno 6909 bound_to 6896
  145.6609  139.2471  143.1923 H   0  0  0  0  0  0  0  0  0  0  0  0  # atno 7974 bound_to 7965
  154.6181  140.2493  155.7584 H   0  0  0  0  0  0  0  0  0  0  0  0  # atno 8008 bound_to 7997
  156.2410  140.2932  156.0394 H   0  0  0  0  0  0  0  0  0  0  0  0  # atno 8009 bound_to 7997
  155.1942  140.0392  157.2896 H   0  0  0  0  0  0  0  0  0  0  0  0  # atno 8010 bound_to 7997
  140.6989  143.6220  150.8603 H   0  0  0  0  0  0  0  0  0  0  0  0  # atno 10167 bound_to 10162
  156.1757  130.4150  149.9581 H   0  0  0  0  0  0  0  0  0  0  0  0  # atno 10718 bound_to 10713
  153.1434  135.6764  153.8991 H   0  0  0  0  0  0  0  0  0  0  0  0  # atno 10763 bound_to 10752
  153.8441  135.3101  155.3429 H   0  0  0  0  0  0  0  0  0  0  0  0  # atno 10764 bound_to 10752
  154.7806  135.4890  153.9921 H   0  0  0  0  0  0  0  0  0  0  0  0  # atno 10765 bound_to 10752
  140.5655  134.5290  157.5152 H   0  0  0  0  0  0  0  0  0  0  0  0  # atno 11005 bound_to 11000
  146.1126  140.7409  142.9496 LP  0  0  0  0  0  0  0  0  0  0  0  0  # atno 17320 bound_to 7965
  144.7089  140.3964  143.7096 LP  0  0  0  0  0  0  0  0  0  0  0  0  # atno 17321 bound_to 7965
  139.9940  143.5816  152.2900 LP  0  0  0  0  0  0  0  0  0  0  0  0  # atno 17342 bound_to 10162
  139.6481  144.7659  151.2203 LP  0  0  0  0  0  0  0  0  0  0  0  0  # atno 17343 bound_to 10162
  156.7368  130.9064  151.3629 LP  0  0  0  0  0  0  0  0  0  0  0  0  # atno 17370 bound_to 10713
  157.6834  130.9161  150.0323 LP  0  0  0  0  0  0  0  0  0  0  0  0  # atno 17371 bound_to 10713
  139.9387  134.7828  156.0735 LP  0  0  0  0  0  0  0  0  0  0  0  0  # atno 17394 bound_to 11000
  141.1088  133.6650  156.2928 LP  0  0  0  0  0  0  0  0  0  0  0  0  # atno 17395 bound_to 11000

$$$$
