AV-unprocessed.smi:2340|AV-procd|sdf|9347|dock3
  -GOLD-   2272012563D 1   1.00000     0.00000
 Structure written by MMmdl.
 40 41  0  0  0  0  0  0  0  0  1 V2000
  147.0089  140.3377  153.9072 C   0  0  0  0  0  0  0  0  0  0  0  0
  148.4141  140.3522  154.4196 C   0  0  0  0  0  0  0  0  0  0  0  0
  149.0042  141.3232  155.1896 C   0  0  0  0  0  0  0  0  0  0  0  0
  150.6675  140.9475  155.5454 S   0  0  0  0  0  0  0  0  0  0  0  0
  150.4982  139.4587  154.6213 C   0  0  0  0  0  0  0  0  0  0  0  0
  151.6266  138.4975  154.3990 C   0  0  1  0  0  0  0  0  0  0  0  0
  152.9903  139.1299  154.7126 C   0  0  0  0  0  0  0  0  0  0  0  0
  151.4182  137.1394  155.1038 C   0  0  0  0  0  0  0  0  0  0  0  0
  150.4826  136.2780  154.3824 N   0  0  0  0  0  0  0  0  0  0  0  0
  149.8535  135.2097  154.8936 C   0  0  0  0  0  0  0  0  0  0  0  0
  150.0216  134.7886  156.0379 O   0  0  0  0  0  0  0  0  0  0  0  0
  149.0092  134.6619  154.0088 N   0  0  0  0  0  0  0  0  0  0  0  0
  148.1392  133.5145  154.2696 C   0  0  1  0  0  0  0  0  0  0  0  0
  147.1866  133.2870  153.0968 C   0  0  0  0  0  0  0  0  0  0  0  0
  147.3204  131.7990  152.7912 C   0  0  0  0  0  0  0  0  0  0  0  0
  148.6558  131.5089  153.1640 O   0  0  0  0  0  0  0  0  0  0  0  0
  148.8992  132.1735  154.3951 C   0  0  1  0  0  0  0  0  0  0  0  0
  150.4100  132.2336  154.6726 C   0  0  0  0  0  0  0  0  0  0  0  0
  149.2732  139.2940  154.1130 N   0  0  0  0  0  0  0  0  0  0  0  0
  146.4547  141.2174  154.2352 H   0  0  0  0  0  0  0  0  0  0  0  0
  146.4703  139.4578  154.2592 H   0  0  0  0  0  0  0  0  0  0  0  0
  146.9899  140.3246  152.8172 H   0  0  0  0  0  0  0  0  0  0  0  0
  148.5650  142.2360  155.5635 H   0  0  0  0  0  0  0  0  0  0  0  0
  151.6340  138.2872  153.3287 H   0  0  0  0  0  0  0  0  0  0  0  0
  153.1479  140.0350  154.1250 H   0  0  0  0  0  0  0  0  0  0  0  0
  153.8040  138.4414  154.4831 H   0  0  0  0  0  0  0  0  0  0  0  0
  153.0700  139.3981  155.7664 H   0  0  0  0  0  0  0  0  0  0  0  0
  152.3701  136.6131  155.1792 H   0  0  0  0  0  0  0  0  0  0  0  0
  151.0805  137.2998  156.1292 H   0  0  0  0  0  0  0  0  0  0  0  0
  150.2759  136.5357  153.4285 H   0  0  0  0  0  0  0  0  0  0  0  0
  148.9472  135.0772  153.0909 H   0  0  0  0  0  0  0  0  0  0  0  0
  147.5580  133.6817  155.1784 H   0  0  0  0  0  0  0  0  0  0  0  0
  146.1592  133.5696  153.3278 H   0  0  0  0  0  0  0  0  0  0  0  0
  147.4973  133.8617  152.2229 H   0  0  0  0  0  0  0  0  0  0  0  0
  146.6345  131.2117  153.4037 H   0  0  0  0  0  0  0  0  0  0  0  0
  147.1328  131.5648  151.7432 H   0  0  0  0  0  0  0  0  0  0  0  0
  148.4257  131.5825  155.1814 H   0  0  0  0  0  0  0  0  0  0  0  0
  150.6175  132.7526  155.6086 H   0  0  0  0  0  0  0  0  0  0  0  0
  150.9461  132.7458  153.8732 H   0  0  0  0  0  0  0  0  0  0  0  0
  150.8261  131.2293  154.7532 H   0  0  0  0  0  0  0  0  0  0  0  0
  1  2  1  0  0  0  0
  1 20  1  0  0  0  0
  1 21  1  0  0  0  0
  1 22  1  0  0  0  0
  2 19  1  0  0  0  0
  2  3  2  0  0  0  0
  3  4  1  0  0  0  0
  3 23  1  0  0  0  0
  4  5  1  0  0  0  0
  5  6  1  0  0  0  0
  5 19  2  0  0  0  0
  6  7  1  0  0  0  0
  6  8  1  0  0  0  0
  6 24  1  0  0  0  0
  7 25  1  0  0  0  0
  7 26  1  0  0  0  0
  7 27  1  0  0  0  0
  8  9  1  0  0  0  0
  8 28  1  0  0  0  0
  8 29  1  0  0  0  0
  9 10  1  0  0  0  0
  9 30  1  0  0  0  0
 10 11  2  0  0  0  0
 10 12  1  0  0  0  0
 12 13  1  0  0  0  0
 12 31  1  0  0  0  0
 13 17  1  0  0  0  0
 13 14  1  0  0  0  0
 13 32  1  0  0  0  0
 14 15  1  0  0  0  0
 14 33  1  0  0  0  0
 14 34  1  0  0  0  0
 15 16  1  0  0  0  0
 15 35  1  0  0  0  0
 15 36  1  0  0  0  0
 16 17  1  0  0  0  0
 17 18  1  0  0  0  0
 17 37  1  0  0  0  0
 18 38  1  0  0  0  0
 18 39  1  0  0  0  0
 18 40  1  0  0  0  0
M  END
> <s_m_source_file>
AV-unprocessed.smi

> <i_m_source_file_index>
2340

> <i_lp_mmshare_version>
43012

> <i_f3d_flags>
0

> <s_epik_input>
W0NIM11jMVtjSF1zYyhuMSlbQ0BIXShbQ0gzXSlbQ0gyXVtOSF1DKD1PKVtOSF1bQ0BASF0yW0NIMl1bQ0gyXU9bQ0BIXTJbQ0gzXQ==

> <s_epik_cmdline>
J2VwaWtfcHl0aG9uJywgJy1waCcsICc3LjAnLCAnLXRuJywgJzgnLCAnLW1hJywgJzIwMCcsICctbWV0YWxfYmluZGluZycsICctaW1hZScsICc8aW5maWxlLm1hZT4nLCAnLW9tYWUnLCAnPG91dGZpbGUubWFlPic=

> <r_epik_Ionization_Penalty>
0.00156622

> <r_epik_Ionization_Penalty_Charging>
0

> <r_epik_Ionization_Penalty_Neutral>
0.00156622

> <r_epik_State_Penalty>
0.00101902

> <r_epik_Charging_Adjusted_Penalty>
0.00101902

> <i_epik_Tot_Q>
0

> <i_epik_Tot_abs_Q>
0

> <r_epik_Metal_State_Penalty>
-0

> <b_epik_Metal_Only>
0

> <s_lp_Force_Field>
OPLS_2005

> <r_lp_Energy>
5.75985

> <b_lp_Chiralities_Consistent>
1

> <s_lp_Variant>
AV-unprocessed.smi:2340-4

> <Gold.Version>
5.8.1

> <Gold.Id.Protein>
6NUR|6NUR_protein|mol2

> <Gold.PLP.Fitness>
39.3565

> <Gold.PLP.PLP>
-33.0153

> <Gold.PLP.part.hbond>
-2.7279

> <Gold.PLP.part.metal>
0.0000

> <Gold.PLP.part.buried>
-2.4223

> <Gold.PLP.part.nonpolar>
-29.2894

> <Gold.PLP.part.repulsive>
1.2759

> <Gold.PLP.ligand.clash>
0.0000

> <Gold.PLP.ligand.torsion>
0.7141

> <Gold.PLP.Chemscore.Hbond>
1.5472

> <Gold.PLP.Chemscore.CHOScore>
1.0000

> <Gold.PLP.Chemscore.Metal>
0.0000

> <Gold.Chemscore.Hbonds>
donor molecule, donor type, donor heavy atom, donor atom, acceptor molecule, acceptor atom, score
      L1  H     9    30       P1  7948  0.40
      L1  H    12    31       P1  7948  1.00
      L1  C     3    23       P1  8028  1.00

> <Gold.PLP.Chemscore.Internal.Correction>
0.1277

> <Gold.Rescore>
     Score         DG    S(hbond)    S(metal)    S(lipo)     H(rot)  DE(clash)    DE(int)     intcor
     12.19     -14.84       1.28        0.00      76.94       1.53       0.03       2.63       ----

> <Gold.Chemscore.Fitness>
12.1873

> <Gold.Chemscore.DG>
-14.8425

> <Gold.Chemscore.ZeroCoef>
-5.4800

> <Gold.Chemscore.Hbond>
1.2827

> <Gold.Chemscore.Metal>
0.0000

> <Gold.Chemscore.Lipo>
76.9359

> <Gold.Chemscore.Internal_Hbond>
0.0000

> <Gold.Chemscore.DEClash>
0.0270

> <Gold.Chemscore.DEInternal>
2.6281

> <Gold.Chemscore.Rot>
1.5325

> <Gold.Chemscore.Internal.Correction>
   9.000000E+99

> <Gold.Chemscore.Hbonds>
donor molecule, donor type, donor heavy atom, donor atom, acceptor molecule, acceptor atom, score
      L1  H     9    30       P1  7948  0.01
      L1  H    12    31       P1  7948  0.25

> <Gold.Chemscore.Hbond.Weighted>
-4.2843

> <Gold.Chemscore.Metal.Weighted>
-0.0000

> <Gold.Chemscore.Lipo.Weighted>
-9.0015

> <Gold.Chemscore.Internal_Hbond.Weighted>
0.0000

> <Gold.Chemscore.DEClash.Weighted>
0.0270

> <Gold.Chemscore.DEInternal.Weighted>
2.6281

> <Gold.Chemscore.Rot.Weighted>
3.9233

> <Gold.Chemscore.Internal.Correction.Weighted>
   9.000000E+99

> <Gold.Protein.RotatedTorsions>
[ 6907 6896 6895 6894 ] final -179.95 input  -60.11 | X-H torsion
[ 7974 7965 7964 7962 ] final  162.07 input  175.53 | X-H torsion
[ 8008 7997 7996 7995 ] final   75.59 input   59.86 | X-H torsion
[ 10167 10162 10161 10158 ] final  110.93 input  -65.29 | X-H torsion
[ 10718 10713 10712 10709 ] final -106.74 input   66.30 | X-H torsion
[ 10763 10752 10751 10750 ] final   -3.85 input  -60.55 | X-H torsion
[ 11005 11000 10999 10996 ] final   48.62 input  -57.11 | X-H torsion

> <Gold.Protein.ActiveResidues>
 VAL166  LYS551  ARG553  GLY616  TRP617  ASP618  TYR619  PRO620  LYS621  CYS622 
 ASP623  PHE694  ASN695  SER759  ASP760  ASP761  ALA762  ILE779  LEU786  VAL792 
 PHE793  MET794  SER795  GLU796  ALA797  LYS798  CYS799  TRP800  GLU811  SER814 

> <Gold.Protein.RotatedAtoms>
  151.6618  133.3316  159.3175 H   0  0  0  0  0  0  0  0  0  0  0  0  # atno 6907 bound_to 6896
  150.7910  134.6937  159.6521 H   0  0  0  0  0  0  0  0  0  0  0  0  # atno 6908 bound_to 6896
  152.3989  134.6322  160.0130 H   0  0  0  0  0  0  0  0  0  0  0  0  # atno 6909 bound_to 6896
  144.7654  139.7987  143.6317 H   0  0  0  0  0  0  0  0  0  0  0  0  # atno 7974 bound_to 7965
  155.8152  140.3472  155.5481 H   0  0  0  0  0  0  0  0  0  0  0  0  # atno 8008 bound_to 7997
  155.8400  140.0940  157.1760 H   0  0  0  0  0  0  0  0  0  0  0  0  # atno 8009 bound_to 7997
  154.4005  140.1396  156.3704 H   0  0  0  0  0  0  0  0  0  0  0  0  # atno 8010 bound_to 7997
  139.6650  144.7128  151.1793 H   0  0  0  0  0  0  0  0  0  0  0  0  # atno 10167 bound_to 10162
  156.0404  130.5628  150.7723 H   0  0  0  0  0  0  0  0  0  0  0  0  # atno 10718 bound_to 10713
  153.3769  135.6997  153.6594 H   0  0  0  0  0  0  0  0  0  0  0  0  # atno 10763 bound_to 10752
  153.5222  135.3609  155.2637 H   0  0  0  0  0  0  0  0  0  0  0  0  # atno 10764 bound_to 10752
  154.8688  135.4160  154.3059 H   0  0  0  0  0  0  0  0  0  0  0  0  # atno 10765 bound_to 10752
  140.1174  134.4874  155.8626 H   0  0  0  0  0  0  0  0  0  0  0  0  # atno 11005 bound_to 11000
  146.1757  139.4927  142.9899 LP  0  0  0  0  0  0  0  0  0  0  0  0  # atno 17320 bound_to 7965
  145.6485  141.0268  143.1773 LP  0  0  0  0  0  0  0  0  0  0  0  0  # atno 17321 bound_to 7965
  140.7596  143.5933  150.8773 LP  0  0  0  0  0  0  0  0  0  0  0  0  # atno 17342 bound_to 10162
  139.9594  143.6181  152.3006 LP  0  0  0  0  0  0  0  0  0  0  0  0  # atno 17343 bound_to 10162
  157.5214  131.0931  151.0074 LP  0  0  0  0  0  0  0  0  0  0  0  0  # atno 17370 bound_to 10713
  157.0404  130.5746  149.5355 LP  0  0  0  0  0  0  0  0  0  0  0  0  # atno 17371 bound_to 10713
  141.2144  133.6748  156.6823 LP  0  0  0  0  0  0  0  0  0  0  0  0  # atno 17394 bound_to 11000
  140.3010  134.8164  157.4097 LP  0  0  0  0  0  0  0  0  0  0  0  0  # atno 17395 bound_to 11000

$$$$
