AV-unprocessed.smi:765|AV-procd|sdf|3645|dock2
  -GOLD-   22720 1 43D 1   1.00000     0.00000
 Structure written by MMmdl.
 39 40  0  0  0  0  0  0  0  0  1 V2000
  152.1990  138.3432  154.4389 C   0  0  0  0  0  0  0  0  0  0  0  0
  151.2345  139.1265  155.3404 C   0  0  2  0  0  0  0  0  0  0  0  0
  150.3737  140.1072  154.5240 C   0  0  0  0  0  0  0  0  0  0  0  0
  149.4200  140.9052  155.4241 C   0  0  0  0  0  0  0  0  0  0  0  0
  150.1930  141.6365  156.5334 C   0  0  0  0  0  0  0  0  0  0  0  0
  151.0421  140.6716  157.3901 C   0  0  2  0  0  0  0  0  0  0  0  0
  150.1468  139.7563  158.1266 C   0  0  0  0  0  0  0  0  0  0  0  0
  149.4461  139.0388  158.7042 N   0  0  0  0  0  0  0  0  0  0  0  0
  151.8240  141.4928  158.3167 N   0  0  0  0  0  0  0  0  0  0  0  0
  152.9491  141.1382  158.9609 C   0  0  0  0  0  0  0  0  0  0  0  0
  153.4924  140.0424  158.8194 O   0  0  0  0  0  0  0  0  0  0  0  0
  153.5369  142.1885  159.9161 C   0  0  2  0  0  0  0  0  0  0  0  0
  153.5266  141.7350  161.3877 C   0  0  0  0  0  0  0  0  0  0  0  0
  152.8440  143.4609  159.7585 N   0  0  0  0  0  0  0  0  0  0  0  0
  152.2023  144.2238  160.7155 C   0  0  0  0  0  0  0  0  0  0  0  0
  151.7101  145.3338  160.0917 C   0  0  0  0  0  0  0  0  0  0  0  0
  152.1081  145.1635  158.7365 C   0  0  0  0  0  0  0  0  0  0  0  0
  152.7867  144.0446  158.5409 N   0  0  0  0  0  0  0  0  0  0  0  0
  151.9901  139.8767  156.4567 C   0  0  0  0  0  0  0  0  0  0  0  0
  152.9007  139.0084  153.9345 H   0  0  0  0  0  0  0  0  0  0  0  0
  151.6568  137.7884  153.6727 H   0  0  0  0  0  0  0  0  0  0  0  0
  152.7794  137.6235  155.0167 H   0  0  0  0  0  0  0  0  0  0  0  0
  150.5674  138.4010  155.8078 H   0  0  0  0  0  0  0  0  0  0  0  0
  151.0184  140.7972  153.9778 H   0  0  0  0  0  0  0  0  0  0  0  0
  149.7980  139.5643  153.7736 H   0  0  0  0  0  0  0  0  0  0  0  0
  148.8617  141.6253  154.8253 H   0  0  0  0  0  0  0  0  0  0  0  0
  148.6813  140.2345  155.8643 H   0  0  0  0  0  0  0  0  0  0  0  0
  150.8359  142.3908  156.0767 H   0  0  0  0  0  0  0  0  0  0  0  0
  149.4907  142.1794  157.1678 H   0  0  0  0  0  0  0  0  0  0  0  0
  151.4589  142.4150  158.5064 H   0  0  0  0  0  0  0  0  0  0  0  0
  154.5803  142.3319  159.6276 H   0  0  0  0  0  0  0  0  0  0  0  0
  154.0498  140.7865  161.5137 H   0  0  0  0  0  0  0  0  0  0  0  0
  152.5111  141.6083  161.7654 H   0  0  0  0  0  0  0  0  0  0  0  0
  154.0242  142.4686  162.0226 H   0  0  0  0  0  0  0  0  0  0  0  0
  152.1495  143.9149  161.7493 H   0  0  0  0  0  0  0  0  0  0  0  0
  151.1522  146.1448  160.5360 H   0  0  0  0  0  0  0  0  0  0  0  0
  151.9263  145.8157  157.8953 H   0  0  0  0  0  0  0  0  0  0  0  0
  152.5714  139.1586  157.0359 H   0  0  0  0  0  0  0  0  0  0  0  0
  152.7137  140.5575  156.0051 H   0  0  0  0  0  0  0  0  0  0  0  0
  1  2  1  0  0  0  0
  1 20  1  0  0  0  0
  1 21  1  0  0  0  0
  1 22  1  0  0  0  0
  2 19  1  0  0  0  0
  2  3  1  0  0  0  0
  2 23  1  0  0  0  0
  3  4  1  0  0  0  0
  3 24  1  0  0  0  0
  3 25  1  0  0  0  0
  4  5  1  0  0  0  0
  4 26  1  0  0  0  0
  4 27  1  0  0  0  0
  5  6  1  0  0  0  0
  5 28  1  0  0  0  0
  5 29  1  0  0  0  0
  6  7  1  0  0  0  0
  6  9  1  0  0  0  0
  6 19  1  0  0  0  0
  7  8  3  0  0  0  0
  9 10  1  0  0  0  0
  9 30  1  0  0  0  0
 10 11  2  0  0  0  0
 10 12  1  0  0  0  0
 12 13  1  0  0  0  0
 12 14  1  0  0  0  0
 12 31  1  0  0  0  0
 13 32  1  0  0  0  0
 13 33  1  0  0  0  0
 13 34  1  0  0  0  0
 14 18  1  0  0  0  0
 14 15  1  0  0  0  0
 15 16  2  0  0  0  0
 15 35  1  0  0  0  0
 16 17  1  0  0  0  0
 16 36  1  0  0  0  0
 17 18  2  0  0  0  0
 17 37  1  0  0  0  0
 19 38  1  0  0  0  0
 19 39  1  0  0  0  0
M  END
> <s_m_source_file>
AV-unprocessed.smi

> <i_m_source_file_index>
765

> <i_lp_mmshare_version>
43012

> <i_f3d_flags>
0

> <s_epik_input>
W0NIM11bQ0BASF0oW0NIMl0xKVtDSDJdW0NIMl1bQ0gyXVtDQEBdMShDI04pW05IXUMoPU8pW0NASF0oW0NIM10pbjJbY0hdW2NIXVtjSF1uMg==

> <s_epik_cmdline>
J2VwaWtfcHl0aG9uJywgJy1waCcsICc3LjAnLCAnLXRuJywgJzgnLCAnLW1hJywgJzIwMCcsICctbWV0YWxfYmluZGluZycsICctaW1hZScsICc8aW5maWxlLm1hZT4nLCAnLW9tYWUnLCAnPG91dGZpbGUubWFlPic=

> <r_lp_tautomer_probability>
1

> <r_epik_Ionization_Penalty>
2.71142e-05

> <r_epik_Ionization_Penalty_Charging>
0

> <r_epik_Ionization_Penalty_Neutral>
2.71142e-05

> <r_epik_State_Penalty>
-0

> <r_epik_Charging_Adjusted_Penalty>
0

> <i_epik_Tot_Q>
0

> <i_epik_Tot_abs_Q>
0

> <r_epik_Metal_State_Penalty>
-0

> <b_epik_Metal_Only>
0

> <s_lp_Force_Field>
OPLS_2005

> <r_lp_Energy>
10.9875

> <b_lp_Chiralities_Consistent>
1

> <s_lp_Variant>
AV-unprocessed.smi:765-3

> <Gold.Version>
5.8.1

> <Gold.Id.Protein>
6NUR|6NUR_protein|mol2

> <Gold.PLP.Fitness>
46.9615

> <Gold.PLP.PLP>
-45.0068

> <Gold.PLP.part.hbond>
-1.6306

> <Gold.PLP.part.metal>
0.0000

> <Gold.PLP.part.buried>
-3.2697

> <Gold.PLP.part.nonpolar>
-40.3047

> <Gold.PLP.part.repulsive>
0.0904

> <Gold.PLP.ligand.clash>
0.0000

> <Gold.PLP.ligand.torsion>
0.5431

> <Gold.PLP.Chemscore.Hbond>
0.9913

> <Gold.PLP.Chemscore.CHOScore>
0.0000

> <Gold.PLP.Chemscore.Metal>
0.0000

> <Gold.Chemscore.Hbonds>
donor molecule, donor type, donor heavy atom, donor atom, acceptor molecule, acceptor atom, score
      P1  H  7997  8010       L1    11  0.89

> <Gold.PLP.Chemscore.Internal.Correction>
0.0672

> <Gold.Rescore>
     Score         DG    S(hbond)    S(metal)    S(lipo)     H(rot)  DE(clash)    DE(int)     intcor
     13.52     -17.00       0.90        0.00     103.83       1.42       0.04       3.45       ----

> <Gold.Chemscore.Fitness>
13.5196

> <Gold.Chemscore.DG>
-17.0031

> <Gold.Chemscore.ZeroCoef>
-5.4800

> <Gold.Chemscore.Hbond>
0.9001

> <Gold.Chemscore.Metal>
0.0000

> <Gold.Chemscore.Lipo>
103.8279

> <Gold.Chemscore.Internal_Hbond>
0.0000

> <Gold.Chemscore.DEClash>
0.0368

> <Gold.Chemscore.DEInternal>
3.4468

> <Gold.Chemscore.Rot>
1.4183

> <Gold.Chemscore.Internal.Correction>
   9.000000E+99

> <Gold.Chemscore.Hbonds>
donor molecule, donor type, donor heavy atom, donor atom, acceptor molecule, acceptor atom, score
      P1  H  7997  8010       L1    11  0.65

> <Gold.Chemscore.Hbond.Weighted>
-3.0062

> <Gold.Chemscore.Metal.Weighted>
-0.0000

> <Gold.Chemscore.Lipo.Weighted>
-12.1479

> <Gold.Chemscore.Internal_Hbond.Weighted>
0.0000

> <Gold.Chemscore.DEClash.Weighted>
0.0368

> <Gold.Chemscore.DEInternal.Weighted>
3.4468

> <Gold.Chemscore.Rot.Weighted>
3.6309

> <Gold.Chemscore.Internal.Correction.Weighted>
   9.000000E+99

> <Gold.Protein.RotatedTorsions>
[ 6907 6896 6895 6894 ] final  -40.15 input  -60.11 | X-H torsion
[ 7974 7965 7964 7962 ] final  -81.32 input  175.53 | X-H torsion
[ 8008 7997 7996 7995 ] final   25.31 input   59.86 | X-H torsion
[ 10167 10162 10161 10158 ] final   10.09 input  -65.29 | X-H torsion
[ 10718 10713 10712 10709 ] final  -84.84 input   66.30 | X-H torsion
[ 10763 10752 10751 10750 ] final  -34.93 input  -60.55 | X-H torsion
[ 11005 11000 10999 10996 ] final -101.61 input  -57.11 | X-H torsion

> <Gold.Protein.ActiveResidues>
 VAL166  LYS551  ARG553  GLY616  TRP617  ASP618  TYR619  PRO620  LYS621  CYS622 
 ASP623  PHE694  ASN695  SER759  ASP760  ASP761  ALA762  ILE779  LEU786  VAL792 
 PHE793  MET794  SER795  GLU796  ALA797  LYS798  CYS799  TRP800  GLU811  SER814 

> <Gold.Protein.RotatedAtoms>
  150.9818  134.9172  159.7848 H   0  0  0  0  0  0  0  0  0  0  0  0  # atno 6907 bound_to 6896
  152.5224  134.3400  159.9223 H   0  0  0  0  0  0  0  0  0  0  0  0  # atno 6908 bound_to 6896
  151.3407  133.3922  159.2705 H   0  0  0  0  0  0  0  0  0  0  0  0  # atno 6909 bound_to 6896
  145.5482  140.9500  143.1513 H   0  0  0  0  0  0  0  0  0  0  0  0  # atno 7974 bound_to 7965
  155.0098  140.3135  155.4834 H   0  0  0  0  0  0  0  0  0  0  0  0  # atno 8008 bound_to 7997
  156.2911  140.2217  156.5153 H   0  0  0  0  0  0  0  0  0  0  0  0  # atno 8009 bound_to 7997
  154.7545  140.0463  157.0909 H   0  0  0  0  0  0  0  0  0  0  0  0  # atno 8010 bound_to 7997
  140.6215  143.8194  150.7181 H   0  0  0  0  0  0  0  0  0  0  0  0  # atno 10167 bound_to 10162
  156.0002  130.4711  150.4471 H   0  0  0  0  0  0  0  0  0  0  0  0  # atno 10718 bound_to 10713
  153.8549  135.6845  153.4788 H   0  0  0  0  0  0  0  0  0  0  0  0  # atno 10763 bound_to 10752
  153.1376  135.4671  154.9444 H   0  0  0  0  0  0  0  0  0  0  0  0  # atno 10764 bound_to 10752
  154.7785  135.3261  154.7988 H   0  0  0  0  0  0  0  0  0  0  0  0  # atno 10765 bound_to 10752
  141.1223  133.8492  157.1254 H   0  0  0  0  0  0  0  0  0  0  0  0  # atno 11005 bound_to 11000
  144.7542  139.7116  143.7260 LP  0  0  0  0  0  0  0  0  0  0  0  0  # atno 17320 bound_to 7965
  146.1934  139.5188  142.9790 LP  0  0  0  0  0  0  0  0  0  0  0  0  # atno 17321 bound_to 7965
  140.1785  143.4135  152.1950 LP  0  0  0  0  0  0  0  0  0  0  0  0  # atno 17342 bound_to 10162
  139.5443  144.7284  151.4634 LP  0  0  0  0  0  0  0  0  0  0  0  0  # atno 17343 bound_to 10162
  157.2507  131.0546  151.2381 LP  0  0  0  0  0  0  0  0  0  0  0  0  # atno 17370 bound_to 10713
  157.3531  130.7092  149.6453 LP  0  0  0  0  0  0  0  0  0  0  0  0  # atno 17371 bound_to 10713
  140.0191  134.9954  157.0555 LP  0  0  0  0  0  0  0  0  0  0  0  0  # atno 17394 bound_to 11000
  140.4469  134.1622  155.7178 LP  0  0  0  0  0  0  0  0  0  0  0  0  # atno 17395 bound_to 11000

$$$$
