AV-unprocessed.smi:1855|AV-procd|sdf|7532|dock3
  -GOLD-   22720 9243D 1   1.00000     0.00000
 Structure written by MMmdl.
 44 46  0  0  0  0  0  0  0  0  2 V2000
  147.8246  144.9658  160.4734 C   0  0  0  0  0  0  0  0  0  0  0  0
  148.5870  143.9412  159.8538 O   0  0  0  0  0  0  0  0  0  0  0  0
  149.8732  144.2351  159.4489 C   0  0  0  0  0  0  0  0  0  0  0  0
  150.6090  145.3549  159.9126 C   0  0  0  0  0  0  0  0  0  0  0  0
  151.9161  145.5912  159.4487 C   0  0  0  0  0  0  0  0  0  0  0  0
  152.5028  144.7138  158.5206 C   0  0  0  0  0  0  0  0  0  0  0  0
  151.7819  143.5997  158.0539 C   0  0  0  0  0  0  0  0  0  0  0  0
  150.4641  143.3554  158.5135 C   0  0  0  0  0  0  0  0  0  0  0  0
  149.6986  142.2864  158.1038 O   0  0  0  0  0  0  0  0  0  0  0  0
  150.1293  141.5183  156.9896 C   0  0  0  0  0  0  0  0  0  0  0  0
  149.3763  140.1798  156.9957 C   0  0  0  0  0  0  0  0  0  0  0  0
  149.0589  139.7196  155.6336 N   0  0  0  0  0  0  0  0  0  0  0  0
  149.4221  138.5788  154.9783 C   0  0  0  0  0  0  0  0  0  0  0  0
  150.2573  137.4550  155.5077 C   0  0  0  0  0  0  0  0  0  0  0  0
  151.5233  137.3066  154.8000 N   0  0  0  0  0  0  0  0  0  0  0  0
  152.4081  138.2926  154.5948 C   0  0  0  0  0  0  0  0  0  0  0  0
  152.2659  139.4477  154.9917 O   0  0  0  0  0  0  0  0  0  0  0  0
  148.8845  138.6439  153.7271 N   0  3  0  0  0  0  0  0  0  0  0  0
  148.1787  139.8375  153.5762 C   0  0  0  0  0  0  0  0  0  0  0  0
  147.4774  140.3493  152.4886 C   0  0  0  0  0  0  0  0  0  0  0  0
  146.8759  141.6130  152.6615 C   0  0  0  0  0  0  0  0  0  0  0  0
  146.9805  142.3151  153.8796 C   0  0  0  0  0  0  0  0  0  0  0  0
  147.6884  141.7825  154.9766 C   0  0  0  0  0  0  0  0  0  0  0  0
  148.2843  140.5339  154.7971 C   0  0  0  0  0  0  0  0  0  0  0  0
  146.8376  144.5765  160.7229 H   0  0  0  0  0  0  0  0  0  0  0  0
  147.6840  145.8173  159.8065 H   0  0  0  0  0  0  0  0  0  0  0  0
  148.2899  145.3041  161.4000 H   0  0  0  0  0  0  0  0  0  0  0  0
  150.1922  146.0494  160.6259 H   0  0  0  0  0  0  0  0  0  0  0  0
  152.4696  146.4465  159.8072 H   0  0  0  0  0  0  0  0  0  0  0  0
  153.5073  144.8941  158.1671 H   0  0  0  0  0  0  0  0  0  0  0  0
  152.2630  142.9423  157.3459 H   0  0  0  0  0  0  0  0  0  0  0  0
  149.9186  142.0470  156.0586 H   0  0  0  0  0  0  0  0  0  0  0  0
  151.2042  141.3412  157.0441 H   0  0  0  0  0  0  0  0  0  0  0  0
  149.9770  139.4121  157.4824 H   0  0  0  0  0  0  0  0  0  0  0  0
  148.4543  140.2524  157.5723 H   0  0  0  0  0  0  0  0  0  0  0  0
  150.4724  137.6472  156.5589 H   0  0  0  0  0  0  0  0  0  0  0  0
  149.6987  136.5190  155.4758 H   0  0  0  0  0  0  0  0  0  0  0  0
  151.7371  136.3922  154.4290 H   0  0  0  0  0  0  0  0  0  0  0  0
  153.2767  137.9286  154.0249 H   0  0  0  0  0  0  0  0  0  0  0  0
  147.3980  139.8144  151.5538 H   0  0  0  0  0  0  0  0  0  0  0  0
  146.3251  142.0537  151.8434 H   0  0  0  0  0  0  0  0  0  0  0  0
  146.5100  143.2831  153.9746 H   0  0  0  0  0  0  0  0  0  0  0  0
  147.7689  142.3339  155.9015 H   0  0  0  0  0  0  0  0  0  0  0  0
  148.9992  137.9232  153.0264 H   0  0  0  0  0  0  0  0  0  0  0  0
  1  2  1  0  0  0  0
  1 25  1  0  0  0  0
  1 26  1  0  0  0  0
  1 27  1  0  0  0  0
  2  3  1  0  0  0  0
  3  8  1  0  0  0  0
  3  4  2  0  0  0  0
  4  5  1  0  0  0  0
  4 28  1  0  0  0  0
  5  6  2  0  0  0  0
  5 29  1  0  0  0  0
  6  7  1  0  0  0  0
  6 30  1  0  0  0  0
  7  8  2  0  0  0  0
  7 31  1  0  0  0  0
  8  9  1  0  0  0  0
  9 10  1  0  0  0  0
 10 11  1  0  0  0  0
 10 32  1  0  0  0  0
 10 33  1  0  0  0  0
 11 12  1  0  0  0  0
 11 34  1  0  0  0  0
 11 35  1  0  0  0  0
 12 24  1  0  0  0  0
 12 13  1  0  0  0  0
 13 14  1  0  0  0  0
 13 18  2  0  0  0  0
 14 15  1  0  0  0  0
 14 36  1  0  0  0  0
 14 37  1  0  0  0  0
 15 16  1  0  0  0  0
 15 38  1  0  0  0  0
 16 17  2  0  0  0  0
 16 39  1  0  0  0  0
 18 19  1  0  0  0  0
 18 44  1  0  0  0  0
 19 24  2  0  0  0  0
 19 20  1  0  0  0  0
 20 21  2  0  0  0  0
 20 40  1  0  0  0  0
 21 22  1  0  0  0  0
 21 41  1  0  0  0  0
 22 23  2  0  0  0  0
 22 42  1  0  0  0  0
 23 24  1  0  0  0  0
 23 43  1  0  0  0  0
M  CHG  1  18   1
M  END
> <s_m_source_file>
AV-unprocessed.smi

> <i_m_source_file_index>
1855

> <i_lp_mmshare_version>
43012

> <i_f3d_flags>
0

> <s_epik_input>
W0NIM11PYzFbY0hdW2NIXVtjSF1bY0hdYzFPW0NIMl1bQ0gyXW4oYyhuMilbQ0gyXVtOSF1bQ0hdPU8pYyhjMjMpW2NIXVtjSF1bY0hdW2NIXTM=

> <s_epik_cmdline>
J2VwaWtfcHl0aG9uJywgJy1waCcsICc3LjAnLCAnLXRuJywgJzgnLCAnLW1hJywgJzIwMCcsICctbWV0YWxfYmluZGluZycsICctaW1hZScsICc8aW5maWxlLm1hZT4nLCAnLW9tYWUnLCAnPG91dGZpbGUubWFlPic=

> <r_lp_tautomer_probability>
1

> <r_epik_Ionization_Penalty>
1.39865

> <r_epik_Ionization_Penalty_Charging>
1.39865

> <r_epik_Ionization_Penalty_Neutral>
7.38905e-08

> <r_epik_State_Penalty>
1.48061

> <r_epik_Charging_Adjusted_Penalty>
2.87925

> <i_epik_Tot_Q>
1

> <i_epik_Tot_abs_Q>
1

> <r_epik_Metal_State_Penalty>
1.53473

> <b_epik_Metal_Only>
0

> <s_lp_Force_Field>
OPLS_2005

> <r_lp_Energy>
17.0983

> <b_lp_Chiralities_Consistent>
1

> <s_lp_Variant>
AV-unprocessed.smi:1855-2

> <Gold.Version>
5.8.1

> <Gold.Id.Protein>
6NUR|6NUR_protein|mol2

> <Gold.PLP.Fitness>
52.7583

> <Gold.PLP.PLP>
-44.0531

> <Gold.PLP.part.hbond>
-3.9401

> <Gold.PLP.part.metal>
0.0000

> <Gold.PLP.part.buried>
-3.7699

> <Gold.PLP.part.nonpolar>
-38.0049

> <Gold.PLP.part.repulsive>
0.5137

> <Gold.PLP.ligand.clash>
0.0000

> <Gold.PLP.ligand.torsion>
0.7288

> <Gold.PLP.Chemscore.Hbond>
3.3300

> <Gold.PLP.Chemscore.CHOScore>
0.0000

> <Gold.PLP.Chemscore.Metal>
0.0000

> <Gold.Chemscore.Hbonds>
donor molecule, donor type, donor heavy atom, donor atom, acceptor molecule, acceptor atom, score
      L1  H    18    44       P1  7948  2.00
      P1  H  6933  6944       L1     2  0.39
      P1  H  7989  7998       L1    17  0.59

> <Gold.PLP.Chemscore.Internal.Correction>
0.1728

> <Gold.Rescore>
     Score         DG    S(hbond)    S(metal)    S(lipo)     H(rot)  DE(clash)    DE(int)     intcor
     15.34     -17.63       1.80        0.00     113.99       2.81       0.15       2.15       ----

> <Gold.Chemscore.Fitness>
15.3356

> <Gold.Chemscore.DG>
-17.6278

> <Gold.Chemscore.ZeroCoef>
-5.4800

> <Gold.Chemscore.Hbond>
1.7985

> <Gold.Chemscore.Metal>
0.0000

> <Gold.Chemscore.Lipo>
113.9865

> <Gold.Chemscore.Internal_Hbond>
0.0000

> <Gold.Chemscore.DEClash>
0.1450

> <Gold.Chemscore.DEInternal>
2.1472

> <Gold.Chemscore.Rot>
2.8108

> <Gold.Chemscore.Internal.Correction>
   9.000000E+99

> <Gold.Chemscore.Hbonds>
donor molecule, donor type, donor heavy atom, donor atom, acceptor molecule, acceptor atom, score
      L1  H    18    44       P1  7948  0.93
      P1  H  6933  6944       L1     2  0.10
      P1  H  7989  7998       L1    17  0.52
      P1  H  7997  8008       L1    17  0.01

> <Gold.Chemscore.Hbond.Weighted>
-6.0069

> <Gold.Chemscore.Metal.Weighted>
-0.0000

> <Gold.Chemscore.Lipo.Weighted>
-13.3364

> <Gold.Chemscore.Internal_Hbond.Weighted>
0.0000

> <Gold.Chemscore.DEClash.Weighted>
0.1450

> <Gold.Chemscore.DEInternal.Weighted>
2.1472

> <Gold.Chemscore.Rot.Weighted>
7.1955

> <Gold.Chemscore.Internal.Correction.Weighted>
   9.000000E+99

> <Gold.Protein.RotatedTorsions>
[ 6907 6896 6895 6894 ] final -159.33 input  -60.11 | X-H torsion
[ 7974 7965 7964 7962 ] final -123.75 input  175.53 | X-H torsion
[ 8008 7997 7996 7995 ] final   -9.95 input   59.86 | X-H torsion
[ 10167 10162 10161 10158 ] final    3.48 input  -65.29 | X-H torsion
[ 10718 10713 10712 10709 ] final   58.87 input   66.30 | X-H torsion
[ 10763 10752 10751 10750 ] final   33.98 input  -60.55 | X-H torsion
[ 11005 11000 10999 10996 ] final  179.98 input  -57.11 | X-H torsion

> <Gold.Protein.ActiveResidues>
 VAL166  LYS551  ARG553  GLY616  TRP617  ASP618  TYR619  PRO620  LYS621  CYS622 
 ASP623  PHE694  ASN695  SER759  ASP760  ASP761  ALA762  ILE779  LEU786  VAL792 
 PHE793  MET794  SER795  GLU796  ALA797  LYS798  CYS799  TRP800  GLU811  SER814 

> <Gold.Protein.RotatedAtoms>
  151.3319  133.3997  159.2663 H   0  0  0  0  0  0  0  0  0  0  0  0  # atno 6907 bound_to 6896
  150.9949  134.9275  159.7931 H   0  0  0  0  0  0  0  0  0  0  0  0  # atno 6908 bound_to 6896
  152.5258  134.3284  159.9226 H   0  0  0  0  0  0  0  0  0  0  0  0  # atno 6909 bound_to 6896
  145.0153  140.7942  143.4413 H   0  0  0  0  0  0  0  0  0  0  0  0  # atno 7974 bound_to 7965
  154.5599  140.2341  155.8352 H   0  0  0  0  0  0  0  0  0  0  0  0  # atno 8008 bound_to 7997
  156.2020  140.3050  155.9506 H   0  0  0  0  0  0  0  0  0  0  0  0  # atno 8009 bound_to 7997
  155.2909  140.0426  157.3013 H   0  0  0  0  0  0  0  0  0  0  0  0  # atno 8010 bound_to 7997
  140.6583  143.7369  150.7693 H   0  0  0  0  0  0  0  0  0  0  0  0  # atno 10167 bound_to 10162
  157.5631  130.8850  149.9143 H   0  0  0  0  0  0  0  0  0  0  0  0  # atno 10718 bound_to 10713
  153.0186  135.6373  154.1596 H   0  0  0  0  0  0  0  0  0  0  0  0  # atno 10763 bound_to 10752
  154.1333  135.2839  155.3181 H   0  0  0  0  0  0  0  0  0  0  0  0  # atno 10764 bound_to 10752
  154.6179  135.5535  153.7604 H   0  0  0  0  0  0  0  0  0  0  0  0  # atno 10765 bound_to 10752
  140.4122  134.6681  157.4620 H   0  0  0  0  0  0  0  0  0  0  0  0  # atno 11005 bound_to 11000
  145.1967  139.2273  143.5214 LP  0  0  0  0  0  0  0  0  0  0  0  0  # atno 17320 bound_to 7965
  146.3477  140.1776  142.8589 LP  0  0  0  0  0  0  0  0  0  0  0  0  # atno 17321 bound_to 7965
  140.1033  143.4767  152.2413 LP  0  0  0  0  0  0  0  0  0  0  0  0  # atno 17342 bound_to 10162
  139.5811  144.7511  151.3638 LP  0  0  0  0  0  0  0  0  0  0  0  0  # atno 17343 bound_to 10162
  156.0681  130.3689  150.0834 LP  0  0  0  0  0  0  0  0  0  0  0  0  # atno 17370 bound_to 10713
  156.8996  130.9616  151.3578 LP  0  0  0  0  0  0  0  0  0  0  0  0  # atno 17371 bound_to 10713
  140.0259  134.6477  155.9173 LP  0  0  0  0  0  0  0  0  0  0  0  0  # atno 17394 bound_to 11000
  141.1817  133.6547  156.5046 LP  0  0  0  0  0  0  0  0  0  0  0  0  # atno 17395 bound_to 11000

$$$$
