AV-unprocessed.smi:2656|AV-procd|sdf|10305|dock4
  -GOLD-   2272014323D 1   1.00000     0.00000
 Structure written by MMmdl.
 43 44  0  0  0  0  0  0  0  0  1 V2000
  145.9833  142.1442  156.1554 C   0  0  0  0  0  0  0  0  0  0  0  0
  146.4859  141.3475  155.0301 N   0  0  0  0  0  0  0  0  0  0  0  0
  146.5338  142.0901  153.7679 C   0  0  0  0  0  0  0  0  0  0  0  0
  146.8409  140.0493  155.2308 C   0  0  0  0  0  0  0  0  0  0  0  0
  146.6667  139.5344  156.3381 O   0  0  0  0  0  0  0  0  0  0  0  0
  147.4952  139.1731  154.1051 C   0  0  0  0  0  0  0  0  0  0  0  0
  146.5480  138.9031  152.8927 C   0  0  0  0  0  0  0  0  0  0  0  0
  146.7568  137.6003  152.2593 N   0  0  0  0  0  0  0  0  0  0  0  0
  145.8057  136.6908  152.0030 C   0  0  0  0  0  0  0  0  0  0  0  0
  144.6157  136.8612  152.2653 O   0  0  0  0  0  0  0  0  0  0  0  0
  146.3339  135.5854  151.4494 N   0  0  0  0  0  0  0  0  0  0  0  0
  145.6817  134.3923  151.0336 C   0  0  0  0  0  0  0  0  0  0  0  0
  146.4944  133.3004  150.6647 C   0  0  0  0  0  0  0  0  0  0  0  0
  145.8781  132.1083  150.2350 C   0  0  0  0  0  0  0  0  0  0  0  0
  144.5402  131.9542  150.1498 N   0  0  0  0  0  0  0  0  0  0  0  0
  143.7635  133.0041  150.4907 C   0  0  0  0  0  0  0  0  0  0  0  0
  144.2775  134.2400  150.9318 C   0  0  0  0  0  0  0  0  0  0  0  0
  148.7984  139.8373  153.5759 C   0  0  0  0  0  0  0  0  0  0  0  0
  149.9284  139.4860  154.5522 C   0  0  0  0  0  0  0  0  0  0  0  0
  149.4514  138.2421  155.3052 C   0  0  0  0  0  0  0  0  0  0  0  0
  148.0929  137.8745  154.6958 C   0  0  0  0  0  0  0  0  0  0  0  0
  144.9793  141.8192  156.4308 H   0  0  0  0  0  0  0  0  0  0  0  0
  145.9371  143.2096  155.9262 H   0  0  0  0  0  0  0  0  0  0  0  0
  146.6268  142.0433  157.0309 H   0  0  0  0  0  0  0  0  0  0  0  0
  146.3686  141.4725  152.8899 H   0  0  0  0  0  0  0  0  0  0  0  0
  147.4967  142.5907  153.6640 H   0  0  0  0  0  0  0  0  0  0  0  0
  145.7605  142.8582  153.7326 H   0  0  0  0  0  0  0  0  0  0  0  0
  145.5049  138.9943  153.2004 H   0  0  0  0  0  0  0  0  0  0  0  0
  146.6487  139.6674  152.1265 H   0  0  0  0  0  0  0  0  0  0  0  0
  147.7071  137.3705  152.0078 H   0  0  0  0  0  0  0  0  0  0  0  0
  147.3392  135.5763  151.3602 H   0  0  0  0  0  0  0  0  0  0  0  0
  147.5714  133.3682  150.7130 H   0  0  0  0  0  0  0  0  0  0  0  0
  146.4770  131.2560  149.9510 H   0  0  0  0  0  0  0  0  0  0  0  0
  142.6971  132.8573  150.4041 H   0  0  0  0  0  0  0  0  0  0  0  0
  143.5891  135.0357  151.1690 H   0  0  0  0  0  0  0  0  0  0  0  0
  149.0614  139.4205  152.6028 H   0  0  0  0  0  0  0  0  0  0  0  0
  148.7114  140.9137  153.4208 H   0  0  0  0  0  0  0  0  0  0  0  0
  150.8646  139.3068  154.0228 H   0  0  0  0  0  0  0  0  0  0  0  0
  150.1022  140.3041  155.2522 H   0  0  0  0  0  0  0  0  0  0  0  0
  150.1616  137.4181  155.2294 H   0  0  0  0  0  0  0  0  0  0  0  0
  149.3354  138.4763  156.3642 H   0  0  0  0  0  0  0  0  0  0  0  0
  147.4659  137.3903  155.4422 H   0  0  0  0  0  0  0  0  0  0  0  0
  148.2463  137.1469  153.8972 H   0  0  0  0  0  0  0  0  0  0  0  0
  1  2  1  0  0  0  0
  1 22  1  0  0  0  0
  1 23  1  0  0  0  0
  1 24  1  0  0  0  0
  2  3  1  0  0  0  0
  2  4  1  0  0  0  0
  3 25  1  0  0  0  0
  3 26  1  0  0  0  0
  3 27  1  0  0  0  0
  4  5  2  0  0  0  0
  4  6  1  0  0  0  0
  6 21  1  0  0  0  0
  6  7  1  0  0  0  0
  6 18  1  0  0  0  0
  7  8  1  0  0  0  0
  7 28  1  0  0  0  0
  7 29  1  0  0  0  0
  8  9  1  0  0  0  0
  8 30  1  0  0  0  0
  9 10  2  0  0  0  0
  9 11  1  0  0  0  0
 11 12  1  0  0  0  0
 11 31  1  0  0  0  0
 12 17  1  0  0  0  0
 12 13  2  0  0  0  0
 13 14  1  0  0  0  0
 13 32  1  0  0  0  0
 14 15  2  0  0  0  0
 14 33  1  0  0  0  0
 15 16  1  0  0  0  0
 16 17  2  0  0  0  0
 16 34  1  0  0  0  0
 17 35  1  0  0  0  0
 18 19  1  0  0  0  0
 18 36  1  0  0  0  0
 18 37  1  0  0  0  0
 19 20  1  0  0  0  0
 19 38  1  0  0  0  0
 19 39  1  0  0  0  0
 20 21  1  0  0  0  0
 20 40  1  0  0  0  0
 20 41  1  0  0  0  0
 21 42  1  0  0  0  0
 21 43  1  0  0  0  0
M  END
> <s_m_source_file>
AV-unprocessed.smi

> <i_m_source_file_index>
2656

> <i_lp_mmshare_version>
43012

> <i_f3d_flags>
0

> <s_epik_input>
W0NIMl0xW0NIMl1bQ0gyXVtDSDJdQzEoQyg9TylOKFtDSDNdKVtDSDNdKVtDSDJdW05IXUMoPU8pW05IXWMyW2NIXVtjSF1uW2NIXVtjSF0y

> <s_epik_cmdline>
J2VwaWtfcHl0aG9uJywgJy1waCcsICc3LjAnLCAnLXRuJywgJzgnLCAnLW1hJywgJzIwMCcsICctbWV0YWxfYmluZGluZycsICctaW1hZScsICc8aW5maWxlLm1hZT4nLCAnLW9tYWUnLCAnPG91dGZpbGUubWFlPic=

> <r_epik_Ionization_Penalty>
0.108834

> <r_epik_Ionization_Penalty_Charging>
0

> <r_epik_Ionization_Penalty_Neutral>
0.108834

> <r_epik_State_Penalty>
0.0985887

> <r_epik_Charging_Adjusted_Penalty>
0.0985887

> <i_epik_Tot_Q>
0

> <i_epik_Tot_abs_Q>
0

> <r_epik_Metal_State_Penalty>
0.0831677

> <b_epik_Metal_Only>
0

> <s_lp_Force_Field>
OPLS_2005

> <r_lp_Energy>
40.4263

> <b_lp_Chiralities_Consistent>
1

> <s_lp_Variant>
AV-unprocessed.smi:2656-1

> <Gold.Version>
5.8.1

> <Gold.Id.Protein>
6NUR|6NUR_protein|mol2

> <Gold.PLP.Fitness>
41.2100

> <Gold.PLP.PLP>
-30.9798

> <Gold.PLP.part.hbond>
-2.0000

> <Gold.PLP.part.metal>
0.0000

> <Gold.PLP.part.buried>
-1.9931

> <Gold.PLP.part.nonpolar>
-28.1748

> <Gold.PLP.part.repulsive>
0.5170

> <Gold.PLP.ligand.clash>
0.0000

> <Gold.PLP.ligand.torsion>
0.9114

> <Gold.PLP.Chemscore.Hbond>
2.0000

> <Gold.PLP.Chemscore.CHOScore>
1.9567

> <Gold.PLP.Chemscore.Metal>
0.0000

> <Gold.Chemscore.Hbonds>
donor molecule, donor type, donor heavy atom, donor atom, acceptor molecule, acceptor atom, score
      L1  H     8    30       P1  7948  1.00
      L1  H    11    31       P1  7948  1.00
      L1  C    14    33       P1 10747  0.98
      L1  C    16    34       P1 10186  0.98

> <Gold.PLP.Chemscore.Internal.Correction>
0.1830

> <Gold.Rescore>
     Score         DG    S(hbond)    S(metal)    S(lipo)     H(rot)  DE(clash)    DE(int)     intcor
     13.63     -17.05       1.92        0.00      77.15       1.51       1.35       2.07       ----

> <Gold.Chemscore.Fitness>
13.6305

> <Gold.Chemscore.DG>
-17.0501

> <Gold.Chemscore.ZeroCoef>
-5.4800

> <Gold.Chemscore.Hbond>
1.9199

> <Gold.Chemscore.Metal>
0.0000

> <Gold.Chemscore.Lipo>
77.1480

> <Gold.Chemscore.Internal_Hbond>
0.0000

> <Gold.Chemscore.DEClash>
1.3530

> <Gold.Chemscore.DEInternal>
2.0666

> <Gold.Chemscore.Rot>
1.5112

> <Gold.Chemscore.Internal.Correction>
   9.000000E+99

> <Gold.Chemscore.Hbonds>
donor molecule, donor type, donor heavy atom, donor atom, acceptor molecule, acceptor atom, score
      L1  H     8    30       P1  7948  0.95
      L1  H    11    31       P1  7948  0.88

> <Gold.Chemscore.Hbond.Weighted>
-6.4124

> <Gold.Chemscore.Metal.Weighted>
-0.0000

> <Gold.Chemscore.Lipo.Weighted>
-9.0263

> <Gold.Chemscore.Internal_Hbond.Weighted>
0.0000

> <Gold.Chemscore.DEClash.Weighted>
1.3530

> <Gold.Chemscore.DEInternal.Weighted>
2.0666

> <Gold.Chemscore.Rot.Weighted>
3.8686

> <Gold.Chemscore.Internal.Correction.Weighted>
   9.000000E+99

> <Gold.Protein.RotatedTorsions>
[ 6907 6896 6895 6894 ] final    3.83 input  -60.11 | X-H torsion
[ 7974 7965 7964 7962 ] final  -43.00 input  175.53 | X-H torsion
[ 8008 7997 7996 7995 ] final   19.02 input   59.86 | X-H torsion
[ 10167 10162 10161 10158 ] final   98.35 input  -65.29 | X-H torsion
[ 10718 10713 10712 10709 ] final   44.98 input   66.30 | X-H torsion
[ 10763 10752 10751 10750 ] final   96.14 input  -60.55 | X-H torsion
[ 11005 11000 10999 10996 ] final  -88.61 input  -57.11 | X-H torsion

> <Gold.Protein.ActiveResidues>
 VAL166  LYS551  ARG553  GLY616  TRP617  ASP618  TYR619  PRO620  LYS621  CYS622 
 ASP623  PHE694  ASN695  SER759  ASP760  ASP761  ALA762  ILE779  LEU786  VAL792 
 PHE793  MET794  SER795  GLU796  ALA797  LYS798  CYS799  TRP800  GLU811  SER814 

> <Gold.Protein.RotatedAtoms>
  151.6315  135.1022  160.0122 H   0  0  0  0  0  0  0  0  0  0  0  0  # atno 6907 bound_to 6896
  152.4104  133.6950  159.6401 H   0  0  0  0  0  0  0  0  0  0  0  0  # atno 6908 bound_to 6896
  150.7995  133.8551  159.3257 H   0  0  0  0  0  0  0  0  0  0  0  0  # atno 6909 bound_to 6896
  146.0061  140.7018  142.9247 H   0  0  0  0  0  0  0  0  0  0  0  0  # atno 7974 bound_to 7965
  154.9146  140.3019  155.5248 H   0  0  0  0  0  0  0  0  0  0  0  0  # atno 8008 bound_to 7997
  156.3013  140.2383  156.4125 H   0  0  0  0  0  0  0  0  0  0  0  0  # atno 8009 bound_to 7997
  154.8391  140.0414  157.1518 H   0  0  0  0  0  0  0  0  0  0  0  0  # atno 8010 bound_to 7997
  139.7716  144.6920  151.0147 H   0  0  0  0  0  0  0  0  0  0  0  0  # atno 10167 bound_to 10162
  157.4327  130.8034  149.7618 H   0  0  0  0  0  0  0  0  0  0  0  0  # atno 10718 bound_to 10713
  153.2614  135.4229  155.0898 H   0  0  0  0  0  0  0  0  0  0  0  0  # atno 10763 bound_to 10752
  154.8421  135.3450  154.6372 H   0  0  0  0  0  0  0  0  0  0  0  0  # atno 10764 bound_to 10752
  153.6792  135.7039  153.5180 H   0  0  0  0  0  0  0  0  0  0  0  0  # atno 10765 bound_to 10752
  141.1599  133.7580  156.9477 H   0  0  0  0  0  0  0  0  0  0  0  0  # atno 11005 bound_to 11000
  144.6936  140.3318  143.7214 LP  0  0  0  0  0  0  0  0  0  0  0  0  # atno 17320 bound_to 7965
  145.7413  139.1765  143.2374 LP  0  0  0  0  0  0  0  0  0  0  0  0  # atno 17321 bound_to 7965
  140.7814  143.4582  151.0316 LP  0  0  0  0  0  0  0  0  0  0  0  0  # atno 17342 bound_to 10162
  139.8265  143.7748  152.3179 LP  0  0  0  0  0  0  0  0  0  0  0  0  # atno 17343 bound_to 10162
  155.9919  130.3934  150.2965 LP  0  0  0  0  0  0  0  0  0  0  0  0  # atno 17370 bound_to 10713
  157.1123  131.0224  151.3043 LP  0  0  0  0  0  0  0  0  0  0  0  0  # atno 17371 bound_to 10713
  140.1279  134.9375  157.2295 LP  0  0  0  0  0  0  0  0  0  0  0  0  # atno 17394 bound_to 11000
  140.2990  134.3153  155.7295 LP  0  0  0  0  0  0  0  0  0  0  0  0  # atno 17395 bound_to 11000

$$$$
