AV-unprocessed.smi:456|AV-procd|sdf|2616|dock1
  -GOLD-   2262023 13D 1   1.00000     0.00000
 Structure written by MMmdl.
 32 34  0  0  0  0  0  0  0  0  1 V2000
  150.4027  140.3009  154.5449 O   0  0  0  0  0  0  0  0  0  0  0  0
  149.7721  140.7902  155.7107 C   0  0  1  0  0  0  0  0  0  0  0  0
  150.7307  141.7812  156.4002 C   0  0  0  0  0  0  0  0  0  0  0  0
  151.6935  141.1096  157.2555 N   0  0  0  0  0  0  0  0  0  0  0  0
  152.2899  139.9243  157.0247 C   0  0  0  0  0  0  0  0  0  0  0  0
  153.1373  139.4783  157.9475 N   0  0  0  0  0  0  0  0  0  0  0  0
  153.0856  140.4926  158.8880 C   0  0  0  0  0  0  0  0  0  0  0  0
  153.7556  140.6304  160.1246 C   0  0  0  0  0  0  0  0  0  0  0  0
  153.5401  141.7667  160.9317 C   0  0  0  0  0  0  0  0  0  0  0  0
  154.1895  141.8823  162.1145 F   0  0  0  0  0  0  0  0  0  0  0  0
  152.6535  142.7817  160.5143 C   0  0  0  0  0  0  0  0  0  0  0  0
  152.4505  143.8686  161.2960 F   0  0  0  0  0  0  0  0  0  0  0  0
  151.9775  142.6679  159.2846 C   0  0  0  0  0  0  0  0  0  0  0  0
  152.1936  141.5311  158.4836 C   0  0  0  0  0  0  0  0  0  0  0  0
  148.4147  141.4123  155.4131 C   0  0  0  0  0  0  0  0  0  0  0  0
  147.6087  141.8836  156.4719 C   0  0  0  0  0  0  0  0  0  0  0  0
  146.3659  142.4890  156.2033 C   0  0  0  0  0  0  0  0  0  0  0  0
  145.9209  142.6260  154.8746 C   0  0  0  0  0  0  0  0  0  0  0  0
  146.7192  142.1560  153.8143 C   0  0  0  0  0  0  0  0  0  0  0  0
  147.9625  141.5513  154.0820 C   0  0  0  0  0  0  0  0  0  0  0  0
  149.7378  139.9565  153.9681 H   0  0  0  0  0  0  0  0  0  0  0  0
  149.6254  139.9284  156.3635 H   0  0  0  0  0  0  0  0  0  0  0  0
  151.2887  142.3451  155.6510 H   0  0  0  0  0  0  0  0  0  0  0  0
  150.1777  142.5127  156.9911 H   0  0  0  0  0  0  0  0  0  0  0  0
  152.0871  139.3548  156.1293 H   0  0  0  0  0  0  0  0  0  0  0  0
  154.4358  139.8596  160.4550 H   0  0  0  0  0  0  0  0  0  0  0  0
  151.2965  143.4424  158.9652 H   0  0  0  0  0  0  0  0  0  0  0  0
  147.9466  141.7932  157.4938 H   0  0  0  0  0  0  0  0  0  0  0  0
  145.7555  142.8519  157.0171 H   0  0  0  0  0  0  0  0  0  0  0  0
  144.9689  143.0926  154.6685 H   0  0  0  0  0  0  0  0  0  0  0  0
  146.3796  142.2630  152.7948 H   0  0  0  0  0  0  0  0  0  0  0  0
  148.5721  141.2034  153.2606 H   0  0  0  0  0  0  0  0  0  0  0  0
  1  2  1  0  0  0  0
  1 21  1  0  0  0  0
  2  3  1  0  0  0  0
  2 15  1  0  0  0  0
  2 22  1  0  0  0  0
  3  4  1  0  0  0  0
  3 23  1  0  0  0  0
  3 24  1  0  0  0  0
  4 14  1  0  0  0  0
  4  5  1  0  0  0  0
  5  6  2  0  0  0  0
  5 25  1  0  0  0  0
  6  7  1  0  0  0  0
  7 14  2  0  0  0  0
  7  8  1  0  0  0  0
  8  9  2  0  0  0  0
  8 26  1  0  0  0  0
  9 10  1  0  0  0  0
  9 11  1  0  0  0  0
 11 12  1  0  0  0  0
 11 13  2  0  0  0  0
 13 14  1  0  0  0  0
 13 27  1  0  0  0  0
 15 20  1  0  0  0  0
 15 16  2  0  0  0  0
 16 17  1  0  0  0  0
 16 28  1  0  0  0  0
 17 18  2  0  0  0  0
 17 29  1  0  0  0  0
 18 19  1  0  0  0  0
 18 30  1  0  0  0  0
 19 20  2  0  0  0  0
 19 31  1  0  0  0  0
 20 32  1  0  0  0  0
M  END
> <s_m_source_file>
AV-unprocessed.smi

> <i_m_source_file_index>
456

> <i_lp_mmshare_version>
43012

> <i_f3d_flags>
0

> <s_epik_input>
W2NIXTFbY0hdW2NIXVtjSF1bY0hdYzFbQ0BIXShbT0hdKVtDSDJdbihbY0hdbjIpYyhjMjMpW2NIXWMoRiljKEYpW2NIXTM=

> <s_epik_cmdline>
J2VwaWtfcHl0aG9uJywgJy1waCcsICc3LjAnLCAnLXRuJywgJzgnLCAnLW1hJywgJzIwMCcsICctbWV0YWxfYmluZGluZycsICctaW1hZScsICc8aW5maWxlLm1hZT4nLCAnLW9tYWUnLCAnPG91dGZpbGUubWFlPic=

> <r_epik_Ionization_Penalty>
0.0156354

> <r_epik_Ionization_Penalty_Charging>
0

> <r_epik_Ionization_Penalty_Neutral>
0.0156354

> <r_epik_State_Penalty>
0.0122974

> <r_epik_Charging_Adjusted_Penalty>
0.0122974

> <i_epik_Tot_Q>
0

> <i_epik_Tot_abs_Q>
0

> <r_epik_Metal_State_Penalty>
1.24258e-05

> <b_epik_Metal_Only>
0

> <s_lp_Force_Field>
OPLS_2005

> <r_lp_Energy>
11.2187

> <b_lp_Chiralities_Consistent>
1

> <s_lp_Variant>
AV-unprocessed.smi:456-2

> <Gold.Version>
5.8.1

> <Gold.Id.Protein>
6NUR|6NUR_protein|mol2

> <Gold.PLP.Fitness>
51.1503

> <Gold.PLP.PLP>
-46.7330

> <Gold.PLP.part.hbond>
-2.0000

> <Gold.PLP.part.metal>
0.0000

> <Gold.PLP.part.buried>
-4.3048

> <Gold.PLP.part.nonpolar>
-39.9920

> <Gold.PLP.part.repulsive>
0.0000

> <Gold.PLP.ligand.clash>
0.0000

> <Gold.PLP.ligand.torsion>
0.6568

> <Gold.PLP.Chemscore.Hbond>
1.9000

> <Gold.PLP.Chemscore.CHOScore>
0.0000

> <Gold.PLP.Chemscore.Metal>
0.0000

> <Gold.Chemscore.Hbonds>
donor molecule, donor type, donor heavy atom, donor atom, acceptor molecule, acceptor atom, score
      P1  H  7989  7998       L1     1  1.00
      P1  H  7997  8009       L1     6  0.72

> <Gold.PLP.Chemscore.Internal.Correction>
0.0310

> <Gold.Rescore>
     Score         DG    S(hbond)    S(metal)    S(lipo)     H(rot)  DE(clash)    DE(int)     intcor
     15.33     -16.00       1.05        0.00     103.12       1.98       0.09       0.58       ----

> <Gold.Chemscore.Fitness>
15.3279

> <Gold.Chemscore.DG>
-15.9981

> <Gold.Chemscore.ZeroCoef>
-5.4800

> <Gold.Chemscore.Hbond>
1.0527

> <Gold.Chemscore.Metal>
0.0000

> <Gold.Chemscore.Lipo>
103.1180

> <Gold.Chemscore.Internal_Hbond>
0.0000

> <Gold.Chemscore.DEClash>
0.0881

> <Gold.Chemscore.DEInternal>
0.5821

> <Gold.Chemscore.Rot>
1.9776

> <Gold.Chemscore.Internal.Correction>
   9.000000E+99

> <Gold.Chemscore.Hbonds>
donor molecule, donor type, donor heavy atom, donor atom, acceptor molecule, acceptor atom, score
      P1  H  7989  7998       L1     1  0.44
      P1  H  7997  8009       L1     6  0.02

> <Gold.Chemscore.Hbond.Weighted>
-3.5160

> <Gold.Chemscore.Metal.Weighted>
-0.0000

> <Gold.Chemscore.Lipo.Weighted>
-12.0648

> <Gold.Chemscore.Internal_Hbond.Weighted>
0.0000

> <Gold.Chemscore.DEClash.Weighted>
0.0881

> <Gold.Chemscore.DEInternal.Weighted>
0.5821

> <Gold.Chemscore.Rot.Weighted>
5.0626

> <Gold.Chemscore.Internal.Correction.Weighted>
   9.000000E+99

> <Gold.Protein.RotatedTorsions>
[ 6907 6896 6895 6894 ] final  151.03 input  -60.11 | X-H torsion
[ 7974 7965 7964 7962 ] final   70.16 input  175.53 | X-H torsion
[ 8008 7997 7996 7995 ] final  145.62 input   59.86 | X-H torsion
[ 10167 10162 10161 10158 ] final   59.79 input  -65.29 | X-H torsion
[ 10718 10713 10712 10709 ] final -140.74 input   66.30 | X-H torsion
[ 10763 10752 10751 10750 ] final  -24.19 input  -60.55 | X-H torsion
[ 11005 11000 10999 10996 ] final  135.77 input  -57.11 | X-H torsion

> <Gold.Protein.ActiveResidues>
 VAL166  LYS551  ARG553  GLY616  TRP617  ASP618  TYR619  PRO620  LYS621  CYS622 
 ASP623  PHE694  ASN695  SER759  ASP760  ASP761  ALA762  ILE779  LEU786  VAL792 
 PHE793  MET794  SER795  GLU796  ALA797  LYS798  CYS799  TRP800  GLU811  SER814 

> <Gold.Protein.RotatedAtoms>
  152.1063  133.4276  159.4609 H   0  0  0  0  0  0  0  0  0  0  0  0  # atno 6907 bound_to 6896
  150.6865  134.2701  159.4594 H   0  0  0  0  0  0  0  0  0  0  0  0  # atno 6908 bound_to 6896
  152.0566  134.9620  160.0625 H   0  0  0  0  0  0  0  0  0  0  0  0  # atno 6909 bound_to 6896
  145.7816  139.2890  143.1262 H   0  0  0  0  0  0  0  0  0  0  0  0  # atno 7974 bound_to 7965
  156.2878  140.2204  156.5245 H   0  0  0  0  0  0  0  0  0  0  0  0  # atno 8008 bound_to 7997
  154.7501  140.0481  157.0908 H   0  0  0  0  0  0  0  0  0  0  0  0  # atno 8009 bound_to 7997
  155.0121  140.3114  155.4829 H   0  0  0  0  0  0  0  0  0  0  0  0  # atno 8010 bound_to 7997
  140.1726  144.4261  150.6654 H   0  0  0  0  0  0  0  0  0  0  0  0  # atno 10167 bound_to 10162
  156.3258  130.7559  151.1667 H   0  0  0  0  0  0  0  0  0  0  0  0  # atno 10718 bound_to 10713
  153.6798  135.6967  153.5121 H   0  0  0  0  0  0  0  0  0  0  0  0  # atno 10763 bound_to 10752
  153.2493  135.4280  155.0780 H   0  0  0  0  0  0  0  0  0  0  0  0  # atno 10764 bound_to 10752
  154.8403  135.3527  154.6342 H   0  0  0  0  0  0  0  0  0  0  0  0  # atno 10765 bound_to 10752
  140.0001  134.9482  157.0053 H   0  0  0  0  0  0  0  0  0  0  0  0  # atno 11005 bound_to 11000
  146.0068  140.8471  142.9990 LP  0  0  0  0  0  0  0  0  0  0  0  0  # atno 17320 bound_to 7965
  144.6795  140.2432  143.7341 LP  0  0  0  0  0  0  0  0  0  0  0  0  # atno 17321 bound_to 7965
  140.6572  143.2241  151.5941 LP  0  0  0  0  0  0  0  0  0  0  0  0  # atno 17342 bound_to 10162
  139.5331  144.2858  152.1192 LP  0  0  0  0  0  0  0  0  0  0  0  0  # atno 17343 bound_to 10162
  157.7421  131.0495  150.5049 LP  0  0  0  0  0  0  0  0  0  0  0  0  # atno 17370 bound_to 10713
  156.5208  130.4161  149.6251 LP  0  0  0  0  0  0  0  0  0  0  0  0  # atno 17371 bound_to 10713
  140.4743  134.1354  155.7207 LP  0  0  0  0  0  0  0  0  0  0  0  0  # atno 17394 bound_to 11000
  141.1635  133.8747  157.1780 LP  0  0  0  0  0  0  0  0  0  0  0  0  # atno 17395 bound_to 11000

$$$$
