#       Name:                AV-unprocessed.smi:1071
#       Creating user name   scv26
#       Creation time:       Fri Mar 27 03:19:34 2020


#       File generated by GOLD software.
#

@<TRIPOS>MOLECULE
AV-unprocessed.smi:1071
    54    55     1
SMALL
NO_CHARGES


@<TRIPOS>ATOM
      1 ****        -7.7305   3.8171   0.5249 C.3            1 S1                 0.0000
      2 ****        -7.4895   3.4669  -0.8290 O.3            1 S1                 0.0000
      3 ****        -6.9484   2.1644  -1.0007 C.3            1 S1                 0.0000
      4 ****        -5.4515   2.1167  -0.6615 C.3            1 S1                 0.0000
      5 ****        -4.9341   0.8533  -1.0670 O.3            1 S1                 0.0000
      6 ****        -3.5954   0.5916  -0.8580 C.ar           1 S1                 0.0000
      7 ****        -3.0844  -0.6609  -1.2527 C.ar           1 S1                 0.0000
      8 ****        -1.7193  -0.9363  -1.0448 C.ar           1 S1                 0.0000
      9 ****        -0.9037   0.0579  -0.4539 C.ar           1 S1                 0.0000
     10 ****         0.4796  -0.1056  -0.1730 N.am           1 S1                 0.0000
     11 ****         1.3645  -0.9413  -0.7523 C.2            1 S1                 0.0000
     12 ****         1.0814  -1.6390  -1.7265 O.2            1 S1                 0.0000
     13 ****         2.6208  -0.8811  -0.2306 N.am           1 S1                 0.0000
     14 ****         2.9772  -0.2226   1.0451 C.3            1 S1                 0.0000
     15 ****         3.7401  -1.1757   1.9771 C.3            1 S1                 0.0000
     16 ****         4.9299  -1.7374   1.3022 N.4            1 S1                 1.0000
     17 ****         5.7450  -2.5829   2.2006 C.3            1 S1                 0.0000
     18 ****         4.5758  -2.4271   0.0415 C.3            1 S1                 0.0000
     19 ****         3.7647  -1.5254  -0.9135 C.3            1 S1                 0.0000
     20 ****         4.6262  -0.4808  -1.6447 C.3            1 S1                 0.0000
     21 ****        -1.5158   1.2719  -0.0799 C.ar           1 S1                 0.0000
     22 ****        -2.8229   1.5425  -0.2769 N.ar           1 S1                 0.0000
     23 ****        -8.1799   4.8091   0.5679 H              1 S1                 0.0000
     24 ****        -6.8100   3.8466   1.1076 H              1 S1                 0.0000
     25 ****        -8.4214   3.1172   0.9966 H              1 S1                 0.0000
     26 ****        -7.5084   1.4258  -0.4250 H              1 S1                 0.0000
     27 ****        -7.0786   1.9010  -2.0507 H              1 S1                 0.0000
     28 ****        -4.9329   2.9179  -1.1907 H              1 S1                 0.0000
     29 ****        -5.2984   2.2611   0.4084 H              1 S1                 0.0000
     30 ****        -3.7298  -1.4004  -1.7032 H              1 S1                 0.0000
     31 ****        -1.3318  -1.9028  -1.3275 H              1 S1                 0.0000
     32 ****         0.8539   0.5181   0.5270 H              1 S1                 0.0000
     33 ****         3.5912   0.6514   0.8255 H              1 S1                 0.0000
     34 ****         2.1211   0.1569   1.6028 H              1 S1                 0.0000
     35 ****         4.0485  -0.6394   2.8752 H              1 S1                 0.0000
     36 ****         3.0852  -1.9871   2.2992 H              1 S1                 0.0000
     37 ****         5.1853  -3.4603   2.5275 H              1 S1                 0.0000
     38 ****         6.0503  -2.0228   3.0851 H              1 S1                 0.0000
     39 ****         6.6491  -2.9233   1.6947 H              1 S1                 0.0000
     40 ****         5.4809  -2.7806  -0.4548 H              1 S1                 0.0000
     41 ****         3.9885  -3.3145   0.2841 H              1 S1                 0.0000
     42 ****         3.4126  -2.2006  -1.6944 H              1 S1                 0.0000
     43 ****         5.4169  -0.9621  -2.2205 H              1 S1                 0.0000
     44 ****         5.1018   0.2124  -0.9509 H              1 S1                 0.0000
     45 ****         4.0254   0.1048  -2.3414 H              1 S1                 0.0000
     46 ****        -0.9382   2.0554   0.3887 H              1 S1                 0.0000
     47 ****         5.5086  -0.9511   1.0432 H              1 S1                 0.0000
     48 ****        -6.8464   4.1282  -1.2153 LP             1 S1                 0.0000
     49 ****        -8.3561   3.5155  -1.3256 LP             1 S1                 0.0000
     50 ****        -5.1018   0.7672  -2.0491 LP             1 S1                 0.0000
     51 ****        -5.4519   0.1516  -0.5777 LP             1 S1                 0.0000
     52 ****         0.1629  -1.5994  -2.1199 LP             1 S1                 0.0000
     53 ****         1.7700  -2.2452  -2.1244 LP             1 S1                 0.0000
     54 ****        -3.2119   2.4216  -0.0015 LP             1 S1                 0.0000
@<TRIPOS>BOND
    1    1    2 1     
    2    1   23 1     
    3    1   24 1     
    4    1   25 1     
    5    2    3 1     
    6    3    4 1     
    7    3   26 1     
    8    3   27 1     
    9    4    5 1     
   10    4   28 1     
   11    4   29 1     
   12    5    6 1     
   13    6   22 ar    
   14    6    7 ar    
   15    7    8 ar    
   16    7   30 1     
   17    8    9 ar    
   18    8   31 1     
   19    9   10 1     
   20    9   21 ar    
   21   10   11 am    
   22   10   32 1     
   23   11   12 2     
   24   11   13 am    
   25   13   19 1     
   26   13   14 1     
   27   14   15 1     
   28   14   33 1     
   29   14   34 1     
   30   15   16 1     
   31   15   35 1     
   32   15   36 1     
   33   16   17 1     
   34   16   18 1     
   35   16   47 1     
   36   17   37 1     
   37   17   38 1     
   38   17   39 1     
   39   18   19 1     
   40   18   40 1     
   41   18   41 1     
   42   19   20 1     
   43   19   42 1     
   44   20   43 1     
   45   20   44 1     
   46   20   45 1     
   47   21   22 ar    
   48   21   46 1     
   49    2   48 1     
   50    2   49 1     
   51    5   50 1     
   52    5   51 1     
   53   12   52 1     
   54   12   53 1     
   55   22   54 1     
@<TRIPOS>SUBSTRUCTURE
      1 S1             1
@<TRIPOS>SET
LONE_PAIRS      STATIC     ATOMS    <user>   **** ""
7 48 49 50 51 52 53 54
DONOR_HYDROGENS      STATIC     ATOMS    <user>   **** ""
2 32 47
ATOM$BLUE        STATIC     ATOMS    COLORGROUP SYSTEM
7 48 49 50 51 52 53 54
ATOM$RED        STATIC     ATOMS    COLORGROUP SYSTEM
2 32 47
