#       Name:                AV-unprocessed.smi:1919
#       Creating user name   scv26
#       Creation time:       Fri Mar 27 09:52:03 2020


#       File generated by GOLD software.
#

@<TRIPOS>MOLECULE
AV-unprocessed.smi:1919
    41    43     1
SMALL
NO_CHARGES


@<TRIPOS>ATOM
      1 ****        -0.1042   3.8273   0.4265 O.3            1 S1                 0.0000
      2 ****        -0.2390   3.4383  -0.9227 C.3            1 S1                 0.0000
      3 ****        -0.7481   2.0413  -1.0588 C.2            1 S1                 0.0000
      4 ****        -2.0602   1.6759  -1.0856 N.pl3          1 S1                 1.0000
      5 ****        -2.1634   0.2892  -1.1919 C.ar           1 S1                 0.0000
      6 ****        -3.2812  -0.5375  -1.2459 C.ar           1 S1                 0.0000
      7 ****        -3.0393  -1.9233  -1.3430 C.ar           1 S1                 0.0000
      8 ****        -1.7273  -2.4376  -1.3846 C.ar           1 S1                 0.0000
      9 ****        -0.6023  -1.5889  -1.3339 C.ar           1 S1                 0.0000
     10 ****        -0.8487  -0.2189  -1.2365 C.ar           1 S1                 0.0000
     11 ****        -0.0075   0.8986  -1.1513 N.pl3          1 S1                 0.0000
     12 ****         1.4538   0.7139  -1.1504 C.3            1 S1                 0.0000
     13 ****         2.0535   0.7512   0.2697 C.3            1 S1                 0.0000
     14 ****         3.4610   0.7797   0.1520 O.3            1 S1                 0.0000
     15 ****         1.5653  -0.4013   1.1370 C.ar           1 S1                 0.0000
     16 ****         2.1585  -1.6802   1.0432 C.ar           1 S1                 0.0000
     17 ****         1.6782  -2.7446   1.8306 C.ar           1 S1                 0.0000
     18 ****         0.6008  -2.5383   2.7133 C.ar           1 S1                 0.0000
     19 ****         0.0043  -1.2666   2.8094 C.ar           1 S1                 0.0000
     20 ****        -1.0373  -1.0689   3.6516 F              1 S1                 0.0000
     21 ****         0.4871  -0.2009   2.0259 C.ar           1 S1                 0.0000
     22 ****         0.2205   4.7148   0.4531 H              1 S1                 0.0000
     23 ****        -0.9255   4.1223  -1.4224 H              1 S1                 0.0000
     24 ****         0.7252   3.5337  -1.4213 H              1 S1                 0.0000
     25 ****        -4.2871  -0.1454  -1.2108 H              1 S1                 0.0000
     26 ****        -3.8763  -2.6052  -1.3843 H              1 S1                 0.0000
     27 ****        -1.5799  -3.5056  -1.4555 H              1 S1                 0.0000
     28 ****         0.3962  -1.9985  -1.3604 H              1 S1                 0.0000
     29 ****         1.7105  -0.2102  -1.6680 H              1 S1                 0.0000
     30 ****         1.8751   1.5189  -1.7533 H              1 S1                 0.0000
     31 ****         1.7701   1.6881   0.7505 H              1 S1                 0.0000
     32 ****         3.8311   0.9064   1.0124 H              1 S1                 0.0000
     33 ****         2.9789  -1.8525   0.3619 H              1 S1                 0.0000
     34 ****         2.1347  -3.7205   1.7548 H              1 S1                 0.0000
     35 ****         0.2313  -3.3556   3.3150 H              1 S1                 0.0000
     36 ****         0.0180   0.7696   2.0994 H              1 S1                 0.0000
     37 ****        -2.8285   2.3316  -1.0242 H              1 S1                 0.0000
     38 ****         0.5400   3.2188   0.8899 LP             1 S1                 0.0000
     39 ****        -0.9935   3.7800   0.8813 LP             1 S1                 0.0000
     40 ****         3.7344   1.5323  -0.4471 LP             1 S1                 0.0000
     41 ****         3.7852  -0.0855  -0.2307 LP             1 S1                 0.0000
@<TRIPOS>BOND
    1    1    2 1     
    2    1   22 1     
    3    2    3 1     
    4    2   23 1     
    5    2   24 1     
    6    3   11 1     
    7    3    4 2     
    8    4    5 1     
    9    4   37 1     
   10    5   10 ar    
   11    5    6 ar    
   12    6    7 ar    
   13    6   25 1     
   14    7    8 ar    
   15    7   26 1     
   16    8    9 ar    
   17    8   27 1     
   18    9   10 ar    
   19    9   28 1     
   20   10   11 1     
   21   11   12 1     
   22   12   13 1     
   23   12   29 1     
   24   12   30 1     
   25   13   14 1     
   26   13   15 1     
   27   13   31 1     
   28   14   32 1     
   29   15   21 ar    
   30   15   16 ar    
   31   16   17 ar    
   32   16   33 1     
   33   17   18 ar    
   34   17   34 1     
   35   18   19 ar    
   36   18   35 1     
   37   19   20 1     
   38   19   21 ar    
   39   21   36 1     
   40    1   38 1     
   41    1   39 1     
   42   14   40 1     
   43   14   41 1     
@<TRIPOS>SUBSTRUCTURE
      1 S1             1
@<TRIPOS>SET
LONE_PAIRS      STATIC     ATOMS    <user>   **** ""
4 38 39 40 41
DONOR_HYDROGENS      STATIC     ATOMS    <user>   **** ""
3 22 37 32
ATOM$BLUE        STATIC     ATOMS    COLORGROUP SYSTEM
4 38 39 40 41
ATOM$RED        STATIC     ATOMS    COLORGROUP SYSTEM
3 22 37 32
