AV-unprocessed.smi:3335|AV-procd|sdf|12841|dock1
  -GOLD-   2272019223D 1   1.00000     0.00000
 Structure written by MMmdl.
 47 48  0  0  0  0  0  0  0  0  2 V2000
  151.7059  142.7274  158.1176 C   0  0  0  0  0  0  0  0  0  0  0  0
  151.3042  141.6915  157.1073 C   0  0  0  0  0  0  0  0  0  0  0  0
  151.9229  140.4368  156.8465 C   0  0  0  0  0  0  0  0  0  0  0  0
  151.3213  139.7593  155.8830 N   0  0  0  0  0  0  0  0  0  0  0  0
  150.2906  140.5462  155.4995 N   0  0  0  0  0  0  0  0  0  0  0  0
  149.4004  140.1444  154.4119 C   0  0  2  0  0  0  0  0  0  0  0  0
  148.4015  141.2592  154.0428 C   0  0  0  0  0  0  0  0  0  0  0  0
  148.7117  138.7771  154.6722 C   0  0  2  0  0  0  0  0  0  0  0  0
  149.6892  137.6519  155.0751 C   0  0  0  0  0  0  0  0  0  0  0  0
  147.9263  138.3947  153.4727 N   0  3  0  0  0  0  0  0  0  0  0  0
  146.6715  137.6363  153.6844 C   0  0  1  0  0  0  0  0  0  0  0  0
  145.6939  138.4161  154.5879 C   0  0  0  0  0  0  0  0  0  0  0  0
  146.0449  137.3314  152.3110 C   0  0  0  0  0  0  0  0  0  0  0  0
  145.8719  138.2527  151.5119 O   0  0  0  0  0  0  0  0  0  0  0  0
  145.7247  136.0553  152.0041 N   0  0  0  0  0  0  0  0  0  0  0  0
  145.1316  135.6646  150.7260 C   0  0  0  0  0  0  0  0  0  0  0  0
  144.7224  134.2009  150.8873 C   0  0  0  0  0  0  0  0  0  0  0  0
  145.6622  133.6699  151.9598 C   0  0  0  0  0  0  0  0  0  0  0  0
  145.9311  134.8812  152.8527 C   0  0  0  0  0  0  0  0  0  0  0  0
  150.2650  141.7223  156.2215 C   0  0  0  0  0  0  0  0  0  0  0  0
  152.6036  142.4359  158.6635 H   0  0  0  0  0  0  0  0  0  0  0  0
  150.9217  142.8932  158.8563 H   0  0  0  0  0  0  0  0  0  0  0  0
  151.9142  143.6889  157.6480 H   0  0  0  0  0  0  0  0  0  0  0  0
  152.7896  140.0029  157.3234 H   0  0  0  0  0  0  0  0  0  0  0  0
  150.0336  140.0200  153.5316 H   0  0  0  0  0  0  0  0  0  0  0  0
  147.8032  140.9760  153.1764 H   0  0  0  0  0  0  0  0  0  0  0  0
  148.9250  142.1816  153.7894 H   0  0  0  0  0  0  0  0  0  0  0  0
  147.7134  141.4875  154.8565 H   0  0  0  0  0  0  0  0  0  0  0  0
  148.0136  138.9285  155.4948 H   0  0  0  0  0  0  0  0  0  0  0  0
  150.3329  137.9587  155.8986 H   0  0  0  0  0  0  0  0  0  0  0  0
  150.3320  137.3572  154.2457 H   0  0  0  0  0  0  0  0  0  0  0  0
  149.1634  136.7600  155.4131 H   0  0  0  0  0  0  0  0  0  0  0  0
  147.6859  139.2364  152.9687 H   0  0  0  0  0  0  0  0  0  0  0  0
  146.8824  136.6908  154.1800 H   0  0  0  0  0  0  0  0  0  0  0  0
  144.7307  137.9084  154.6556 H   0  0  0  0  0  0  0  0  0  0  0  0
  145.5116  139.4240  154.2123 H   0  0  0  0  0  0  0  0  0  0  0  0
  146.0719  138.5071  155.6058 H   0  0  0  0  0  0  0  0  0  0  0  0
  144.2764  136.2888  150.4608 H   0  0  0  0  0  0  0  0  0  0  0  0
  145.8821  135.7672  149.9405 H   0  0  0  0  0  0  0  0  0  0  0  0
  143.6935  134.1463  151.2454 H   0  0  0  0  0  0  0  0  0  0  0  0
  144.7819  133.6390  149.9547 H   0  0  0  0  0  0  0  0  0  0  0  0
  145.2449  132.8247  152.5079 H   0  0  0  0  0  0  0  0  0  0  0  0
  146.5939  133.3412  151.4970 H   0  0  0  0  0  0  0  0  0  0  0  0
  146.9383  134.8396  153.2679 H   0  0  0  0  0  0  0  0  0  0  0  0
  145.2191  134.9073  153.6790 H   0  0  0  0  0  0  0  0  0  0  0  0
  149.5159  142.4805  156.0464 H   0  0  0  0  0  0  0  0  0  0  0  0
  148.5303  137.8396  152.8834 H   0  0  0  0  0  0  0  0  0  0  0  0
  1  2  1  0  0  0  0
  1 21  1  0  0  0  0
  1 22  1  0  0  0  0
  1 23  1  0  0  0  0
  2 20  2  0  0  0  0
  2  3  1  0  0  0  0
  3  4  2  0  0  0  0
  3 24  1  0  0  0  0
  4  5  1  0  0  0  0
  5  6  1  0  0  0  0
  5 20  1  0  0  0  0
  6  7  1  0  0  0  0
  6  8  1  0  0  0  0
  6 25  1  0  0  0  0
  7 26  1  0  0  0  0
  7 27  1  0  0  0  0
  7 28  1  0  0  0  0
  8  9  1  0  0  0  0
  8 10  1  0  0  0  0
  8 29  1  0  0  0  0
  9 30  1  0  0  0  0
  9 31  1  0  0  0  0
  9 32  1  0  0  0  0
 10 11  1  0  0  0  0
 10 33  1  0  0  0  0
 10 47  1  0  0  0  0
 11 12  1  0  0  0  0
 11 13  1  0  0  0  0
 11 34  1  0  0  0  0
 12 35  1  0  0  0  0
 12 36  1  0  0  0  0
 12 37  1  0  0  0  0
 13 14  2  0  0  0  0
 13 15  1  0  0  0  0
 15 19  1  0  0  0  0
 15 16  1  0  0  0  0
 16 17  1  0  0  0  0
 16 38  1  0  0  0  0
 16 39  1  0  0  0  0
 17 18  1  0  0  0  0
 17 40  1  0  0  0  0
 17 41  1  0  0  0  0
 18 19  1  0  0  0  0
 18 42  1  0  0  0  0
 18 43  1  0  0  0  0
 19 44  1  0  0  0  0
 19 45  1  0  0  0  0
 20 46  1  0  0  0  0
M  CHG  1  10   1
M  END
> <s_m_source_file>
AV-unprocessed.smi

> <i_m_source_file_index>
3335

> <i_lp_mmshare_version>
43012

> <i_f3d_flags>
0

> <s_epik_input>
W0NIM11jMVtjSF1ubihbY0hdMSlbQ0BIXShbQ0gzXSlbQ0BIXShbQ0gzXSlbTkhdW0NASF0oW0NIM10pQyg9TylOMltDSDJdW0NIMl1bQ0gyXVtDSDJdMg==

> <s_epik_cmdline>
J2VwaWtfcHl0aG9uJywgJy1waCcsICc3LjAnLCAnLXRuJywgJzgnLCAnLW1hJywgJzIwMCcsICctbWV0YWxfYmluZGluZycsICctaW1hZScsICc8aW5maWxlLm1hZT4nLCAnLW9tYWUnLCAnPG91dGZpbGUubWFlPic=

> <r_lp_tautomer_probability>
1

> <r_epik_Ionization_Penalty>
0.14175

> <r_epik_Ionization_Penalty_Charging>
0.141731

> <r_epik_Ionization_Penalty_Neutral>
1.91261e-05

> <r_epik_State_Penalty>
0.131043

> <r_epik_Charging_Adjusted_Penalty>
0.272773

> <i_epik_Tot_Q>
1

> <i_epik_Tot_abs_Q>
1

> <r_epik_Metal_State_Penalty>
0.131408

> <b_epik_Metal_Only>
0

> <s_lp_Force_Field>
OPLS_2005

> <r_lp_Energy>
38.6819

> <b_lp_Chiralities_Consistent>
1

> <s_lp_Variant>
AV-unprocessed.smi:3335-5

> <Gold.Version>
5.8.1

> <Gold.Id.Protein>
6NUR|6NUR_protein|mol2

> <Gold.PLP.Fitness>
37.8969

> <Gold.PLP.PLP>
-29.9152

> <Gold.PLP.part.hbond>
-1.1912

> <Gold.PLP.part.metal>
0.0000

> <Gold.PLP.part.buried>
-4.3137

> <Gold.PLP.part.nonpolar>
-29.1072

> <Gold.PLP.part.repulsive>
3.5752

> <Gold.PLP.ligand.clash>
0.0000

> <Gold.PLP.ligand.torsion>
0.6107

> <Gold.PLP.Chemscore.Hbond>
2.0000

> <Gold.PLP.Chemscore.CHOScore>
1.0000

> <Gold.PLP.Chemscore.Metal>
0.0000

> <Gold.Chemscore.Hbonds>
donor molecule, donor type, donor heavy atom, donor atom, acceptor molecule, acceptor atom, score
      L1  H    10    47       P1  7948  2.00
      L1  C    20    46       P1  8028  1.00

> <Gold.PLP.Chemscore.Internal.Correction>
0.2031

> <Gold.Rescore>
     Score         DG    S(hbond)    S(metal)    S(lipo)     H(rot)  DE(clash)    DE(int)     intcor
     10.22     -13.69       0.98        0.00      78.91       1.68       1.60       1.86       ----

> <Gold.Chemscore.Fitness>
10.2225

> <Gold.Chemscore.DG>
-13.6869

> <Gold.Chemscore.ZeroCoef>
-5.4800

> <Gold.Chemscore.Hbond>
0.9789

> <Gold.Chemscore.Metal>
0.0000

> <Gold.Chemscore.Lipo>
78.9108

> <Gold.Chemscore.Internal_Hbond>
0.0000

> <Gold.Chemscore.DEClash>
1.6041

> <Gold.Chemscore.DEInternal>
1.8603

> <Gold.Chemscore.Rot>
1.6778

> <Gold.Chemscore.Internal.Correction>
   9.000000E+99

> <Gold.Chemscore.Hbonds>
donor molecule, donor type, donor heavy atom, donor atom, acceptor molecule, acceptor atom, score
      L1  H    10    47       P1  7948  0.97

> <Gold.Chemscore.Hbond.Weighted>
-3.2695

> <Gold.Chemscore.Metal.Weighted>
-0.0000

> <Gold.Chemscore.Lipo.Weighted>
-9.2326

> <Gold.Chemscore.Internal_Hbond.Weighted>
0.0000

> <Gold.Chemscore.DEClash.Weighted>
1.6041

> <Gold.Chemscore.DEInternal.Weighted>
1.8603

> <Gold.Chemscore.Rot.Weighted>
4.2952

> <Gold.Chemscore.Internal.Correction.Weighted>
   9.000000E+99

> <Gold.Protein.RotatedTorsions>
[ 6907 6896 6895 6894 ] final   39.33 input  -60.11 | X-H torsion
[ 7974 7965 7964 7962 ] final   12.03 input  175.53 | X-H torsion
[ 8008 7997 7996 7995 ] final  176.18 input   59.86 | X-H torsion
[ 10167 10162 10161 10158 ] final -141.74 input  -65.29 | X-H torsion
[ 10718 10713 10712 10709 ] final  -47.36 input   66.30 | X-H torsion
[ 10763 10752 10751 10750 ] final    7.72 input  -60.55 | X-H torsion
[ 11005 11000 10999 10996 ] final   72.22 input  -57.11 | X-H torsion

> <Gold.Protein.ActiveResidues>
 VAL166  LYS551  ARG553  GLY616  TRP617  ASP618  TYR619  PRO620  LYS621  CYS622 
 ASP623  PHE694  ASN695  SER759  ASP760  ASP761  ALA762  ILE779  LEU786  VAL792 
 PHE793  MET794  SER795  GLU796  ALA797  LYS798  CYS799  TRP800  GLU811  SER814 

> <Gold.Protein.RotatedAtoms>
  152.1681  134.8856  160.0536 H   0  0  0  0  0  0  0  0  0  0  0  0  # atno 6907 bound_to 6896
  151.9827  133.3758  159.4122 H   0  0  0  0  0  0  0  0  0  0  0  0  # atno 6908 bound_to 6896
  150.6897  134.3945  159.5135 H   0  0  0  0  0  0  0  0  0  0  0  0  # atno 6909 bound_to 6896
  146.2359  139.9397  142.8485 H   0  0  0  0  0  0  0  0  0  0  0  0  # atno 7974 bound_to 7965
  156.0792  140.1390  156.9733 H   0  0  0  0  0  0  0  0  0  0  0  0  # atno 8008 bound_to 7997
  154.4575  140.0955  156.6849 H   0  0  0  0  0  0  0  0  0  0  0  0  # atno 8009 bound_to 7997
  155.5103  140.3453  155.4389 H   0  0  0  0  0  0  0  0  0  0  0  0  # atno 8010 bound_to 7997
  139.8156  143.7643  152.2665 H   0  0  0  0  0  0  0  0  0  0  0  0  # atno 10167 bound_to 10162
  156.2092  130.4160  149.9137 H   0  0  0  0  0  0  0  0  0  0  0  0  # atno 10718 bound_to 10713
  153.2330  135.6895  153.7868 H   0  0  0  0  0  0  0  0  0  0  0  0  # atno 10763 bound_to 10752
  153.7025  135.3295  155.3229 H   0  0  0  0  0  0  0  0  0  0  0  0  # atno 10764 bound_to 10752
  154.8322  135.4571  154.1223 H   0  0  0  0  0  0  0  0  0  0  0  0  # atno 10765 bound_to 10752
  139.9502  134.7240  156.0881 H   0  0  0  0  0  0  0  0  0  0  0  0  # atno 11005 bound_to 11000
  145.1964  140.9835  143.4181 LP  0  0  0  0  0  0  0  0  0  0  0  0  # atno 17320 bound_to 7965
  144.9812  139.3781  143.6261 LP  0  0  0  0  0  0  0  0  0  0  0  0  # atno 17321 bound_to 7965
  139.7806  144.7446  151.0094 LP  0  0  0  0  0  0  0  0  0  0  0  0  # atno 17342 bound_to 10162
  140.7816  143.4546  151.0363 LP  0  0  0  0  0  0  0  0  0  0  0  0  # atno 17343 bound_to 10162
  156.6821  130.8862  151.3577 LP  0  0  0  0  0  0  0  0  0  0  0  0  # atno 17370 bound_to 10713
  157.7029  130.9353  150.0841 LP  0  0  0  0  0  0  0  0  0  0  0  0  # atno 17371 bound_to 10713
  141.1163  133.6627  156.3102 LP  0  0  0  0  0  0  0  0  0  0  0  0  # atno 17394 bound_to 11000
  140.5737  134.5815  157.5463 LP  0  0  0  0  0  0  0  0  0  0  0  0  # atno 17395 bound_to 11000

$$$$
