AV-unprocessed.smi:165|AV-procd|sdf|1387|dock7
  -GOLD-   2262019123D 1   1.00000     0.00000
 Structure written by MMmdl.
 55 59  0  0  0  0  0  0  0  0  1 V2000
  144.9745  135.8147  149.5893 O   0  0  0  0  0  0  0  0  0  0  0  0
  144.1753  135.0921  150.5030 C   0  0  0  0  0  0  0  0  0  0  0  0
  144.3031  133.5710  150.3068 C   0  0  0  0  0  0  0  0  0  0  0  0
  143.4890  133.1442  149.0672 C   0  0  0  0  0  0  0  0  0  0  0  0
  143.0133  131.8176  149.1670 O   0  0  0  0  0  0  0  0  0  0  0  0
  145.7598  133.0527  150.3020 C   0  0  0  0  0  0  0  0  0  0  0  0
  145.3275  131.8514  151.1443 C   0  0  0  0  0  0  0  0  0  0  0  0
  146.2129  131.2555  152.1060 N   0  0  0  0  0  0  0  0  0  0  0  0
  146.2925  129.9172  152.4214 C   0  0  0  0  0  0  0  0  0  0  0  0
  147.1786  129.6085  153.3277 N   0  0  0  0  0  0  0  0  0  0  0  0
  147.7605  130.8255  153.6615 C   0  0  0  0  0  0  0  0  0  0  0  0
  148.7825  131.2149  154.5725 C   0  0  0  0  0  0  0  0  0  0  0  0
  149.4496  130.3210  155.3443 N   0  0  0  0  0  0  0  0  0  0  0  0
  149.2916  130.4010  156.7916 C   0  0  0  0  0  0  0  0  0  0  0  0
  149.8382  129.1241  157.4452 C   0  0  0  0  0  0  0  0  0  0  0  0
  151.1803  128.8898  157.0213 O   0  0  0  0  0  0  0  0  0  0  0  0
  151.3792  128.7883  155.6042 C   0  0  1  0  0  0  0  0  0  0  0  0
  152.9001  128.7041  155.3770 C   0  0  0  0  0  0  0  0  0  0  0  0
  153.4604  127.3710  155.8864 C   0  0  0  0  0  0  0  0  0  0  0  0
  152.6820  126.1974  155.2769 C   0  0  0  0  0  0  0  0  0  0  0  0
  151.2974  126.3348  155.5707 O   0  0  0  0  0  0  0  0  0  0  0  0
  150.7183  127.5127  155.0173 C   0  0  0  0  0  0  0  0  0  0  0  0
  150.8279  130.0691  154.9384 C   0  0  0  0  0  0  0  0  0  0  0  0
  149.0830  132.5389  154.6487 N   0  0  0  0  0  0  0  0  0  0  0  0
  148.4394  133.4209  153.8785 C   0  0  0  0  0  0  0  0  0  0  0  0
  147.4768  133.1990  152.9819 N   0  0  0  0  0  0  0  0  0  0  0  0
  147.1608  131.8738  152.9074 C   0  0  0  0  0  0  0  0  0  0  0  0
  144.1317  132.7019  151.5749 C   0  0  0  0  0  0  0  0  0  0  0  0
  144.5342  136.6241  149.3795 H   0  0  0  0  0  0  0  0  0  0  0  0
  144.4435  135.3854  151.5184 H   0  0  0  0  0  0  0  0  0  0  0  0
  143.1442  135.4146  150.3542 H   0  0  0  0  0  0  0  0  0  0  0  0
  142.6395  133.8091  148.9077 H   0  0  0  0  0  0  0  0  0  0  0  0
  144.0931  133.2053  148.1616 H   0  0  0  0  0  0  0  0  0  0  0  0
  142.0762  131.8420  149.2844 H   0  0  0  0  0  0  0  0  0  0  0  0
  146.1512  132.7933  149.3178 H   0  0  0  0  0  0  0  0  0  0  0  0
  146.4520  133.7103  150.8297 H   0  0  0  0  0  0  0  0  0  0  0  0
  144.9888  131.0437  150.4929 H   0  0  0  0  0  0  0  0  0  0  0  0
  145.6684  129.1681  151.9559 H   0  0  0  0  0  0  0  0  0  0  0  0
  149.8305  131.2718  157.1671 H   0  0  0  0  0  0  0  0  0  0  0  0
  148.2404  130.5274  157.0540 H   0  0  0  0  0  0  0  0  0  0  0  0
  149.8303  129.2309  158.5299 H   0  0  0  0  0  0  0  0  0  0  0  0
  149.2047  128.2670  157.2189 H   0  0  0  0  0  0  0  0  0  0  0  0
  153.1173  128.7958  154.3119 H   0  0  0  0  0  0  0  0  0  0  0  0
  153.4066  129.5362  155.8678 H   0  0  0  0  0  0  0  0  0  0  0  0
  154.5186  127.2894  155.6372 H   0  0  0  0  0  0  0  0  0  0  0  0
  153.3911  127.3307  156.9741 H   0  0  0  0  0  0  0  0  0  0  0  0
  152.8327  126.1474  154.1975 H   0  0  0  0  0  0  0  0  0  0  0  0
  153.0386  125.2549  155.6926 H   0  0  0  0  0  0  0  0  0  0  0  0
  149.6437  127.4934  155.1922 H   0  0  0  0  0  0  0  0  0  0  0  0
  150.8395  127.4922  153.9330 H   0  0  0  0  0  0  0  0  0  0  0  0
  150.9200  129.9894  153.8555 H   0  0  0  0  0  0  0  0  0  0  0  0
  151.4292  130.9297  155.2350 H   0  0  0  0  0  0  0  0  0  0  0  0
  148.7395  134.4515  153.9971 H   0  0  0  0  0  0  0  0  0  0  0  0
  144.3114  133.2602  152.4948 H   0  0  0  0  0  0  0  0  0  0  0  0
  143.1910  132.1540  151.6349 H   0  0  0  0  0  0  0  0  0  0  0  0
  1  2  1  0  0  0  0
  1 29  1  0  0  0  0
  2  3  1  0  0  0  0
  2 30  1  0  0  0  0
  2 31  1  0  0  0  0
  3 28  1  0  0  0  0
  3  4  1  0  0  0  0
  3  6  1  0  0  0  0
  4  5  1  0  0  0  0
  4 32  1  0  0  0  0
  4 33  1  0  0  0  0
  5 34  1  0  0  0  0
  6  7  1  0  0  0  0
  6 35  1  0  0  0  0
  6 36  1  0  0  0  0
  7  8  1  0  0  0  0
  7 28  1  0  0  0  0
  7 37  1  0  0  0  0
  8 27  1  0  0  0  0
  8  9  1  0  0  0  0
  9 10  2  0  0  0  0
  9 38  1  0  0  0  0
 10 11  1  0  0  0  0
 11 27  2  0  0  0  0
 11 12  1  0  0  0  0
 12 13  1  0  0  0  0
 12 24  2  0  0  0  0
 13 23  1  0  0  0  0
 13 14  1  0  0  0  0
 14 15  1  0  0  0  0
 14 39  1  0  0  0  0
 14 40  1  0  0  0  0
 15 16  1  0  0  0  0
 15 41  1  0  0  0  0
 15 42  1  0  0  0  0
 16 17  1  0  0  0  0
 17 22  1  0  0  0  0
 17 18  1  0  0  0  0
 17 23  1  0  0  0  0
 18 19  1  0  0  0  0
 18 43  1  0  0  0  0
 18 44  1  0  0  0  0
 19 20  1  0  0  0  0
 19 45  1  0  0  0  0
 19 46  1  0  0  0  0
 20 21  1  0  0  0  0
 20 47  1  0  0  0  0
 20 48  1  0  0  0  0
 21 22  1  0  0  0  0
 22 49  1  0  0  0  0
 22 50  1  0  0  0  0
 23 51  1  0  0  0  0
 23 52  1  0  0  0  0
 24 25  1  0  0  0  0
 25 26  2  0  0  0  0
 25 53  1  0  0  0  0
 26 27  1  0  0  0  0
 28 54  1  0  0  0  0
 28 55  1  0  0  0  0
M  END
> <s_m_source_file>
AV-unprocessed.smi

> <i_m_source_file_index>
165

> <i_lp_mmshare_version>
43012

> <i_f3d_flags>
0

> <s_epik_input>
W09IXVtDSDJdQzEoW0NIMl1bT0hdKVtDSDJdW0NIXShbQ0gyXTEpbihbY0hdbjIpYyhjMjMpbltjSF1uYzNOKFtDSDJdNClbQ0gyXVtDSDJdT1tDQEBdNDVbQ0gyXVtDSDJdW0NIMl1PW0NIMl01

> <s_epik_cmdline>
J2VwaWtfcHl0aG9uJywgJy1waCcsICc3LjAnLCAnLXRuJywgJzgnLCAnLW1hJywgJzIwMCcsICctbWV0YWxfYmluZGluZycsICctaW1hZScsICc8aW5maWxlLm1hZT4nLCAnLW9tYWUnLCAnPG91dGZpbGUubWFlPic=

> <r_lp_tautomer_probability>
1

> <r_epik_Ionization_Penalty>
0.00466923

> <r_epik_Ionization_Penalty_Charging>
0

> <r_epik_Ionization_Penalty_Neutral>
0.00466923

> <r_epik_State_Penalty>
0.0032353

> <r_epik_Charging_Adjusted_Penalty>
0.0032353

> <i_epik_Tot_Q>
0

> <i_epik_Tot_abs_Q>
0

> <r_epik_Metal_State_Penalty>
-0

> <b_epik_Metal_Only>
0

> <s_lp_Force_Field>
OPLS_2005

> <r_lp_Energy>
53.1571

> <b_lp_Chiralities_Consistent>
1

> <s_lp_Variant>
AV-unprocessed.smi:165-2

> <Gold.Version>
5.8.1

> <Gold.Id.Protein>
6NUR|6NUR_protein|mol2

> <Gold.PLP.Fitness>
48.7236

> <Gold.PLP.PLP>
-40.4917

> <Gold.PLP.part.hbond>
-4.0524

> <Gold.PLP.part.metal>
0.0000

> <Gold.PLP.part.buried>
-1.6919

> <Gold.PLP.part.nonpolar>
-34.8217

> <Gold.PLP.part.repulsive>
0.4161

> <Gold.PLP.ligand.clash>
0.0000

> <Gold.PLP.ligand.torsion>
1.4957

> <Gold.PLP.Chemscore.Hbond>
2.6240

> <Gold.PLP.Chemscore.CHOScore>
0.8728

> <Gold.PLP.Chemscore.Metal>
0.0000

> <Gold.Chemscore.Hbonds>
donor molecule, donor type, donor heavy atom, donor atom, acceptor molecule, acceptor atom, score
      L1  H     1    29       P1 10171  0.88
      L1  H     5    34       P1 10952  0.61
      P1  H 10785 10796       L1     5  0.95
      L1  C    25    53       P1  7948  0.38

> <Gold.PLP.Chemscore.Internal.Correction>
0.7329

> <Gold.Rescore>
     Score         DG    S(hbond)    S(metal)    S(lipo)     H(rot)  DE(clash)    DE(int)     intcor
     10.17     -12.97       1.71        0.00      83.63       3.14       0.27       2.53       ----

> <Gold.Chemscore.Fitness>
10.1683

> <Gold.Chemscore.DG>
-12.9659

> <Gold.Chemscore.ZeroCoef>
-5.4800

> <Gold.Chemscore.Hbond>
1.7148

> <Gold.Chemscore.Metal>
0.0000

> <Gold.Chemscore.Lipo>
83.6266

> <Gold.Chemscore.Internal_Hbond>
0.0000

> <Gold.Chemscore.DEClash>
0.2694

> <Gold.Chemscore.DEInternal>
2.5283

> <Gold.Chemscore.Rot>
3.1351

> <Gold.Chemscore.Internal.Correction>
   9.000000E+99

> <Gold.Chemscore.Hbonds>
donor molecule, donor type, donor heavy atom, donor atom, acceptor molecule, acceptor atom, score
      L1  H     1    29       P1 10171  0.84
      L1  H     5    34       P1 10952  0.59
      P1  H 10785 10796       L1     5  0.21

> <Gold.Chemscore.Hbond.Weighted>
-5.7275

> <Gold.Chemscore.Metal.Weighted>
-0.0000

> <Gold.Chemscore.Lipo.Weighted>
-9.7843

> <Gold.Chemscore.Internal_Hbond.Weighted>
0.0000

> <Gold.Chemscore.DEClash.Weighted>
0.2694

> <Gold.Chemscore.DEInternal.Weighted>
2.5283

> <Gold.Chemscore.Rot.Weighted>
8.0260

> <Gold.Chemscore.Internal.Correction.Weighted>
   9.000000E+99

> <Gold.Protein.RotatedTorsions>
[ 6907 6896 6895 6894 ] final  133.61 input  -60.11 | X-H torsion
[ 7974 7965 7964 7962 ] final -122.26 input  175.53 | X-H torsion
[ 8008 7997 7996 7995 ] final -126.57 input   59.86 | X-H torsion
[ 10167 10162 10161 10158 ] final  -88.40 input  -65.29 | X-H torsion
[ 10718 10713 10712 10709 ] final  -23.26 input   66.30 | X-H torsion
[ 10763 10752 10751 10750 ] final  -72.63 input  -60.55 | X-H torsion
[ 11005 11000 10999 10996 ] final -107.18 input  -57.11 | X-H torsion

> <Gold.Protein.ActiveResidues>
 VAL166  LYS551  ARG553  GLY616  TRP617  ASP618  TYR619  PRO620  LYS621  CYS622 
 ASP623  PHE694  ASN695  SER759  ASP760  ASP761  ALA762  ILE779  LEU786  VAL792 
 PHE793  MET794  SER795  GLU796  ALA797  LYS798  CYS799  TRP800  GLU811  SER814 

> <Gold.Protein.RotatedAtoms>
  152.3201  133.5844  159.5738 H   0  0  0  0  0  0  0  0  0  0  0  0  # atno 6907 bound_to 6896
  150.7367  134.0024  159.3651 H   0  0  0  0  0  0  0  0  0  0  0  0  # atno 6908 bound_to 6896
  151.7909  135.0736  160.0438 H   0  0  0  0  0  0  0  0  0  0  0  0  # atno 6909 bound_to 6896
  145.0314  140.8071  143.4321 H   0  0  0  0  0  0  0  0  0  0  0  0  # atno 7974 bound_to 7965
  155.2319  140.0425  157.2963 H   0  0  0  0  0  0  0  0  0  0  0  0  # atno 8008 bound_to 7997
  154.5883  140.2420  155.7927 H   0  0  0  0  0  0  0  0  0  0  0  0  # atno 8009 bound_to 7997
  156.2241  140.2960  156.0033 H   0  0  0  0  0  0  0  0  0  0  0  0  # atno 8010 bound_to 7997
  140.3750  143.2776  151.9453 H   0  0  0  0  0  0  0  0  0  0  0  0  # atno 10167 bound_to 10162
  156.4934  130.4571  149.6742 H   0  0  0  0  0  0  0  0  0  0  0  0  # atno 10718 bound_to 10713
  154.4483  135.5924  153.6174 H   0  0  0  0  0  0  0  0  0  0  0  0  # atno 10763 bound_to 10752
  152.9811  135.6015  154.3636 H   0  0  0  0  0  0  0  0  0  0  0  0  # atno 10764 bound_to 10752
  154.3495  135.2841  155.2358 H   0  0  0  0  0  0  0  0  0  0  0  0  # atno 10765 bound_to 10752
  141.0967  133.8958  157.1945 H   0  0  0  0  0  0  0  0  0  0  0  0  # atno 11005 bound_to 11000
  145.1765  139.2375  143.5314 LP  0  0  0  0  0  0  0  0  0  0  0  0  # atno 17320 bound_to 7965
  146.3499  140.1529  142.8592 LP  0  0  0  0  0  0  0  0  0  0  0  0  # atno 17321 bound_to 7965
  139.4800  144.5871  151.7834 LP  0  0  0  0  0  0  0  0  0  0  0  0  # atno 17342 bound_to 10162
  140.4995  144.1191  150.5968 LP  0  0  0  0  0  0  0  0  0  0  0  0  # atno 17343 bound_to 10162
  156.3404  130.7379  151.2323 LP  0  0  0  0  0  0  0  0  0  0  0  0  # atno 17370 bound_to 10713
  157.7471  131.0405  150.4602 LP  0  0  0  0  0  0  0  0  0  0  0  0  # atno 17371 bound_to 10713
  139.9806  135.0099  156.9739 LP  0  0  0  0  0  0  0  0  0  0  0  0  # atno 17394 bound_to 11000
  140.5123  134.0990  155.7273 LP  0  0  0  0  0  0  0  0  0  0  0  0  # atno 17395 bound_to 11000

$$$$
