AV-unprocessed.smi:2899|AV-procd|sdf|11144|dock6
  -GOLD-   2272016 23D 1   1.00000     0.00000
 Structure written by MMmdl.
 30 32  0  0  0  0  0  0  0  0  1 V2000
  152.4323  143.4686  161.5279 C   0  0  0  0  0  0  0  0  0  0  0  0
  151.9762  143.3553  160.0889 C   0  0  0  0  0  0  0  0  0  0  0  0
  151.4087  144.4501  159.4046 C   0  0  0  0  0  0  0  0  0  0  0  0
  151.0247  144.2156  158.0687 C   0  0  0  0  0  0  0  0  0  0  0  0
  151.1938  143.0111  157.4803 N   0  0  0  0  0  0  0  0  0  0  0  0
  151.7427  142.0447  158.2206 C   0  0  0  0  0  0  0  0  0  0  0  0
  151.9025  140.8278  157.5837 N   0  0  0  0  0  0  0  0  0  0  0  0
  151.7354  140.6140  156.1507 C   0  0  1  0  0  0  0  0  0  0  0  0
  151.8120  139.1394  155.7483 C   0  0  0  0  0  0  0  0  0  0  0  0
  150.5065  138.9609  154.9596 C   0  0  1  0  0  0  0  0  0  0  0  0
  149.2894  138.9035  155.8917 C   0  0  0  0  0  0  0  0  0  0  0  0
  149.1746  140.3588  156.3412 C   0  0  0  0  0  0  0  0  0  0  0  0
  150.3525  141.0155  155.6010 C   0  0  2  0  0  0  0  0  0  0  0  0
  150.3447  140.2558  154.4040 O   0  0  0  0  0  0  0  0  0  0  0  0
  152.1413  142.1537  159.4940 N   0  0  0  0  0  0  0  0  0  0  0  0
  152.2068  144.4541  161.9363 H   0  0  0  0  0  0  0  0  0  0  0  0
  153.5085  143.3080  161.5979 H   0  0  0  0  0  0  0  0  0  0  0  0
  151.9317  142.7217  162.1445 H   0  0  0  0  0  0  0  0  0  0  0  0
  151.2736  145.4140  159.8726 H   0  0  0  0  0  0  0  0  0  0  0  0
  150.5805  144.9968  157.4700 H   0  0  0  0  0  0  0  0  0  0  0  0
  152.0366  140.0179  158.1710 H   0  0  0  0  0  0  0  0  0  0  0  0
  152.5116  141.1638  155.6162 H   0  0  0  0  0  0  0  0  0  0  0  0
  152.6800  138.9670  155.1110 H   0  0  0  0  0  0  0  0  0  0  0  0
  151.8736  138.4540  156.5950 H   0  0  0  0  0  0  0  0  0  0  0  0
  150.5390  138.1560  154.2249 H   0  0  0  0  0  0  0  0  0  0  0  0
  148.3949  138.6004  155.3464 H   0  0  0  0  0  0  0  0  0  0  0  0
  149.4345  138.2130  156.7232 H   0  0  0  0  0  0  0  0  0  0  0  0
  148.2283  140.7843  156.0055 H   0  0  0  0  0  0  0  0  0  0  0  0
  149.2297  140.4771  157.4236 H   0  0  0  0  0  0  0  0  0  0  0  0
  150.2316  142.0879  155.4456 H   0  0  0  0  0  0  0  0  0  0  0  0
  1  2  1  0  0  0  0
  1 16  1  0  0  0  0
  1 17  1  0  0  0  0
  1 18  1  0  0  0  0
  2 15  1  0  0  0  0
  2  3  2  0  0  0  0
  3  4  1  0  0  0  0
  3 19  1  0  0  0  0
  4  5  2  0  0  0  0
  4 20  1  0  0  0  0
  5  6  1  0  0  0  0
  6  7  1  0  0  0  0
  6 15  2  0  0  0  0
  7  8  1  0  0  0  0
  7 21  1  0  0  0  0
  8 13  1  0  0  0  0
  8  9  1  0  0  0  0
  8 22  1  0  0  0  0
  9 10  1  0  0  0  0
  9 23  1  0  0  0  0
  9 24  1  0  0  0  0
 10 14  1  0  0  0  0
 10 11  1  0  0  0  0
 10 25  1  0  0  0  0
 11 12  1  0  0  0  0
 11 26  1  0  0  0  0
 11 27  1  0  0  0  0
 12 13  1  0  0  0  0
 12 28  1  0  0  0  0
 12 29  1  0  0  0  0
 13 14  1  0  0  0  0
 13 30  1  0  0  0  0
M  END
> <s_m_source_file>
AV-unprocessed.smi

> <i_m_source_file_index>
2899

> <i_lp_mmshare_version>
43012

> <i_f3d_flags>
0

> <s_epik_input>
W0NIM11jMVtjSF1bY0hdbmMobjEpW05IXVtDQEhdKFtDSDJdW0NAQEhdMjMpW0NAQEhdKE8zKVtDSDJdW0NIMl0y

> <s_epik_cmdline>
J2VwaWtfcHl0aG9uJywgJy1waCcsICc3LjAnLCAnLXRuJywgJzgnLCAnLW1hJywgJzIwMCcsICctbWV0YWxfYmluZGluZycsICctaW1hZScsICc8aW5maWxlLm1hZT4nLCAnLW9tYWUnLCAnPG91dGZpbGUubWFlPic=

> <r_lp_tautomer_probability>
1

> <r_epik_Ionization_Penalty>
0.00589655

> <r_epik_Ionization_Penalty_Charging>
0

> <r_epik_Ionization_Penalty_Neutral>
0.00589655

> <r_epik_State_Penalty>
0.00375391

> <r_epik_Charging_Adjusted_Penalty>
0.00375391

> <i_epik_Tot_Q>
0

> <i_epik_Tot_abs_Q>
0

> <r_epik_Metal_State_Penalty>
-0

> <b_epik_Metal_Only>
0

> <s_lp_Force_Field>
OPLS_2005

> <r_lp_Energy>
31.8412

> <b_lp_Chiralities_Consistent>
1

> <s_lp_Variant>
AV-unprocessed.smi:2899-2

> <Gold.Version>
5.8.1

> <Gold.Id.Protein>
6NUR|6NUR_protein|mol2

> <Gold.PLP.Fitness>
35.4879

> <Gold.PLP.PLP>
-29.8953

> <Gold.PLP.part.hbond>
-1.0000

> <Gold.PLP.part.metal>
0.0000

> <Gold.PLP.part.buried>
-5.3829

> <Gold.PLP.part.nonpolar>
-24.0814

> <Gold.PLP.part.repulsive>
0.2999

> <Gold.PLP.ligand.clash>
0.0000

> <Gold.PLP.ligand.torsion>
0.0541

> <Gold.PLP.Chemscore.Hbond>
1.0000

> <Gold.PLP.Chemscore.CHOScore>
0.8973

> <Gold.PLP.Chemscore.Metal>
0.0000

> <Gold.Chemscore.Hbonds>
donor molecule, donor type, donor heavy atom, donor atom, acceptor molecule, acceptor atom, score
      P1  H  7989  7998       L1    14  1.00
      L1  C     4    20       P1  8028  0.91
      L1  C     4    20       P1  8029  0.02

> <Gold.PLP.Chemscore.Internal.Correction>
0.0088

> <Gold.Rescore>
     Score         DG    S(hbond)    S(metal)    S(lipo)     H(rot)  DE(clash)    DE(int)     intcor
     14.38     -15.79       0.95        0.00      82.98       1.00       0.18       1.23       ----

> <Gold.Chemscore.Fitness>
14.3790

> <Gold.Chemscore.DG>
-15.7929

> <Gold.Chemscore.ZeroCoef>
-5.4800

> <Gold.Chemscore.Hbond>
0.9475

> <Gold.Chemscore.Metal>
0.0000

> <Gold.Chemscore.Lipo>
82.9762

> <Gold.Chemscore.Internal_Hbond>
0.0000

> <Gold.Chemscore.DEClash>
0.1799

> <Gold.Chemscore.DEInternal>
1.2340

> <Gold.Chemscore.Rot>
1.0000

> <Gold.Chemscore.Internal.Correction>
   9.000000E+99

> <Gold.Chemscore.Hbonds>
donor molecule, donor type, donor heavy atom, donor atom, acceptor molecule, acceptor atom, score
      P1  H  7989  7998       L1    14  0.47

> <Gold.Chemscore.Hbond.Weighted>
-3.1646

> <Gold.Chemscore.Metal.Weighted>
-0.0000

> <Gold.Chemscore.Lipo.Weighted>
-9.7082

> <Gold.Chemscore.Internal_Hbond.Weighted>
0.0000

> <Gold.Chemscore.DEClash.Weighted>
0.1799

> <Gold.Chemscore.DEInternal.Weighted>
1.2340

> <Gold.Chemscore.Rot.Weighted>
2.5600

> <Gold.Chemscore.Internal.Correction.Weighted>
   9.000000E+99

> <Gold.Protein.RotatedTorsions>
[ 6907 6896 6895 6894 ] final  170.85 input  -60.11 | X-H torsion
[ 7974 7965 7964 7962 ] final  -16.79 input  175.53 | X-H torsion
[ 8008 7997 7996 7995 ] final -120.01 input   59.86 | X-H torsion
[ 10167 10162 10161 10158 ] final  -46.36 input  -65.29 | X-H torsion
[ 10718 10713 10712 10709 ] final  117.20 input   66.30 | X-H torsion
[ 10763 10752 10751 10750 ] final  -86.82 input  -60.55 | X-H torsion
[ 11005 11000 10999 10996 ] final -159.29 input  -57.11 | X-H torsion

> <Gold.Protein.ActiveResidues>
 VAL166  LYS551  ARG553  GLY616  TRP617  ASP618  TYR619  PRO620  LYS621  CYS622 
 ASP623  PHE694  ASN695  SER759  ASP760  ASP761  ALA762  ILE779  LEU786  VAL792 
 PHE793  MET794  SER795  GLU796  ALA797  LYS798  CYS799  TRP800  GLU811  SER814 

> <Gold.Protein.RotatedAtoms>
  151.8095  133.3380  159.3550 H   0  0  0  0  0  0  0  0  0  0  0  0  # atno 6907 bound_to 6896
  150.7331  134.5677  159.5884 H   0  0  0  0  0  0  0  0  0  0  0  0  # atno 6908 bound_to 6896
  152.3085  134.7527  160.0393 H   0  0  0  0  0  0  0  0  0  0  0  0  # atno 6909 bound_to 6896
  146.1971  140.3686  142.8436 H   0  0  0  0  0  0  0  0  0  0  0  0  # atno 7974 bound_to 7965
  155.1250  140.0399  157.2760 H   0  0  0  0  0  0  0  0  0  0  0  0  # atno 8008 bound_to 7997
  154.6585  140.2585  155.7109 H   0  0  0  0  0  0  0  0  0  0  0  0  # atno 8009 bound_to 7997
  156.2609  140.2822  156.1048 H   0  0  0  0  0  0  0  0  0  0  0  0  # atno 8010 bound_to 7997
  140.6821  143.2835  151.3771 H   0  0  0  0  0  0  0  0  0  0  0  0  # atno 10167 bound_to 10162
  157.6112  131.1034  150.7581 H   0  0  0  0  0  0  0  0  0  0  0  0  # atno 10718 bound_to 10713
  154.6268  135.5435  153.7636 H   0  0  0  0  0  0  0  0  0  0  0  0  # atno 10763 bound_to 10752
  153.0265  135.6426  154.1360 H   0  0  0  0  0  0  0  0  0  0  0  0  # atno 10764 bound_to 10752
  154.1292  135.2915  155.3169 H   0  0  0  0  0  0  0  0  0  0  0  0  # atno 10765 bound_to 10752
  140.6442  134.4519  157.5234 H   0  0  0  0  0  0  0  0  0  0  0  0  # atno 11005 bound_to 11000
  144.8604  140.7131  143.6111 LP  0  0  0  0  0  0  0  0  0  0  0  0  # atno 17320 bound_to 7965
  145.3607  139.1682  143.4385 LP  0  0  0  0  0  0  0  0  0  0  0  0  # atno 17321 bound_to 7965
  139.6151  144.1020  152.2337 LP  0  0  0  0  0  0  0  0  0  0  0  0  # atno 17342 bound_to 10162
  140.0446  144.5980  150.7383 LP  0  0  0  0  0  0  0  0  0  0  0  0  # atno 17343 bound_to 10162
  156.7958  130.4905  149.5377 LP  0  0  0  0  0  0  0  0  0  0  0  0  # atno 17370 bound_to 10713
  156.1215  130.6113  151.0201 LP  0  0  0  0  0  0  0  0  0  0  0  0  # atno 17371 bound_to 10713
  139.9069  134.8429  156.1672 LP  0  0  0  0  0  0  0  0  0  0  0  0  # atno 17394 bound_to 11000
  141.0584  133.6853  156.1906 LP  0  0  0  0  0  0  0  0  0  0  0  0  # atno 17395 bound_to 11000

$$$$
