AV-unprocessed.smi:2229|AV-procd|sdf|9030|dock5
  -GOLD-   2272012233D 1   1.00000     0.00000
 Structure written by MMmdl.
 44 45  0  0  0  0  0  0  0  0  1 V2000
  152.5721  144.7040  158.1124 C   0  0  0  0  0  0  0  0  0  0  0  0
  151.9537  143.6599  159.0575 C   0  0  0  0  0  0  0  0  0  0  0  0
  152.8546  143.4538  160.2851 C   0  0  0  0  0  0  0  0  0  0  0  0
  151.6745  142.3153  158.3543 C   0  0  0  0  0  0  0  0  0  0  0  0
  150.8598  142.4409  157.0532 C   0  0  0  0  0  0  0  0  0  0  0  0
  150.4187  141.0833  156.4745 C   0  0  1  0  0  0  0  0  0  0  0  0
  149.8273  141.1602  155.0620 C   0  0  0  0  0  0  0  0  0  0  0  0
  149.9893  139.7478  154.5116 C   0  0  0  0  0  0  0  0  0  0  0  0
  151.3430  139.2864  155.0510 C   0  0  0  0  0  0  0  0  0  0  0  0
  151.5705  140.0594  156.3679 C   0  0  2  0  0  0  0  0  0  0  0  0
  151.5795  139.1674  157.5250 N   0  0  0  0  0  0  0  0  0  0  0  0
  152.5948  139.0394  158.3923 C   0  0  0  0  0  0  0  0  0  0  0  0
  153.6410  139.6839  158.3066 O   0  0  0  0  0  0  0  0  0  0  0  0
  152.3824  138.0475  159.5428 C   0  0  0  0  0  0  0  0  0  0  0  0
  153.5397  137.9644  160.4355 N   0  0  0  0  0  0  0  0  0  0  0  0
  154.0742  139.0518  161.0936 C   0  0  0  0  0  0  0  0  0  0  0  0
  155.0937  138.7254  161.8123 N   0  0  0  0  0  0  0  0  0  0  0  0
  155.1959  137.3928  161.5906 N   0  0  0  0  0  0  0  0  0  0  0  0
  154.2725  136.9035  160.7615 C   0  0  0  0  0  0  0  0  0  0  0  0
  154.1343  135.7395  160.3898 O   0  0  0  0  0  0  0  0  0  0  0  0
  155.9329  136.8719  162.0438 H   0  0  0  0  0  0  0  0  0  0  0  0
  153.5126  144.3485  157.6905 H   0  0  0  0  0  0  0  0  0  0  0  0
  152.7778  145.6349  158.6412 H   0  0  0  0  0  0  0  0  0  0  0  0
  151.9054  144.9483  157.2861 H   0  0  0  0  0  0  0  0  0  0  0  0
  151.0035  144.0559  159.4182 H   0  0  0  0  0  0  0  0  0  0  0  0
  153.8268  143.0505  160.0001 H   0  0  0  0  0  0  0  0  0  0  0  0
  152.4021  142.7612  160.9954 H   0  0  0  0  0  0  0  0  0  0  0  0
  153.0254  144.3937  160.8109 H   0  0  0  0  0  0  0  0  0  0  0  0
  152.6165  141.8043  158.1512 H   0  0  0  0  0  0  0  0  0  0  0  0
  151.1265  141.6726  159.0440 H   0  0  0  0  0  0  0  0  0  0  0  0
  149.9843  143.0681  157.2259 H   0  0  0  0  0  0  0  0  0  0  0  0
  151.4577  142.9538  156.3001 H   0  0  0  0  0  0  0  0  0  0  0  0
  149.6439  140.6676  157.1221 H   0  0  0  0  0  0  0  0  0  0  0  0
  148.7872  141.4877  155.0583 H   0  0  0  0  0  0  0  0  0  0  0  0
  150.3994  141.8592  154.4503 H   0  0  0  0  0  0  0  0  0  0  0  0
  149.1991  139.1079  154.9063 H   0  0  0  0  0  0  0  0  0  0  0  0
  149.9363  139.7112  153.4232 H   0  0  0  0  0  0  0  0  0  0  0  0
  151.3779  138.2024  155.1697 H   0  0  0  0  0  0  0  0  0  0  0  0
  152.1265  139.5530  154.3406 H   0  0  0  0  0  0  0  0  0  0  0  0
  152.5273  140.5823  156.3082 H   0  0  0  0  0  0  0  0  0  0  0  0
  150.7542  138.6046  157.6725 H   0  0  0  0  0  0  0  0  0  0  0  0
  151.4904  138.3434  160.0975 H   0  0  0  0  0  0  0  0  0  0  0  0
  152.1788  137.0538  159.1399 H   0  0  0  0  0  0  0  0  0  0  0  0
  153.6252  140.0378  160.9623 H   0  0  0  0  0  0  0  0  0  0  0  0
  1  2  1  0  0  0  0
  1 22  1  0  0  0  0
  1 23  1  0  0  0  0
  1 24  1  0  0  0  0
  2  3  1  0  0  0  0
  2  4  1  0  0  0  0
  2 25  1  0  0  0  0
  3 26  1  0  0  0  0
  3 27  1  0  0  0  0
  3 28  1  0  0  0  0
  4  5  1  0  0  0  0
  4 29  1  0  0  0  0
  4 30  1  0  0  0  0
  5  6  1  0  0  0  0
  5 31  1  0  0  0  0
  5 32  1  0  0  0  0
  6 10  1  0  0  0  0
  6  7  1  0  0  0  0
  6 33  1  0  0  0  0
  7  8  1  0  0  0  0
  7 34  1  0  0  0  0
  7 35  1  0  0  0  0
  8  9  1  0  0  0  0
  8 36  1  0  0  0  0
  8 37  1  0  0  0  0
  9 10  1  0  0  0  0
  9 38  1  0  0  0  0
  9 39  1  0  0  0  0
 10 11  1  0  0  0  0
 10 40  1  0  0  0  0
 11 12  1  0  0  0  0
 11 41  1  0  0  0  0
 12 13  2  0  0  0  0
 12 14  1  0  0  0  0
 14 15  1  0  0  0  0
 14 42  1  0  0  0  0
 14 43  1  0  0  0  0
 15 19  1  0  0  0  0
 15 16  1  0  0  0  0
 16 17  2  0  0  0  0
 16 44  1  0  0  0  0
 17 18  1  0  0  0  0
 18 21  1  0  0  0  0
 18 19  1  0  0  0  0
 19 20  2  0  0  0  0
M  END
> <s_m_source_file>
AV-unprocessed.smi

> <i_m_source_file_index>
2229

> <i_lp_mmshare_version>
43012

> <i_f3d_flags>
0

> <s_epik_input>
W0NIM11bQ0hdKFtDSDNdKVtDSDJdW0NIMl1bQ0BASF0xW0NIMl1bQ0gyXVtDSDJdW0NASF0xW05IXUMoPU8pW0NIMl1uMltjSF1uW25IXWMyPU8=

> <s_epik_cmdline>
J2VwaWtfcHl0aG9uJywgJy1waCcsICc3LjAnLCAnLXRuJywgJzgnLCAnLW1hJywgJzIwMCcsICctbWV0YWxfYmluZGluZycsICctaW1hZScsICc8aW5maWxlLm1hZT4nLCAnLW9tYWUnLCAnPG91dGZpbGUubWFlPic=

> <r_lp_tautomer_probability>
1

> <r_epik_Ionization_Penalty>
4.14174e-05

> <r_epik_Ionization_Penalty_Charging>
4.13165e-05

> <r_epik_Ionization_Penalty_Neutral>
1.00911e-07

> <r_epik_State_Penalty>
-0

> <r_epik_Charging_Adjusted_Penalty>
4.13165e-05

> <i_epik_Tot_Q>
0

> <i_epik_Tot_abs_Q>
0

> <r_epik_Metal_State_Penalty>
0.0399369

> <b_epik_Metal_Only>
0

> <s_lp_Force_Field>
OPLS_2005

> <r_lp_Energy>
37.2399

> <b_lp_Chiralities_Consistent>
1

> <s_lp_Variant>
AV-unprocessed.smi:2229-4

> <Gold.Version>
5.8.1

> <Gold.Id.Protein>
6NUR|6NUR_protein|mol2

> <Gold.PLP.Fitness>
46.1397

> <Gold.PLP.PLP>
-40.2909

> <Gold.PLP.part.hbond>
-2.0000

> <Gold.PLP.part.metal>
0.0000

> <Gold.PLP.part.buried>
-1.8898

> <Gold.PLP.part.nonpolar>
-35.7233

> <Gold.PLP.part.repulsive>
0.0452

> <Gold.PLP.ligand.clash>
0.0000

> <Gold.PLP.ligand.torsion>
0.1036

> <Gold.PLP.Chemscore.Hbond>
2.0000

> <Gold.PLP.Chemscore.CHOScore>
0.0000

> <Gold.PLP.Chemscore.Metal>
0.0000

> <Gold.Chemscore.Hbonds>
donor molecule, donor type, donor heavy atom, donor atom, acceptor molecule, acceptor atom, score
      P1  H  6896  6907       L1    20  0.98
      P1  H  7997  8008       L1    13  1.00

> <Gold.PLP.Chemscore.Internal.Correction>
0.0559

> <Gold.Rescore>
     Score         DG    S(hbond)    S(metal)    S(lipo)     H(rot)  DE(clash)    DE(int)     intcor
     16.36     -16.63       1.98        0.00      96.32       2.64       0.02       0.24       ----

> <Gold.Chemscore.Fitness>
16.3572

> <Gold.Chemscore.DG>
-16.6250

> <Gold.Chemscore.ZeroCoef>
-5.4800

> <Gold.Chemscore.Hbond>
1.9838

> <Gold.Chemscore.Metal>
0.0000

> <Gold.Chemscore.Lipo>
96.3188

> <Gold.Chemscore.Internal_Hbond>
0.0000

> <Gold.Chemscore.DEClash>
0.0247

> <Gold.Chemscore.DEInternal>
0.2431

> <Gold.Chemscore.Rot>
2.6368

> <Gold.Chemscore.Internal.Correction>
   9.000000E+99

> <Gold.Chemscore.Hbonds>
donor molecule, donor type, donor heavy atom, donor atom, acceptor molecule, acceptor atom, score
      P1  H  6896  6907       L1    20  0.91
      P1  H  7997  8008       L1    13  0.98

> <Gold.Chemscore.Hbond.Weighted>
-6.6258

> <Gold.Chemscore.Metal.Weighted>
-0.0000

> <Gold.Chemscore.Lipo.Weighted>
-11.2693

> <Gold.Chemscore.Internal_Hbond.Weighted>
0.0000

> <Gold.Chemscore.DEClash.Weighted>
0.0247

> <Gold.Chemscore.DEInternal.Weighted>
0.2431

> <Gold.Chemscore.Rot.Weighted>
6.7501

> <Gold.Chemscore.Internal.Correction.Weighted>
   9.000000E+99

> <Gold.Protein.RotatedTorsions>
[ 6907 6896 6895 6894 ] final   67.70 input  -60.11 | X-H torsion
[ 7974 7965 7964 7962 ] final  130.79 input  175.53 | X-H torsion
[ 8008 7997 7996 7995 ] final -105.50 input   59.86 | X-H torsion
[ 10167 10162 10161 10158 ] final  -38.71 input  -65.29 | X-H torsion
[ 10718 10713 10712 10709 ] final -114.73 input   66.30 | X-H torsion
[ 10763 10752 10751 10750 ] final   52.41 input  -60.55 | X-H torsion
[ 11005 11000 10999 10996 ] final -101.25 input  -57.11 | X-H torsion

> <Gold.Protein.ActiveResidues>
 VAL166  LYS551  ARG553  GLY616  TRP617  ASP618  TYR619  PRO620  LYS621  CYS622 
 ASP623  PHE694  ASN695  SER759  ASP760  ASP761  ALA762  ILE779  LEU786  VAL792 
 PHE793  MET794  SER795  GLU796  ALA797  LYS798  CYS799  TRP800  GLU811  SER814 

> <Gold.Protein.RotatedAtoms>
  152.4570  134.5270  159.9799 H   0  0  0  0  0  0  0  0  0  0  0  0  # atno 6907 bound_to 6896
  151.5328  133.3440  159.2929 H   0  0  0  0  0  0  0  0  0  0  0  0  # atno 6908 bound_to 6896
  150.8518  134.7875  159.7077 H   0  0  0  0  0  0  0  0  0  0  0  0  # atno 6909 bound_to 6896
  145.0142  139.4192  143.5230 H   0  0  0  0  0  0  0  0  0  0  0  0  # atno 7974 bound_to 7965
  154.9008  140.0413  157.1892 H   0  0  0  0  0  0  0  0  0  0  0  0  # atno 8008 bound_to 7997
  154.8446  140.2919  155.5616 H   0  0  0  0  0  0  0  0  0  0  0  0  # atno 8009 bound_to 7997
  156.2993  140.2476  156.3394 H   0  0  0  0  0  0  0  0  0  0  0  0  # atno 8010 bound_to 7997
  140.7084  143.3260  151.2680 H   0  0  0  0  0  0  0  0  0  0  0  0  # atno 10167 bound_to 10162
  156.0849  130.6042  150.8813 H   0  0  0  0  0  0  0  0  0  0  0  0  # atno 10718 bound_to 10713
  152.9789  135.5813  154.4574 H   0  0  0  0  0  0  0  0  0  0  0  0  # atno 10763 bound_to 10752
  154.4155  135.2770  155.2011 H   0  0  0  0  0  0  0  0  0  0  0  0  # atno 10764 bound_to 10752
  154.3783  135.6152  153.5831 H   0  0  0  0  0  0  0  0  0  0  0  0  # atno 10765 bound_to 10752
  141.1238  133.8463  157.1208 H   0  0  0  0  0  0  0  0  0  0  0  0  # atno 11005 bound_to 11000
  146.3475  139.9603  142.8718 LP  0  0  0  0  0  0  0  0  0  0  0  0  # atno 17320 bound_to 7965
  145.1982  140.9842  143.4171 LP  0  0  0  0  0  0  0  0  0  0  0  0  # atno 17321 bound_to 7965
  139.6728  143.9991  152.2763 LP  0  0  0  0  0  0  0  0  0  0  0  0  # atno 17342 bound_to 10162
  139.9595  144.6567  150.8094 LP  0  0  0  0  0  0  0  0  0  0  0  0  # atno 17343 bound_to 10162
  157.5980  131.0942  150.9009 LP  0  0  0  0  0  0  0  0  0  0  0  0  # atno 17370 bound_to 10713
  156.9172  130.5302  149.5279 LP  0  0  0  0  0  0  0  0  0  0  0  0  # atno 17371 bound_to 10713
  140.0218  134.9942  157.0607 LP  0  0  0  0  0  0  0  0  0  0  0  0  # atno 17394 bound_to 11000
  140.4427  134.1664  155.7175 LP  0  0  0  0  0  0  0  0  0  0  0  0  # atno 17395 bound_to 11000

$$$$
