AV-unprocessed.smi:379|AV-procd|sdf|2459|dock7
  -GOLD-   2262022403D 1   1.00000     0.00000
 Structure written by MMmdl.
 39 40  0  0  0  0  0  0  0  0  1 V2000
  143.9337  142.1235  155.6528 C   0  0  0  0  0  0  0  0  0  0  0  0
  145.4514  142.3010  155.8084 C   0  0  0  0  0  0  0  0  0  0  0  0
  146.2140  142.4265  154.4737 C   0  0  1  0  0  0  0  0  0  0  0  0
  145.7030  143.6120  153.6430 C   0  0  0  0  0  0  0  0  0  0  0  0
  147.6482  142.5899  154.7057 N   0  0  0  0  0  0  0  0  0  0  0  0
  148.5655  141.6100  154.6919 C   0  0  0  0  0  0  0  0  0  0  0  0
  148.2951  140.4310  154.4587 O   0  0  0  0  0  0  0  0  0  0  0  0
  150.0100  142.0413  154.9855 C   0  0  0  0  0  0  0  0  0  0  0  0
  150.6790  141.1862  155.9901 N   0  0  0  0  0  0  0  0  0  0  0  0
  151.1147  139.8960  155.5925 C   0  0  0  0  0  0  0  0  0  0  0  0
  150.9185  139.4851  154.4472 O   0  0  0  0  0  0  0  0  0  0  0  0
  151.8093  139.1223  156.6186 C   0  0  0  0  0  0  0  0  0  0  0  0
  152.2909  137.8333  156.2474 C   0  0  0  0  0  0  0  0  0  0  0  0
  152.6817  136.7799  155.9696 N   0  0  0  0  0  0  0  0  0  0  0  0
  151.9879  139.6179  157.8604 C   0  0  0  0  0  0  0  0  0  0  0  0
  151.5224  140.8587  158.2376 N   0  0  0  0  0  0  0  0  0  0  0  0
  151.8599  141.4289  159.5113 C   0  0  0  0  0  0  0  0  0  0  0  0
  152.5460  142.7769  159.5531 C   0  0  0  0  0  0  0  0  0  0  0  0
  153.3100  141.5348  159.9421 C   0  0  0  0  0  0  0  0  0  0  0  0
  150.8990  141.7009  157.2907 C   0  0  0  0  0  0  0  0  0  0  0  0
  150.5667  142.8524  157.5825 O   0  0  0  0  0  0  0  0  0  0  0  0
  143.4440  142.1192  156.6267 H   0  0  0  0  0  0  0  0  0  0  0  0
  143.6875  141.1828  155.1598 H   0  0  0  0  0  0  0  0  0  0  0  0
  143.5004  142.9339  155.0662 H   0  0  0  0  0  0  0  0  0  0  0  0
  145.6337  143.1960  156.4046 H   0  0  0  0  0  0  0  0  0  0  0  0
  145.8520  141.4672  156.3865 H   0  0  0  0  0  0  0  0  0  0  0  0
  146.0316  141.5223  153.8904 H   0  0  0  0  0  0  0  0  0  0  0  0
  144.6407  143.5060  153.4212 H   0  0  0  0  0  0  0  0  0  0  0  0
  146.2314  143.6824  152.6916 H   0  0  0  0  0  0  0  0  0  0  0  0
  145.8397  144.5565  154.1709 H   0  0  0  0  0  0  0  0  0  0  0  0
  147.9676  143.5268  154.9056 H   0  0  0  0  0  0  0  0  0  0  0  0
  150.5576  142.0581  154.0424 H   0  0  0  0  0  0  0  0  0  0  0  0
  150.0151  143.0829  155.3123 H   0  0  0  0  0  0  0  0  0  0  0  0
  152.5118  139.0192  158.5916 H   0  0  0  0  0  0  0  0  0  0  0  0
  151.1427  141.2390  160.3081 H   0  0  0  0  0  0  0  0  0  0  0  0
  152.8108  143.2480  158.6083 H   0  0  0  0  0  0  0  0  0  0  0  0
  152.2591  143.4608  160.3494 H   0  0  0  0  0  0  0  0  0  0  0  0
  153.5309  141.3889  160.9975 H   0  0  0  0  0  0  0  0  0  0  0  0
  154.0792  141.1892  159.2537 H   0  0  0  0  0  0  0  0  0  0  0  0
  1  2  1  0  0  0  0
  1 22  1  0  0  0  0
  1 23  1  0  0  0  0
  1 24  1  0  0  0  0
  2  3  1  0  0  0  0
  2 25  1  0  0  0  0
  2 26  1  0  0  0  0
  3  4  1  0  0  0  0
  3  5  1  0  0  0  0
  3 27  1  0  0  0  0
  4 28  1  0  0  0  0
  4 29  1  0  0  0  0
  4 30  1  0  0  0  0
  5  6  1  0  0  0  0
  5 31  1  0  0  0  0
  6  7  2  0  0  0  0
  6  8  1  0  0  0  0
  8  9  1  0  0  0  0
  8 32  1  0  0  0  0
  8 33  1  0  0  0  0
  9 20  1  0  0  0  0
  9 10  1  0  0  0  0
 10 11  2  0  0  0  0
 10 12  1  0  0  0  0
 12 13  1  0  0  0  0
 12 15  2  0  0  0  0
 13 14  3  0  0  0  0
 15 16  1  0  0  0  0
 15 34  1  0  0  0  0
 16 17  1  0  0  0  0
 16 20  1  0  0  0  0
 17 19  1  0  0  0  0
 17 18  1  0  0  0  0
 17 35  1  0  0  0  0
 18 19  1  0  0  0  0
 18 36  1  0  0  0  0
 18 37  1  0  0  0  0
 19 38  1  0  0  0  0
 19 39  1  0  0  0  0
 20 21  2  0  0  0  0
M  END
> <s_m_source_file>
AV-unprocessed.smi

> <i_m_source_file_index>
379

> <i_lp_mmshare_version>
43012

> <i_f3d_flags>
0

> <s_epik_input>
W0NIM11bQ0gyXVtDQEhdKFtDSDNdKVtOSF1DKD1PKVtDSDJdbjFjKD1PKWMoQyNOKVtjSF1uKGMxPU8pW0NIXTJbQ0gyXVtDSDJdMg==

> <s_epik_cmdline>
J2VwaWtfcHl0aG9uJywgJy1waCcsICc3LjAnLCAnLXRuJywgJzgnLCAnLW1hJywgJzIwMCcsICctbWV0YWxfYmluZGluZycsICctaW1hZScsICc8aW5maWxlLm1hZT4nLCAnLW9tYWUnLCAnPG91dGZpbGUubWFlPic=

> <r_lp_tautomer_probability>
1

> <r_epik_Ionization_Penalty>
1.93863e-08

> <r_epik_Ionization_Penalty_Charging>
8.45512e-11

> <r_epik_Ionization_Penalty_Neutral>
1.93017e-08

> <r_epik_State_Penalty>
-0

> <r_epik_Charging_Adjusted_Penalty>
8.45512e-11

> <i_epik_Tot_Q>
0

> <i_epik_Tot_abs_Q>
0

> <r_epik_Metal_State_Penalty>
-0

> <b_epik_Metal_Only>
0

> <s_lp_Force_Field>
OPLS_2005

> <r_lp_Energy>
29.1248

> <b_lp_Chiralities_Consistent>
1

> <s_lp_Variant>
AV-unprocessed.smi:379-2

> <Gold.Version>
5.8.1

> <Gold.Id.Protein>
6NUR|6NUR_protein|mol2

> <Gold.PLP.Fitness>
45.0392

> <Gold.PLP.PLP>
-37.8781

> <Gold.PLP.part.hbond>
-2.9643

> <Gold.PLP.part.metal>
0.0000

> <Gold.PLP.part.buried>
-2.6611

> <Gold.PLP.part.nonpolar>
-32.2738

> <Gold.PLP.part.repulsive>
0.5182

> <Gold.PLP.ligand.clash>
0.0000

> <Gold.PLP.ligand.torsion>
0.7353

> <Gold.PLP.Chemscore.Hbond>
2.8000

> <Gold.PLP.Chemscore.CHOScore>
0.0000

> <Gold.PLP.Chemscore.Metal>
0.0000

> <Gold.Chemscore.Hbonds>
donor molecule, donor type, donor heavy atom, donor atom, acceptor molecule, acceptor atom, score
      L1  H     5    31       P1  8028  1.00
      P1  H  7989  7998       L1    11  1.00
      P1  H 10752 10765       L1    14  0.86

> <Gold.PLP.Chemscore.Internal.Correction>
0.2318

> <Gold.Rescore>
     Score         DG    S(hbond)    S(metal)    S(lipo)     H(rot)  DE(clash)    DE(int)     intcor
     10.37     -15.58       2.19        0.00      67.01       1.98       1.86       3.36       ----

> <Gold.Chemscore.Fitness>
10.3695

> <Gold.Chemscore.DG>
-15.5848

> <Gold.Chemscore.ZeroCoef>
-5.4800

> <Gold.Chemscore.Hbond>
2.1936

> <Gold.Chemscore.Metal>
0.0000

> <Gold.Chemscore.Lipo>
67.0134

> <Gold.Chemscore.Internal_Hbond>
0.0000

> <Gold.Chemscore.DEClash>
1.8565

> <Gold.Chemscore.DEInternal>
3.3588

> <Gold.Chemscore.Rot>
1.9774

> <Gold.Chemscore.Internal.Correction>
   9.000000E+99

> <Gold.Chemscore.Hbonds>
donor molecule, donor type, donor heavy atom, donor atom, acceptor molecule, acceptor atom, score
      L1  H     5    31       P1  8028  0.65
      P1  H  7989  7998       L1    11  0.26
      P1  H 10752 10765       L1    14  0.85

> <Gold.Chemscore.Hbond.Weighted>
-7.3265

> <Gold.Chemscore.Metal.Weighted>
-0.0000

> <Gold.Chemscore.Lipo.Weighted>
-7.8406

> <Gold.Chemscore.Internal_Hbond.Weighted>
0.0000

> <Gold.Chemscore.DEClash.Weighted>
1.8565

> <Gold.Chemscore.DEInternal.Weighted>
3.3588

> <Gold.Chemscore.Rot.Weighted>
5.0623

> <Gold.Chemscore.Internal.Correction.Weighted>
   9.000000E+99

> <Gold.Protein.RotatedTorsions>
[ 6907 6896 6895 6894 ] final  -93.58 input  -60.11 | X-H torsion
[ 7974 7965 7964 7962 ] final   73.01 input  175.53 | X-H torsion
[ 8008 7997 7996 7995 ] final -118.47 input   59.86 | X-H torsion
[ 10167 10162 10161 10158 ] final  176.82 input  -65.29 | X-H torsion
[ 10718 10713 10712 10709 ] final -169.01 input   66.30 | X-H torsion
[ 10763 10752 10751 10750 ] final -142.50 input  -60.55 | X-H torsion
[ 11005 11000 10999 10996 ] final -106.00 input  -57.11 | X-H torsion

> <Gold.Protein.ActiveResidues>
 VAL166  LYS551  ARG553  GLY616  TRP617  ASP618  TYR619  PRO620  LYS621  CYS622 
 ASP623  PHE694  ASN695  SER759  ASP760  ASP761  ALA762  ILE779  LEU786  VAL792 
 PHE793  MET794  SER795  GLU796  ALA797  LYS798  CYS799  TRP800  GLU811  SER814 

> <Gold.Protein.RotatedAtoms>
  150.6925  134.1945  159.4297 H   0  0  0  0  0  0  0  0  0  0  0  0  # atno 6907 bound_to 6896
  151.9914  134.9974  160.0571 H   0  0  0  0  0  0  0  0  0  0  0  0  # atno 6908 bound_to 6896
  152.1663  133.4579  159.4923 H   0  0  0  0  0  0  0  0  0  0  0  0  # atno 6909 bound_to 6896
  145.7462  139.2741  143.1458 H   0  0  0  0  0  0  0  0  0  0  0  0  # atno 7974 bound_to 7965
  155.1002  140.0396  157.2694 H   0  0  0  0  0  0  0  0  0  0  0  0  # atno 8008 bound_to 7997
  154.6764  140.2623  155.6928 H   0  0  0  0  0  0  0  0  0  0  0  0  # atno 8009 bound_to 7997
  156.2678  140.2787  156.1292 H   0  0  0  0  0  0  0  0  0  0  0  0  # atno 8010 bound_to 7997
  139.5229  144.2871  152.0496 H   0  0  0  0  0  0  0  0  0  0  0  0  # atno 10167 bound_to 10162
  156.7054  130.9212  151.3084 H   0  0  0  0  0  0  0  0  0  0  0  0  # atno 10718 bound_to 10713
  154.8506  135.3494  154.6038 H   0  0  0  0  0  0  0  0  0  0  0  0  # atno 10763 bound_to 10752
  153.6647  135.6988  153.5171 H   0  0  0  0  0  0  0  0  0  0  0  0  # atno 10764 bound_to 10752
  153.2790  135.4269  155.1018 H   0  0  0  0  0  0  0  0  0  0  0  0  # atno 10765 bound_to 10752
  141.1026  133.8856  157.1803 H   0  0  0  0  0  0  0  0  0  0  0  0  # atno 11005 bound_to 11000
  146.0401  140.8173  142.9833 LP  0  0  0  0  0  0  0  0  0  0  0  0  # atno 17320 bound_to 7965
  144.6860  140.2897  143.7280 LP  0  0  0  0  0  0  0  0  0  0  0  0  # atno 17321 bound_to 7965
  140.2323  144.4355  150.6294 LP  0  0  0  0  0  0  0  0  0  0  0  0  # atno 17342 bound_to 10162
  140.6347  143.2193  151.6421 LP  0  0  0  0  0  0  0  0  0  0  0  0  # atno 17343 bound_to 10162
  157.6957  130.9279  150.0638 LP  0  0  0  0  0  0  0  0  0  0  0  0  # atno 17370 bound_to 10713
  156.1699  130.3646  149.9180 LP  0  0  0  0  0  0  0  0  0  0  0  0  # atno 17371 bound_to 10713
  139.9883  135.0074  156.9915 LP  0  0  0  0  0  0  0  0  0  0  0  0  # atno 17394 bound_to 11000
  140.4984  134.1122  155.7246 LP  0  0  0  0  0  0  0  0  0  0  0  0  # atno 17395 bound_to 11000

$$$$
