#       Name:                AV-unprocessed.smi:40
#       Creating user name   scv26
#       Creation time:       Thu Mar 26 16:21:09 2020


#       File generated by GOLD software.
#

@<TRIPOS>MOLECULE
AV-unprocessed.smi:40
    58    59     1
SMALL
NO_CHARGES


@<TRIPOS>ATOM
      1 ****        -6.8872   2.7301   0.8710 C.3            1 S1                 0.0000
      2 ****        -5.3632   2.7619   1.0290 C.3            1 S1                 0.0000
      3 ****        -4.8008   1.4477   1.5894 C.3            1 S1                 0.0000
      4 ****        -3.2742   1.4774   1.7403 C.3            1 S1                 0.0000
      5 ****        -2.7189   0.1631   2.3104 C.3            1 S1                 0.0000
      6 ****        -1.3000   0.2023   2.3752 O.3            1 S1                 0.0000
      7 ****        -0.6687   0.7519   3.4370 C.2            1 S1                 0.0000
      8 ****        -1.2412   1.2037   4.4283 O.2            1 S1                 0.0000
      9 ****         0.7690   0.7052   3.2652 N.am           1 S1                 0.0000
     10 ****         1.6975   1.1649   4.1314 C.2            1 S1                 0.0000
     11 ****         2.6019   2.0060   3.6649 N.2            1 S1                 0.0000
     12 ****         3.5917   2.5589   4.4331 C.2            1 S1                 0.0000
     13 ****         4.3864   3.3650   3.9516 O.2            1 S1                 0.0000
     14 ****         3.6493   2.1774   5.7940 N.am           1 S1                 0.0000
     15 ****         4.7105   2.7845   6.6800 C.3            1 S1                 0.0000
     16 ****         5.0498   1.8609   7.6766 O.3            1 S1                 0.0000
     17 ****         4.9924   2.4664   8.9648 C.3            1 S1                 0.0000
     18 ****         6.4085   2.9214   9.3624 C.3            1 S1                 0.0000
     19 ****         3.9599   3.5845   8.7870 C.3            1 S1                 0.0000
     20 ****         4.0292   4.6171   9.7516 O.3            1 S1                 0.0000
     21 ****         4.1704   4.0575   7.3541 C.3            1 S1                 0.0000
     22 ****         5.0971   5.1233   7.2542 O.3            1 S1                 0.0000
     23 ****         2.7104   1.2915   6.3014 C.2            1 S1                 0.0000
     24 ****         1.7384   0.7646   5.5270 C.2            1 S1                 0.0000
     25 ****         0.8558  -0.1080   6.0442 F              1 S1                 0.0000
     26 ****         5.5844   2.9532   6.0484 H              1 S1                 0.0000
     27 ****         4.6407   1.7360   9.6942 H              1 S1                 0.0000
     28 ****         2.9672   3.1369   8.8543 H              1 S1                 0.0000
     29 ****         3.2331   4.3789   6.8974 H              1 S1                 0.0000
     30 ****        -7.2565   3.6769   0.4763 H              1 S1                 0.0000
     31 ****        -7.3790   2.5542   1.8281 H              1 S1                 0.0000
     32 ****        -7.1955   1.9409   0.1847 H              1 S1                 0.0000
     33 ****        -4.9066   2.9721   0.0611 H              1 S1                 0.0000
     34 ****        -5.0878   3.5876   1.6860 H              1 S1                 0.0000
     35 ****        -5.2562   1.2420   2.5591 H              1 S1                 0.0000
     36 ****        -5.0835   0.6231   0.9337 H              1 S1                 0.0000
     37 ****        -2.8159   1.6714   0.7698 H              1 S1                 0.0000
     38 ****        -2.9911   2.3080   2.3879 H              1 S1                 0.0000
     39 ****        -3.1486  -0.0500   3.2904 H              1 S1                 0.0000
     40 ****        -3.0021  -0.6647   1.6600 H              1 S1                 0.0000
     41 ****         1.0810   0.3340   2.3797 H              1 S1                 0.0000
     42 ****         6.4107   3.3972  10.3433 H              1 S1                 0.0000
     43 ****         6.8292   3.6275   8.6472 H              1 S1                 0.0000
     44 ****         7.0843   2.0675   9.4131 H              1 S1                 0.0000
     45 ****         4.8544   5.0655   9.6445 H              1 S1                 0.0000
     46 ****         5.2070   5.3391   6.3404 H              1 S1                 0.0000
     47 ****         2.7414   1.0034   7.3420 H              1 S1                 0.0000
     48 ****        -2.2393   1.1783   4.4842 LP             1 S1                 0.0000
     49 ****        -0.7083   1.5963   5.1779 LP             1 S1                 0.0000
     50 ****         2.5620   2.2531   2.6968 LP             1 S1                 0.0000
     51 ****         4.3143   3.6238   2.9883 LP             1 S1                 0.0000
     52 ****         5.1047   3.7615   4.5233 LP             1 S1                 0.0000
     53 ****         5.9777   1.5265   7.5122 LP             1 S1                 0.0000
     54 ****         4.4087   1.0940   7.6455 LP             1 S1                 0.0000
     55 ****         3.9726   4.2265  10.6704 LP             1 S1                 0.0000
     56 ****         3.2747   5.2591   9.6152 LP             1 S1                 0.0000
     57 ****         5.9752   4.8448   7.6433 LP             1 S1                 0.0000
     58 ****         4.7505   5.9197   7.7499 LP             1 S1                 0.0000
@<TRIPOS>BOND
    1    1    2 1     
    2    1   30 1     
    3    1   31 1     
    4    1   32 1     
    5    2    3 1     
    6    2   33 1     
    7    2   34 1     
    8    3    4 1     
    9    3   35 1     
   10    3   36 1     
   11    4    5 1     
   12    4   37 1     
   13    4   38 1     
   14    5    6 1     
   15    5   39 1     
   16    5   40 1     
   17    6    7 1     
   18    7    8 2     
   19    7    9 am    
   20    9   10 1     
   21    9   41 1     
   22   10   24 1     
   23   10   11 2     
   24   11   12 1     
   25   12   13 2     
   26   12   14 am    
   27   14   15 1     
   28   14   23 1     
   29   15   26 1     
   30   15   21 1     
   31   15   16 1     
   32   16   17 1     
   33   17   27 1     
   34   17   18 1     
   35   17   19 1     
   36   18   42 1     
   37   18   43 1     
   38   18   44 1     
   39   19   28 1     
   40   19   20 1     
   41   19   21 1     
   42   20   45 1     
   43   21   29 1     
   44   21   22 1     
   45   22   46 1     
   46   23   24 2     
   47   23   47 1     
   48   24   25 1     
   49    8   48 1     
   50    8   49 1     
   51   11   50 1     
   52   13   51 1     
   53   13   52 1     
   54   16   53 1     
   55   16   54 1     
   56   20   55 1     
   57   20   56 1     
   58   22   57 1     
   59   22   58 1     
@<TRIPOS>SUBSTRUCTURE
      1 S1             1
@<TRIPOS>SET
LONE_PAIRS      STATIC     ATOMS    <user>   **** ""
11 48 49 50 51 52 53 54 55 56 57 58
DONOR_HYDROGENS      STATIC     ATOMS    <user>   **** ""
3 41 45 46
ATOM$BLUE        STATIC     ATOMS    COLORGROUP SYSTEM
11 48 49 50 51 52 53 54 55 56 57 58
ATOM$RED        STATIC     ATOMS    COLORGROUP SYSTEM
3 41 45 46
