AV-unprocessed.smi:1645|AV-procd|sdf|6610|dock3
  -GOLD-   22720 7313D 1   1.00000     0.00000
 Structure written by MMmdl.
 56 59  0  0  0  0  0  0  0  0  3 V2000
  149.3541  135.0770  156.1786 O   0  0  0  0  0  0  0  0  0  0  0  0
  149.2703  135.5320  155.0386 C   0  0  0  0  0  0  0  0  0  0  0  0
  149.6129  136.7793  154.6712 N   0  0  0  0  0  0  0  0  0  0  0  0
  150.1494  137.8247  155.4730 C   0  0  0  0  0  0  0  0  0  0  0  0
  150.7356  138.9251  154.8135 C   0  0  0  0  0  0  0  0  0  0  0  0
  151.2799  139.9876  155.5641 C   0  0  0  0  0  0  0  0  0  0  0  0
  151.2277  139.9513  156.9802 C   0  0  0  0  0  0  0  0  0  0  0  0
  151.7586  140.9597  157.8163 N   0  0  0  0  0  0  0  0  0  0  0  0
  152.1322  140.5571  159.1763 C   0  0  0  0  0  0  0  0  0  0  0  0
  153.0951  141.5707  159.8173 C   0  0  0  0  0  0  0  0  0  0  0  0
  152.5233  142.9936  159.7533 C   0  0  0  0  0  0  0  0  0  0  0  0
  152.1901  143.3556  158.2995 C   0  0  0  0  0  0  0  0  0  0  0  0
  151.2403  142.3213  157.6707 C   0  0  0  0  0  0  0  0  0  0  0  0
  150.6402  138.8801  157.5660 N   0  3  0  0  0  0  0  0  0  0  0  0
  150.1081  137.8414  156.8872 C   0  0  0  0  0  0  0  0  0  0  0  0
  148.8258  134.8196  153.9932 N   0  0  0  0  0  0  0  0  0  0  0  0
  148.3880  133.4272  154.0541 C   0  0  2  0  0  0  0  0  0  0  0  0
  149.5284  132.4467  154.3004 C   0  0  0  0  0  0  0  0  0  0  0  0
  148.9190  131.1209  153.8391 C   0  0  0  0  0  0  0  0  0  0  0  0
  148.0043  131.4565  152.7228 N   0  3  1  0  0  0  0  0  0  0  0  0
  146.7687  130.6369  152.6714 C   0  0  0  0  0  0  0  0  0  0  0  0
  145.8952  131.0365  151.4671 C   0  0  0  0  0  0  0  0  0  0  0  0
  145.6873  132.5606  151.3464 C   0  0  0  0  0  0  0  0  0  0  0  0
  146.3121  133.3294  152.5203 C   0  0  0  0  0  0  0  0  0  0  0  0
  147.7917  132.9320  152.7261 C   0  0  1  0  0  0  0  0  0  0  0  0
  149.5352  136.9874  153.6862 H   0  0  0  0  0  0  0  0  0  0  0  0
  150.7754  138.9576  153.7344 H   0  0  0  0  0  0  0  0  0  0  0  0
  151.7205  140.8177  155.0329 H   0  0  0  0  0  0  0  0  0  0  0  0
  151.2244  140.4776  159.7755 H   0  0  0  0  0  0  0  0  0  0  0  0
  152.6052  139.5755  159.1936 H   0  0  0  0  0  0  0  0  0  0  0  0
  153.2920  141.2929  160.8531 H   0  0  0  0  0  0  0  0  0  0  0  0
  154.0551  141.5393  159.3003 H   0  0  0  0  0  0  0  0  0  0  0  0
  151.6243  143.0594  160.3673 H   0  0  0  0  0  0  0  0  0  0  0  0
  153.2384  143.7064  160.1653 H   0  0  0  0  0  0  0  0  0  0  0  0
  151.7430  144.3490  158.2533 H   0  0  0  0  0  0  0  0  0  0  0  0
  153.1113  143.4042  157.7171 H   0  0  0  0  0  0  0  0  0  0  0  0
  151.1165  142.5706  156.6166 H   0  0  0  0  0  0  0  0  0  0  0  0
  150.2569  142.3804  158.1390 H   0  0  0  0  0  0  0  0  0  0  0  0
  149.6690  137.0773  157.5098 H   0  0  0  0  0  0  0  0  0  0  0  0
  148.7936  135.2688  153.0894 H   0  0  0  0  0  0  0  0  0  0  0  0
  147.6593  133.2937  154.8567 H   0  0  0  0  0  0  0  0  0  0  0  0
  150.3909  132.6974  153.6810 H   0  0  0  0  0  0  0  0  0  0  0  0
  149.8525  132.4225  155.3414 H   0  0  0  0  0  0  0  0  0  0  0  0
  149.6752  130.3985  153.5311 H   0  0  0  0  0  0  0  0  0  0  0  0
  148.3554  130.6802  154.6632 H   0  0  0  0  0  0  0  0  0  0  0  0
  147.0329  129.5808  152.6064 H   0  0  0  0  0  0  0  0  0  0  0  0
  146.2072  130.7626  153.5988 H   0  0  0  0  0  0  0  0  0  0  0  0
  146.3542  130.6673  150.5490 H   0  0  0  0  0  0  0  0  0  0  0  0
  144.9298  130.5349  151.5412 H   0  0  0  0  0  0  0  0  0  0  0  0
  146.1359  132.9095  150.4154 H   0  0  0  0  0  0  0  0  0  0  0  0
  144.6239  132.7909  151.2737 H   0  0  0  0  0  0  0  0  0  0  0  0
  146.2324  134.4024  152.3440 H   0  0  0  0  0  0  0  0  0  0  0  0
  145.7384  133.1300  153.4264 H   0  0  0  0  0  0  0  0  0  0  0  0
  148.3834  133.3220  151.8960 H   0  0  0  0  0  0  0  0  0  0  0  0
  148.5074  131.2589  151.8696 H   0  0  0  0  0  0  0  0  0  0  0  0
  150.5996  138.8538  158.5851 H   0  0  0  0  0  0  0  0  0  0  0  0
  1  2  2  0  0  0  0
  2  3  1  0  0  0  0
  2 16  1  0  0  0  0
  3  4  1  0  0  0  0
  3 26  1  0  0  0  0
  4 15  1  0  0  0  0
  4  5  2  0  0  0  0
  5  6  1  0  0  0  0
  5 27  1  0  0  0  0
  6  7  2  0  0  0  0
  6 28  1  0  0  0  0
  7  8  1  0  0  0  0
  7 14  1  0  0  0  0
  8 13  1  0  0  0  0
  8  9  1  0  0  0  0
  9 10  1  0  0  0  0
  9 29  1  0  0  0  0
  9 30  1  0  0  0  0
 10 11  1  0  0  0  0
 10 31  1  0  0  0  0
 10 32  1  0  0  0  0
 11 12  1  0  0  0  0
 11 33  1  0  0  0  0
 11 34  1  0  0  0  0
 12 13  1  0  0  0  0
 12 35  1  0  0  0  0
 12 36  1  0  0  0  0
 13 37  1  0  0  0  0
 13 38  1  0  0  0  0
 14 15  2  0  0  0  0
 14 56  1  0  0  0  0
 15 39  1  0  0  0  0
 16 17  1  0  0  0  0
 16 40  1  0  0  0  0
 17 25  1  0  0  0  0
 17 18  1  0  0  0  0
 17 41  1  0  0  0  0
 18 19  1  0  0  0  0
 18 42  1  0  0  0  0
 18 43  1  0  0  0  0
 19 20  1  0  0  0  0
 19 44  1  0  0  0  0
 19 45  1  0  0  0  0
 20 25  1  0  0  0  0
 20 21  1  0  0  0  0
 20 55  1  0  0  0  0
 21 22  1  0  0  0  0
 21 46  1  0  0  0  0
 21 47  1  0  0  0  0
 22 23  1  0  0  0  0
 22 48  1  0  0  0  0
 22 49  1  0  0  0  0
 23 24  1  0  0  0  0
 23 50  1  0  0  0  0
 23 51  1  0  0  0  0
 24 25  1  0  0  0  0
 24 52  1  0  0  0  0
 24 53  1  0  0  0  0
 25 54  1  0  0  0  0
M  CHG  1  14   1
M  CHG  1  20   1
M  END
> <s_m_source_file>
AV-unprocessed.smi

> <i_m_source_file_index>
1645

> <i_lp_mmshare_version>
43012

> <i_f3d_flags>
0

> <s_epik_input>
W0NIMl0xW0NIMl1bQ0gyXVtDSDJdW0NASF0oTjEyKVtDQEBIXShbQ0gyXVtDSDJdMilbTkhdQyg9TylbTkhdYzNbY0hdW2NIXWMobltjSF0zKU40W0NIMl1bQ0gyXVtDSDJdW0NIMl1bQ0gyXTQ=

> <s_epik_cmdline>
J2VwaWtfcHl0aG9uJywgJy1waCcsICc3LjAnLCAnLXRuJywgJzgnLCAnLW1hJywgJzIwMCcsICctbWV0YWxfYmluZGluZycsICctaW1hZScsICc8aW5maWxlLm1hZT4nLCAnLW9tYWUnLCAnPG91dGZpbGUubWFlPic=

> <r_lp_tautomer_probability>
0.999994

> <r_epik_Ionization_Penalty>
1.26838

> <r_epik_Ionization_Penalty_Charging>
1.26836

> <r_epik_Ionization_Penalty_Neutral>
1.95562e-05

> <r_epik_State_Penalty>
1.33841

> <r_epik_Charging_Adjusted_Penalty>
2.60677

> <i_epik_Tot_Q>
2

> <i_epik_Tot_abs_Q>
2

> <r_epik_Metal_State_Penalty>
1.40601

> <b_epik_Metal_Only>
0

> <s_lp_Force_Field>
OPLS_2005

> <r_lp_Energy>
64.1893

> <b_lp_Chiralities_Consistent>
1

> <s_lp_Variant>
AV-unprocessed.smi:1645-11

> <Gold.Version>
5.8.1

> <Gold.Id.Protein>
6NUR|6NUR_protein|mol2

> <Gold.PLP.Fitness>
55.1050

> <Gold.PLP.PLP>
-47.7475

> <Gold.PLP.part.hbond>
-2.9849

> <Gold.PLP.part.metal>
0.0000

> <Gold.PLP.part.buried>
-4.0111

> <Gold.PLP.part.nonpolar>
-40.4862

> <Gold.PLP.part.repulsive>
0.0851

> <Gold.PLP.ligand.clash>
0.0000

> <Gold.PLP.ligand.torsion>
0.8022

> <Gold.PLP.Chemscore.Hbond>
2.8960

> <Gold.PLP.Chemscore.CHOScore>
0.0000

> <Gold.PLP.Chemscore.Metal>
0.0000

> <Gold.Chemscore.Hbonds>
donor molecule, donor type, donor heavy atom, donor atom, acceptor molecule, acceptor atom, score
      L1  H     3    26       P1  7948  0.90
      L1  H    16    40       P1  7948  1.00
      L1  H    20    55       P1 10747  1.00

> <Gold.PLP.Chemscore.Internal.Correction>
0.2740

> <Gold.Rescore>
     Score         DG    S(hbond)    S(metal)    S(lipo)     H(rot)  DE(clash)    DE(int)     intcor
     23.74     -25.80       2.65        0.00     119.92       1.00       0.11       1.95       ----

> <Gold.Chemscore.Fitness>
23.7448

> <Gold.Chemscore.DG>
-25.7970

> <Gold.Chemscore.ZeroCoef>
-5.4800

> <Gold.Chemscore.Hbond>
2.6486

> <Gold.Chemscore.Metal>
0.0000

> <Gold.Chemscore.Lipo>
119.9207

> <Gold.Chemscore.Internal_Hbond>
0.0000

> <Gold.Chemscore.DEClash>
0.1061

> <Gold.Chemscore.DEInternal>
1.9460

> <Gold.Chemscore.Rot>
1.0000

> <Gold.Chemscore.Internal.Correction>
   9.000000E+99

> <Gold.Chemscore.Hbonds>
donor molecule, donor type, donor heavy atom, donor atom, acceptor molecule, acceptor atom, score
      L1  H     3    26       P1  7948  0.70
      L1  H    16    40       P1  7948  0.56
      L1  H    20    55       P1 10747  0.99

> <Gold.Chemscore.Hbond.Weighted>
-8.8463

> <Gold.Chemscore.Metal.Weighted>
-0.0000

> <Gold.Chemscore.Lipo.Weighted>
-14.0307

> <Gold.Chemscore.Internal_Hbond.Weighted>
0.0000

> <Gold.Chemscore.DEClash.Weighted>
0.1061

> <Gold.Chemscore.DEInternal.Weighted>
1.9460

> <Gold.Chemscore.Rot.Weighted>
2.5600

> <Gold.Chemscore.Internal.Correction.Weighted>
   9.000000E+99

> <Gold.Protein.RotatedTorsions>
[ 6907 6896 6895 6894 ] final -144.86 input  -60.11 | X-H torsion
[ 7974 7965 7964 7962 ] final  -12.34 input  175.53 | X-H torsion
[ 8008 7997 7996 7995 ] final -103.85 input   59.86 | X-H torsion
[ 10167 10162 10161 10158 ] final  -24.54 input  -65.29 | X-H torsion
[ 10718 10713 10712 10709 ] final  -98.40 input   66.30 | X-H torsion
[ 10763 10752 10751 10750 ] final -111.06 input  -60.55 | X-H torsion
[ 11005 11000 10999 10996 ] final   60.86 input  -57.11 | X-H torsion

> <Gold.Protein.ActiveResidues>
 VAL166  LYS551  ARG553  GLY616  TRP617  ASP618  TYR619  PRO620  LYS621  CYS622 
 ASP623  PHE694  ASN695  SER759  ASP760  ASP761  ALA762  ILE779  LEU786  VAL792 
 PHE793  MET794  SER795  GLU796  ALA797  LYS798  CYS799  TRP800  GLU811  SER814 

> <Gold.Protein.RotatedAtoms>
  151.1199  133.5111  159.2602 H   0  0  0  0  0  0  0  0  0  0  0  0  # atno 6907 bound_to 6896
  151.1873  135.0387  159.8828 H   0  0  0  0  0  0  0  0  0  0  0  0  # atno 6908 bound_to 6896
  152.5455  134.1044  159.8385 H   0  0  0  0  0  0  0  0  0  0  0  0  # atno 6909 bound_to 6896
  146.2155  140.3044  142.8377 H   0  0  0  0  0  0  0  0  0  0  0  0  # atno 7974 bound_to 7965
  154.8768  140.0421  157.1758 H   0  0  0  0  0  0  0  0  0  0  0  0  # atno 8008 bound_to 7997
  154.8680  140.2954  155.5477 H   0  0  0  0  0  0  0  0  0  0  0  0  # atno 8009 bound_to 7997
  156.2999  140.2434  156.3665 H   0  0  0  0  0  0  0  0  0  0  0  0  # atno 8010 bound_to 7997
  140.7288  143.4344  151.0753 H   0  0  0  0  0  0  0  0  0  0  0  0  # atno 10167 bound_to 10162
  156.0107  130.5236  150.6517 H   0  0  0  0  0  0  0  0  0  0  0  0  # atno 10718 bound_to 10713
  154.8280  135.4541  154.0980 H   0  0  0  0  0  0  0  0  0  0  0  0  # atno 10763 bound_to 10752
  153.2278  135.6902  153.7932 H   0  0  0  0  0  0  0  0  0  0  0  0  # atno 10764 bound_to 10752
  153.7325  135.3324  155.3265 H   0  0  0  0  0  0  0  0  0  0  0  0  # atno 10765 bound_to 10752
  140.0202  134.6165  155.9651 H   0  0  0  0  0  0  0  0  0  0  0  0  # atno 11005 bound_to 11000
  144.9034  140.7670  143.5853 LP  0  0  0  0  0  0  0  0  0  0  0  0  # atno 17320 bound_to 7965
  145.2971  139.1863  143.4709 LP  0  0  0  0  0  0  0  0  0  0  0  0  # atno 17321 bound_to 7965
  139.8004  143.8092  152.3162 LP  0  0  0  0  0  0  0  0  0  0  0  0  # atno 17342 bound_to 10162
  139.8106  144.7337  150.9702 LP  0  0  0  0  0  0  0  0  0  0  0  0  # atno 17343 bound_to 10162
  157.4277  131.0845  151.1069 LP  0  0  0  0  0  0  0  0  0  0  0  0  # atno 17370 bound_to 10713
  157.1651  130.6243  149.5623 LP  0  0  0  0  0  0  0  0  0  0  0  0  # atno 17371 bound_to 10713
  141.1768  133.6541  156.4862 LP  0  0  0  0  0  0  0  0  0  0  0  0  # atno 17394 bound_to 11000
  140.4401  134.7023  157.4987 LP  0  0  0  0  0  0  0  0  0  0  0  0  # atno 17395 bound_to 11000

$$$$
