AV-unprocessed.smi:2999|AV-procd|sdf|11425|dock4
  -GOLD-   2272016353D 1   1.00000     0.00000
 Structure written by MMmdl.
 37 39  0  0  0  0  0  0  0  0  3 V2000
  150.3665  134.5971  156.3550 O   0  0  0  0  0  0  0  0  0  0  0  0
  150.2994  135.1249  155.2428 C   0  0  0  0  0  0  0  0  0  0  0  0
  149.2782  134.8360  154.4275 N   0  0  0  0  0  0  0  0  0  0  0  0
  148.1780  133.9328  154.7397 C   0  0  0  0  0  0  0  0  0  0  0  0
  147.9539  132.9262  153.6016 C   0  0  2  0  0  0  0  0  0  0  0  0
  147.1642  133.5250  152.4177 C   0  0  0  0  0  0  0  0  0  0  0  0
  146.9157  132.4916  151.3876 N   0  3  2  0  0  0  0  0  0  0  0  0
  146.1978  133.0283  150.2117 C   0  0  0  0  0  0  0  0  0  0  0  0
  144.6978  132.8640  150.2888 C   0  0  0  0  0  0  0  0  0  0  0  0
  145.5126  131.9669  149.3832 C   0  0  0  0  0  0  0  0  0  0  0  0
  146.2348  131.3187  151.9801 C   0  0  0  0  0  0  0  0  0  0  0  0
  147.0415  130.7839  153.1743 C   0  0  0  0  0  0  0  0  0  0  0  0
  147.2239  131.8226  154.1293 O   0  0  0  0  0  0  0  0  0  0  0  0
  151.1765  136.0086  154.7160 N   0  5  0  0  0  0  0  0  0  0  0  0
  151.0759  137.3145  155.0132 C   0  0  0  0  0  0  0  0  0  0  0  0
  149.9747  137.8582  155.5442 N   0  0  0  0  0  0  0  0  0  0  0  0
  150.0847  139.2327  155.7632 C   0  0  0  0  0  0  0  0  0  0  0  0
  151.2948  139.7490  155.3821 C   0  0  0  0  0  0  0  0  0  0  0  0
  152.3394  138.5167  154.7346 S   0  0  0  0  0  0  0  0  0  0  0  0
  149.2660  135.2853  153.5237 H   0  0  0  0  0  0  0  0  0  0  0  0
  148.4111  133.4051  155.6654 H   0  0  0  0  0  0  0  0  0  0  0  0
  147.2639  134.5021  154.9167 H   0  0  0  0  0  0  0  0  0  0  0  0
  148.9260  132.5713  153.2529 H   0  0  0  0  0  0  0  0  0  0  0  0
  146.2124  133.9305  152.7654 H   0  0  0  0  0  0  0  0  0  0  0  0
  147.7186  134.3510  151.9706 H   0  0  0  0  0  0  0  0  0  0  0  0
  146.6353  133.9036  149.7344 H   0  0  0  0  0  0  0  0  0  0  0  0
  144.2727  132.4178  151.1862 H   0  0  0  0  0  0  0  0  0  0  0  0
  144.0843  133.6265  149.8135 H   0  0  0  0  0  0  0  0  0  0  0  0
  145.4368  132.1388  148.3115 H   0  0  0  0  0  0  0  0  0  0  0  0
  145.6303  130.9260  149.6795 H   0  0  0  0  0  0  0  0  0  0  0  0
  145.2318  131.6016  152.3033 H   0  0  0  0  0  0  0  0  0  0  0  0
  146.1216  130.5373  151.2279 H   0  0  0  0  0  0  0  0  0  0  0  0
  146.5103  129.9582  153.6476 H   0  0  0  0  0  0  0  0  0  0  0  0
  148.0087  130.3963  152.8502 H   0  0  0  0  0  0  0  0  0  0  0  0
  149.2496  139.7653  156.1931 H   0  0  0  0  0  0  0  0  0  0  0  0
  151.6335  140.7725  155.4406 H   0  0  0  0  0  0  0  0  0  0  0  0
  147.8192  132.1771  151.0637 H   0  0  0  0  0  0  0  0  0  0  0  0
  1  2  2  0  0  0  0
  2  3  1  0  0  0  0
  2 14  1  0  0  0  0
  3  4  1  0  0  0  0
  3 20  1  0  0  0  0
  4  5  1  0  0  0  0
  4 21  1  0  0  0  0
  4 22  1  0  0  0  0
  5 13  1  0  0  0  0
  5  6  1  0  0  0  0
  5 23  1  0  0  0  0
  6  7  1  0  0  0  0
  6 24  1  0  0  0  0
  6 25  1  0  0  0  0
  7  8  1  0  0  0  0
  7 11  1  0  0  0  0
  7 37  1  0  0  0  0
  8 10  1  0  0  0  0
  8  9  1  0  0  0  0
  8 26  1  0  0  0  0
  9 10  1  0  0  0  0
  9 27  1  0  0  0  0
  9 28  1  0  0  0  0
 10 29  1  0  0  0  0
 10 30  1  0  0  0  0
 11 12  1  0  0  0  0
 11 31  1  0  0  0  0
 11 32  1  0  0  0  0
 12 13  1  0  0  0  0
 12 33  1  0  0  0  0
 12 34  1  0  0  0  0
 14 15  1  0  0  0  0
 15 19  1  0  0  0  0
 15 16  2  0  0  0  0
 16 17  1  0  0  0  0
 17 18  2  0  0  0  0
 17 35  1  0  0  0  0
 18 19  1  0  0  0  0
 18 36  1  0  0  0  0
M  CHG  1   7   1
M  CHG  1  14  -1
M  END
> <s_m_source_file>
AV-unprocessed.smi

> <i_m_source_file_index>
2999

> <i_lp_mmshare_version>
43012

> <i_f3d_flags>
0

> <s_epik_input>
czFbY0hdW2NIXW5jMVtOSF1DKD1PKVtOSF1bQ0gyXVtDQEBIXTJbQ0gyXU4oW0NIMl1bQ0gyXU8yKVtDSF0zW0NIMl1bQ0gyXTM=

> <s_epik_cmdline>
J2VwaWtfcHl0aG9uJywgJy1waCcsICc3LjAnLCAnLXRuJywgJzgnLCAnLW1hJywgJzIwMCcsICctbWV0YWxfYmluZGluZycsICctaW1hZScsICc8aW5maWxlLm1hZT4nLCAnLW9tYWUnLCAnPG91dGZpbGUubWFlPic=

> <r_lp_tautomer_probability>
0.999

> <r_epik_Ionization_Penalty>
7.79196

> <r_epik_Ionization_Penalty_Charging>
6.93299

> <r_epik_Ionization_Penalty_Neutral>
0.858963

> <r_epik_State_Penalty>
7.05108

> <r_epik_Charging_Adjusted_Penalty>
13.9841

> <i_epik_Tot_Q>
0

> <i_epik_Tot_abs_Q>
2

> <r_epik_Metal_State_Penalty>
3.05936

> <b_epik_Metal_Only>
1

> <s_lp_Force_Field>
OPLS_2005

> <r_lp_Energy>
14.1159

> <b_lp_Chiralities_Consistent>
1

> <s_lp_Variant>
AV-unprocessed.smi:2999-9

> <Gold.Version>
5.8.1

> <Gold.Id.Protein>
6NUR|6NUR_protein|mol2

> <Gold.PLP.Fitness>
42.8580

> <Gold.PLP.PLP>
-32.9158

> <Gold.PLP.part.hbond>
-3.0000

> <Gold.PLP.part.metal>
0.0000

> <Gold.PLP.part.buried>
-3.4759

> <Gold.PLP.part.nonpolar>
-26.9017

> <Gold.PLP.part.repulsive>
0.3726

> <Gold.PLP.ligand.clash>
0.0000

> <Gold.PLP.ligand.torsion>
1.6633

> <Gold.PLP.Chemscore.Hbond>
4.0000

> <Gold.PLP.Chemscore.CHOScore>
0.0000

> <Gold.PLP.Chemscore.Metal>
0.0000

> <Gold.Chemscore.Hbonds>
donor molecule, donor type, donor heavy atom, donor atom, acceptor molecule, acceptor atom, score
      L1  H     3    20       P1  7948  1.00
      L1  H     7    37       P1 10747  1.00
      P1  H 10752 10763       L1    14  2.00

> <Gold.PLP.Chemscore.Internal.Correction>
1.2687

> <Gold.Rescore>
     Score         DG    S(hbond)    S(metal)    S(lipo)     H(rot)  DE(clash)    DE(int)     intcor
     16.43     -18.14       2.26        0.00      77.67       1.55       0.10       1.60       ----

> <Gold.Chemscore.Fitness>
16.4327

> <Gold.Chemscore.DG>
-18.1363

> <Gold.Chemscore.ZeroCoef>
-5.4800

> <Gold.Chemscore.Hbond>
2.2567

> <Gold.Chemscore.Metal>
0.0000

> <Gold.Chemscore.Lipo>
77.6739

> <Gold.Chemscore.Internal_Hbond>
0.0000

> <Gold.Chemscore.DEClash>
0.0991

> <Gold.Chemscore.DEInternal>
1.6045

> <Gold.Chemscore.Rot>
1.5504

> <Gold.Chemscore.Internal.Correction>
   9.000000E+99

> <Gold.Chemscore.Hbonds>
donor molecule, donor type, donor heavy atom, donor atom, acceptor molecule, acceptor atom, score
      L1  H     3    20       P1  7948  0.26
      L1  H     7    37       P1 10747  0.96
      P1  H 10752 10763       L1    14  0.68

> <Gold.Chemscore.Hbond.Weighted>
-7.5375

> <Gold.Chemscore.Metal.Weighted>
-0.0000

> <Gold.Chemscore.Lipo.Weighted>
-9.0879

> <Gold.Chemscore.Internal_Hbond.Weighted>
0.0000

> <Gold.Chemscore.DEClash.Weighted>
0.0991

> <Gold.Chemscore.DEInternal.Weighted>
1.6045

> <Gold.Chemscore.Rot.Weighted>
3.9690

> <Gold.Chemscore.Internal.Correction.Weighted>
   9.000000E+99

> <Gold.Protein.RotatedTorsions>
[ 6907 6896 6895 6894 ] final -107.77 input  -60.11 | X-H torsion
[ 7974 7965 7964 7962 ] final  175.25 input  175.53 | X-H torsion
[ 8008 7997 7996 7995 ] final   55.34 input   59.86 | X-H torsion
[ 10167 10162 10161 10158 ] final  -80.15 input  -65.29 | X-H torsion
[ 10718 10713 10712 10709 ] final  174.58 input   66.30 | X-H torsion
[ 10763 10752 10751 10750 ] final   61.17 input  -60.55 | X-H torsion
[ 11005 11000 10999 10996 ] final -131.46 input  -57.11 | X-H torsion

> <Gold.Protein.ActiveResidues>
 VAL166  LYS551  ARG553  GLY616  TRP617  ASP618  TYR619  PRO620  LYS621  CYS622 
 ASP623  PHE694  ASN695  SER759  ASP760  ASP761  ALA762  ILE779  LEU786  VAL792 
 PHE793  MET794  SER795  GLU796  ALA797  LYS798  CYS799  TRP800  GLU811  SER814 

> <Gold.Protein.RotatedAtoms>
  150.7463  133.9777  159.3565 H   0  0  0  0  0  0  0  0  0  0  0  0  # atno 6907 bound_to 6896
  151.7715  135.0783  160.0370 H   0  0  0  0  0  0  0  0  0  0  0  0  # atno 6908 bound_to 6896
  152.3335  133.5948  159.5862 H   0  0  0  0  0  0  0  0  0  0  0  0  # atno 6909 bound_to 6896
  144.7205  139.9918  143.6440 H   0  0  0  0  0  0  0  0  0  0  0  0  # atno 7974 bound_to 7965
  155.4994  140.3474  155.4368 H   0  0  0  0  0  0  0  0  0  0  0  0  # atno 8008 bound_to 7997
  156.0923  140.1414  156.9603 H   0  0  0  0  0  0  0  0  0  0  0  0  # atno 8009 bound_to 7997
  154.4642  140.0923  156.6954 H   0  0  0  0  0  0  0  0  0  0  0  0  # atno 8010 bound_to 7997
  140.4529  143.2477  151.8462 H   0  0  0  0  0  0  0  0  0  0  0  0  # atno 10167 bound_to 10162
  156.9475  131.0020  151.2955 H   0  0  0  0  0  0  0  0  0  0  0  0  # atno 10718 bound_to 10713
  152.9942  135.5510  154.5991 H   0  0  0  0  0  0  0  0  0  0  0  0  # atno 10763 bound_to 10752
  154.5336  135.2815  155.1160 H   0  0  0  0  0  0  0  0  0  0  0  0  # atno 10764 bound_to 10752
  154.2465  135.6407  153.5278 H   0  0  0  0  0  0  0  0  0  0  0  0  # atno 10765 bound_to 10752
  140.9257  134.1386  157.4277 H   0  0  0  0  0  0  0  0  0  0  0  0  # atno 11005 bound_to 11000
  146.0405  139.3418  143.0700 LP  0  0  0  0  0  0  0  0  0  0  0  0  # atno 17320 bound_to 7965
  145.8340  140.9616  143.0834 LP  0  0  0  0  0  0  0  0  0  0  0  0  # atno 17321 bound_to 7965
  139.4798  144.5099  151.8947 LP  0  0  0  0  0  0  0  0  0  0  0  0  # atno 17342 bound_to 10162
  140.4185  144.2274  150.5887 LP  0  0  0  0  0  0  0  0  0  0  0  0  # atno 17343 bound_to 10162
  157.5744  130.8333  149.8435 LP  0  0  0  0  0  0  0  0  0  0  0  0  # atno 17370 bound_to 10713
  156.0377  130.3747  150.1516 LP  0  0  0  0  0  0  0  0  0  0  0  0  # atno 17371 bound_to 10713
  139.8785  134.9987  156.5915 LP  0  0  0  0  0  0  0  0  0  0  0  0  # atno 17394 bound_to 11000
  140.7929  133.8567  155.8661 LP  0  0  0  0  0  0  0  0  0  0  0  0  # atno 17395 bound_to 11000

$$$$
