AV-unprocessed.smi:1680|AV-procd|sdf|6740|dock7
  -GOLD-   22720 7493D 1   1.00000     0.00000
 Structure written by MMmdl.
 38 39  0  0  0  0  0  0  0  0  3 V2000
  147.3636  141.9809  154.1274 C   0  0  0  0  0  0  0  0  0  0  0  0
  148.5664  141.0753  154.4009 C   0  0  0  0  0  0  0  0  0  0  0  0
  149.5146  141.5469  155.0283 O   0  0  0  0  0  0  0  0  0  0  0  0
  148.5523  139.7983  153.9488 N   0  0  0  0  0  0  0  0  0  0  0  0
  147.4053  139.2161  153.2464 C   0  0  0  0  0  0  0  0  0  0  0  0
  146.7793  138.1194  154.1267 C   0  0  0  0  0  0  0  0  0  0  0  0
  147.7820  137.0914  154.5148 N   0  3  0  0  0  0  0  0  0  0  0  0
  147.1872  136.0206  155.3523 C   0  0  0  0  0  0  0  0  0  0  0  0
  148.2418  135.2744  156.1908 C   0  0  0  0  0  0  0  0  0  0  0  0
  147.7144  134.9085  157.4998 N   0  0  0  0  0  0  0  0  0  0  0  0
  148.3461  134.1604  158.4156 C   0  0  0  0  0  0  0  0  0  0  0  0
  149.4759  133.7259  158.1797 O   0  0  0  0  0  0  0  0  0  0  0  0
  147.6273  133.9577  159.5421 N   0  5  0  0  0  0  0  0  0  0  0  0
  147.5960  134.9013  160.4978 C   0  0  0  0  0  0  0  0  0  0  0  0
  147.8097  136.1996  160.2310 N   0  0  0  0  0  0  0  0  0  0  0  0
  147.7278  137.0090  161.3559 N   0  0  0  0  0  0  0  0  0  0  0  0
  147.4456  136.2973  162.4469 C   0  0  0  0  0  0  0  0  0  0  0  0
  147.2505  134.5751  162.1988 S   0  0  0  0  0  0  0  0  0  0  0  0
  149.0163  137.6858  155.0998 C   0  0  0  0  0  0  0  0  0  0  0  0
  149.5910  138.7939  154.1978 C   0  0  0  0  0  0  0  0  0  0  0  0
  147.2021  142.0977  153.0553 H   0  0  0  0  0  0  0  0  0  0  0  0
  147.5261  142.9737  154.5488 H   0  0  0  0  0  0  0  0  0  0  0  0
  146.4602  141.5718  154.5811 H   0  0  0  0  0  0  0  0  0  0  0  0
  146.6469  139.9554  152.9850 H   0  0  0  0  0  0  0  0  0  0  0  0
  147.7430  138.7903  152.3004 H   0  0  0  0  0  0  0  0  0  0  0  0
  146.3535  138.5660  155.0269 H   0  0  0  0  0  0  0  0  0  0  0  0
  145.9579  137.6459  153.5877 H   0  0  0  0  0  0  0  0  0  0  0  0
  146.4086  136.4389  155.9920 H   0  0  0  0  0  0  0  0  0  0  0  0
  146.6929  135.2999  154.6991 H   0  0  0  0  0  0  0  0  0  0  0  0
  148.5920  134.3840  155.6658 H   0  0  0  0  0  0  0  0  0  0  0  0
  149.1173  135.8996  156.3616 H   0  0  0  0  0  0  0  0  0  0  0  0
  146.7934  135.2487  157.7357 H   0  0  0  0  0  0  0  0  0  0  0  0
  147.3489  136.7899  163.4028 H   0  0  0  0  0  0  0  0  0  0  0  0
  148.7892  138.0953  156.0856 H   0  0  0  0  0  0  0  0  0  0  0  0
  149.7748  136.9173  155.2434 H   0  0  0  0  0  0  0  0  0  0  0  0
  149.9071  138.3690  153.2438 H   0  0  0  0  0  0  0  0  0  0  0  0
  150.4955  139.1998  154.6484 H   0  0  0  0  0  0  0  0  0  0  0  0
  148.0606  136.6481  153.6510 H   0  0  0  0  0  0  0  0  0  0  0  0
  1  2  1  0  0  0  0
  1 21  1  0  0  0  0
  1 22  1  0  0  0  0
  1 23  1  0  0  0  0
  2  3  2  0  0  0  0
  2  4  1  0  0  0  0
  4 20  1  0  0  0  0
  4  5  1  0  0  0  0
  5  6  1  0  0  0  0
  5 24  1  0  0  0  0
  5 25  1  0  0  0  0
  6  7  1  0  0  0  0
  6 26  1  0  0  0  0
  6 27  1  0  0  0  0
  7  8  1  0  0  0  0
  7 19  1  0  0  0  0
  7 38  1  0  0  0  0
  8  9  1  0  0  0  0
  8 28  1  0  0  0  0
  8 29  1  0  0  0  0
  9 10  1  0  0  0  0
  9 30  1  0  0  0  0
  9 31  1  0  0  0  0
 10 11  1  0  0  0  0
 10 32  1  0  0  0  0
 11 12  2  0  0  0  0
 11 13  1  0  0  0  0
 13 14  1  0  0  0  0
 14 18  1  0  0  0  0
 14 15  2  0  0  0  0
 15 16  1  0  0  0  0
 16 17  2  0  0  0  0
 17 18  1  0  0  0  0
 17 33  1  0  0  0  0
 19 20  1  0  0  0  0
 19 34  1  0  0  0  0
 19 35  1  0  0  0  0
 20 36  1  0  0  0  0
 20 37  1  0  0  0  0
M  CHG  1   7   1
M  CHG  1  13  -1
M  END
> <s_m_source_file>
AV-unprocessed.smi

> <i_m_source_file_index>
1680

> <i_lp_mmshare_version>
43012

> <i_f3d_flags>
0

> <s_epik_input>
W0NIM11DKD1PKU4xW0NIMl1bQ0gyXU4oW0NIMl1bQ0gyXTEpW0NIMl1bQ0gyXVtOSF1DKD1PKVtOSF1jMm5uW2NIXXMy

> <s_epik_cmdline>
J2VwaWtfcHl0aG9uJywgJy1waCcsICc3LjAnLCAnLXRuJywgJzgnLCAnLW1hJywgJzIwMCcsICctbWV0YWxfYmluZGluZycsICctaW1hZScsICc8aW5maWxlLm1hZT4nLCAnLW9tYWUnLCAnPG91dGZpbGUubWFlPic=

> <r_lp_tautomer_probability>
1

> <r_epik_Ionization_Penalty>
3.68953

> <r_epik_Ionization_Penalty_Charging>
3.65812

> <r_epik_Ionization_Penalty_Neutral>
0.0314116

> <r_epik_State_Penalty>
3.68215

> <r_epik_Charging_Adjusted_Penalty>
7.34027

> <i_epik_Tot_Q>
0

> <i_epik_Tot_abs_Q>
2

> <r_epik_Metal_State_Penalty>
1.11495

> <b_epik_Metal_Only>
1

> <s_lp_Force_Field>
OPLS_2005

> <r_lp_Energy>
32.4697

> <b_lp_Chiralities_Consistent>
1

> <s_lp_Variant>
AV-unprocessed.smi:1680-4

> <Gold.Version>
5.8.1

> <Gold.Id.Protein>
6NUR|6NUR_protein|mol2

> <Gold.PLP.Fitness>
41.2110

> <Gold.PLP.PLP>
-29.5388

> <Gold.PLP.part.hbond>
-4.1360

> <Gold.PLP.part.metal>
0.0000

> <Gold.PLP.part.buried>
-1.7736

> <Gold.PLP.part.nonpolar>
-23.4549

> <Gold.PLP.part.repulsive>
0.1663

> <Gold.PLP.ligand.clash>
0.0000

> <Gold.PLP.ligand.torsion>
1.4376

> <Gold.PLP.Chemscore.Hbond>
4.8320

> <Gold.PLP.Chemscore.CHOScore>
0.0000

> <Gold.PLP.Chemscore.Metal>
0.0000

> <Gold.Chemscore.Hbonds>
donor molecule, donor type, donor heavy atom, donor atom, acceptor molecule, acceptor atom, score
      L1  H     7    38       P1  7948  1.95
      P1  H  6896  6908       L1    12  1.00
      P1  H  6931  6943       L1    16  1.00
      P1  H  6934  6947       L1    16  0.64

> <Gold.PLP.Chemscore.Internal.Correction>
0.0514

> <Gold.Rescore>
     Score         DG    S(hbond)    S(metal)    S(lipo)     H(rot)  DE(clash)    DE(int)     intcor
     15.66     -17.92       3.47        0.00      46.67       1.80       0.31       1.95       ----

> <Gold.Chemscore.Fitness>
15.6635

> <Gold.Chemscore.DG>
-17.9204

> <Gold.Chemscore.ZeroCoef>
-5.4800

> <Gold.Chemscore.Hbond>
3.4696

> <Gold.Chemscore.Metal>
0.0000

> <Gold.Chemscore.Lipo>
46.6743

> <Gold.Chemscore.Internal_Hbond>
0.0000

> <Gold.Chemscore.DEClash>
0.3082

> <Gold.Chemscore.DEInternal>
1.9488

> <Gold.Chemscore.Rot>
1.8003

> <Gold.Chemscore.Internal.Correction>
   9.000000E+99

> <Gold.Chemscore.Hbonds>
donor molecule, donor type, donor heavy atom, donor atom, acceptor molecule, acceptor atom, score
      L1  H     7    38       P1  7948  0.91
      P1  H  6896  6908       L1    12  0.98
      P1  H  6931  6943       L1    16  0.49
      P1  H  6934  6947       L1    16  0.56

> <Gold.Chemscore.Hbond.Weighted>
-11.5883

> <Gold.Chemscore.Metal.Weighted>
-0.0000

> <Gold.Chemscore.Lipo.Weighted>
-5.4609

> <Gold.Chemscore.Internal_Hbond.Weighted>
0.0000

> <Gold.Chemscore.DEClash.Weighted>
0.3082

> <Gold.Chemscore.DEInternal.Weighted>
1.9488

> <Gold.Chemscore.Rot.Weighted>
4.6088

> <Gold.Chemscore.Internal.Correction.Weighted>
   9.000000E+99

> <Gold.Protein.RotatedTorsions>
[ 6907 6896 6895 6894 ] final  128.59 input  -60.11 | X-H torsion
[ 7974 7965 7964 7962 ] final -143.05 input  175.53 | X-H torsion
[ 8008 7997 7996 7995 ] final -129.57 input   59.86 | X-H torsion
[ 10167 10162 10161 10158 ] final  -54.77 input  -65.29 | X-H torsion
[ 10718 10713 10712 10709 ] final  113.21 input   66.30 | X-H torsion
[ 10763 10752 10751 10750 ] final  116.41 input  -60.55 | X-H torsion
[ 11005 11000 10999 10996 ] final   55.30 input  -57.11 | X-H torsion

> <Gold.Protein.ActiveResidues>
 VAL166  LYS551  ARG553  GLY616  TRP617  ASP618  TYR619  PRO620  LYS621  CYS622 
 ASP623  PHE694  ASN695  SER759  ASP760  ASP761  ALA762  ILE779  LEU786  VAL792 
 PHE793  MET794  SER795  GLU796  ALA797  LYS798  CYS799  TRP800  GLU811  SER814 

> <Gold.Protein.RotatedAtoms>
  152.3705  133.6412  159.6083 H   0  0  0  0  0  0  0  0  0  0  0  0  # atno 6907 bound_to 6896
  150.7665  133.9278  159.3426 H   0  0  0  0  0  0  0  0  0  0  0  0  # atno 6908 bound_to 6896
  151.7101  135.0915  160.0317 H   0  0  0  0  0  0  0  0  0  0  0  0  # atno 6909 bound_to 6896
  144.8398  140.5883  143.5460 H   0  0  0  0  0  0  0  0  0  0  0  0  # atno 7974 bound_to 7965
  155.2814  140.0444  157.3016 H   0  0  0  0  0  0  0  0  0  0  0  0  # atno 8008 bound_to 7997
  154.5595  140.2341  155.8326 H   0  0  0  0  0  0  0  0  0  0  0  0  # atno 8009 bound_to 7997
  156.2035  140.3019  155.9584 H   0  0  0  0  0  0  0  0  0  0  0  0  # atno 8010 bound_to 7997
  140.6412  143.2509  151.4984 H   0  0  0  0  0  0  0  0  0  0  0  0  # atno 10167 bound_to 10162
  157.6350  131.0980  150.7008 H   0  0  0  0  0  0  0  0  0  0  0  0  # atno 10718 bound_to 10713
  153.5367  135.3567  155.2700 H   0  0  0  0  0  0  0  0  0  0  0  0  # atno 10763 bound_to 10752
  154.8721  135.4081  154.3090 H   0  0  0  0  0  0  0  0  0  0  0  0  # atno 10764 bound_to 10752
  153.3789  135.7067  153.6648 H   0  0  0  0  0  0  0  0  0  0  0  0  # atno 10765 bound_to 10752
  140.0618  134.5592  155.9143 H   0  0  0  0  0  0  0  0  0  0  0  0  # atno 11005 bound_to 11000
  145.4718  139.1503  143.3810 LP  0  0  0  0  0  0  0  0  0  0  0  0  # atno 17320 bound_to 7965
  146.2692  140.4851  142.8821 LP  0  0  0  0  0  0  0  0  0  0  0  0  # atno 17321 bound_to 7965
  139.5621  144.2130  152.1708 LP  0  0  0  0  0  0  0  0  0  0  0  0  # atno 17342 bound_to 10162
  140.1401  144.5210  150.6749 LP  0  0  0  0  0  0  0  0  0  0  0  0  # atno 17343 bound_to 10162
  156.7341  130.4719  149.5492 LP  0  0  0  0  0  0  0  0  0  0  0  0  # atno 17370 bound_to 10713
  156.1582  130.6356  151.0685 LP  0  0  0  0  0  0  0  0  0  0  0  0  # atno 17371 bound_to 10713
  141.1976  133.6597  156.5751 LP  0  0  0  0  0  0  0  0  0  0  0  0  # atno 17394 bound_to 11000
  140.3759  134.7566  157.4629 LP  0  0  0  0  0  0  0  0  0  0  0  0  # atno 17395 bound_to 11000

$$$$
