AV-unprocessed.smi:3303|AV-procd|sdf|12689|dock3
  -GOLD-   2272019 23D 1   1.00000     0.00000
 Structure written by MMmdl.
 44 45  0  0  0  0  0  0  0  0  2 V2000
  148.6113  140.7852  154.1720 C   0  0  0  0  0  0  0  0  0  0  0  0
  149.0802  139.3216  154.1158 C   0  0  2  0  0  0  0  0  0  0  0  0
  148.0290  138.3524  154.6877 C   0  0  0  0  0  0  0  0  0  0  0  0
  148.4417  136.9338  154.5300 N   0  3  2  0  0  0  0  0  0  0  0  0
  147.3454  136.0168  154.9262 C   0  0  0  0  0  0  0  0  0  0  0  0
  149.7448  136.6519  155.2031 C   0  0  1  0  0  0  0  0  0  0  0  0
  150.1999  135.1895  155.0295 C   0  0  0  0  0  0  0  0  0  0  0  0
  150.8472  137.5973  154.6743 C   0  0  0  0  0  0  0  0  0  0  0  0
  150.4688  139.0861  154.7522 C   0  0  2  0  0  0  0  0  0  0  0  0
  150.5304  139.5280  156.1436 N   0  0  0  0  0  0  0  0  0  0  0  0
  151.4279  140.6631  156.3024 C   0  0  0  0  0  0  0  0  0  0  0  0
  150.6188  141.9288  156.6135 C   0  0  0  0  0  0  0  0  0  0  0  0
  151.2036  142.7003  157.7812 C   0  0  0  0  0  0  0  0  0  0  0  0
  151.5144  144.0713  157.6569 C   0  0  0  0  0  0  0  0  0  0  0  0
  152.0691  144.7365  158.7677 C   0  0  0  0  0  0  0  0  0  0  0  0
  152.2910  144.0091  159.9528 C   0  0  0  0  0  0  0  0  0  0  0  0
  151.9480  142.6425  159.9745 C   0  0  0  0  0  0  0  0  0  0  0  0
  151.4173  141.9946  158.9149 N   0  0  0  0  0  0  0  0  0  0  0  0
  148.4333  141.1127  155.1967 H   0  0  0  0  0  0  0  0  0  0  0  0
  147.6807  140.9194  153.6200 H   0  0  0  0  0  0  0  0  0  0  0  0
  149.3524  141.4515  153.7299 H   0  0  0  0  0  0  0  0  0  0  0  0
  149.1820  139.0797  153.0566 H   0  0  0  0  0  0  0  0  0  0  0  0
  147.8458  138.5661  155.7422 H   0  0  0  0  0  0  0  0  0  0  0  0
  147.0827  138.5099  154.1680 H   0  0  0  0  0  0  0  0  0  0  0  0
  147.1962  136.0281  156.0066 H   0  0  0  0  0  0  0  0  0  0  0  0
  147.5469  134.9928  154.6131 H   0  0  0  0  0  0  0  0  0  0  0  0
  146.4072  136.3069  154.4519 H   0  0  0  0  0  0  0  0  0  0  0  0
  149.6155  136.8359  156.2711 H   0  0  0  0  0  0  0  0  0  0  0  0
  151.1960  135.0415  155.4479 H   0  0  0  0  0  0  0  0  0  0  0  0
  150.2405  134.9069  153.9771 H   0  0  0  0  0  0  0  0  0  0  0  0
  149.5420  134.4897  155.5444 H   0  0  0  0  0  0  0  0  0  0  0  0
  151.7834  137.4235  155.2071 H   0  0  0  0  0  0  0  0  0  0  0  0
  151.0507  137.3499  153.6314 H   0  0  0  0  0  0  0  0  0  0  0  0
  151.2127  139.6367  154.1732 H   0  0  0  0  0  0  0  0  0  0  0  0
  150.8665  138.7729  156.7247 H   0  0  0  0  0  0  0  0  0  0  0  0
  152.1290  140.4596  157.1130 H   0  0  0  0  0  0  0  0  0  0  0  0
  152.0123  140.8116  155.3942 H   0  0  0  0  0  0  0  0  0  0  0  0
  150.5846  142.5773  155.7369 H   0  0  0  0  0  0  0  0  0  0  0  0
  149.5844  141.6689  156.8441 H   0  0  0  0  0  0  0  0  0  0  0  0
  151.3364  144.6015  156.7329 H   0  0  0  0  0  0  0  0  0  0  0  0
  152.3216  145.7850  158.7108 H   0  0  0  0  0  0  0  0  0  0  0  0
  152.7150  144.4860  160.8241 H   0  0  0  0  0  0  0  0  0  0  0  0
  152.1057  142.0536  160.8658 H   0  0  0  0  0  0  0  0  0  0  0  0
  148.5896  136.7893  153.5414 H   0  0  0  0  0  0  0  0  0  0  0  0
  1  2  1  0  0  0  0
  1 19  1  0  0  0  0
  1 20  1  0  0  0  0
  1 21  1  0  0  0  0
  2  9  1  0  0  0  0
  2  3  1  0  0  0  0
  2 22  1  0  0  0  0
  3  4  1  0  0  0  0
  3 23  1  0  0  0  0
  3 24  1  0  0  0  0
  4  5  1  0  0  0  0
  4  6  1  0  0  0  0
  4 44  1  0  0  0  0
  5 25  1  0  0  0  0
  5 26  1  0  0  0  0
  5 27  1  0  0  0  0
  6  7  1  0  0  0  0
  6  8  1  0  0  0  0
  6 28  1  0  0  0  0
  7 29  1  0  0  0  0
  7 30  1  0  0  0  0
  7 31  1  0  0  0  0
  8  9  1  0  0  0  0
  8 32  1  0  0  0  0
  8 33  1  0  0  0  0
  9 10  1  0  0  0  0
  9 34  1  0  0  0  0
 10 11  1  0  0  0  0
 10 35  1  0  0  0  0
 11 12  1  0  0  0  0
 11 36  1  0  0  0  0
 11 37  1  0  0  0  0
 12 13  1  0  0  0  0
 12 38  1  0  0  0  0
 12 39  1  0  0  0  0
 13 18  1  0  0  0  0
 13 14  2  0  0  0  0
 14 15  1  0  0  0  0
 14 40  1  0  0  0  0
 15 16  2  0  0  0  0
 15 41  1  0  0  0  0
 16 17  1  0  0  0  0
 16 42  1  0  0  0  0
 17 18  2  0  0  0  0
 17 43  1  0  0  0  0
M  CHG  1   4   1
M  END
> <s_m_source_file>
AV-unprocessed.smi

> <i_m_source_file_index>
3303

> <i_lp_mmshare_version>
43012

> <i_f3d_flags>
0

> <s_epik_input>
W0NIM11bQ0BASF0xW0NIMl1OKFtDSDNdKVtDQEBIXShbQ0gzXSlbQ0gyXVtDQEhdMVtOSF1bQ0gyXVtDSDJdYzJbY0hdW2NIXVtjSF1bY0hdbjI=

> <s_epik_cmdline>
J2VwaWtfcHl0aG9uJywgJy1waCcsICc3LjAnLCAnLXRuJywgJzgnLCAnLW1hJywgJzIwMCcsICctbWV0YWxfYmluZGluZycsICctaW1hZScsICc8aW5maWxlLm1hZT4nLCAnLW9tYWUnLCAnPG91dGZpbGUubWFlPic=

> <r_epik_Ionization_Penalty>
2.31085

> <r_epik_Ionization_Penalty_Charging>
0.000313057

> <r_epik_Ionization_Penalty_Neutral>
2.31054

> <r_epik_State_Penalty>
2.4087

> <r_epik_Charging_Adjusted_Penalty>
2.40902

> <i_epik_Tot_Q>
1

> <i_epik_Tot_abs_Q>
1

> <r_epik_Metal_State_Penalty>
2.30979

> <b_epik_Metal_Only>
0

> <s_lp_Force_Field>
OPLS_2005

> <r_lp_Energy>
26.9633

> <b_lp_Chiralities_Consistent>
1

> <s_lp_Variant>
AV-unprocessed.smi:3303-33

> <Gold.Version>
5.8.1

> <Gold.Id.Protein>
6NUR|6NUR_protein|mol2

> <Gold.PLP.Fitness>
43.6398

> <Gold.PLP.PLP>
-40.5709

> <Gold.PLP.part.hbond>
-1.0000

> <Gold.PLP.part.metal>
0.0000

> <Gold.PLP.part.buried>
-3.6660

> <Gold.PLP.part.nonpolar>
-37.2024

> <Gold.PLP.part.repulsive>
0.0011

> <Gold.PLP.ligand.clash>
0.0000

> <Gold.PLP.ligand.torsion>
1.4691

> <Gold.PLP.Chemscore.Hbond>
2.0000

> <Gold.PLP.Chemscore.CHOScore>
0.0000

> <Gold.PLP.Chemscore.Metal>
0.0000

> <Gold.Chemscore.Hbonds>
donor molecule, donor type, donor heavy atom, donor atom, acceptor molecule, acceptor atom, score
      L1  H     4    44       P1  7948  2.00

> <Gold.PLP.Chemscore.Internal.Correction>
0.0071

> <Gold.Rescore>
     Score         DG    S(hbond)    S(metal)    S(lipo)     H(rot)  DE(clash)    DE(int)     intcor
     18.08     -19.56       1.00        0.00     120.86       1.33       0.07       1.41       ----

> <Gold.Chemscore.Fitness>
18.0815

> <Gold.Chemscore.DG>
-19.5633

> <Gold.Chemscore.ZeroCoef>
-5.4800

> <Gold.Chemscore.Hbond>
1.0000

> <Gold.Chemscore.Metal>
0.0000

> <Gold.Chemscore.Lipo>
120.8629

> <Gold.Chemscore.Internal_Hbond>
0.0000

> <Gold.Chemscore.DEClash>
0.0685

> <Gold.Chemscore.DEInternal>
1.4133

> <Gold.Chemscore.Rot>
1.3272

> <Gold.Chemscore.Internal.Correction>
   9.000000E+99

> <Gold.Chemscore.Hbonds>
donor molecule, donor type, donor heavy atom, donor atom, acceptor molecule, acceptor atom, score
      L1  H     4    44       P1  7948  1.00

> <Gold.Chemscore.Hbond.Weighted>
-3.3400

> <Gold.Chemscore.Metal.Weighted>
-0.0000

> <Gold.Chemscore.Lipo.Weighted>
-14.1410

> <Gold.Chemscore.Internal_Hbond.Weighted>
0.0000

> <Gold.Chemscore.DEClash.Weighted>
0.0685

> <Gold.Chemscore.DEInternal.Weighted>
1.4133

> <Gold.Chemscore.Rot.Weighted>
3.3976

> <Gold.Chemscore.Internal.Correction.Weighted>
   9.000000E+99

> <Gold.Protein.RotatedTorsions>
[ 6907 6896 6895 6894 ] final  -55.51 input  -60.11 | X-H torsion
[ 7974 7965 7964 7962 ] final -117.25 input  175.53 | X-H torsion
[ 8008 7997 7996 7995 ] final -163.51 input   59.86 | X-H torsion
[ 10167 10162 10161 10158 ] final  -79.04 input  -65.29 | X-H torsion
[ 10718 10713 10712 10709 ] final   13.63 input   66.30 | X-H torsion
[ 10763 10752 10751 10750 ] final  -53.55 input  -60.55 | X-H torsion
[ 11005 11000 10999 10996 ] final   84.42 input  -57.11 | X-H torsion

> <Gold.Protein.ActiveResidues>
 VAL166  LYS551  ARG553  GLY616  TRP617  ASP618  TYR619  PRO620  LYS621  CYS622 
 ASP623  PHE694  ASN695  SER759  ASP760  ASP761  ALA762  ILE779  LEU786  VAL792 
 PHE793  MET794  SER795  GLU796  ALA797  LYS798  CYS799  TRP800  GLU811  SER814 

> <Gold.Protein.RotatedAtoms>
  150.8246  134.7470  159.6801 H   0  0  0  0  0  0  0  0  0  0  0  0  # atno 6907 bound_to 6896
  152.4358  134.5686  159.9924 H   0  0  0  0  0  0  0  0  0  0  0  0  # atno 6908 bound_to 6896
  151.5862  133.3334  159.3054 H   0  0  0  0  0  0  0  0  0  0  0  0  # atno 6909 bound_to 6896
  145.0874  140.8467  143.4003 H   0  0  0  0  0  0  0  0  0  0  0  0  # atno 7974 bound_to 7965
  155.8224  140.0921  157.1841 H   0  0  0  0  0  0  0  0  0  0  0  0  # atno 8008 bound_to 7997
  154.3979  140.1434  156.3576 H   0  0  0  0  0  0  0  0  0  0  0  0  # atno 8009 bound_to 7997
  155.8252  140.3445  155.5541 H   0  0  0  0  0  0  0  0  0  0  0  0  # atno 8010 bound_to 7997
  140.4629  143.2448  151.8322 H   0  0  0  0  0  0  0  0  0  0  0  0  # atno 10167 bound_to 10162
  157.0275  130.6179  149.5730 H   0  0  0  0  0  0  0  0  0  0  0  0  # atno 10718 bound_to 10713
  154.1606  135.6475  153.4985 H   0  0  0  0  0  0  0  0  0  0  0  0  # atno 10763 bound_to 10752
  153.0112  135.5360  154.6715 H   0  0  0  0  0  0  0  0  0  0  0  0  # atno 10764 bound_to 10752
  154.6027  135.2945  155.0489 H   0  0  0  0  0  0  0  0  0  0  0  0  # atno 10765 bound_to 10752
  139.9001  134.8215  156.2443 H   0  0  0  0  0  0  0  0  0  0  0  0  # atno 11005 bound_to 11000
  145.1106  139.2760  143.5639 LP  0  0  0  0  0  0  0  0  0  0  0  0  # atno 17320 bound_to 7965
  146.3531  140.0701  142.8624 LP  0  0  0  0  0  0  0  0  0  0  0  0  # atno 17321 bound_to 7965
  139.4808  144.4986  151.9090 LP  0  0  0  0  0  0  0  0  0  0  0  0  # atno 17342 bound_to 10162
  140.4072  144.2417  150.5890 LP  0  0  0  0  0  0  0  0  0  0  0  0  # atno 17343 bound_to 10162
  156.0081  130.5170  150.7898 LP  0  0  0  0  0  0  0  0  0  0  0  0  # atno 17370 bound_to 10713
  157.5203  131.0931  151.0087 LP  0  0  0  0  0  0  0  0  0  0  0  0  # atno 17371 bound_to 10713
  141.0265  133.7012  156.1356 LP  0  0  0  0  0  0  0  0  0  0  0  0  # atno 17394 bound_to 11000
  140.7159  134.4411  157.5578 LP  0  0  0  0  0  0  0  0  0  0  0  0  # atno 17395 bound_to 11000

$$$$
