#       Name:                AV-unprocessed.smi:1434
#       Creating user name   scv26
#       Creation time:       Fri Mar 27 05:52:04 2020


#       File generated by GOLD software.
#

@<TRIPOS>MOLECULE
AV-unprocessed.smi:1434
    48    49     1
SMALL
NO_CHARGES


@<TRIPOS>ATOM
      1 ****        -5.1381   4.4217  -1.4557 C.3            1 S1                 0.0000
      2 ****        -3.8740   3.1041  -1.6619 S.o2           1 S1                 0.0000
      3 ****        -4.5536   1.8667  -2.0743 O.2            1 S1                 0.0000
      4 ****        -2.7541   3.6321  -2.4553 O.2            1 S1                 0.0000
      5 ****        -3.3033   2.8807  -0.0499 N.3            1 S1                 0.0000
      6 ****        -2.5492   1.6657   0.2619 C.3            1 S1                 0.0000
      7 ****        -3.4825   0.5973   0.8702 C.3            1 S1                 0.0000
      8 ****        -2.6924  -0.6169   1.3945 C.3            1 S1                 0.0000
      9 ****        -1.5312  -0.1711   2.3020 C.3            1 S1                 0.0000
     10 ****        -0.6752   0.7629   1.5500 N.am           1 S1                 0.0000
     11 ****         0.5320   0.4772   1.0003 C.2            1 S1                 0.0000
     12 ****         1.1070   1.2241   0.2072 O.2            1 S1                 0.0000
     13 ****         1.0798  -0.6790   1.4124 N.am           1 S1                 0.0000
     14 ****         2.3704  -1.1980   0.9749 C.3            1 S1                 0.0000
     15 ****         2.2668  -1.8844  -0.3974 C.3            1 S1                 0.0000
     16 ****         3.6062  -2.4051  -0.8814 C.ar           1 S1                 0.0000
     17 ****         4.3837  -1.7053  -1.8297 C.ar           1 S1                 0.0000
     18 ****         5.6241  -2.2410  -2.2342 C.ar           1 S1                 0.0000
     19 ****         6.0614  -3.4627  -1.6818 C.ar           1 S1                 0.0000
     20 ****         5.2460  -4.1185  -0.7371 C.ar           1 S1                 0.0000
     21 ****         4.0635  -3.5734  -0.3753 N.pl3          1 S1                 1.0000
     22 ****        -1.3968   2.0007   1.2287 C.3            1 S1                 0.0000
     23 ****        -5.5730   4.6604  -2.4260 H              1 S1                 0.0000
     24 ****        -4.6721   5.3141  -1.0387 H              1 S1                 0.0000
     25 ****        -5.9221   4.0721  -0.7842 H              1 S1                 0.0000
     26 ****        -2.8123   3.7104   0.2821 H              1 S1                 0.0000
     27 ****        -2.1171   1.2783  -0.6626 H              1 S1                 0.0000
     28 ****        -4.0419   1.0354   1.6981 H              1 S1                 0.0000
     29 ****        -4.2219   0.2723   0.1379 H              1 S1                 0.0000
     30 ****        -3.3585  -1.2879   1.9376 H              1 S1                 0.0000
     31 ****        -2.2980  -1.1865   0.5521 H              1 S1                 0.0000
     32 ****        -1.9238   0.3356   3.1848 H              1 S1                 0.0000
     33 ****        -1.0045  -1.0454   2.6842 H              1 S1                 0.0000
     34 ****         0.5615  -1.2366   2.0757 H              1 S1                 0.0000
     35 ****         3.1045  -0.3909   0.9440 H              1 S1                 0.0000
     36 ****         2.7221  -1.9082   1.7235 H              1 S1                 0.0000
     37 ****         1.5594  -2.7136  -0.3492 H              1 S1                 0.0000
     38 ****         1.8726  -1.1888  -1.1396 H              1 S1                 0.0000
     39 ****         4.0364  -0.7688  -2.2419 H              1 S1                 0.0000
     40 ****         6.2328  -1.7202  -2.9590 H              1 S1                 0.0000
     41 ****         7.0086  -3.8897  -1.9781 H              1 S1                 0.0000
     42 ****         5.5016  -5.0551  -0.2633 H              1 S1                 0.0000
     43 ****        -0.7467   2.7617   0.7936 H              1 S1                 0.0000
     44 ****        -1.7868   2.4389   2.1488 H              1 S1                 0.0000
     45 ****         3.4902  -4.0653   0.3105 H              1 S1                 0.0000
     46 ****        -4.1538   2.7363   0.4560 LP             1 S1                 0.0000
     47 ****         0.6841   2.0897  -0.0608 LP             1 S1                 0.0000
     48 ****         1.9967   0.9648  -0.1686 LP             1 S1                 0.0000
@<TRIPOS>BOND
    1    1    2 1     
    2    1   23 1     
    3    1   24 1     
    4    1   25 1     
    5    2    3 2     
    6    2    4 2     
    7    2    5 1     
    8    5    6 1     
    9    5   26 1     
   10    6   22 1     
   11    6    7 1     
   12    6   27 1     
   13    7    8 1     
   14    7   28 1     
   15    7   29 1     
   16    8    9 1     
   17    8   30 1     
   18    8   31 1     
   19    9   10 1     
   20    9   32 1     
   21    9   33 1     
   22   10   11 am    
   23   10   22 1     
   24   11   12 2     
   25   11   13 am    
   26   13   14 1     
   27   13   34 1     
   28   14   15 1     
   29   14   35 1     
   30   14   36 1     
   31   15   16 1     
   32   15   37 1     
   33   15   38 1     
   34   16   21 ar    
   35   16   17 ar    
   36   17   18 ar    
   37   17   39 1     
   38   18   19 ar    
   39   18   40 1     
   40   19   20 ar    
   41   19   41 1     
   42   20   21 ar    
   43   20   42 1     
   44   21   45 1     
   45   22   43 1     
   46   22   44 1     
   47    5   46 1     
   48   12   47 1     
   49   12   48 1     
@<TRIPOS>SUBSTRUCTURE
      1 S1             1
@<TRIPOS>SET
LONE_PAIRS      STATIC     ATOMS    <user>   **** ""
5 3 4 46 47 48
DONOR_HYDROGENS      STATIC     ATOMS    <user>   **** ""
3 26 34 45
ATOM$BLUE        STATIC     ATOMS    COLORGROUP SYSTEM
5 3 4 46 47 48
ATOM$RED        STATIC     ATOMS    COLORGROUP SYSTEM
3 26 34 45
