AV-unprocessed.smi:2420|AV-procd|sdf|9554|dock4
  -GOLD-   2272013183D 1   1.00000     0.00000
 Structure written by MMmdl.
 33 34  0  0  0  0  0  0  0  0  1 V2000
  153.3843  142.4579  160.4712 C   0  0  0  0  0  0  0  0  0  0  0  0
  152.5432  143.7410  160.4073 C   0  0  0  0  0  0  0  0  0  0  0  0
  151.8245  143.9434  159.0768 C   0  0  0  0  0  0  0  0  0  0  0  0
  151.0889  142.6696  158.6501 C   0  0  0  0  0  0  0  0  0  0  0  0
  150.3336  142.7253  157.4006 N   0  0  0  0  0  0  0  0  0  0  0  0
  150.0271  141.6707  156.6313 C   0  0  0  0  0  0  0  0  0  0  0  0
  150.3429  140.5119  156.9018 O   0  0  0  0  0  0  0  0  0  0  0  0
  149.3119  142.0399  155.5561 N   0  0  0  0  0  0  0  0  0  0  0  0
  148.7890  141.1869  154.5505 C   0  0  0  0  0  0  0  0  0  0  0  0
  149.4101  139.9378  154.3441 C   0  0  0  0  0  0  0  0  0  0  0  0
  148.8843  139.0752  153.3616 C   0  0  0  0  0  0  0  0  0  0  0  0
  147.8013  139.3748  152.6135 N   0  0  0  0  0  0  0  0  0  0  0  0
  147.1931  140.5607  152.8317 C   0  0  0  0  0  0  0  0  0  0  0  0
  147.6358  141.4967  153.7884 C   0  0  0  0  0  0  0  0  0  0  0  0
  146.9410  142.6443  153.9784 F   0  0  0  0  0  0  0  0  0  0  0  0
  151.2286  145.3093  158.7846 C   0  0  0  0  0  0  0  0  0  0  0  0
  152.4510  144.8459  158.0320 C   0  0  0  0  0  0  0  0  0  0  0  0
  153.9348  142.4069  161.4108 H   0  0  0  0  0  0  0  0  0  0  0  0
  154.1119  142.4221  159.6602 H   0  0  0  0  0  0  0  0  0  0  0  0
  152.7658  141.5632  160.4093 H   0  0  0  0  0  0  0  0  0  0  0  0
  151.8127  143.7514  161.2173 H   0  0  0  0  0  0  0  0  0  0  0  0
  153.2008  144.5927  160.5849 H   0  0  0  0  0  0  0  0  0  0  0  0
  151.8210  141.8729  158.5244 H   0  0  0  0  0  0  0  0  0  0  0  0
  150.4375  142.3481  159.4645 H   0  0  0  0  0  0  0  0  0  0  0  0
  150.0232  143.6380  157.1011 H   0  0  0  0  0  0  0  0  0  0  0  0
  149.0115  143.0027  155.5203 H   0  0  0  0  0  0  0  0  0  0  0  0
  150.2787  139.6469  154.9166 H   0  0  0  0  0  0  0  0  0  0  0  0
  149.3451  138.1167  153.1737 H   0  0  0  0  0  0  0  0  0  0  0  0
  146.3170  140.7648  152.2340 H   0  0  0  0  0  0  0  0  0  0  0  0
  150.2956  145.3687  158.2296 H   0  0  0  0  0  0  0  0  0  0  0  0
  151.3687  146.0951  159.5239 H   0  0  0  0  0  0  0  0  0  0  0  0
  153.3981  145.3223  158.2774 H   0  0  0  0  0  0  0  0  0  0  0  0
  152.3250  144.5840  156.9836 H   0  0  0  0  0  0  0  0  0  0  0  0
  1  2  1  0  0  0  0
  1 18  1  0  0  0  0
  1 19  1  0  0  0  0
  1 20  1  0  0  0  0
  2  3  1  0  0  0  0
  2 21  1  0  0  0  0
  2 22  1  0  0  0  0
  3 17  1  0  0  0  0
  3  4  1  0  0  0  0
  3 16  1  0  0  0  0
  4  5  1  0  0  0  0
  4 23  1  0  0  0  0
  4 24  1  0  0  0  0
  5  6  1  0  0  0  0
  5 25  1  0  0  0  0
  6  7  2  0  0  0  0
  6  8  1  0  0  0  0
  8  9  1  0  0  0  0
  8 26  1  0  0  0  0
  9 14  1  0  0  0  0
  9 10  2  0  0  0  0
 10 11  1  0  0  0  0
 10 27  1  0  0  0  0
 11 12  2  0  0  0  0
 11 28  1  0  0  0  0
 12 13  1  0  0  0  0
 13 14  2  0  0  0  0
 13 29  1  0  0  0  0
 14 15  1  0  0  0  0
 16 17  1  0  0  0  0
 16 30  1  0  0  0  0
 16 31  1  0  0  0  0
 17 32  1  0  0  0  0
 17 33  1  0  0  0  0
M  END
> <s_m_source_file>
AV-unprocessed.smi

> <i_m_source_file_index>
2420

> <i_lp_mmshare_version>
43012

> <i_f3d_flags>
0

> <s_epik_input>
W0NIM11bQ0gyXUMxKFtDSDJdW0NIMl0xKVtDSDJdW05IXUMoPU8pW05IXWMyW2NIXVtjSF1uW2NIXWMyRg==

> <s_epik_cmdline>
J2VwaWtfcHl0aG9uJywgJy1waCcsICc3LjAnLCAnLXRuJywgJzgnLCAnLW1hJywgJzIwMCcsICctbWV0YWxfYmluZGluZycsICctaW1hZScsICc8aW5maWxlLm1hZT4nLCAnLW9tYWUnLCAnPG91dGZpbGUubWFlPic=

> <r_epik_Ionization_Penalty>
0.00332283

> <r_epik_Ionization_Penalty_Charging>
0

> <r_epik_Ionization_Penalty_Neutral>
0.00332283

> <r_epik_State_Penalty>
0.00231995

> <r_epik_Charging_Adjusted_Penalty>
0.00231995

> <i_epik_Tot_Q>
0

> <i_epik_Tot_abs_Q>
0

> <r_epik_Metal_State_Penalty>
-0

> <b_epik_Metal_Only>
0

> <s_lp_Force_Field>
OPLS_2005

> <r_lp_Energy>
25.9136

> <b_lp_Chiralities_Consistent>
1

> <s_lp_Variant>
AV-unprocessed.smi:2420-1

> <Gold.Version>
5.8.1

> <Gold.Id.Protein>
6NUR|6NUR_protein|mol2

> <Gold.PLP.Fitness>
50.3487

> <Gold.PLP.PLP>
-39.8266

> <Gold.PLP.part.hbond>
-2.0000

> <Gold.PLP.part.metal>
0.0000

> <Gold.PLP.part.buried>
-3.4618

> <Gold.PLP.part.nonpolar>
-35.5798

> <Gold.PLP.part.repulsive>
1.7149

> <Gold.PLP.ligand.clash>
0.0000

> <Gold.PLP.ligand.torsion>
0.9257

> <Gold.PLP.Chemscore.Hbond>
1.7210

> <Gold.PLP.Chemscore.CHOScore>
1.9789

> <Gold.PLP.Chemscore.Metal>
0.0000

> <Gold.Chemscore.Hbonds>
donor molecule, donor type, donor heavy atom, donor atom, acceptor molecule, acceptor atom, score
      L1  H     5    25       P1  8028  0.72
      L1  H     8    26       P1  8028  1.00
      L1  C    11    28       P1  7948  1.00
      L1  C    13    29       P1 10175  0.60

> <Gold.PLP.Chemscore.Internal.Correction>
1.2738

> <Gold.Rescore>
     Score         DG    S(hbond)    S(metal)    S(lipo)     H(rot)  DE(clash)    DE(int)     intcor
     17.49     -19.97       1.81        0.00     103.05       1.41       0.19       2.29       ----

> <Gold.Chemscore.Fitness>
17.4941

> <Gold.Chemscore.DG>
-19.9694

> <Gold.Chemscore.ZeroCoef>
-5.4800

> <Gold.Chemscore.Hbond>
1.8087

> <Gold.Chemscore.Metal>
0.0000

> <Gold.Chemscore.Lipo>
103.0506

> <Gold.Chemscore.Internal_Hbond>
0.0000

> <Gold.Chemscore.DEClash>
0.1864

> <Gold.Chemscore.DEInternal>
2.2888

> <Gold.Chemscore.Rot>
1.4096

> <Gold.Chemscore.Internal.Correction>
   9.000000E+99

> <Gold.Chemscore.Hbonds>
donor molecule, donor type, donor heavy atom, donor atom, acceptor molecule, acceptor atom, score
      L1  H     5    25       P1  8028  0.68
      L1  H     8    26       P1  8028  1.00

> <Gold.Chemscore.Hbond.Weighted>
-6.0410

> <Gold.Chemscore.Metal.Weighted>
-0.0000

> <Gold.Chemscore.Lipo.Weighted>
-12.0569

> <Gold.Chemscore.Internal_Hbond.Weighted>
0.0000

> <Gold.Chemscore.DEClash.Weighted>
0.1864

> <Gold.Chemscore.DEInternal.Weighted>
2.2888

> <Gold.Chemscore.Rot.Weighted>
3.6085

> <Gold.Chemscore.Internal.Correction.Weighted>
   9.000000E+99

> <Gold.Protein.RotatedTorsions>
[ 6907 6896 6895 6894 ] final  109.54 input  -60.11 | X-H torsion
[ 7974 7965 7964 7962 ] final    4.42 input  175.53 | X-H torsion
[ 8008 7997 7996 7995 ] final  141.29 input   59.86 | X-H torsion
[ 10167 10162 10161 10158 ] final -139.57 input  -65.29 | X-H torsion
[ 10718 10713 10712 10709 ] final  -12.06 input   66.30 | X-H torsion
[ 10763 10752 10751 10750 ] final -162.68 input  -60.55 | X-H torsion
[ 11005 11000 10999 10996 ] final -113.35 input  -57.11 | X-H torsion

> <Gold.Protein.ActiveResidues>
 VAL166  LYS551  ARG553  GLY616  TRP617  ASP618  TYR619  PRO620  LYS621  CYS622 
 ASP623  PHE694  ASN695  SER759  ASP760  ASP761  ALA762  ILE779  LEU786  VAL792 
 PHE793  MET794  SER795  GLU796  ALA797  LYS798  CYS799  TRP800  GLU811  SER814 

> <Gold.Protein.RotatedAtoms>
  152.5062  133.8929  159.7402 H   0  0  0  0  0  0  0  0  0  0  0  0  # atno 6907 bound_to 6896
  150.9363  133.6699  159.2807 H   0  0  0  0  0  0  0  0  0  0  0  0  # atno 6908 bound_to 6896
  151.4026  135.0978  159.9613 H   0  0  0  0  0  0  0  0  0  0  0  0  # atno 6909 bound_to 6896
  146.2444  140.0537  142.8373 H   0  0  0  0  0  0  0  0  0  0  0  0  # atno 7974 bound_to 7965
  156.2968  140.2319  156.4541 H   0  0  0  0  0  0  0  0  0  0  0  0  # atno 8008 bound_to 7997
  154.8076  140.0445  157.1340 H   0  0  0  0  0  0  0  0  0  0  0  0  # atno 8009 bound_to 7997
  154.9460  140.3036  155.5101 H   0  0  0  0  0  0  0  0  0  0  0  0  # atno 8010 bound_to 7997
  139.8366  143.7376  152.2664 H   0  0  0  0  0  0  0  0  0  0  0  0  # atno 10167 bound_to 10162
  156.6500  130.4952  149.6065 H   0  0  0  0  0  0  0  0  0  0  0  0  # atno 10718 bound_to 10713
  154.7192  135.3022  154.9074 H   0  0  0  0  0  0  0  0  0  0  0  0  # atno 10763 bound_to 10752
  153.9951  135.6714  153.4760 H   0  0  0  0  0  0  0  0  0  0  0  0  # atno 10764 bound_to 10752
  153.0819  135.5004  154.8437 H   0  0  0  0  0  0  0  0  0  0  0  0  # atno 10765 bound_to 10752
  141.0619  133.9521  157.2650 H   0  0  0  0  0  0  0  0  0  0  0  0  # atno 11005 bound_to 11000
  145.0961  140.9316  143.4740 LP  0  0  0  0  0  0  0  0  0  0  0  0  # atno 17320 bound_to 7965
  145.0720  139.3024  143.5827 LP  0  0  0  0  0  0  0  0  0  0  0  0  # atno 17321 bound_to 7965
  139.7600  144.7509  151.0377 LP  0  0  0  0  0  0  0  0  0  0  0  0  # atno 17342 bound_to 10162
  140.7802  143.4761  151.0080 LP  0  0  0  0  0  0  0  0  0  0  0  0  # atno 17343 bound_to 10162
  156.2092  130.6668  151.1251 LP  0  0  0  0  0  0  0  0  0  0  0  0  # atno 17370 bound_to 10713
  157.7144  131.0718  150.6383 LP  0  0  0  0  0  0  0  0  0  0  0  0  # atno 17371 bound_to 10713
  139.9441  135.0187  156.8798 LP  0  0  0  0  0  0  0  0  0  0  0  0  # atno 17394 bound_to 11000
  140.5850  134.0315  155.7478 LP  0  0  0  0  0  0  0  0  0  0  0  0  # atno 17395 bound_to 11000

$$$$
