#       Name:                AV-unprocessed.smi:2727
#       Creating user name   scv26
#       Creation time:       Fri Mar 27 14:56:37 2020


#       File generated by GOLD software.
#

@<TRIPOS>MOLECULE
AV-unprocessed.smi:2727
    47    48     1
SMALL
NO_CHARGES


@<TRIPOS>ATOM
      1 ****        -1.8179   0.9780   1.5977 O.2            1 S1                 0.0000
      2 ****        -2.3825  -0.0759   1.9094 C.2            1 S1                 0.0000
      3 ****        -1.6908  -1.2089   2.1049 N.am           1 S1                 0.0000
      4 ****        -0.2422  -1.3435   1.9904 C.3            1 S1                 0.0000
      5 ****         0.1996  -1.4822   0.5192 C.3            1 S1                 0.0000
      6 ****         1.7273  -1.4918   0.3310 C.2            1 S1                 0.0000
      7 ****         2.4522  -1.5796   1.3239 O.2            1 S1                 0.0000
      8 ****         2.2370  -1.3931  -0.9216 N.am           1 S1                 0.0000
      9 ****         3.6844  -1.3179  -1.1553 C.3            1 S1                 0.0000
     10 ****         4.2273   0.1136  -0.9680 C.3            1 S1                 0.0000
     11 ****         3.2854   1.2547  -1.4116 C.3            1 S1                 0.0000
     12 ****         2.5237   1.0059  -2.7285 C.3            1 S1                 0.0000
     13 ****         1.2233   0.1937  -2.5492 C.3            1 S1                 0.0000
     14 ****         1.4380  -1.2787  -2.1502 C.3            1 S1                 0.0000
     15 ****        -3.7365  -0.3021   2.1151 N.2            1 S1                 0.0000
     16 ****        -4.5778   0.6848   2.0543 C.2            1 S1                 0.0000
     17 ****        -4.4276   2.0475   1.8093 N.pl3          1 S1                 0.0000
     18 ****        -5.6623   2.6306   1.8690 C.2            1 S1                 0.0000
     19 ****        -6.5530   1.6811   2.1388 C.2            1 S1                 0.0000
     20 ****        -5.9194   0.4804   2.2569 O.3            1 S1                 0.0000
     21 ****        -2.2071  -2.0384   2.3599 H              1 S1                 0.0000
     22 ****         0.2441  -0.4895   2.4661 H              1 S1                 0.0000
     23 ****         0.0582  -2.2265   2.5556 H              1 S1                 0.0000
     24 ****        -0.2142  -2.4001   0.1003 H              1 S1                 0.0000
     25 ****        -0.2161  -0.6533  -0.0533 H              1 S1                 0.0000
     26 ****         4.2220  -2.0109  -0.5058 H              1 S1                 0.0000
     27 ****         3.9219  -1.6507  -2.1661 H              1 S1                 0.0000
     28 ****         4.4763   0.2681   0.0825 H              1 S1                 0.0000
     29 ****         5.1716   0.1949  -1.5075 H              1 S1                 0.0000
     30 ****         2.5687   1.4691  -0.6176 H              1 S1                 0.0000
     31 ****         3.8820   2.1619  -1.5122 H              1 S1                 0.0000
     32 ****         2.2510   1.9746  -3.1483 H              1 S1                 0.0000
     33 ****         3.1756   0.5357  -3.4656 H              1 S1                 0.0000
     34 ****         0.5869   0.6892  -1.8157 H              1 S1                 0.0000
     35 ****         0.6648   0.2171  -3.4854 H              1 S1                 0.0000
     36 ****         1.9274  -1.8067  -2.9694 H              1 S1                 0.0000
     37 ****         0.4746  -1.7785  -2.0516 H              1 S1                 0.0000
     38 ****        -3.5774   2.5581   1.6183 H              1 S1                 0.0000
     39 ****        -5.7740   3.6927   1.7079 H              1 S1                 0.0000
     40 ****        -7.6246   1.6974   2.2722 H              1 S1                 0.0000
     41 ****        -2.3539   1.8112   1.4619 LP             1 S1                 0.0000
     42 ****        -0.8249   0.9978   1.4813 LP             1 S1                 0.0000
     43 ****         2.0460  -1.6433   2.2355 LP             1 S1                 0.0000
     44 ****         3.4465  -1.5871   1.2179 LP             1 S1                 0.0000
     45 ****        -4.0643  -1.2265   2.3104 LP             1 S1                 0.0000
     46 ****        -6.0709   0.1057   3.1716 LP             1 S1                 0.0000
     47 ****        -6.2722  -0.1578   1.5726 LP             1 S1                 0.0000
@<TRIPOS>BOND
    1    1    2 2     
    2    2   15 1     
    3    2    3 am    
    4    3    4 1     
    5    3   21 1     
    6    4    5 1     
    7    4   22 1     
    8    4   23 1     
    9    5    6 1     
   10    5   24 1     
   11    5   25 1     
   12    6    7 2     
   13    6    8 am    
   14    8   14 1     
   15    8    9 1     
   16    9   10 1     
   17    9   26 1     
   18    9   27 1     
   19   10   11 1     
   20   10   28 1     
   21   10   29 1     
   22   11   12 1     
   23   11   30 1     
   24   11   31 1     
   25   12   13 1     
   26   12   32 1     
   27   12   33 1     
   28   13   14 1     
   29   13   34 1     
   30   13   35 1     
   31   14   36 1     
   32   14   37 1     
   33   15   16 2     
   34   16   20 1     
   35   16   17 1     
   36   17   38 1     
   37   17   18 1     
   38   18   39 1     
   39   18   19 2     
   40   19   40 1     
   41   19   20 1     
   42    1   41 1     
   43    1   42 1     
   44    7   43 1     
   45    7   44 1     
   46   15   45 1     
   47   20   46 1     
   48   20   47 1     
@<TRIPOS>SUBSTRUCTURE
      1 S1             1
@<TRIPOS>SET
LONE_PAIRS      STATIC     ATOMS    <user>   **** ""
7 41 42 43 44 45 46 47
DONOR_HYDROGENS      STATIC     ATOMS    <user>   **** ""
2 21 38
ATOM$BLUE        STATIC     ATOMS    COLORGROUP SYSTEM
7 41 42 43 44 45 46 47
ATOM$RED        STATIC     ATOMS    COLORGROUP SYSTEM
2 21 38
