AV-unprocessed.smi:96|AV-procd|sdf|860|dock5
  -GOLD-   2262017303D 1   1.00000     0.00000
 Structure written by MMmdl.
 43 46  0  0  0  0  0  0  0  0  1 V2000
  150.9808  136.4361  156.3136 O   0  0  0  0  0  0  0  0  0  0  0  0
  151.1780  137.3020  157.1675 C   0  0  0  0  0  0  0  0  0  0  0  0
  152.2546  138.3781  156.9532 C   0  0  0  0  0  0  0  0  0  0  0  0
  151.7171  139.7566  156.9433 N   0  0  0  0  0  0  0  0  0  0  0  0
  150.8588  140.1487  155.8863 C   0  0  0  0  0  0  0  0  0  0  0  0
  150.5495  139.3629  154.9896 O   0  0  0  0  0  0  0  0  0  0  0  0
  150.3858  141.5276  155.9379 C   0  0  0  0  0  0  0  0  0  0  0  0
  149.5559  141.9823  154.9836 F   0  0  0  0  0  0  0  0  0  0  0  0
  150.7679  142.3575  156.9304 C   0  0  0  0  0  0  0  0  0  0  0  0
  151.6215  141.9661  157.9466 N   0  0  0  0  0  0  0  0  0  0  0  0
  152.0502  142.9123  159.0485 C   0  0  1  0  0  0  0  0  0  0  0  0
  152.7054  144.1742  158.4548 C   0  0  0  0  0  0  0  0  0  0  0  0
  151.9488  145.2969  159.1361 C   0  0  0  0  0  0  0  0  0  0  0  0
  150.5902  144.6575  159.3802 C   0  0  0  0  0  0  0  0  0  0  0  0
  150.9316  143.3353  159.7754 O   0  0  0  0  0  0  0  0  0  0  0  0
  152.1114  140.6425  157.9740 C   0  0  0  0  0  0  0  0  0  0  0  0
  152.8714  140.2731  158.8722 O   0  0  0  0  0  0  0  0  0  0  0  0
  150.5109  137.3850  158.3328 N   0  0  0  0  0  0  0  0  0  0  0  0
  149.4774  136.5387  158.8157 C   0  0  0  0  0  0  0  0  0  0  0  0
  148.8202  135.5731  157.9998 C   0  0  0  0  0  0  0  0  0  0  0  0
  147.7849  134.7667  158.5245 C   0  0  0  0  0  0  0  0  0  0  0  0
  147.4223  134.9559  159.8673 C   0  0  0  0  0  0  0  0  0  0  0  0
  148.0430  135.9005  160.6572 C   0  0  0  0  0  0  0  0  0  0  0  0
  149.0724  136.7162  160.1603 C   0  0  0  0  0  0  0  0  0  0  0  0
  147.5003  135.8802  161.9012 O   0  0  0  0  0  0  0  0  0  0  0  0
  146.5123  134.8826  161.8729 C   0  0  0  0  0  0  0  0  0  0  0  0
  146.4702  134.3128  160.5902 O   0  0  0  0  0  0  0  0  0  0  0  0
  153.0171  138.2546  157.7236 H   0  0  0  0  0  0  0  0  0  0  0  0
  152.7844  138.1679  156.0224 H   0  0  0  0  0  0  0  0  0  0  0  0
  150.3799  143.3642  156.9107 H   0  0  0  0  0  0  0  0  0  0  0  0
  152.7062  142.3310  159.6991 H   0  0  0  0  0  0  0  0  0  0  0  0
  153.7765  144.1918  158.6576 H   0  0  0  0  0  0  0  0  0  0  0  0
  152.5481  144.2103  157.3754 H   0  0  0  0  0  0  0  0  0  0  0  0
  152.4212  145.5457  160.0873 H   0  0  0  0  0  0  0  0  0  0  0  0
  151.8927  146.2031  158.5324 H   0  0  0  0  0  0  0  0  0  0  0  0
  150.0133  145.1704  160.1500 H   0  0  0  0  0  0  0  0  0  0  0  0
  150.0006  144.6372  158.4626 H   0  0  0  0  0  0  0  0  0  0  0  0
  150.8393  138.0848  158.9822 H   0  0  0  0  0  0  0  0  0  0  0  0
  149.0886  135.4458  156.9621 H   0  0  0  0  0  0  0  0  0  0  0  0
  147.2853  134.0317  157.9109 H   0  0  0  0  0  0  0  0  0  0  0  0
  149.5445  137.4515  160.7957 H   0  0  0  0  0  0  0  0  0  0  0  0
  146.7497  134.1121  162.6073 H   0  0  0  0  0  0  0  0  0  0  0  0
  145.5430  135.3219  162.1102 H   0  0  0  0  0  0  0  0  0  0  0  0
  1  2  2  0  0  0  0
  2  3  1  0  0  0  0
  2 18  1  0  0  0  0
  3  4  1  0  0  0  0
  3 28  1  0  0  0  0
  3 29  1  0  0  0  0
  4 16  1  0  0  0  0
  4  5  1  0  0  0  0
  5  6  2  0  0  0  0
  5  7  1  0  0  0  0
  7  8  1  0  0  0  0
  7  9  2  0  0  0  0
  9 10  1  0  0  0  0
  9 30  1  0  0  0  0
 10 11  1  0  0  0  0
 10 16  1  0  0  0  0
 11 15  1  0  0  0  0
 11 12  1  0  0  0  0
 11 31  1  0  0  0  0
 12 13  1  0  0  0  0
 12 32  1  0  0  0  0
 12 33  1  0  0  0  0
 13 14  1  0  0  0  0
 13 34  1  0  0  0  0
 13 35  1  0  0  0  0
 14 15  1  0  0  0  0
 14 36  1  0  0  0  0
 14 37  1  0  0  0  0
 16 17  2  0  0  0  0
 18 19  1  0  0  0  0
 18 38  1  0  0  0  0
 19 24  1  0  0  0  0
 19 20  2  0  0  0  0
 20 21  1  0  0  0  0
 20 39  1  0  0  0  0
 21 22  2  0  0  0  0
 21 40  1  0  0  0  0
 22 27  1  0  0  0  0
 22 23  1  0  0  0  0
 23 24  2  0  0  0  0
 23 25  1  0  0  0  0
 24 41  1  0  0  0  0
 25 26  1  0  0  0  0
 26 27  1  0  0  0  0
 26 42  1  0  0  0  0
 26 43  1  0  0  0  0
M  END
> <s_m_source_file>
AV-unprocessed.smi

> <i_m_source_file_index>
96

> <i_lp_mmshare_version>
43012

> <i_f3d_flags>
0

> <s_epik_input>
TzFbQ0gyXU9jKGMxMilbY0hdYyhbY0hdW2NIXTIpW05IXUMoPU8pW0NIMl1uM2MoPU8pYyhGKVtjSF1uKGMzPU8pW0NAQEhdNFtDSDJdW0NIMl1bQ0gyXU80

> <s_epik_cmdline>
J2VwaWtfcHl0aG9uJywgJy1waCcsICc3LjAnLCAnLXRuJywgJzgnLCAnLW1hJywgJzIwMCcsICctbWV0YWxfYmluZGluZycsICctaW1hZScsICc8aW5maWxlLm1hZT4nLCAnLW9tYWUnLCAnPG91dGZpbGUubWFlPic=

> <r_lp_tautomer_probability>
1

> <r_epik_Ionization_Penalty>
1.04778e-05

> <r_epik_Ionization_Penalty_Charging>
3.88729e-08

> <r_epik_Ionization_Penalty_Neutral>
1.04389e-05

> <r_epik_State_Penalty>
-0

> <r_epik_Charging_Adjusted_Penalty>
3.88729e-08

> <i_epik_Tot_Q>
0

> <i_epik_Tot_abs_Q>
0

> <r_epik_Metal_State_Penalty>
-0

> <b_epik_Metal_Only>
0

> <s_epik_Chemistry_Notes>
This compound contains an acetal/aminal-like group ( X-CH(R)-Y where X, Y are N, S, or O) that may be acid/base labile, releasing an aldehyde.

> <s_lp_Force_Field>
OPLS_2005

> <r_lp_Energy>
46.4939

> <b_lp_Chiralities_Consistent>
1

> <s_lp_Variant>
AV-unprocessed.smi:96-2

> <Gold.Version>
5.8.1

> <Gold.Id.Protein>
6NUR|6NUR_protein|mol2

> <Gold.PLP.Fitness>
45.9631

> <Gold.PLP.PLP>
-42.9611

> <Gold.PLP.part.hbond>
-0.5373

> <Gold.PLP.part.metal>
0.0000

> <Gold.PLP.part.buried>
-3.2272

> <Gold.PLP.part.nonpolar>
-39.8638

> <Gold.PLP.part.repulsive>
0.2370

> <Gold.PLP.ligand.clash>
0.0000

> <Gold.PLP.ligand.torsion>
0.0757

> <Gold.PLP.Chemscore.Hbond>
0.0398

> <Gold.PLP.Chemscore.CHOScore>
1.0000

> <Gold.PLP.Chemscore.Metal>
0.0000

> <Gold.Chemscore.Hbonds>
donor molecule, donor type, donor heavy atom, donor atom, acceptor molecule, acceptor atom, score
      P1  H  7989  7998       L1     6  0.05
      L1  C     9    30       P1  8028  1.00

> <Gold.PLP.Chemscore.Internal.Correction>
0.0340

> <Gold.Rescore>
     Score         DG    S(hbond)    S(metal)    S(lipo)     H(rot)  DE(clash)    DE(int)     intcor
     10.74     -13.13       0.96        0.00      78.35       1.85       0.97       1.41       ----

> <Gold.Chemscore.Fitness>
10.7399

> <Gold.Chemscore.DG>
-13.1261

> <Gold.Chemscore.ZeroCoef>
-5.4800

> <Gold.Chemscore.Hbond>
0.9626

> <Gold.Chemscore.Metal>
0.0000

> <Gold.Chemscore.Lipo>
78.3462

> <Gold.Chemscore.Internal_Hbond>
0.0000

> <Gold.Chemscore.DEClash>
0.9718

> <Gold.Chemscore.DEInternal>
1.4145

> <Gold.Chemscore.Rot>
1.8497

> <Gold.Chemscore.Internal.Correction>
   9.000000E+99

> <Gold.Chemscore.Hbond.Weighted>
-3.2150

> <Gold.Chemscore.Metal.Weighted>
-0.0000

> <Gold.Chemscore.Lipo.Weighted>
-9.1665

> <Gold.Chemscore.Internal_Hbond.Weighted>
0.0000

> <Gold.Chemscore.DEClash.Weighted>
0.9718

> <Gold.Chemscore.DEInternal.Weighted>
1.4145

> <Gold.Chemscore.Rot.Weighted>
4.7354

> <Gold.Chemscore.Internal.Correction.Weighted>
   9.000000E+99

> <Gold.Protein.RotatedTorsions>
[ 6907 6896 6895 6894 ] final   77.38 input  -60.11 | X-H torsion
[ 7974 7965 7964 7962 ] final  -17.49 input  175.53 | X-H torsion
[ 8008 7997 7996 7995 ] final   -2.22 input   59.86 | X-H torsion
[ 10167 10162 10161 10158 ] final   20.09 input  -65.29 | X-H torsion
[ 10718 10713 10712 10709 ] final    8.89 input   66.30 | X-H torsion
[ 10763 10752 10751 10750 ] final -144.12 input  -60.55 | X-H torsion
[ 11005 11000 10999 10996 ] final  123.40 input  -57.11 | X-H torsion

> <Gold.Protein.ActiveResidues>
 VAL166  LYS551  ARG553  GLY616  TRP617  ASP618  TYR619  PRO620  LYS621  CYS622 
 ASP623  PHE694  ASN695  SER759  ASP760  ASP761  ALA762  ILE779  LEU786  VAL792 
 PHE793  MET794  SER795  GLU796  ALA797  LYS798  CYS799  TRP800  GLU811  SER814 

> <Gold.Protein.RotatedAtoms>
  152.5115  134.3825  159.9355 H   0  0  0  0  0  0  0  0  0  0  0  0  # atno 6907 bound_to 6896
  151.3782  133.3824  159.2715 H   0  0  0  0  0  0  0  0  0  0  0  0  # atno 6908 bound_to 6896
  150.9525  134.8943  159.7739 H   0  0  0  0  0  0  0  0  0  0  0  0  # atno 6909 bound_to 6896
  146.1938  140.3786  142.8448 H   0  0  0  0  0  0  0  0  0  0  0  0  # atno 7974 bound_to 7965
  154.6381  140.2540  155.7354 H   0  0  0  0  0  0  0  0  0  0  0  0  # atno 8008 bound_to 7997
  156.2515  140.2893  156.0683 H   0  0  0  0  0  0  0  0  0  0  0  0  # atno 8009 bound_to 7997
  155.1639  140.0385  157.2839 H   0  0  0  0  0  0  0  0  0  0  0  0  # atno 8010 bound_to 7997
  140.5530  143.9475  150.6590 H   0  0  0  0  0  0  0  0  0  0  0  0  # atno 10167 bound_to 10162
  156.9583  130.5923  149.5660 H   0  0  0  0  0  0  0  0  0  0  0  0  # atno 10718 bound_to 10713
  154.8441  135.3449  154.6296 H   0  0  0  0  0  0  0  0  0  0  0  0  # atno 10763 bound_to 10752
  153.6906  135.6975  153.5096 H   0  0  0  0  0  0  0  0  0  0  0  0  # atno 10764 bound_to 10752
  153.2598  135.4326  155.0838 H   0  0  0  0  0  0  0  0  0  0  0  0  # atno 10765 bound_to 10752
  139.9311  134.9641  156.8253 H   0  0  0  0  0  0  0  0  0  0  0  0  # atno 11005 bound_to 11000
  144.8540  140.7043  143.6150 LP  0  0  0  0  0  0  0  0  0  0  0  0  # atno 17320 bound_to 7965
  145.3707  139.1659  143.4333 LP  0  0  0  0  0  0  0  0  0  0  0  0  # atno 17321 bound_to 7965
  140.2906  143.3327  152.1066 LP  0  0  0  0  0  0  0  0  0  0  0  0  # atno 17342 bound_to 10162
  139.5035  144.6758  151.6133 LP  0  0  0  0  0  0  0  0  0  0  0  0  # atno 17343 bound_to 10162
  156.0333  130.5422  150.8589 LP  0  0  0  0  0  0  0  0  0  0  0  0  # atno 17370 bound_to 10713
  157.5675  131.0946  150.9468 LP  0  0  0  0  0  0  0  0  0  0  0  0  # atno 17371 bound_to 10713
  140.6200  134.0002  155.7614 LP  0  0  0  0  0  0  0  0  0  0  0  0  # atno 17394 bound_to 11000
  141.0900  133.9932  157.3253 LP  0  0  0  0  0  0  0  0  0  0  0  0  # atno 17395 bound_to 11000

$$$$
