AV-unprocessed.smi:1543|AV-procd|sdf|6210|dock8
  -GOLD-   22720 6383D 1   1.00000     0.00000
 Structure written by MMmdl.
 49 50  0  0  0  0  0  0  0  0  2 V2000
  146.3005  136.8834  151.1493 C   0  0  0  0  0  0  0  0  0  0  0  0
  145.7562  137.8155  152.2375 C   0  0  2  0  0  0  0  0  0  0  0  0
  146.7390  138.9525  152.5749 C   0  0  0  0  0  0  0  0  0  0  0  0
  146.2042  139.7981  153.6791 N   0  3  2  0  0  0  0  0  0  0  0  0
  146.9791  141.0564  153.9791 C   0  0  0  0  0  0  0  0  0  0  0  0
  147.0365  141.9526  152.7164 C   0  0  0  0  0  0  0  0  0  0  0  0
  146.2252  141.8793  155.0543 C   0  0  0  0  0  0  0  0  0  0  0  0
  148.4267  140.7297  154.4560 C   0  0  0  0  0  0  0  0  0  0  0  0
  149.0017  141.7583  155.3222 N   0  0  0  0  0  0  0  0  0  0  0  0
  149.7955  141.5336  156.3792 C   0  0  0  0  0  0  0  0  0  0  0  0
  150.1298  140.4086  156.7492 O   0  0  0  0  0  0  0  0  0  0  0  0
  150.1746  142.6870  156.9552 N   0  0  0  0  0  0  0  0  0  0  0  0
  150.9909  142.8760  158.1031 C   0  0  0  0  0  0  0  0  0  0  0  0
  151.4223  144.1391  158.5764 C   0  0  0  0  0  0  0  0  0  0  0  0
  152.2457  144.1922  159.7174 C   0  0  0  0  0  0  0  0  0  0  0  0
  152.6133  142.9832  160.3389 C   0  0  0  0  0  0  0  0  0  0  0  0
  152.2212  141.7720  159.8910 N   0  0  0  0  0  0  0  0  0  0  0  0
  151.4329  141.7287  158.7958 C   0  0  0  0  0  0  0  0  0  0  0  0
  145.8853  138.9363  154.8529 C   0  0  0  0  0  0  0  0  0  0  0  0
  144.9258  137.8015  154.4487 C   0  0  2  0  0  0  0  0  0  0  0  0
  144.6234  136.8552  155.6160 C   0  0  0  0  0  0  0  0  0  0  0  0
  145.5209  137.0404  153.4059 O   0  0  0  0  0  0  0  0  0  0  0  0
  146.4855  137.4270  150.2224 H   0  0  0  0  0  0  0  0  0  0  0  0
  145.5906  136.0858  150.9293 H   0  0  0  0  0  0  0  0  0  0  0  0
  147.2373  136.4192  151.4583 H   0  0  0  0  0  0  0  0  0  0  0  0
  144.8119  138.2376  151.8891 H   0  0  0  0  0  0  0  0  0  0  0  0
  147.7030  138.5297  152.8591 H   0  0  0  0  0  0  0  0  0  0  0  0
  146.8974  139.5343  151.6689 H   0  0  0  0  0  0  0  0  0  0  0  0
  147.4005  142.9541  152.9482 H   0  0  0  0  0  0  0  0  0  0  0  0
  146.0506  142.0688  152.2651 H   0  0  0  0  0  0  0  0  0  0  0  0
  147.7104  141.5564  151.9570 H   0  0  0  0  0  0  0  0  0  0  0  0
  146.6277  142.8883  155.1490 H   0  0  0  0  0  0  0  0  0  0  0  0
  146.2975  141.4320  156.0454 H   0  0  0  0  0  0  0  0  0  0  0  0
  145.1678  141.9826  154.8080 H   0  0  0  0  0  0  0  0  0  0  0  0
  148.4651  139.7643  154.9612 H   0  0  0  0  0  0  0  0  0  0  0  0
  149.0976  140.6430  153.6021 H   0  0  0  0  0  0  0  0  0  0  0  0
  148.7841  142.7168  155.0915 H   0  0  0  0  0  0  0  0  0  0  0  0
  149.8886  143.5341  156.4862 H   0  0  0  0  0  0  0  0  0  0  0  0
  151.1537  145.0606  158.0841 H   0  0  0  0  0  0  0  0  0  0  0  0
  152.5911  145.1393  160.1047 H   0  0  0  0  0  0  0  0  0  0  0  0
  153.2441  142.9890  161.2153 H   0  0  0  0  0  0  0  0  0  0  0  0
  151.1423  140.7426  158.4639 H   0  0  0  0  0  0  0  0  0  0  0  0
  146.7995  138.5081  155.2646 H   0  0  0  0  0  0  0  0  0  0  0  0
  145.4106  139.5065  155.6490 H   0  0  0  0  0  0  0  0  0  0  0  0
  143.9838  138.2246  154.0943 H   0  0  0  0  0  0  0  0  0  0  0  0
  144.1535  137.3882  156.4429 H   0  0  0  0  0  0  0  0  0  0  0  0
  145.5335  136.3879  155.9936 H   0  0  0  0  0  0  0  0  0  0  0  0
  143.9450  136.0597  155.3068 H   0  0  0  0  0  0  0  0  0  0  0  0
  145.3094  140.1275  153.3458 H   0  0  0  0  0  0  0  0  0  0  0  0
  1  2  1  0  0  0  0
  1 23  1  0  0  0  0
  1 24  1  0  0  0  0
  1 25  1  0  0  0  0
  2 22  1  0  0  0  0
  2  3  1  0  0  0  0
  2 26  1  0  0  0  0
  3  4  1  0  0  0  0
  3 27  1  0  0  0  0
  3 28  1  0  0  0  0
  4  5  1  0  0  0  0
  4 19  1  0  0  0  0
  4 49  1  0  0  0  0
  5  6  1  0  0  0  0
  5  7  1  0  0  0  0
  5  8  1  0  0  0  0
  6 29  1  0  0  0  0
  6 30  1  0  0  0  0
  6 31  1  0  0  0  0
  7 32  1  0  0  0  0
  7 33  1  0  0  0  0
  7 34  1  0  0  0  0
  8  9  1  0  0  0  0
  8 35  1  0  0  0  0
  8 36  1  0  0  0  0
  9 10  1  0  0  0  0
  9 37  1  0  0  0  0
 10 11  2  0  0  0  0
 10 12  1  0  0  0  0
 12 13  1  0  0  0  0
 12 38  1  0  0  0  0
 13 18  1  0  0  0  0
 13 14  2  0  0  0  0
 14 15  1  0  0  0  0
 14 39  1  0  0  0  0
 15 16  2  0  0  0  0
 15 40  1  0  0  0  0
 16 17  1  0  0  0  0
 16 41  1  0  0  0  0
 17 18  2  0  0  0  0
 18 42  1  0  0  0  0
 19 20  1  0  0  0  0
 19 43  1  0  0  0  0
 19 44  1  0  0  0  0
 20 21  1  0  0  0  0
 20 22  1  0  0  0  0
 20 45  1  0  0  0  0
 21 46  1  0  0  0  0
 21 47  1  0  0  0  0
 21 48  1  0  0  0  0
M  CHG  1   4   1
M  END
> <s_m_source_file>
AV-unprocessed.smi

> <i_m_source_file_index>
1543

> <i_lp_mmshare_version>
43012

> <i_f3d_flags>
0

> <s_epik_input>
W0NIM11bQ0BASF0xW0NIMl1OKFtDSDJdW0NASF0oTzEpW0NIM10pQyhbQ0gzXSkoW0NIM10pW0NIMl1bTkhdQyg9TylbTkhdYzJbY0hdW2NIXVtjSF1uW2NIXTI=

> <s_epik_cmdline>
J2VwaWtfcHl0aG9uJywgJy1waCcsICc3LjAnLCAnLXRuJywgJzgnLCAnLW1hJywgJzIwMCcsICctbWV0YWxfYmluZGluZycsICctaW1hZScsICc8aW5maWxlLm1hZT4nLCAnLW9tYWUnLCAnPG91dGZpbGUubWFlPic=

> <r_epik_Ionization_Penalty>
0.60676

> <r_epik_Ionization_Penalty_Charging>
0.602531

> <r_epik_Ionization_Penalty_Neutral>
0.00422967

> <r_epik_State_Penalty>
0.607492

> <r_epik_Charging_Adjusted_Penalty>
1.21002

> <i_epik_Tot_Q>
1

> <i_epik_Tot_abs_Q>
1

> <r_epik_Metal_State_Penalty>
0.604589

> <b_epik_Metal_Only>
0

> <s_lp_Force_Field>
OPLS_2005

> <r_lp_Energy>
27.1707

> <b_lp_Chiralities_Consistent>
1

> <s_lp_Variant>
AV-unprocessed.smi:1543-6

> <Gold.Version>
5.8.1

> <Gold.Id.Protein>
6NUR|6NUR_protein|mol2

> <Gold.PLP.Fitness>
46.0187

> <Gold.PLP.PLP>
-35.6926

> <Gold.PLP.part.hbond>
-3.0000

> <Gold.PLP.part.metal>
0.0000

> <Gold.PLP.part.buried>
-3.0564

> <Gold.PLP.part.nonpolar>
-30.4222

> <Gold.PLP.part.repulsive>
0.4261

> <Gold.PLP.ligand.clash>
0.0000

> <Gold.PLP.ligand.torsion>
0.6861

> <Gold.PLP.Chemscore.Hbond>
3.8640

> <Gold.PLP.Chemscore.CHOScore>
0.0000

> <Gold.PLP.Chemscore.Metal>
0.0000

> <Gold.Chemscore.Hbonds>
donor molecule, donor type, donor heavy atom, donor atom, acceptor molecule, acceptor atom, score
      L1  H     4    49       P1 10175  2.00
      L1  H     9    37       P1  8028  0.86
      L1  H    12    38       P1  8028  1.00

> <Gold.PLP.Chemscore.Internal.Correction>
0.1065

> <Gold.Rescore>
     Score         DG    S(hbond)    S(metal)    S(lipo)     H(rot)  DE(clash)    DE(int)     intcor
     19.31     -23.89       2.87        0.00     107.48       1.46       2.37       2.21       ----

> <Gold.Chemscore.Fitness>
19.3107

> <Gold.Chemscore.DG>
-23.8910

> <Gold.Chemscore.ZeroCoef>
-5.4800

> <Gold.Chemscore.Hbond>
2.8689

> <Gold.Chemscore.Metal>
0.0000

> <Gold.Chemscore.Lipo>
107.4753

> <Gold.Chemscore.Internal_Hbond>
0.0000

> <Gold.Chemscore.DEClash>
2.3685

> <Gold.Chemscore.DEInternal>
2.2118

> <Gold.Chemscore.Rot>
1.4632

> <Gold.Chemscore.Internal.Correction>
   9.000000E+99

> <Gold.Chemscore.Hbonds>
donor molecule, donor type, donor heavy atom, donor atom, acceptor molecule, acceptor atom, score
      L1  H     4    49       P1 10175  1.00
      L1  H     9    37       P1  8028  0.80
      L1  H    12    38       P1  8028  1.00

> <Gold.Chemscore.Hbond.Weighted>
-9.5823

> <Gold.Chemscore.Metal.Weighted>
-0.0000

> <Gold.Chemscore.Lipo.Weighted>
-12.5746

> <Gold.Chemscore.Internal_Hbond.Weighted>
0.0000

> <Gold.Chemscore.DEClash.Weighted>
2.3685

> <Gold.Chemscore.DEInternal.Weighted>
2.2118

> <Gold.Chemscore.Rot.Weighted>
3.7459

> <Gold.Chemscore.Internal.Correction.Weighted>
   9.000000E+99

> <Gold.Protein.RotatedTorsions>
[ 6907 6896 6895 6894 ] final  124.14 input  -60.11 | X-H torsion
[ 7974 7965 7964 7962 ] final  -92.00 input  175.53 | X-H torsion
[ 8008 7997 7996 7995 ] final  -42.27 input   59.86 | X-H torsion
[ 10167 10162 10161 10158 ] final   -4.08 input  -65.29 | X-H torsion
[ 10718 10713 10712 10709 ] final  143.46 input   66.30 | X-H torsion
[ 10763 10752 10751 10750 ] final   60.82 input  -60.55 | X-H torsion
[ 11005 11000 10999 10996 ] final  -88.95 input  -57.11 | X-H torsion

> <Gold.Protein.ActiveResidues>
 VAL166  LYS551  ARG553  GLY616  TRP617  ASP618  TYR619  PRO620  LYS621  CYS622 
 ASP623  PHE694  ASN695  SER759  ASP760  ASP761  ALA762  ILE779  LEU786  VAL792 
 PHE793  MET794  SER795  GLU796  ALA797  LYS798  CYS799  TRP800  GLU811  SER814 

> <Gold.Protein.RotatedAtoms>
  152.4103  133.6953  159.6391 H   0  0  0  0  0  0  0  0  0  0  0  0  # atno 6907 bound_to 6896
  150.7984  133.8636  159.3247 H   0  0  0  0  0  0  0  0  0  0  0  0  # atno 6908 bound_to 6896
  151.6380  135.1017  160.0187 H   0  0  0  0  0  0  0  0  0  0  0  0  # atno 6909 bound_to 6896
  145.4057  140.9541  143.2262 H   0  0  0  0  0  0  0  0  0  0  0  0  # atno 7974 bound_to 7965
  154.4000  140.1478  156.3327 H   0  0  0  0  0  0  0  0  0  0  0  0  # atno 8008 bound_to 7997
  155.8428  140.3461  155.5622 H   0  0  0  0  0  0  0  0  0  0  0  0  # atno 8009 bound_to 7997
  155.8068  140.0878  157.1917 H   0  0  0  0  0  0  0  0  0  0  0  0  # atno 8010 bound_to 7997
  140.6914  143.6466  150.8388 H   0  0  0  0  0  0  0  0  0  0  0  0  # atno 10167 bound_to 10162
  157.3687  131.0976  151.0848 H   0  0  0  0  0  0  0  0  0  0  0  0  # atno 10718 bound_to 10713
  152.9932  135.5523  154.5935 H   0  0  0  0  0  0  0  0  0  0  0  0  # atno 10763 bound_to 10752
  154.5291  135.2812  155.1198 H   0  0  0  0  0  0  0  0  0  0  0  0  # atno 10764 bound_to 10752
  154.2520  135.6397  153.5296 H   0  0  0  0  0  0  0  0  0  0  0  0  # atno 10765 bound_to 10752
  141.1593  133.7600  156.9525 H   0  0  0  0  0  0  0  0  0  0  0  0  # atno 11005 bound_to 11000
  144.8343  139.5576  143.6929 LP  0  0  0  0  0  0  0  0  0  0  0  0  # atno 17320 bound_to 7965
  146.2730  139.6682  142.9283 LP  0  0  0  0  0  0  0  0  0  0  0  0  # atno 17321 bound_to 7965
  140.0179  143.5573  152.2812 LP  0  0  0  0  0  0  0  0  0  0  0  0  # atno 17342 bound_to 10162
  139.6321  144.7645  151.2514 LP  0  0  0  0  0  0  0  0  0  0  0  0  # atno 17343 bound_to 10162
  157.1960  130.6373  149.5721 LP  0  0  0  0  0  0  0  0  0  0  0  0  # atno 17370 bound_to 10713
  155.9751  130.4706  150.6437 LP  0  0  0  0  0  0  0  0  0  0  0  0  # atno 17371 bound_to 10713
  140.1248  134.9394  157.2254 LP  0  0  0  0  0  0  0  0  0  0  0  0  # atno 17394 bound_to 11000
  140.3027  134.3113  155.7286 LP  0  0  0  0  0  0  0  0  0  0  0  0  # atno 17395 bound_to 11000

$$$$
