AV-unprocessed.smi:2393|AV-procd|sdf|9488|dock6
  -GOLD-   2272013113D 1   1.00000     0.00000
 Structure written by MMmdl.
 43 44  0  0  0  0  0  0  0  0  1 V2000
  150.4268  140.6599  155.6115 C   0  0  0  0  0  0  0  0  0  0  0  0
  149.1584  140.5864  154.7875 C   0  0  0  0  0  0  0  0  0  0  0  0
  148.2824  141.6861  154.7086 C   0  0  0  0  0  0  0  0  0  0  0  0
  147.1206  141.5552  153.9227 C   0  0  0  0  0  0  0  0  0  0  0  0
  146.1340  142.6971  153.7939 C   0  0  0  0  0  0  0  0  0  0  0  0
  146.8140  140.4294  153.2432 N   0  0  0  0  0  0  0  0  0  0  0  0
  147.6507  139.3643  153.3114 C   0  0  0  0  0  0  0  0  0  0  0  0
  147.4145  138.1337  152.6430 N   0  0  0  0  0  0  0  0  0  0  0  0
  146.2330  137.5584  152.3573 C   0  0  0  0  0  0  0  0  0  0  0  0
  145.1277  138.0529  152.5815 O   0  0  0  0  0  0  0  0  0  0  0  0
  146.4029  136.3614  151.7765 N   0  0  0  0  0  0  0  0  0  0  0  0
  145.3230  135.4817  151.3378 C   0  0  2  0  0  0  0  0  0  0  0  0
  144.2808  135.3344  152.4523 C   0  0  0  0  0  0  0  0  0  0  0  0
  143.1967  134.3278  152.0427 C   0  0  0  0  0  0  0  0  0  0  0  0
  143.7832  133.0705  151.7114 O   0  0  0  0  0  0  0  0  0  0  0  0
  144.7421  133.0779  150.6481 C   0  0  0  0  0  0  0  0  0  0  0  0
  145.3169  131.6522  150.6181 C   0  0  0  0  0  0  0  0  0  0  0  0
  144.0594  133.3717  149.2945 C   0  0  0  0  0  0  0  0  0  0  0  0
  145.8682  134.0900  150.9707 C   0  0  0  0  0  0  0  0  0  0  0  0
  148.8347  139.4106  154.0811 C   0  0  0  0  0  0  0  0  0  0  0  0
  150.4780  141.5897  156.1789 H   0  0  0  0  0  0  0  0  0  0  0  0
  151.3006  140.6068  154.9616 H   0  0  0  0  0  0  0  0  0  0  0  0
  150.4708  139.8287  156.3156 H   0  0  0  0  0  0  0  0  0  0  0  0
  148.4947  142.6049  155.2359 H   0  0  0  0  0  0  0  0  0  0  0  0
  146.3727  143.5053  154.4858 H   0  0  0  0  0  0  0  0  0  0  0  0
  145.1218  142.3541  154.0099 H   0  0  0  0  0  0  0  0  0  0  0  0
  146.1520  143.0984  152.7803 H   0  0  0  0  0  0  0  0  0  0  0  0
  148.2407  137.6268  152.3625 H   0  0  0  0  0  0  0  0  0  0  0  0
  147.3458  136.0325  151.6286 H   0  0  0  0  0  0  0  0  0  0  0  0
  144.8346  135.9254  150.4689 H   0  0  0  0  0  0  0  0  0  0  0  0
  144.7610  134.9919  153.3702 H   0  0  0  0  0  0  0  0  0  0  0  0
  143.8265  136.2999  152.6776 H   0  0  0  0  0  0  0  0  0  0  0  0
  142.5036  134.1755  152.8700 H   0  0  0  0  0  0  0  0  0  0  0  0
  142.6027  134.7100  151.2126 H   0  0  0  0  0  0  0  0  0  0  0  0
  146.0799  131.5479  149.8460 H   0  0  0  0  0  0  0  0  0  0  0  0
  144.5376  130.9165  150.4154 H   0  0  0  0  0  0  0  0  0  0  0  0
  145.7737  131.3882  151.5724 H   0  0  0  0  0  0  0  0  0  0  0  0
  144.7701  133.2804  148.4724 H   0  0  0  0  0  0  0  0  0  0  0  0
  143.6410  134.3756  149.2407 H   0  0  0  0  0  0  0  0  0  0  0  0
  143.2469  132.6695  149.1052 H   0  0  0  0  0  0  0  0  0  0  0  0
  146.5588  134.1630  150.1294 H   0  0  0  0  0  0  0  0  0  0  0  0
  146.4549  133.7145  151.8108 H   0  0  0  0  0  0  0  0  0  0  0  0
  149.4924  138.5545  154.1282 H   0  0  0  0  0  0  0  0  0  0  0  0
  1  2  1  0  0  0  0
  1 21  1  0  0  0  0
  1 22  1  0  0  0  0
  1 23  1  0  0  0  0
  2 20  1  0  0  0  0
  2  3  2  0  0  0  0
  3  4  1  0  0  0  0
  3 24  1  0  0  0  0
  4  5  1  0  0  0  0
  4  6  2  0  0  0  0
  5 25  1  0  0  0  0
  5 26  1  0  0  0  0
  5 27  1  0  0  0  0
  6  7  1  0  0  0  0
  7  8  1  0  0  0  0
  7 20  2  0  0  0  0
  8  9  1  0  0  0  0
  8 28  1  0  0  0  0
  9 10  2  0  0  0  0
  9 11  1  0  0  0  0
 11 12  1  0  0  0  0
 11 29  1  0  0  0  0
 12 19  1  0  0  0  0
 12 13  1  0  0  0  0
 12 30  1  0  0  0  0
 13 14  1  0  0  0  0
 13 31  1  0  0  0  0
 13 32  1  0  0  0  0
 14 15  1  0  0  0  0
 14 33  1  0  0  0  0
 14 34  1  0  0  0  0
 15 16  1  0  0  0  0
 16 17  1  0  0  0  0
 16 18  1  0  0  0  0
 16 19  1  0  0  0  0
 17 35  1  0  0  0  0
 17 36  1  0  0  0  0
 17 37  1  0  0  0  0
 18 38  1  0  0  0  0
 18 39  1  0  0  0  0
 18 40  1  0  0  0  0
 19 41  1  0  0  0  0
 19 42  1  0  0  0  0
 20 43  1  0  0  0  0
M  END
> <s_m_source_file>
AV-unprocessed.smi

> <i_m_source_file_index>
2393

> <i_lp_mmshare_version>
43012

> <i_f3d_flags>
0

> <s_epik_input>
W0NIM11jMVtjSF1jKFtDSDNdKW5jKFtjSF0xKVtOSF1DKD1PKVtOSF1bQ0BASF0oW0NIMl0yKVtDSDJdW0NIMl1PQzIoW0NIM10pW0NIM10=

> <s_epik_cmdline>
J2VwaWtfcHl0aG9uJywgJy1waCcsICc3LjAnLCAnLXRuJywgJzgnLCAnLW1hJywgJzIwMCcsICctbWV0YWxfYmluZGluZycsICctaW1hZScsICc8aW5maWxlLm1hZT4nLCAnLW9tYWUnLCAnPG91dGZpbGUubWFlPic=

> <r_lp_tautomer_probability>
1

> <r_epik_Ionization_Penalty>
0.000261351

> <r_epik_Ionization_Penalty_Charging>
0

> <r_epik_Ionization_Penalty_Neutral>
0.000261351

> <r_epik_State_Penalty>
-0

> <r_epik_Charging_Adjusted_Penalty>
0

> <i_epik_Tot_Q>
0

> <i_epik_Tot_abs_Q>
0

> <r_epik_Metal_State_Penalty>
-0

> <b_epik_Metal_Only>
0

> <s_lp_Force_Field>
OPLS_2005

> <r_lp_Energy>
12.7135

> <b_lp_Chiralities_Consistent>
1

> <s_lp_Variant>
AV-unprocessed.smi:2393-1

> <Gold.Version>
5.8.1

> <Gold.Id.Protein>
6NUR|6NUR_protein|mol2

> <Gold.PLP.Fitness>
41.9265

> <Gold.PLP.PLP>
-36.5742

> <Gold.PLP.part.hbond>
-2.1952

> <Gold.PLP.part.metal>
0.0000

> <Gold.PLP.part.buried>
-1.7252

> <Gold.PLP.part.nonpolar>
-35.0318

> <Gold.PLP.part.repulsive>
2.5075

> <Gold.PLP.ligand.clash>
0.0000

> <Gold.PLP.ligand.torsion>
0.3241

> <Gold.PLP.Chemscore.Hbond>
2.0000

> <Gold.PLP.Chemscore.CHOScore>
0.0000

> <Gold.PLP.Chemscore.Metal>
0.0000

> <Gold.Chemscore.Hbonds>
donor molecule, donor type, donor heavy atom, donor atom, acceptor molecule, acceptor atom, score
      L1  H     8    28       P1  7948  1.00
      L1  H    11    29       P1  7948  1.00

> <Gold.PLP.Chemscore.Internal.Correction>
0.0004

> <Gold.Rescore>
     Score         DG    S(hbond)    S(metal)    S(lipo)     H(rot)  DE(clash)    DE(int)     intcor
     15.49     -19.63       1.92        0.00      88.02       1.00       1.52       2.62       ----

> <Gold.Chemscore.Fitness>
15.4931

> <Gold.Chemscore.DG>
-19.6335

> <Gold.Chemscore.ZeroCoef>
-5.4800

> <Gold.Chemscore.Hbond>
1.9206

> <Gold.Chemscore.Metal>
0.0000

> <Gold.Chemscore.Lipo>
88.0246

> <Gold.Chemscore.Internal_Hbond>
0.0000

> <Gold.Chemscore.DEClash>
1.5195

> <Gold.Chemscore.DEInternal>
2.6209

> <Gold.Chemscore.Rot>
1.0000

> <Gold.Chemscore.Internal.Correction>
   9.000000E+99

> <Gold.Chemscore.Hbonds>
donor molecule, donor type, donor heavy atom, donor atom, acceptor molecule, acceptor atom, score
      L1  H     8    28       P1  7948  0.95
      L1  H    11    29       P1  7948  0.94

> <Gold.Chemscore.Hbond.Weighted>
-6.4147

> <Gold.Chemscore.Metal.Weighted>
-0.0000

> <Gold.Chemscore.Lipo.Weighted>
-10.2989

> <Gold.Chemscore.Internal_Hbond.Weighted>
0.0000

> <Gold.Chemscore.DEClash.Weighted>
1.5195

> <Gold.Chemscore.DEInternal.Weighted>
2.6209

> <Gold.Chemscore.Rot.Weighted>
2.5600

> <Gold.Chemscore.Internal.Correction.Weighted>
   9.000000E+99

> <Gold.Protein.RotatedTorsions>
[ 6907 6896 6895 6894 ] final -155.38 input  -60.11 | X-H torsion
[ 7974 7965 7964 7962 ] final   23.87 input  175.53 | X-H torsion
[ 8008 7997 7996 7995 ] final   76.98 input   59.86 | X-H torsion
[ 10167 10162 10161 10158 ] final  174.80 input  -65.29 | X-H torsion
[ 10718 10713 10712 10709 ] final  135.27 input   66.30 | X-H torsion
[ 10763 10752 10751 10750 ] final -139.28 input  -60.55 | X-H torsion
[ 11005 11000 10999 10996 ] final  -30.10 input  -57.11 | X-H torsion

> <Gold.Protein.ActiveResidues>
 VAL166  LYS551  ARG553  GLY616  TRP617  ASP618  TYR619  PRO620  LYS621  CYS622 
 ASP623  PHE694  ASN695  SER759  ASP760  ASP761  ALA762  ILE779  LEU786  VAL792 
 PHE793  MET794  SER795  GLU796  ALA797  LYS798  CYS799  TRP800  GLU811  SER814 

> <Gold.Protein.RotatedAtoms>
  151.2716  133.4252  159.2621 H   0  0  0  0  0  0  0  0  0  0  0  0  # atno 6907 bound_to 6896
  151.0440  134.9627  159.8187 H   0  0  0  0  0  0  0  0  0  0  0  0  # atno 6908 bound_to 6896
  152.5370  134.2673  159.9011 H   0  0  0  0  0  0  0  0  0  0  0  0  # atno 6909 bound_to 6896
  146.1964  139.7683  142.8794 H   0  0  0  0  0  0  0  0  0  0  0  0  # atno 7974 bound_to 7965
  155.8351  140.3464  155.5596 H   0  0  0  0  0  0  0  0  0  0  0  0  # atno 8008 bound_to 7997
  155.8200  140.0911  157.1874 H   0  0  0  0  0  0  0  0  0  0  0  0  # atno 8009 bound_to 7997
  154.4004  140.1432  156.3476 H   0  0  0  0  0  0  0  0  0  0  0  0  # atno 8010 bound_to 7997
  139.5155  144.3104  152.0296 H   0  0  0  0  0  0  0  0  0  0  0  0  # atno 10167 bound_to 10162
  157.4587  131.1072  150.9946 H   0  0  0  0  0  0  0  0  0  0  0  0  # atno 10718 bound_to 10713
  154.8614  135.3587  154.5520 H   0  0  0  0  0  0  0  0  0  0  0  0  # atno 10763 bound_to 10752
  153.6138  135.7008  153.5341 H   0  0  0  0  0  0  0  0  0  0  0  0  # atno 10764 bound_to 10752
  153.3186  135.4157  155.1358 H   0  0  0  0  0  0  0  0  0  0  0  0  # atno 10765 bound_to 10752
  140.9354  133.7312  156.0997 H   0  0  0  0  0  0  0  0  0  0  0  0  # atno 11005 bound_to 11000
  145.3629  141.0329  143.3274 LP  0  0  0  0  0  0  0  0  0  0  0  0  # atno 17320 bound_to 7965
  144.8589  139.5207  143.6821 LP  0  0  0  0  0  0  0  0  0  0  0  0  # atno 17321 bound_to 7965
  140.2549  144.4129  150.6207 LP  0  0  0  0  0  0  0  0  0  0  0  0  # atno 17342 bound_to 10162
  140.6198  143.2175  151.6717 LP  0  0  0  0  0  0  0  0  0  0  0  0  # atno 17343 bound_to 10162
  157.0750  130.5880  149.5409 LP  0  0  0  0  0  0  0  0  0  0  0  0  # atno 17370 bound_to 10713
  156.0019  130.5099  150.7693 LP  0  0  0  0  0  0  0  0  0  0  0  0  # atno 17371 bound_to 10713
  140.7807  134.3729  157.5488 LP  0  0  0  0  0  0  0  0  0  0  0  0  # atno 17394 bound_to 11000
  139.8806  134.9079  156.2957 LP  0  0  0  0  0  0  0  0  0  0  0  0  # atno 17395 bound_to 11000

$$$$
