AV-unprocessed.smi:3340|AV-procd|sdf|12881|dock2
  -GOLD-   2272019283D 1   1.00000     0.00000
 Structure written by MMmdl.
 41 42  0  0  0  0  0  0  0  0  1 V2000
  145.9225  131.8100  149.1566 C   0  0  0  0  0  0  0  0  0  0  0  0
  144.7162  132.3005  149.9608 C   0  0  0  0  0  0  0  0  0  0  0  0
  143.6193  131.7955  149.7206 O   0  0  0  0  0  0  0  0  0  0  0  0
  144.8904  133.2605  150.9007 N   0  0  0  0  0  0  0  0  0  0  0  0
  146.1900  133.9027  151.1509 C   0  0  0  0  0  0  0  0  0  0  0  0
  146.0825  135.4044  150.8167 C   0  0  0  0  0  0  0  0  0  0  0  0
  145.0167  136.0019  151.6439 N   0  0  0  0  0  0  0  0  0  0  0  0
  145.1931  136.8679  152.6733 C   0  0  0  0  0  0  0  0  0  0  0  0
  144.2672  137.4856  153.2015 O   0  0  0  0  0  0  0  0  0  0  0  0
  146.4728  137.0434  153.0455 N   0  0  0  0  0  0  0  0  0  0  0  0
  146.9365  137.9380  154.1021 C   0  0  2  0  0  0  0  0  0  0  0  0
  145.9990  137.8141  155.3142 C   0  0  0  0  0  0  0  0  0  0  0  0
  147.0457  139.3812  153.5649 C   0  0  0  0  0  0  0  0  0  0  0  0
  148.1892  140.0936  154.1027 N   0  0  0  0  0  0  0  0  0  0  0  0
  148.2139  141.4010  154.5703 C   0  0  0  0  0  0  0  0  0  0  0  0
  149.5036  141.6459  154.9847 C   0  0  0  0  0  0  0  0  0  0  0  0
  150.2834  140.5086  154.7876 N   0  0  0  0  0  0  0  0  0  0  0  0
  149.4363  139.6306  154.2658 C   0  0  0  0  0  0  0  0  0  0  0  0
  143.7200  135.3609  151.3782 C   0  0  0  0  0  0  0  0  0  0  0  0
  143.8224  133.8603  151.7164 C   0  0  0  0  0  0  0  0  0  0  0  0
  146.6767  131.3785  149.8153 H   0  0  0  0  0  0  0  0  0  0  0  0
  146.3693  132.6282  148.5913 H   0  0  0  0  0  0  0  0  0  0  0  0
  145.6229  131.0399  148.4448 H   0  0  0  0  0  0  0  0  0  0  0  0
  146.4627  133.7667  152.1985 H   0  0  0  0  0  0  0  0  0  0  0  0
  146.9998  133.4587  150.5709 H   0  0  0  0  0  0  0  0  0  0  0  0
  147.0589  135.8710  150.9455 H   0  0  0  0  0  0  0  0  0  0  0  0
  145.8324  135.5362  149.7630 H   0  0  0  0  0  0  0  0  0  0  0  0
  147.1804  136.5176  152.5534 H   0  0  0  0  0  0  0  0  0  0  0  0
  147.9266  137.6094  154.4238 H   0  0  0  0  0  0  0  0  0  0  0  0
  146.3611  138.3979  156.1609 H   0  0  0  0  0  0  0  0  0  0  0  0
  145.9227  136.7781  155.6460 H   0  0  0  0  0  0  0  0  0  0  0  0
  144.9935  138.1622  155.0750 H   0  0  0  0  0  0  0  0  0  0  0  0
  147.1338  139.3792  152.4776 H   0  0  0  0  0  0  0  0  0  0  0  0
  146.1414  139.9434  153.8031 H   0  0  0  0  0  0  0  0  0  0  0  0
  147.3366  142.0309  154.5665 H   0  0  0  0  0  0  0  0  0  0  0  0
  149.9263  142.5454  155.4072 H   0  0  0  0  0  0  0  0  0  0  0  0
  149.7313  138.6282  153.9922 H   0  0  0  0  0  0  0  0  0  0  0  0
  142.9031  135.8122  151.9429 H   0  0  0  0  0  0  0  0  0  0  0  0
  143.4611  135.4935  150.3267 H   0  0  0  0  0  0  0  0  0  0  0  0
  142.8491  133.3927  151.5773 H   0  0  0  0  0  0  0  0  0  0  0  0
  144.0641  133.7289  152.7721 H   0  0  0  0  0  0  0  0  0  0  0  0
  1  2  1  0  0  0  0
  1 21  1  0  0  0  0
  1 22  1  0  0  0  0
  1 23  1  0  0  0  0
  2  3  2  0  0  0  0
  2  4  1  0  0  0  0
  4 20  1  0  0  0  0
  4  5  1  0  0  0  0
  5  6  1  0  0  0  0
  5 24  1  0  0  0  0
  5 25  1  0  0  0  0
  6  7  1  0  0  0  0
  6 26  1  0  0  0  0
  6 27  1  0  0  0  0
  7  8  1  0  0  0  0
  7 19  1  0  0  0  0
  8  9  2  0  0  0  0
  8 10  1  0  0  0  0
 10 11  1  0  0  0  0
 10 28  1  0  0  0  0
 11 12  1  0  0  0  0
 11 13  1  0  0  0  0
 11 29  1  0  0  0  0
 12 30  1  0  0  0  0
 12 31  1  0  0  0  0
 12 32  1  0  0  0  0
 13 14  1  0  0  0  0
 13 33  1  0  0  0  0
 13 34  1  0  0  0  0
 14 18  1  0  0  0  0
 14 15  1  0  0  0  0
 15 16  2  0  0  0  0
 15 35  1  0  0  0  0
 16 17  1  0  0  0  0
 16 36  1  0  0  0  0
 17 18  2  0  0  0  0
 18 37  1  0  0  0  0
 19 20  1  0  0  0  0
 19 38  1  0  0  0  0
 19 39  1  0  0  0  0
 20 40  1  0  0  0  0
 20 41  1  0  0  0  0
M  END
> <s_m_source_file>
AV-unprocessed.smi

> <i_m_source_file_index>
3340

> <i_lp_mmshare_version>
43012

> <i_f3d_flags>
0

> <s_epik_input>
W0NIM11DKD1PKU4xW0NIMl1bQ0gyXU4oW0NIMl1bQ0gyXTEpQyg9TylbTkhdW0NASF0oW0NIM10pW0NIMl1uMltjSF1bY0hdbltjSF0y

> <s_epik_cmdline>
J2VwaWtfcHl0aG9uJywgJy1waCcsICc3LjAnLCAnLXRuJywgJzgnLCAnLW1hJywgJzIwMCcsICctbWV0YWxfYmluZGluZycsICctaW1hZScsICc8aW5maWxlLm1hZT4nLCAnLW9tYWUnLCAnPG91dGZpbGUubWFlPic=

> <r_lp_tautomer_probability>
1

> <r_epik_Ionization_Penalty>
0.622948

> <r_epik_Ionization_Penalty_Charging>
0.622904

> <r_epik_Ionization_Penalty_Neutral>
4.39259e-05

> <r_epik_State_Penalty>
0.639086

> <r_epik_Charging_Adjusted_Penalty>
1.26199

> <i_epik_Tot_Q>
0

> <i_epik_Tot_abs_Q>
0

> <r_epik_Metal_State_Penalty>
0.307185

> <b_epik_Metal_Only>
0

> <s_lp_Force_Field>
OPLS_2005

> <r_lp_Energy>
49.2595

> <b_lp_Chiralities_Consistent>
1

> <s_lp_Variant>
AV-unprocessed.smi:3340-3

> <Gold.Version>
5.8.1

> <Gold.Id.Protein>
6NUR|6NUR_protein|mol2

> <Gold.PLP.Fitness>
44.7659

> <Gold.PLP.PLP>
-35.2606

> <Gold.PLP.part.hbond>
-3.0000

> <Gold.PLP.part.metal>
0.0000

> <Gold.PLP.part.buried>
-4.5163

> <Gold.PLP.part.nonpolar>
-28.9738

> <Gold.PLP.part.repulsive>
0.6973

> <Gold.PLP.ligand.clash>
0.0000

> <Gold.PLP.ligand.torsion>
1.1083

> <Gold.PLP.Chemscore.Hbond>
2.9360

> <Gold.PLP.Chemscore.CHOScore>
0.9545

> <Gold.PLP.Chemscore.Metal>
0.0000

> <Gold.Chemscore.Hbonds>
donor molecule, donor type, donor heavy atom, donor atom, acceptor molecule, acceptor atom, score
      L1  H    10    28       P1  7948  1.00
      P1  H  7989  7998       L1    17  0.96
      P1  H 10785 10796       L1     3  0.94
      L1  C    16    36       P1  8028  0.96

> <Gold.PLP.Chemscore.Internal.Correction>
0.0502

> <Gold.Rescore>
     Score         DG    S(hbond)    S(metal)    S(lipo)     H(rot)  DE(clash)    DE(int)     intcor
     14.06     -17.01       2.61        0.00      60.13       1.65       0.45       2.50       ----

> <Gold.Chemscore.Fitness>
14.0614

> <Gold.Chemscore.DG>
-17.0076

> <Gold.Chemscore.ZeroCoef>
-5.4800

> <Gold.Chemscore.Hbond>
2.6075

> <Gold.Chemscore.Metal>
0.0000

> <Gold.Chemscore.Lipo>
60.1309

> <Gold.Chemscore.Internal_Hbond>
0.0000

> <Gold.Chemscore.DEClash>
0.4475

> <Gold.Chemscore.DEInternal>
2.4988

> <Gold.Chemscore.Rot>
1.6471

> <Gold.Chemscore.Internal.Correction>
   9.000000E+99

> <Gold.Chemscore.Hbonds>
donor molecule, donor type, donor heavy atom, donor atom, acceptor molecule, acceptor atom, score
      L1  H    10    28       P1  7948  0.98
      P1  H  7989  7998       L1    17  0.42
      P1  H 10785 10796       L1     3  0.89

> <Gold.Chemscore.Hbond.Weighted>
-8.7090

> <Gold.Chemscore.Metal.Weighted>
-0.0000

> <Gold.Chemscore.Lipo.Weighted>
-7.0353

> <Gold.Chemscore.Internal_Hbond.Weighted>
0.0000

> <Gold.Chemscore.DEClash.Weighted>
0.4475

> <Gold.Chemscore.DEInternal.Weighted>
2.4988

> <Gold.Chemscore.Rot.Weighted>
4.2166

> <Gold.Chemscore.Internal.Correction.Weighted>
   9.000000E+99

> <Gold.Protein.RotatedTorsions>
[ 6907 6896 6895 6894 ] final  118.87 input  -60.11 | X-H torsion
[ 7974 7965 7964 7962 ] final  135.31 input  175.53 | X-H torsion
[ 8008 7997 7996 7995 ] final   54.38 input   59.86 | X-H torsion
[ 10167 10162 10161 10158 ] final  -58.17 input  -65.29 | X-H torsion
[ 10718 10713 10712 10709 ] final  164.40 input   66.30 | X-H torsion
[ 10763 10752 10751 10750 ] final  -52.65 input  -60.55 | X-H torsion
[ 11005 11000 10999 10996 ] final  172.84 input  -57.11 | X-H torsion

> <Gold.Protein.ActiveResidues>
 VAL166  LYS551  ARG553  GLY616  TRP617  ASP618  TYR619  PRO620  LYS621  CYS622 
 ASP623  PHE694  ASN695  SER759  ASP760  ASP761  ALA762  ILE779  LEU786  VAL792 
 PHE793  MET794  SER795  GLU796  ALA797  LYS798  CYS799  TRP800  GLU811  SER814 

> <Gold.Protein.RotatedAtoms>
  152.4512  133.7633  159.6758 H   0  0  0  0  0  0  0  0  0  0  0  0  # atno 6907 bound_to 6896
  150.8425  133.7904  159.3062 H   0  0  0  0  0  0  0  0  0  0  0  0  # atno 6908 bound_to 6896
  151.5524  135.1070  160.0005 H   0  0  0  0  0  0  0  0  0  0  0  0  # atno 6909 bound_to 6896
  144.9676  139.4641  143.5449 H   0  0  0  0  0  0  0  0  0  0  0  0  # atno 7974 bound_to 7965
  155.4838  140.3469  155.4344 H   0  0  0  0  0  0  0  0  0  0  0  0  # atno 8008 bound_to 7997
  156.1022  140.1438  156.9481 H   0  0  0  0  0  0  0  0  0  0  0  0  # atno 8009 bound_to 7997
  154.4701  140.0904  156.7100 H   0  0  0  0  0  0  0  0  0  0  0  0  # atno 8010 bound_to 7997
  140.6214  143.2421  151.5472 H   0  0  0  0  0  0  0  0  0  0  0  0  # atno 10167 bound_to 10162
  157.0948  131.0427  151.2522 H   0  0  0  0  0  0  0  0  0  0  0  0  # atno 10718 bound_to 10713
  154.1461  135.6497  153.4953 H   0  0  0  0  0  0  0  0  0  0  0  0  # atno 10763 bound_to 10752
  153.0151  135.5327  154.6855 H   0  0  0  0  0  0  0  0  0  0  0  0  # atno 10764 bound_to 10752
  154.6130  135.2956  155.0382 H   0  0  0  0  0  0  0  0  0  0  0  0  # atno 10765 bound_to 10752
  140.3340  134.7333  157.4155 H   0  0  0  0  0  0  0  0  0  0  0  0  # atno 11005 bound_to 11000
  146.3372  139.8867  142.8815 LP  0  0  0  0  0  0  0  0  0  0  0  0  # atno 17320 bound_to 7965
  145.2607  141.0076  143.3828 LP  0  0  0  0  0  0  0  0  0  0  0  0  # atno 17321 bound_to 7965
  139.5442  144.2566  152.1409 LP  0  0  0  0  0  0  0  0  0  0  0  0  # atno 17342 bound_to 10162
  140.1787  144.4865  150.6540 LP  0  0  0  0  0  0  0  0  0  0  0  0  # atno 17343 bound_to 10162
  157.4690  130.7698  149.7306 LP  0  0  0  0  0  0  0  0  0  0  0  0  # atno 17370 bound_to 10713
  155.9888  130.3956  150.3100 LP  0  0  0  0  0  0  0  0  0  0  0  0  # atno 17371 bound_to 10713
  140.0836  134.5697  155.8515 LP  0  0  0  0  0  0  0  0  0  0  0  0  # atno 17394 bound_to 11000
  141.2056  133.6648  156.6190 LP  0  0  0  0  0  0  0  0  0  0  0  0  # atno 17395 bound_to 11000

$$$$
