AV-unprocessed.smi:2171|AV-procd|sdf|8828|dock7
  -GOLD-   2272012 23D 1   1.00000     0.00000
 Structure written by MMmdl.
 39 41  0  0  0  0  0  0  0  0  2 V2000
  153.0280  139.9213  158.4095 O   0  0  0  0  0  0  0  0  0  0  0  0
  152.4737  140.9742  158.7228 C   0  0  0  0  0  0  0  0  0  0  0  0
  153.1409  141.9213  159.7233 C   0  0  0  0  0  0  0  0  0  0  0  0
  152.7042  143.2950  159.5391 N   0  0  0  0  0  0  0  0  0  0  0  0
  152.7494  144.0632  158.3941 C   0  0  0  0  0  0  0  0  0  0  0  0
  152.2330  145.2882  158.7053 C   0  0  0  0  0  0  0  0  0  0  0  0
  151.8919  145.1718  160.0819 C   0  0  0  0  0  0  0  0  0  0  0  0
  152.1752  143.9782  160.5781 N   0  0  0  0  0  0  0  0  0  0  0  0
  151.2796  141.3511  158.2381 N   0  0  0  0  0  0  0  0  0  0  0  0
  150.4920  140.6023  157.2639 C   0  0  2  0  0  0  0  0  0  0  0  0
  151.3269  140.1207  156.0642 C   0  0  0  0  0  0  0  0  0  0  0  0
  150.4019  140.2624  154.8393 C   0  0  0  0  0  0  0  0  0  0  0  0
  149.1013  140.7013  155.3800 N   0  3  2  0  0  0  0  0  0  0  0  0
  148.2010  141.4314  154.4611 C   0  0  0  0  0  0  0  0  0  0  0  0
  146.8692  141.7244  155.1807 C   0  0  0  0  0  0  0  0  0  0  0  0
  147.0928  142.4439  156.5265 C   0  0  0  0  0  0  0  0  0  0  0  0
  148.1105  141.6864  157.4011 C   0  0  0  0  0  0  0  0  0  0  0  0
  149.4064  141.4572  156.6044 C   0  0  1  0  0  0  0  0  0  0  0  0
  152.9028  141.6060  160.7398 H   0  0  0  0  0  0  0  0  0  0  0  0
  154.2263  141.8763  159.6191 H   0  0  0  0  0  0  0  0  0  0  0  0
  153.1420  143.6789  157.4641 H   0  0  0  0  0  0  0  0  0  0  0  0
  152.1150  146.1381  158.0496 H   0  0  0  0  0  0  0  0  0  0  0  0
  151.4505  145.9137  160.7308 H   0  0  0  0  0  0  0  0  0  0  0  0
  150.9002  142.2322  158.5535 H   0  0  0  0  0  0  0  0  0  0  0  0
  150.0325  139.7291  157.7322 H   0  0  0  0  0  0  0  0  0  0  0  0
  152.2177  140.7353  155.9246 H   0  0  0  0  0  0  0  0  0  0  0  0
  151.6595  139.0916  156.2053 H   0  0  0  0  0  0  0  0  0  0  0  0
  150.7989  141.0160  154.1572 H   0  0  0  0  0  0  0  0  0  0  0  0
  150.2958  139.3282  154.2874 H   0  0  0  0  0  0  0  0  0  0  0  0
  148.6734  142.3600  154.1375 H   0  0  0  0  0  0  0  0  0  0  0  0
  148.0225  140.8309  153.5684 H   0  0  0  0  0  0  0  0  0  0  0  0
  146.2214  142.3232  154.5398 H   0  0  0  0  0  0  0  0  0  0  0  0
  146.3422  140.7862  155.3595 H   0  0  0  0  0  0  0  0  0  0  0  0
  147.4570  143.4551  156.3401 H   0  0  0  0  0  0  0  0  0  0  0  0
  146.1465  142.5497  157.0577 H   0  0  0  0  0  0  0  0  0  0  0  0
  148.3160  142.2565  158.3072 H   0  0  0  0  0  0  0  0  0  0  0  0
  147.6904  140.7314  157.7196 H   0  0  0  0  0  0  0  0  0  0  0  0
  149.8335  142.4220  156.3201 H   0  0  0  0  0  0  0  0  0  0  0  0
  148.6169  139.8654  155.6751 H   0  0  0  0  0  0  0  0  0  0  0  0
  1  2  2  0  0  0  0
  2  3  1  0  0  0  0
  2  9  1  0  0  0  0
  3  4  1  0  0  0  0
  3 19  1  0  0  0  0
  3 20  1  0  0  0  0
  4  8  1  0  0  0  0
  4  5  1  0  0  0  0
  5  6  2  0  0  0  0
  5 21  1  0  0  0  0
  6  7  1  0  0  0  0
  6 22  1  0  0  0  0
  7  8  2  0  0  0  0
  7 23  1  0  0  0  0
  9 10  1  0  0  0  0
  9 24  1  0  0  0  0
 10 18  1  0  0  0  0
 10 11  1  0  0  0  0
 10 25  1  0  0  0  0
 11 12  1  0  0  0  0
 11 26  1  0  0  0  0
 11 27  1  0  0  0  0
 12 13  1  0  0  0  0
 12 28  1  0  0  0  0
 12 29  1  0  0  0  0
 13 18  1  0  0  0  0
 13 14  1  0  0  0  0
 13 39  1  0  0  0  0
 14 15  1  0  0  0  0
 14 30  1  0  0  0  0
 14 31  1  0  0  0  0
 15 16  1  0  0  0  0
 15 32  1  0  0  0  0
 15 33  1  0  0  0  0
 16 17  1  0  0  0  0
 16 34  1  0  0  0  0
 16 35  1  0  0  0  0
 17 18  1  0  0  0  0
 17 36  1  0  0  0  0
 17 37  1  0  0  0  0
 18 38  1  0  0  0  0
M  CHG  1  13   1
M  END
> <s_m_source_file>
AV-unprocessed.smi

> <i_m_source_file_index>
2171

> <i_lp_mmshare_version>
43012

> <i_f3d_flags>
0

> <s_epik_input>
bjFbY0hdW2NIXVtjSF1uMVtDSDJdQyg9TylbTkhdW0NASF0oW0NIMl1bQ0gyXTIpW0NAQEhdKE4yMylbQ0gyXVtDSDJdW0NIMl1bQ0gyXTM=

> <s_epik_cmdline>
J2VwaWtfcHl0aG9uJywgJy1waCcsICc3LjAnLCAnLXRuJywgJzgnLCAnLW1hJywgJzIwMCcsICctbWV0YWxfYmluZGluZycsICctaW1hZScsICc8aW5maWxlLm1hZT4nLCAnLW9tYWUnLCAnPG91dGZpbGUubWFlPic=

> <r_lp_tautomer_probability>
1

> <r_epik_Ionization_Penalty>
0.00204179

> <r_epik_Ionization_Penalty_Charging>
0.00203239

> <r_epik_Ionization_Penalty_Neutral>
9.40205e-06

> <r_epik_State_Penalty>
0.00138983

> <r_epik_Charging_Adjusted_Penalty>
0.00342221

> <i_epik_Tot_Q>
1

> <i_epik_Tot_abs_Q>
1

> <r_epik_Metal_State_Penalty>
-0

> <b_epik_Metal_Only>
0

> <s_lp_Force_Field>
OPLS_2005

> <r_lp_Energy>
34.6158

> <b_lp_Chiralities_Consistent>
1

> <s_lp_Variant>
AV-unprocessed.smi:2171-3

> <Gold.Version>
5.8.1

> <Gold.Id.Protein>
6NUR|6NUR_protein|mol2

> <Gold.PLP.Fitness>
40.7387

> <Gold.PLP.PLP>
-38.8633

> <Gold.PLP.part.hbond>
-1.0000

> <Gold.PLP.part.metal>
0.0000

> <Gold.PLP.part.buried>
-2.3318

> <Gold.PLP.part.nonpolar>
-35.6733

> <Gold.PLP.part.repulsive>
0.2842

> <Gold.PLP.ligand.clash>
0.0000

> <Gold.PLP.ligand.torsion>
0.5670

> <Gold.PLP.Chemscore.Hbond>
1.0000

> <Gold.PLP.Chemscore.CHOScore>
0.0000

> <Gold.PLP.Chemscore.Metal>
0.0000

> <Gold.Chemscore.Hbonds>
donor molecule, donor type, donor heavy atom, donor atom, acceptor molecule, acceptor atom, score
      P1  H  7997  8008       L1     1  0.86

> <Gold.PLP.Chemscore.Internal.Correction>
0.0095

> <Gold.Rescore>
     Score         DG    S(hbond)    S(metal)    S(lipo)     H(rot)  DE(clash)    DE(int)     intcor
     12.75     -15.95       0.96        0.00      93.53       1.44       1.54       1.66       ----

> <Gold.Chemscore.Fitness>
12.7544

> <Gold.Chemscore.DG>
-15.9491

> <Gold.Chemscore.ZeroCoef>
-5.4800

> <Gold.Chemscore.Hbond>
0.9625

> <Gold.Chemscore.Metal>
0.0000

> <Gold.Chemscore.Lipo>
93.5309

> <Gold.Chemscore.Internal_Hbond>
0.0000

> <Gold.Chemscore.DEClash>
1.5387

> <Gold.Chemscore.DEInternal>
1.6560

> <Gold.Chemscore.Rot>
1.4410

> <Gold.Chemscore.Internal.Correction>
   9.000000E+99

> <Gold.Chemscore.Hbonds>
donor molecule, donor type, donor heavy atom, donor atom, acceptor molecule, acceptor atom, score
      P1  H  7997  8008       L1     1  0.78

> <Gold.Chemscore.Hbond.Weighted>
-3.2149

> <Gold.Chemscore.Metal.Weighted>
-0.0000

> <Gold.Chemscore.Lipo.Weighted>
-10.9431

> <Gold.Chemscore.Internal_Hbond.Weighted>
0.0000

> <Gold.Chemscore.DEClash.Weighted>
1.5387

> <Gold.Chemscore.DEInternal.Weighted>
1.6560

> <Gold.Chemscore.Rot.Weighted>
3.6889

> <Gold.Chemscore.Internal.Correction.Weighted>
   9.000000E+99

> <Gold.Protein.RotatedTorsions>
[ 6907 6896 6895 6894 ] final -127.71 input  -60.11 | X-H torsion
[ 7974 7965 7964 7962 ] final  -45.95 input  175.53 | X-H torsion
[ 8008 7997 7996 7995 ] final  -83.13 input   59.86 | X-H torsion
[ 10167 10162 10161 10158 ] final -157.22 input  -65.29 | X-H torsion
[ 10718 10713 10712 10709 ] final  114.80 input   66.30 | X-H torsion
[ 10763 10752 10751 10750 ] final  -18.71 input  -60.55 | X-H torsion
[ 11005 11000 10999 10996 ] final -142.38 input  -57.11 | X-H torsion

> <Gold.Protein.ActiveResidues>
 VAL166  LYS551  ARG553  GLY616  TRP617  ASP618  TYR619  PRO620  LYS621  CYS622 
 ASP623  PHE694  ASN695  SER759  ASP760  ASP761  ALA762  ILE779  LEU786  VAL792 
 PHE793  MET794  SER795  GLU796  ALA797  LYS798  CYS799  TRP800  GLU811  SER814 

> <Gold.Protein.RotatedAtoms>
  150.9102  133.7008  159.2856 H   0  0  0  0  0  0  0  0  0  0  0  0  # atno 6907 bound_to 6896
  151.4497  135.1027  159.9704 H   0  0  0  0  0  0  0  0  0  0  0  0  # atno 6908 bound_to 6896
  152.4925  133.8490  159.7247 H   0  0  0  0  0  0  0  0  0  0  0  0  # atno 6909 bound_to 6896
  145.9769  140.7324  142.9383 H   0  0  0  0  0  0  0  0  0  0  0  0  # atno 7974 bound_to 7965
  154.6158  140.0623  156.9552 H   0  0  0  0  0  0  0  0  0  0  0  0  # atno 8008 bound_to 7997
  155.1898  140.3306  155.4342 H   0  0  0  0  0  0  0  0  0  0  0  0  # atno 8009 bound_to 7997
  156.2403  140.1883  156.6989 H   0  0  0  0  0  0  0  0  0  0  0  0  # atno 8010 bound_to 7997
  139.6788  143.9618  152.2325 H   0  0  0  0  0  0  0  0  0  0  0  0  # atno 10167 bound_to 10162
  157.6260  131.1003  150.7238 H   0  0  0  0  0  0  0  0  0  0  0  0  # atno 10718 bound_to 10713
  153.5935  135.7001  153.5413 H   0  0  0  0  0  0  0  0  0  0  0  0  # atno 10763 bound_to 10752
  153.3158  135.4088  155.1375 H   0  0  0  0  0  0  0  0  0  0  0  0  # atno 10764 bound_to 10752
  154.8596  135.3683  154.5467 H   0  0  0  0  0  0  0  0  0  0  0  0  # atno 10765 bound_to 10752
  140.8231  134.2607  157.4891 H   0  0  0  0  0  0  0  0  0  0  0  0  # atno 11005 bound_to 11000
  144.6851  140.2843  143.7287 LP  0  0  0  0  0  0  0  0  0  0  0  0  # atno 17320 bound_to 7965
  145.7826  139.1897  143.2149 LP  0  0  0  0  0  0  0  0  0  0  0  0  # atno 17321 bound_to 7965
  139.9402  144.6686  150.8274 LP  0  0  0  0  0  0  0  0  0  0  0  0  # atno 17342 bound_to 10162
  140.7645  143.3250  151.2537 LP  0  0  0  0  0  0  0  0  0  0  0  0  # atno 17343 bound_to 10162
  156.7586  130.4791  149.5441 LP  0  0  0  0  0  0  0  0  0  0  0  0  # atno 17370 bound_to 10713
  156.1432  130.6259  151.0496 LP  0  0  0  0  0  0  0  0  0  0  0  0  # atno 17371 bound_to 10713
  139.8707  134.9546  156.4181 LP  0  0  0  0  0  0  0  0  0  0  0  0  # atno 17394 bound_to 11000
  140.9078  133.7733  155.9755 LP  0  0  0  0  0  0  0  0  0  0  0  0  # atno 17395 bound_to 11000

$$$$
