AV-unprocessed.smi:2144|AV-procd|sdf|8731|dock10
  -GOLD-   2272011503D 1   1.00000     0.00000
 Structure written by MMmdl.
 40 42  0  0  0  0  0  0  0  0  1 V2000
  149.7833  140.8643  153.7371 O   0  0  0  0  0  0  0  0  0  0  0  0
  149.9855  140.1601  154.9459 C   0  0  0  0  0  0  0  0  0  0  0  0
  150.5634  140.9972  156.0524 C   0  0  0  0  0  0  0  0  0  0  0  0
  150.7493  142.3155  155.9486 N   0  0  0  0  0  0  0  0  0  0  0  0
  151.2754  142.6492  157.1808 C   0  0  0  0  0  0  0  0  0  0  0  0
  151.6838  143.9002  157.6967 C   0  0  0  0  0  0  0  0  0  0  0  0
  152.1974  143.9991  159.0065 C   0  0  0  0  0  0  0  0  0  0  0  0
  152.3098  142.8511  159.8172 C   0  0  0  0  0  0  0  0  0  0  0  0
  151.9082  141.5952  159.3227 C   0  0  0  0  0  0  0  0  0  0  0  0
  151.3960  141.5019  158.0145 C   0  0  0  0  0  0  0  0  0  0  0  0
  150.9226  140.4469  157.2395 N   0  0  0  0  0  0  0  0  0  0  0  0
  150.8348  139.0495  157.6434 C   0  0  0  0  0  0  0  0  0  0  0  0
  149.6084  138.7577  158.5332 C   0  0  1  0  0  0  0  0  0  0  0  0
  148.4182  139.0841  157.8430 O   0  0  0  0  0  0  0  0  0  0  0  0
  149.5311  137.2852  158.9618 C   0  0  0  0  0  0  0  0  0  0  0  0
  148.7621  137.1919  160.1535 O   0  0  0  0  0  0  0  0  0  0  0  0
  148.1924  135.9773  160.4718 C   0  0  0  0  0  0  0  0  0  0  0  0
  148.1889  134.8504  159.6105 C   0  0  0  0  0  0  0  0  0  0  0  0
  147.5794  133.6463  160.0133 C   0  0  0  0  0  0  0  0  0  0  0  0
  146.9678  133.5517  161.2768 C   0  0  0  0  0  0  0  0  0  0  0  0
  146.9676  134.6638  162.1387 C   0  0  0  0  0  0  0  0  0  0  0  0
  147.5769  135.8684  161.7371 C   0  0  0  0  0  0  0  0  0  0  0  0
  147.5712  136.9316  162.5766 F   0  0  0  0  0  0  0  0  0  0  0  0
  149.7612  140.2418  153.0267 H   0  0  0  0  0  0  0  0  0  0  0  0
  149.0289  139.7514  155.2718 H   0  0  0  0  0  0  0  0  0  0  0  0
  150.6485  139.3195  154.7437 H   0  0  0  0  0  0  0  0  0  0  0  0
  151.6017  144.7853  157.0835 H   0  0  0  0  0  0  0  0  0  0  0  0
  152.5066  144.9601  159.3907 H   0  0  0  0  0  0  0  0  0  0  0  0
  152.7049  142.9353  160.8189 H   0  0  0  0  0  0  0  0  0  0  0  0
  151.9944  140.7145  159.9413 H   0  0  0  0  0  0  0  0  0  0  0  0
  150.8049  138.4310  156.7457 H   0  0  0  0  0  0  0  0  0  0  0  0
  151.7544  138.7766  158.1613 H   0  0  0  0  0  0  0  0  0  0  0  0
  149.6444  139.3809  159.4267 H   0  0  0  0  0  0  0  0  0  0  0  0
  148.2029  139.9860  158.0245 H   0  0  0  0  0  0  0  0  0  0  0  0
  149.0516  136.7009  158.1743 H   0  0  0  0  0  0  0  0  0  0  0  0
  150.5349  136.8859  159.1175 H   0  0  0  0  0  0  0  0  0  0  0  0
  148.6463  134.8835  158.6334 H   0  0  0  0  0  0  0  0  0  0  0  0
  147.5807  132.7938  159.3501 H   0  0  0  0  0  0  0  0  0  0  0  0
  146.4997  132.6282  161.5840 H   0  0  0  0  0  0  0  0  0  0  0  0
  146.4992  134.5931  163.1092 H   0  0  0  0  0  0  0  0  0  0  0  0
  1  2  1  0  0  0  0
  1 24  1  0  0  0  0
  2  3  1  0  0  0  0
  2 25  1  0  0  0  0
  2 26  1  0  0  0  0
  3 11  1  0  0  0  0
  3  4  2  0  0  0  0
  4  5  1  0  0  0  0
  5 10  2  0  0  0  0
  5  6  1  0  0  0  0
  6  7  2  0  0  0  0
  6 27  1  0  0  0  0
  7  8  1  0  0  0  0
  7 28  1  0  0  0  0
  8  9  2  0  0  0  0
  8 29  1  0  0  0  0
  9 10  1  0  0  0  0
  9 30  1  0  0  0  0
 10 11  1  0  0  0  0
 11 12  1  0  0  0  0
 12 13  1  0  0  0  0
 12 31  1  0  0  0  0
 12 32  1  0  0  0  0
 13 14  1  0  0  0  0
 13 15  1  0  0  0  0
 13 33  1  0  0  0  0
 14 34  1  0  0  0  0
 15 16  1  0  0  0  0
 15 35  1  0  0  0  0
 15 36  1  0  0  0  0
 16 17  1  0  0  0  0
 17 22  1  0  0  0  0
 17 18  2  0  0  0  0
 18 19  1  0  0  0  0
 18 37  1  0  0  0  0
 19 20  2  0  0  0  0
 19 38  1  0  0  0  0
 20 21  1  0  0  0  0
 20 39  1  0  0  0  0
 21 22  2  0  0  0  0
 21 40  1  0  0  0  0
 22 23  1  0  0  0  0
M  END
> <s_m_source_file>
AV-unprocessed.smi

> <i_m_source_file_index>
2144

> <i_lp_mmshare_version>
43012

> <i_f3d_flags>
0

> <s_epik_input>
W2NIXTFbY0hdW2NIXVtjSF1jKGMxMiluKGMobjIpW0NIMl1bT0hdKVtDSDJdW0NASF0oW09IXSlbQ0gyXU9jM1tjSF1bY0hdW2NIXVtjSF1jM0Y=

> <s_epik_cmdline>
J2VwaWtfcHl0aG9uJywgJy1waCcsICc3LjAnLCAnLXRuJywgJzgnLCAnLW1hJywgJzIwMCcsICctbWV0YWxfYmluZGluZycsICctaW1hZScsICc8aW5maWxlLm1hZT4nLCAnLW9tYWUnLCAnPG91dGZpbGUubWFlPic=

> <r_lp_tautomer_probability>
1

> <r_epik_Ionization_Penalty>
0.0547315

> <r_epik_Ionization_Penalty_Charging>
0

> <r_epik_Ionization_Penalty_Neutral>
0.0547315

> <r_epik_State_Penalty>
0.047032

> <r_epik_Charging_Adjusted_Penalty>
0.047032

> <i_epik_Tot_Q>
0

> <i_epik_Tot_abs_Q>
0

> <r_epik_Metal_State_Penalty>
4.89471e-05

> <b_epik_Metal_Only>
0

> <s_lp_Force_Field>
OPLS_2005

> <r_lp_Energy>
15.6378

> <b_lp_Chiralities_Consistent>
1

> <s_lp_Variant>
AV-unprocessed.smi:2144-2

> <Gold.Version>
5.8.1

> <Gold.Id.Protein>
6NUR|6NUR_protein|mol2

> <Gold.PLP.Fitness>
54.4516

> <Gold.PLP.PLP>
-50.2869

> <Gold.PLP.part.hbond>
-4.2179

> <Gold.PLP.part.metal>
0.0000

> <Gold.PLP.part.buried>
-2.6134

> <Gold.PLP.part.nonpolar>
-42.3999

> <Gold.PLP.part.repulsive>
0.6137

> <Gold.PLP.ligand.clash>
0.0000

> <Gold.PLP.ligand.torsion>
0.7040

> <Gold.PLP.Chemscore.Hbond>
1.8390

> <Gold.PLP.Chemscore.CHOScore>
0.0000

> <Gold.PLP.Chemscore.Metal>
0.0000

> <Gold.Chemscore.Hbonds>
donor molecule, donor type, donor heavy atom, donor atom, acceptor molecule, acceptor atom, score
      L1  H     1    24       P1  7957  0.90
      P1  H  6931  6943       L1    16  0.54
      P1  H  7989  7998       L1     1  0.06
      P1  H  8011  8017       L1     1  0.38

> <Gold.PLP.Chemscore.Internal.Correction>
0.0557

> <Gold.Rescore>
     Score         DG    S(hbond)    S(metal)    S(lipo)     H(rot)  DE(clash)    DE(int)     intcor
     14.39     -15.62       1.31        0.00     119.60       3.22       0.65       0.58       ----

> <Gold.Chemscore.Fitness>
14.3950

> <Gold.Chemscore.DG>
-15.6195

> <Gold.Chemscore.ZeroCoef>
-5.4800

> <Gold.Chemscore.Hbond>
1.3138

> <Gold.Chemscore.Metal>
0.0000

> <Gold.Chemscore.Lipo>
119.6033

> <Gold.Chemscore.Internal_Hbond>
0.0000

> <Gold.Chemscore.DEClash>
0.6489

> <Gold.Chemscore.DEInternal>
0.5756

> <Gold.Chemscore.Rot>
3.2196

> <Gold.Chemscore.Internal.Correction>
   9.000000E+99

> <Gold.Chemscore.Hbonds>
donor molecule, donor type, donor heavy atom, donor atom, acceptor molecule, acceptor atom, score
      L1  H     1    24       P1  7957  0.88
      P1  H  6931  6943       L1    16  0.36
      P1  H  8011  8017       L1     1  0.01

> <Gold.Chemscore.Hbond.Weighted>
-4.3881

> <Gold.Chemscore.Metal.Weighted>
-0.0000

> <Gold.Chemscore.Lipo.Weighted>
-13.9936

> <Gold.Chemscore.Internal_Hbond.Weighted>
0.0000

> <Gold.Chemscore.DEClash.Weighted>
0.6489

> <Gold.Chemscore.DEInternal.Weighted>
0.5756

> <Gold.Chemscore.Rot.Weighted>
8.2422

> <Gold.Chemscore.Internal.Correction.Weighted>
   9.000000E+99

> <Gold.Protein.RotatedTorsions>
[ 6907 6896 6895 6894 ] final   22.36 input  -60.11 | X-H torsion
[ 7974 7965 7964 7962 ] final  148.76 input  175.53 | X-H torsion
[ 8008 7997 7996 7995 ] final -160.51 input   59.86 | X-H torsion
[ 10167 10162 10161 10158 ] final   73.96 input  -65.29 | X-H torsion
[ 10718 10713 10712 10709 ] final -145.31 input   66.30 | X-H torsion
[ 10763 10752 10751 10750 ] final  151.85 input  -60.55 | X-H torsion
[ 11005 11000 10999 10996 ] final  -63.25 input  -57.11 | X-H torsion

> <Gold.Protein.ActiveResidues>
 VAL166  LYS551  ARG553  GLY616  TRP617  ASP618  TYR619  PRO620  LYS621  CYS622 
 ASP623  PHE694  ASN695  SER759  ASP760  ASP761  ALA762  ILE779  LEU786  VAL792 
 PHE793  MET794  SER795  GLU796  ALA797  LYS798  CYS799  TRP800  GLU811  SER814 

> <Gold.Protein.RotatedAtoms>
  151.9260  135.0277  160.0525 H   0  0  0  0  0  0  0  0  0  0  0  0  # atno 6907 bound_to 6896
  152.2159  133.4942  159.5144 H   0  0  0  0  0  0  0  0  0  0  0  0  # atno 6908 bound_to 6896
  150.6987  134.1323  159.4117 H   0  0  0  0  0  0  0  0  0  0  0  0  # atno 6909 bound_to 6896
  144.8489  139.6194  143.5983 H   0  0  0  0  0  0  0  0  0  0  0  0  # atno 7974 bound_to 7965
  155.7786  140.0862  157.2071 H   0  0  0  0  0  0  0  0  0  0  0  0  # atno 8008 bound_to 7997
  154.3991  140.1512  156.3083 H   0  0  0  0  0  0  0  0  0  0  0  0  # atno 8009 bound_to 7997
  155.8676  140.3427  155.5802 H   0  0  0  0  0  0  0  0  0  0  0  0  # atno 8010 bound_to 7997
  140.0188  144.5557  150.7598 H   0  0  0  0  0  0  0  0  0  0  0  0  # atno 10167 bound_to 10162
  156.3808  130.7836  151.2028 H   0  0  0  0  0  0  0  0  0  0  0  0  # atno 10718 bound_to 10713
  154.1105  135.2839  155.3231 H   0  0  0  0  0  0  0  0  0  0  0  0  # atno 10763 bound_to 10752
  154.6493  135.5375  153.7885 H   0  0  0  0  0  0  0  0  0  0  0  0  # atno 10764 bound_to 10752
  153.0347  135.6506  154.1264 H   0  0  0  0  0  0  0  0  0  0  0  0  # atno 10765 bound_to 10752
  141.1387  133.6649  156.5652 H   0  0  0  0  0  0  0  0  0  0  0  0  # atno 11005 bound_to 11000
  146.2768  139.6773  142.9257 LP  0  0  0  0  0  0  0  0  0  0  0  0  # atno 17320 bound_to 7965
  145.4540  141.0430  143.2789 LP  0  0  0  0  0  0  0  0  0  0  0  0  # atno 17321 bound_to 7965
  140.7351  143.2737  151.3809 LP  0  0  0  0  0  0  0  0  0  0  0  0  # atno 17342 bound_to 10162
  139.6154  144.1014  152.2340 LP  0  0  0  0  0  0  0  0  0  0  0  0  # atno 17343 bound_to 10162
  157.7492  131.0344  150.4318 LP  0  0  0  0  0  0  0  0  0  0  0  0  # atno 17370 bound_to 10713
  156.4561  130.4022  149.6605 LP  0  0  0  0  0  0  0  0  0  0  0  0  # atno 17371 bound_to 10713
  140.3956  134.7401  157.4749 LP  0  0  0  0  0  0  0  0  0  0  0  0  # atno 17394 bound_to 11000
  140.0533  134.6099  155.8835 LP  0  0  0  0  0  0  0  0  0  0  0  0  # atno 17395 bound_to 11000

$$$$
