#       Name:                AV-unprocessed.smi:1601
#       Creating user name   scv26
#       Creation time:       Fri Mar 27 07:07:27 2020


#       File generated by GOLD software.
#

@<TRIPOS>MOLECULE
AV-unprocessed.smi:1601
    47    48     1
SMALL
NO_CHARGES


@<TRIPOS>ATOM
      1 ****        -0.5482   1.9795  -1.5131 C.3            1 S1                 0.0000
      2 ****        -1.1469   1.1240  -0.3668 C.3            1 S1                 0.0000
      3 ****        -0.5534  -0.3096  -0.4473 C.3            1 S1                 0.0000
      4 ****         0.9044  -0.3110  -0.4021 N.am           1 S1                 0.0000
      5 ****         1.6757  -1.3779  -0.6582 C.2            1 S1                 0.0000
      6 ****         1.2187  -2.4855  -0.9428 O.2            1 S1                 0.0000
      7 ****         3.1958  -1.1622  -0.5713 C.3            1 S1                 0.0000
      8 ****         3.8820  -1.6894  -1.8509 C.3            1 S1                 0.0000
      9 ****         3.7456  -1.7384   0.6609 N.pl3          1 S1                 0.0000
     10 ****         3.1972  -1.7505   1.9324 C.2            1 S1                 0.0000
     11 ****         4.1037  -2.3265   2.7751 C.2            1 S1                 0.0000
     12 ****         5.2112  -2.6114   1.9319 C.2            1 S1                 0.0000
     13 ****         5.0035  -2.2409   0.6800 N.2            1 S1                 0.0000
     14 ****        -2.6285   1.1464  -0.3533 N.3            1 S1                 0.0000
     15 ****        -3.2009   0.3568   0.7433 C.3            1 S1                 0.0000
     16 ****        -4.7385   0.4061   0.7771 C.3            1 S1                 0.0000
     17 ****        -5.1732   1.7555   0.8680 O.3            1 S1                 0.0000
     18 ****        -4.7068   2.5398  -0.2211 C.3            1 S1                 0.0000
     19 ****        -3.1693   2.5076  -0.2602 C.3            1 S1                 0.0000
     20 ****         0.5389   1.9230  -1.5553 H              1 S1                 0.0000
     21 ****        -0.7698   3.0394  -1.3977 H              1 S1                 0.0000
     22 ****        -0.9293   1.6588  -2.4832 H              1 S1                 0.0000
     23 ****        -0.7967   1.5590   0.5707 H              1 S1                 0.0000
     24 ****        -0.8745  -0.9250   0.3920 H              1 S1                 0.0000
     25 ****        -0.8966  -0.8028  -1.3585 H              1 S1                 0.0000
     26 ****         1.3567   0.5621  -0.1729 H              1 S1                 0.0000
     27 ****         3.3811  -0.0879  -0.5205 H              1 S1                 0.0000
     28 ****         3.3956  -1.3048  -2.7483 H              1 S1                 0.0000
     29 ****         3.8566  -2.7789  -1.9023 H              1 S1                 0.0000
     30 ****         4.9259  -1.3775  -1.8975 H              1 S1                 0.0000
     31 ****         2.2130  -1.3548   2.1359 H              1 S1                 0.0000
     32 ****         3.9963  -2.5054   3.8345 H              1 S1                 0.0000
     33 ****         6.1575  -3.0627   2.1917 H              1 S1                 0.0000
     34 ****        -2.9224  -0.6910   0.6508 H              1 S1                 0.0000
     35 ****        -2.8071   0.7091   1.6978 H              1 S1                 0.0000
     36 ****        -5.1603  -0.0619  -0.1140 H              1 S1                 0.0000
     37 ****        -5.1156  -0.1472   1.6372 H              1 S1                 0.0000
     38 ****        -5.1265   2.1660  -1.1565 H              1 S1                 0.0000
     39 ****        -5.0600   3.5636  -0.0985 H              1 S1                 0.0000
     40 ****        -2.7749   3.0018   0.6290 H              1 S1                 0.0000
     41 ****        -2.8609   3.1039  -1.1169 H              1 S1                 0.0000
     42 ****         0.2291  -2.6206  -0.9914 LP             1 S1                 0.0000
     43 ****         1.8373  -3.2497  -1.1253 LP             1 S1                 0.0000
     44 ****         5.6390  -2.3156  -0.0885 LP             1 S1                 0.0000
     45 ****        -2.8916   0.7382  -1.2274 LP             1 S1                 0.0000
     46 ****        -4.8283   2.1490   1.7202 LP             1 S1                 0.0000
     47 ****        -6.1730   1.7729   0.8735 LP             1 S1                 0.0000
@<TRIPOS>BOND
    1    1    2 1     
    2    1   20 1     
    3    1   21 1     
    4    1   22 1     
    5    2    3 1     
    6    2   14 1     
    7    2   23 1     
    8    3    4 1     
    9    3   24 1     
   10    3   25 1     
   11    4    5 am    
   12    4   26 1     
   13    5    6 2     
   14    5    7 1     
   15    7    8 1     
   16    7    9 1     
   17    7   27 1     
   18    8   28 1     
   19    8   29 1     
   20    8   30 1     
   21    9   13 1     
   22    9   10 1     
   23   10   11 2     
   24   10   31 1     
   25   11   12 1     
   26   11   32 1     
   27   12   13 2     
   28   12   33 1     
   29   14   19 1     
   30   14   15 1     
   31   15   16 1     
   32   15   34 1     
   33   15   35 1     
   34   16   17 1     
   35   16   36 1     
   36   16   37 1     
   37   17   18 1     
   38   18   19 1     
   39   18   38 1     
   40   18   39 1     
   41   19   40 1     
   42   19   41 1     
   43    6   42 1     
   44    6   43 1     
   45   13   44 1     
   46   14   45 1     
   47   17   46 1     
   48   17   47 1     
@<TRIPOS>SUBSTRUCTURE
      1 S1             1
@<TRIPOS>SET
LONE_PAIRS      STATIC     ATOMS    <user>   **** ""
6 42 43 44 45 46 47
DONOR_HYDROGENS      STATIC     ATOMS    <user>   **** ""
1 26
ATOM$BLUE        STATIC     ATOMS    COLORGROUP SYSTEM
6 42 43 44 45 46 47
ATOM$RED        STATIC     ATOMS    COLORGROUP SYSTEM
1 26
