AV-unprocessed.smi:244|AV-procd|sdf|1864|dock7
  -GOLD-   2262020503D 1   1.00000     0.00000
 Structure written by MMmdl.
 57 61  0  0  0  0  0  0  0  0  2 V2000
  145.4169  141.4836  155.1885 C   0  0  0  0  0  0  0  0  0  0  0  0
  146.7783  141.0680  154.7878 N   0  3  1  0  0  0  0  0  0  0  0  0
  147.8174  142.0217  155.2503 C   0  0  0  0  0  0  0  0  0  0  0  0
  149.2059  141.6216  154.7266 C   0  0  0  0  0  0  0  0  0  0  0  0
  149.5450  140.1874  155.1496 C   0  0  2  0  0  0  0  0  0  0  0  0
  150.8090  139.8165  154.6108 O   0  0  0  0  0  0  0  0  0  0  0  0
  151.1990  138.5136  155.0322 C   0  0  0  0  0  0  0  0  0  0  0  0
  150.1646  137.4882  154.5414 C   0  0  0  0  0  0  0  0  0  0  0  0
  148.8275  137.8482  155.0091 N   0  0  0  0  0  0  0  0  0  0  0  0
  147.8933  136.9083  154.7353 C   0  0  0  0  0  0  0  0  0  0  0  0
  147.8366  135.7648  155.4678 N   0  0  0  0  0  0  0  0  0  0  0  0
  146.9225  134.8328  155.1788 C   0  0  0  0  0  0  0  0  0  0  0  0
  145.9988  134.8400  154.2148 N   0  0  0  0  0  0  0  0  0  0  0  0
  146.0601  135.9845  153.4754 C   0  0  0  0  0  0  0  0  0  0  0  0
  146.9718  137.0593  153.6661 C   0  0  0  0  0  0  0  0  0  0  0  0
  146.7521  138.0491  152.7172 N   0  0  0  0  0  0  0  0  0  0  0  0
  145.7609  137.5865  152.0050 C   0  0  0  0  0  0  0  0  0  0  0  0
  145.2775  136.3575  152.3966 N   0  0  0  0  0  0  0  0  0  0  0  0
  144.1841  135.6166  151.7858 C   0  0  0  0  0  0  0  0  0  0  0  0
  144.6376  134.3762  150.9759 C   0  0  0  0  0  0  0  0  0  0  0  0
  145.9735  134.5974  150.5580 O   0  0  0  0  0  0  0  0  0  0  0  0
  144.5966  133.0743  151.8060 C   0  0  0  0  0  0  0  0  0  0  0  0
  144.8381  131.8249  150.9403 C   0  0  0  0  0  0  0  0  0  0  0  0
  143.9129  131.7883  149.8607 O   0  0  0  0  0  0  0  0  0  0  0  0
  144.0572  132.8925  148.9762 C   0  0  0  0  0  0  0  0  0  0  0  0
  143.7576  134.2049  149.7216 C   0  0  0  0  0  0  0  0  0  0  0  0
  148.4572  139.2174  154.6391 C   0  0  1  0  0  0  0  0  0  0  0  0
  147.0789  139.6683  155.1828 C   0  0  0  0  0  0  0  0  0  0  0  0
  145.3099  141.4792  156.2741 H   0  0  0  0  0  0  0  0  0  0  0  0
  144.6690  140.8106  154.7681 H   0  0  0  0  0  0  0  0  0  0  0  0
  145.1986  142.4889  154.8270 H   0  0  0  0  0  0  0  0  0  0  0  0
  147.5726  143.0261  154.9025 H   0  0  0  0  0  0  0  0  0  0  0  0
  147.8228  142.0556  156.3410 H   0  0  0  0  0  0  0  0  0  0  0  0
  149.2276  141.7026  153.6388 H   0  0  0  0  0  0  0  0  0  0  0  0
  149.9600  142.3122  155.1056 H   0  0  0  0  0  0  0  0  0  0  0  0
  149.5985  140.1475  156.2396 H   0  0  0  0  0  0  0  0  0  0  0  0
  152.1813  138.2849  154.6186 H   0  0  0  0  0  0  0  0  0  0  0  0
  151.2948  138.4809  156.1187 H   0  0  0  0  0  0  0  0  0  0  0  0
  150.1816  137.4522  153.4511 H   0  0  0  0  0  0  0  0  0  0  0  0
  150.4289  136.4928  154.9015 H   0  0  0  0  0  0  0  0  0  0  0  0
  146.9328  133.9559  155.8093 H   0  0  0  0  0  0  0  0  0  0  0  0
  145.3459  138.1360  151.1724 H   0  0  0  0  0  0  0  0  0  0  0  0
  143.5021  135.3130  152.5811 H   0  0  0  0  0  0  0  0  0  0  0  0
  143.6191  136.2996  151.1494 H   0  0  0  0  0  0  0  0  0  0  0  0
  145.9826  134.6955  149.6180 H   0  0  0  0  0  0  0  0  0  0  0  0
  145.3295  133.1032  152.6128 H   0  0  0  0  0  0  0  0  0  0  0  0
  143.6194  132.9829  152.2817 H   0  0  0  0  0  0  0  0  0  0  0  0
  145.8601  131.8023  150.5592 H   0  0  0  0  0  0  0  0  0  0  0  0
  144.7081  130.9256  151.5426 H   0  0  0  0  0  0  0  0  0  0  0  0
  145.0601  132.9019  148.5468 H   0  0  0  0  0  0  0  0  0  0  0  0
  143.3611  132.7693  148.1465 H   0  0  0  0  0  0  0  0  0  0  0  0
  142.7073  134.1999  150.0160 H   0  0  0  0  0  0  0  0  0  0  0  0
  143.8805  135.0543  149.0484 H   0  0  0  0  0  0  0  0  0  0  0  0
  148.4293  139.2681  153.5490 H   0  0  0  0  0  0  0  0  0  0  0  0
  147.0505  139.5802  156.2701 H   0  0  0  0  0  0  0  0  0  0  0  0
  146.2874  139.0296  154.7889 H   0  0  0  0  0  0  0  0  0  0  0  0
  146.7981  141.0907  153.7780 H   0  0  0  0  0  0  0  0  0  0  0  0
  1  2  1  0  0  0  0
  1 29  1  0  0  0  0
  1 30  1  0  0  0  0
  1 31  1  0  0  0  0
  2 28  1  0  0  0  0
  2  3  1  0  0  0  0
  2 57  1  0  0  0  0
  3  4  1  0  0  0  0
  3 32  1  0  0  0  0
  3 33  1  0  0  0  0
  4  5  1  0  0  0  0
  4 34  1  0  0  0  0
  4 35  1  0  0  0  0
  5 27  1  0  0  0  0
  5  6  1  0  0  0  0
  5 36  1  0  0  0  0
  6  7  1  0  0  0  0
  7  8  1  0  0  0  0
  7 37  1  0  0  0  0
  7 38  1  0  0  0  0
  8  9  1  0  0  0  0
  8 39  1  0  0  0  0
  8 40  1  0  0  0  0
  9 10  1  0  0  0  0
  9 27  1  0  0  0  0
 10 15  1  0  0  0  0
 10 11  2  0  0  0  0
 11 12  1  0  0  0  0
 12 13  2  0  0  0  0
 12 41  1  0  0  0  0
 13 14  1  0  0  0  0
 14 18  1  0  0  0  0
 14 15  2  0  0  0  0
 15 16  1  0  0  0  0
 16 17  2  0  0  0  0
 17 18  1  0  0  0  0
 17 42  1  0  0  0  0
 18 19  1  0  0  0  0
 19 20  1  0  0  0  0
 19 43  1  0  0  0  0
 19 44  1  0  0  0  0
 20 26  1  0  0  0  0
 20 21  1  0  0  0  0
 20 22  1  0  0  0  0
 21 45  1  0  0  0  0
 22 23  1  0  0  0  0
 22 46  1  0  0  0  0
 22 47  1  0  0  0  0
 23 24  1  0  0  0  0
 23 48  1  0  0  0  0
 23 49  1  0  0  0  0
 24 25  1  0  0  0  0
 25 26  1  0  0  0  0
 25 50  1  0  0  0  0
 25 51  1  0  0  0  0
 26 52  1  0  0  0  0
 26 53  1  0  0  0  0
 27 28  1  0  0  0  0
 27 54  1  0  0  0  0
 28 55  1  0  0  0  0
 28 56  1  0  0  0  0
M  CHG  1   2   1
M  END
> <s_m_source_file>
AV-unprocessed.smi

> <i_m_source_file_index>
244

> <i_lp_mmshare_version>
43012

> <i_f3d_flags>
0

> <s_epik_input>
W0NIMl0xW0NIMl1OKFtDSDNdKVtDSDJdW0NAQEhdKFtDQEhdMTIpTihbQ0gyXVtDSDJdTzIpYyhuW2NIXW4zKWMoYzM0KW5bY0hdbjRbQ0gyXUM1KFtPSF0pW0NIMl1bQ0gyXU9bQ0gyXVtDSDJdNQ==

> <s_epik_cmdline>
J2VwaWtfcHl0aG9uJywgJy1waCcsICc3LjAnLCAnLXRuJywgJzgnLCAnLW1hJywgJzIwMCcsICctbWV0YWxfYmluZGluZycsICctaW1hZScsICc8aW5maWxlLm1hZT4nLCAnLW9tYWUnLCAnPG91dGZpbGUubWFlPic=

> <r_lp_tautomer_probability>
1

> <r_epik_Ionization_Penalty>
0.0136215

> <r_epik_Ionization_Penalty_Charging>
0.0131385

> <r_epik_Ionization_Penalty_Neutral>
0.000483022

> <r_epik_State_Penalty>
0.0104001

> <r_epik_Charging_Adjusted_Penalty>
0.0235387

> <i_epik_Tot_Q>
1

> <i_epik_Tot_abs_Q>
1

> <r_epik_Metal_State_Penalty>
0.0104469

> <b_epik_Metal_Only>
0

> <s_lp_Force_Field>
OPLS_2005

> <r_lp_Energy>
41.0301

> <b_lp_Chiralities_Consistent>
1

> <s_lp_Variant>
AV-unprocessed.smi:244-1

> <Gold.Version>
5.8.1

> <Gold.Id.Protein>
6NUR|6NUR_protein|mol2

> <Gold.PLP.Fitness>
36.4660

> <Gold.PLP.PLP>
-28.1842

> <Gold.PLP.part.hbond>
-3.0000

> <Gold.PLP.part.metal>
0.0000

> <Gold.PLP.part.buried>
6.2461

> <Gold.PLP.part.nonpolar>
-32.4915

> <Gold.PLP.part.repulsive>
1.9511

> <Gold.PLP.ligand.clash>
0.0000

> <Gold.PLP.ligand.torsion>
1.4388

> <Gold.PLP.Chemscore.Hbond>
2.6760

> <Gold.PLP.Chemscore.CHOScore>
1.0000

> <Gold.PLP.Chemscore.Metal>
0.0000

> <Gold.Chemscore.Hbonds>
donor molecule, donor type, donor heavy atom, donor atom, acceptor molecule, acceptor atom, score
      L1  H    21    45       P1  7921  1.00
      P1  H  7989  7998       L1     6  1.00
      P1  H 10785 10796       L1    24  0.64
      L1  C    17    42       P1 10171  1.00

> <Gold.PLP.Chemscore.Internal.Correction>
0.1315

> <Gold.Rescore>
     Score         DG    S(hbond)    S(metal)    S(lipo)     H(rot)  DE(clash)    DE(int)     intcor
     12.58     -18.04       2.54        0.00      80.59       2.09       2.64       2.82       ----

> <Gold.Chemscore.Fitness>
12.5762

> <Gold.Chemscore.DG>
-18.0412

> <Gold.Chemscore.ZeroCoef>
-5.4800

> <Gold.Chemscore.Hbond>
2.5406

> <Gold.Chemscore.Metal>
0.0000

> <Gold.Chemscore.Lipo>
80.5858

> <Gold.Chemscore.Internal_Hbond>
0.0000

> <Gold.Chemscore.DEClash>
2.6423

> <Gold.Chemscore.DEInternal>
2.8227

> <Gold.Chemscore.Rot>
2.0911

> <Gold.Chemscore.Internal.Correction>
   9.000000E+99

> <Gold.Chemscore.Hbonds>
donor molecule, donor type, donor heavy atom, donor atom, acceptor molecule, acceptor atom, score
      L1  H    21    45       P1  7921  0.64
      P1  H  7989  7998       L1     6  0.98
      P1  H 10785 10796       L1    24  0.41

> <Gold.Chemscore.Hbond.Weighted>
-8.4858

> <Gold.Chemscore.Metal.Weighted>
-0.0000

> <Gold.Chemscore.Lipo.Weighted>
-9.4285

> <Gold.Chemscore.Internal_Hbond.Weighted>
0.0000

> <Gold.Chemscore.DEClash.Weighted>
2.6423

> <Gold.Chemscore.DEInternal.Weighted>
2.8227

> <Gold.Chemscore.Rot.Weighted>
5.3531

> <Gold.Chemscore.Internal.Correction.Weighted>
   9.000000E+99

> <Gold.Protein.RotatedTorsions>
[ 6907 6896 6895 6894 ] final    8.43 input  -60.11 | X-H torsion
[ 7974 7965 7964 7962 ] final  -91.49 input  175.53 | X-H torsion
[ 8008 7997 7996 7995 ] final -160.02 input   59.86 | X-H torsion
[ 10167 10162 10161 10158 ] final  -80.25 input  -65.29 | X-H torsion
[ 10718 10713 10712 10709 ] final -178.70 input   66.30 | X-H torsion
[ 10763 10752 10751 10750 ] final  103.48 input  -60.55 | X-H torsion
[ 11005 11000 10999 10996 ] final   14.37 input  -57.11 | X-H torsion

> <Gold.Protein.ActiveResidues>
 VAL166  LYS551  ARG553  GLY616  TRP617  ASP618  TYR619  PRO620  LYS621  CYS622 
 ASP623  PHE694  ASN695  SER759  ASP760  ASP761  ALA762  ILE779  LEU786  VAL792 
 PHE793  MET794  SER795  GLU796  ALA797  LYS798  CYS799  TRP800  GLU811  SER814 

> <Gold.Protein.RotatedAtoms>
  151.7059  135.0921  160.0258 H   0  0  0  0  0  0  0  0  0  0  0  0  # atno 6907 bound_to 6896
  152.3692  133.6392  159.6082 H   0  0  0  0  0  0  0  0  0  0  0  0  # atno 6908 bound_to 6896
  150.7660  133.9215  159.3441 H   0  0  0  0  0  0  0  0  0  0  0  0  # atno 6909 bound_to 6896
  145.4125  140.9546  143.2226 H   0  0  0  0  0  0  0  0  0  0  0  0  # atno 7974 bound_to 7965
  155.7712  140.0852  157.2107 H   0  0  0  0  0  0  0  0  0  0  0  0  # atno 8008 bound_to 7997
  154.3996  140.1525  156.3001 H   0  0  0  0  0  0  0  0  0  0  0  0  # atno 8009 bound_to 7997
  155.8745  140.3424  155.5847 H   0  0  0  0  0  0  0  0  0  0  0  0  # atno 8010 bound_to 7997
  140.4520  143.2480  151.8475 H   0  0  0  0  0  0  0  0  0  0  0  0  # atno 10167 bound_to 10162
  156.8482  130.9710  151.3094 H   0  0  0  0  0  0  0  0  0  0  0  0  # atno 10718 bound_to 10713
  153.3532  135.3975  155.1662 H   0  0  0  0  0  0  0  0  0  0  0  0  # atno 10763 bound_to 10752
  154.8666  135.3661  154.5195 H   0  0  0  0  0  0  0  0  0  0  0  0  # atno 10764 bound_to 10752
  153.5648  135.7080  153.5591 H   0  0  0  0  0  0  0  0  0  0  0  0  # atno 10765 bound_to 10752
  140.4703  134.1038  155.7731 H   0  0  0  0  0  0  0  0  0  0  0  0  # atno 11005 bound_to 11000
  144.8300  139.5645  143.6948 LP  0  0  0  0  0  0  0  0  0  0  0  0  # atno 17320 bound_to 7965
  146.2698  139.6607  142.9304 LP  0  0  0  0  0  0  0  0  0  0  0  0  # atno 17321 bound_to 7965
  139.4797  144.5109  151.8934 LP  0  0  0  0  0  0  0  0  0  0  0  0  # atno 17342 bound_to 10162
  140.4196  144.2261  150.5887 LP  0  0  0  0  0  0  0  0  0  0  0  0  # atno 17343 bound_to 10162
  157.6318  130.8735  149.9287 LP  0  0  0  0  0  0  0  0  0  0  0  0  # atno 17370 bound_to 10713
  156.0842  130.3670  150.0519 LP  0  0  0  0  0  0  0  0  0  0  0  0  # atno 17371 bound_to 10713
  141.1580  133.8846  157.1925 LP  0  0  0  0  0  0  0  0  0  0  0  0  # atno 17394 bound_to 11000
  139.9890  135.0072  156.9929 LP  0  0  0  0  0  0  0  0  0  0  0  0  # atno 17395 bound_to 11000

$$$$
