AV-unprocessed.smi:821|AV-procd|sdf|3840|dock5
  -GOLD-   22720 1283D 1   1.00000     0.00000
 Structure written by MMmdl.
 45 46  0  0  0  0  0  0  0  0  2 V2000
  147.4356  139.2289  153.4700 C   0  0  0  0  0  0  0  0  0  0  0  0
  147.6159  140.3986  154.4468 C   0  0  2  0  0  0  0  0  0  0  0  0
  147.0031  141.7048  153.8899 C   0  0  0  0  0  0  0  0  0  0  0  0
  145.6150  141.9565  154.3586 N   0  3  0  0  0  0  0  0  0  0  0  0
  145.3566  141.4036  155.7093 C   0  0  0  0  0  0  0  0  0  0  0  0
  143.8913  141.6373  156.1185 C   0  0  0  0  0  0  0  0  0  0  0  0
  143.5818  143.0235  156.0431 O   0  0  0  0  0  0  0  0  0  0  0  0
  143.7485  143.5388  154.7280 C   0  0  0  0  0  0  0  0  0  0  0  0
  145.2175  143.3839  154.3029 C   0  0  0  0  0  0  0  0  0  0  0  0
  149.0395  140.5759  154.7343 N   0  0  0  0  0  0  0  0  0  0  0  0
  149.5894  140.6702  155.9553 C   0  0  0  0  0  0  0  0  0  0  0  0
  148.9515  140.5414  157.0002 O   0  0  0  0  0  0  0  0  0  0  0  0
  151.0919  140.9776  155.9997 C   0  0  0  0  0  0  0  0  0  0  0  0
  151.4908  141.6391  157.2545 N   0  0  0  0  0  0  0  0  0  0  0  0
  150.9340  142.9030  157.5184 C   0  0  0  0  0  0  0  0  0  0  0  0
  151.2417  143.5918  158.6256 C   0  0  0  0  0  0  0  0  0  0  0  0
  152.1726  143.0050  159.5586 C   0  0  0  0  0  0  0  0  0  0  0  0
  152.7281  141.7925  159.3306 C   0  0  0  0  0  0  0  0  0  0  0  0
  153.7149  141.1569  160.3074 C   0  0  0  0  0  0  0  0  0  0  0  0
  153.3980  139.8824  160.5389 F   0  0  0  0  0  0  0  0  0  0  0  0
  154.9507  141.1935  159.8076 F   0  0  0  0  0  0  0  0  0  0  0  0
  153.7298  141.7918  161.4802 F   0  0  0  0  0  0  0  0  0  0  0  0
  152.3770  141.0391  158.1098 C   0  0  0  0  0  0  0  0  0  0  0  0
  152.8566  139.9319  157.8566 O   0  0  0  0  0  0  0  0  0  0  0  0
  146.3805  139.0594  153.2533 H   0  0  0  0  0  0  0  0  0  0  0  0
  147.8378  138.3045  153.8859 H   0  0  0  0  0  0  0  0  0  0  0  0
  147.9435  139.4163  152.5231 H   0  0  0  0  0  0  0  0  0  0  0  0
  147.0858  140.1274  155.3607 H   0  0  0  0  0  0  0  0  0  0  0  0
  147.6318  142.5357  154.2140 H   0  0  0  0  0  0  0  0  0  0  0  0
  147.0316  141.7098  152.7992 H   0  0  0  0  0  0  0  0  0  0  0  0
  145.5721  140.3345  155.7209 H   0  0  0  0  0  0  0  0  0  0  0  0
  146.0260  141.8747  156.4308 H   0  0  0  0  0  0  0  0  0  0  0  0
  143.2124  141.0673  155.4841 H   0  0  0  0  0  0  0  0  0  0  0  0
  143.7284  141.2951  157.1405 H   0  0  0  0  0  0  0  0  0  0  0  0
  143.0848  143.0245  154.0310 H   0  0  0  0  0  0  0  0  0  0  0  0
  143.4640  144.5909  154.7222 H   0  0  0  0  0  0  0  0  0  0  0  0
  145.8608  143.9714  154.9598 H   0  0  0  0  0  0  0  0  0  0  0  0
  145.3456  143.7802  153.2968 H   0  0  0  0  0  0  0  0  0  0  0  0
  149.6511  140.6774  153.9369 H   0  0  0  0  0  0  0  0  0  0  0  0
  151.6328  140.0416  155.8559 H   0  0  0  0  0  0  0  0  0  0  0  0
  151.3714  141.6060  155.1514 H   0  0  0  0  0  0  0  0  0  0  0  0
  150.2518  143.2761  156.7683 H   0  0  0  0  0  0  0  0  0  0  0  0
  150.8074  144.5630  158.8128 H   0  0  0  0  0  0  0  0  0  0  0  0
  152.4229  143.5598  160.4503 H   0  0  0  0  0  0  0  0  0  0  0  0
  145.0048  141.4559  153.7276 H   0  0  0  0  0  0  0  0  0  0  0  0
  1  2  1  0  0  0  0
  1 25  1  0  0  0  0
  1 26  1  0  0  0  0
  1 27  1  0  0  0  0
  2  3  1  0  0  0  0
  2 10  1  0  0  0  0
  2 28  1  0  0  0  0
  3  4  1  0  0  0  0
  3 29  1  0  0  0  0
  3 30  1  0  0  0  0
  4  9  1  0  0  0  0
  4  5  1  0  0  0  0
  4 45  1  0  0  0  0
  5  6  1  0  0  0  0
  5 31  1  0  0  0  0
  5 32  1  0  0  0  0
  6  7  1  0  0  0  0
  6 33  1  0  0  0  0
  6 34  1  0  0  0  0
  7  8  1  0  0  0  0
  8  9  1  0  0  0  0
  8 35  1  0  0  0  0
  8 36  1  0  0  0  0
  9 37  1  0  0  0  0
  9 38  1  0  0  0  0
 10 11  1  0  0  0  0
 10 39  1  0  0  0  0
 11 12  2  0  0  0  0
 11 13  1  0  0  0  0
 13 14  1  0  0  0  0
 13 40  1  0  0  0  0
 13 41  1  0  0  0  0
 14 23  1  0  0  0  0
 14 15  1  0  0  0  0
 15 16  2  0  0  0  0
 15 42  1  0  0  0  0
 16 17  1  0  0  0  0
 16 43  1  0  0  0  0
 17 18  2  0  0  0  0
 17 44  1  0  0  0  0
 18 19  1  0  0  0  0
 18 23  1  0  0  0  0
 19 20  1  0  0  0  0
 19 21  1  0  0  0  0
 19 22  1  0  0  0  0
 23 24  2  0  0  0  0
M  CHG  1   4   1
M  END
> <s_m_source_file>
AV-unprocessed.smi

> <i_m_source_file_index>
821

> <i_lp_mmshare_version>
43012

> <i_f3d_flags>
0

> <s_epik_input>
W0NIMl0xW0NIMl1PW0NIMl1bQ0gyXU4xW0NIMl1bQ0BASF0oW0NIM10pW05IXUMoPU8pW0NIMl1uMltjSF1bY0hdW2NIXWMoQyhGKShGKUYpYzI9Tw==

> <s_epik_cmdline>
J2VwaWtfcHl0aG9uJywgJy1waCcsICc3LjAnLCAnLXRuJywgJzgnLCAnLW1hJywgJzIwMCcsICctbWV0YWxfYmluZGluZycsICctaW1hZScsICc8aW5maWxlLm1hZT4nLCAnLW9tYWUnLCAnPG91dGZpbGUubWFlPic=

> <r_lp_tautomer_probability>
1

> <r_epik_Ionization_Penalty>
0.656654

> <r_epik_Ionization_Penalty_Charging>
0.656653

> <r_epik_Ionization_Penalty_Neutral>
9.12373e-08

> <r_epik_State_Penalty>
0.675641

> <r_epik_Charging_Adjusted_Penalty>
1.33229

> <i_epik_Tot_Q>
1

> <i_epik_Tot_abs_Q>
1

> <r_epik_Metal_State_Penalty>
0.675695

> <b_epik_Metal_Only>
0

> <s_lp_Force_Field>
OPLS_2005

> <r_lp_Energy>
29.4747

> <b_lp_Chiralities_Consistent>
1

> <s_lp_Variant>
AV-unprocessed.smi:821-3

> <Gold.Version>
5.8.1

> <Gold.Id.Protein>
6NUR|6NUR_protein|mol2

> <Gold.PLP.Fitness>
49.5072

> <Gold.PLP.PLP>
-40.7549

> <Gold.PLP.part.hbond>
-1.9041

> <Gold.PLP.part.metal>
0.0000

> <Gold.PLP.part.buried>
-4.8130

> <Gold.PLP.part.nonpolar>
-35.7035

> <Gold.PLP.part.repulsive>
0.2431

> <Gold.PLP.ligand.clash>
0.0000

> <Gold.PLP.ligand.torsion>
1.7132

> <Gold.PLP.Chemscore.Hbond>
2.9175

> <Gold.PLP.Chemscore.CHOScore>
1.0000

> <Gold.PLP.Chemscore.Metal>
0.0000

> <Gold.Chemscore.Hbonds>
donor molecule, donor type, donor heavy atom, donor atom, acceptor molecule, acceptor atom, score
      L1  H     4    45       P1 10175  1.82
      P1  H  7997  8008       L1    24  1.00
      L1  C    15    42       P1  8028  1.00

> <Gold.PLP.Chemscore.Internal.Correction>
0.4261

> <Gold.Rescore>
     Score         DG    S(hbond)    S(metal)    S(lipo)     H(rot)  DE(clash)    DE(int)     intcor
     12.02     -15.27       1.79        0.00      80.00       2.17       0.02       3.23       ----

> <Gold.Chemscore.Fitness>
12.0209

> <Gold.Chemscore.DG>
-15.2744

> <Gold.Chemscore.ZeroCoef>
-5.4800

> <Gold.Chemscore.Hbond>
1.7945

> <Gold.Chemscore.Metal>
0.0000

> <Gold.Chemscore.Lipo>
79.9989

> <Gold.Chemscore.Internal_Hbond>
0.0000

> <Gold.Chemscore.DEClash>
0.0218

> <Gold.Chemscore.DEInternal>
3.2317

> <Gold.Chemscore.Rot>
2.1716

> <Gold.Chemscore.Internal.Correction>
   9.000000E+99

> <Gold.Chemscore.Hbonds>
donor molecule, donor type, donor heavy atom, donor atom, acceptor molecule, acceptor atom, score
      L1  H     4    45       P1 10175  0.20
      P1  H  7997  8008       L1    24  0.76

> <Gold.Chemscore.Hbond.Weighted>
-5.9937

> <Gold.Chemscore.Metal.Weighted>
-0.0000

> <Gold.Chemscore.Lipo.Weighted>
-9.3599

> <Gold.Chemscore.Internal_Hbond.Weighted>
0.0000

> <Gold.Chemscore.DEClash.Weighted>
0.0218

> <Gold.Chemscore.DEInternal.Weighted>
3.2317

> <Gold.Chemscore.Rot.Weighted>
5.5592

> <Gold.Chemscore.Internal.Correction.Weighted>
   9.000000E+99

> <Gold.Protein.RotatedTorsions>
[ 6907 6896 6895 6894 ] final  -59.18 input  -60.11 | X-H torsion
[ 7974 7965 7964 7962 ] final  -40.73 input  175.53 | X-H torsion
[ 8008 7997 7996 7995 ] final  -65.05 input   59.86 | X-H torsion
[ 10167 10162 10161 10158 ] final  -44.10 input  -65.29 | X-H torsion
[ 10718 10713 10712 10709 ] final  -27.84 input   66.30 | X-H torsion
[ 10763 10752 10751 10750 ] final  -67.95 input  -60.55 | X-H torsion
[ 11005 11000 10999 10996 ] final   -9.73 input  -57.11 | X-H torsion

> <Gold.Protein.ActiveResidues>
 VAL166  LYS551  ARG553  GLY616  TRP617  ASP618  TYR619  PRO620  LYS621  CYS622 
 ASP623  PHE694  ASN695  SER759  ASP760  ASP761  ALA762  ILE779  LEU786  VAL792 
 PHE793  MET794  SER795  GLU796  ALA797  LYS798  CYS799  TRP800  GLU811  SER814 

> <Gold.Protein.RotatedAtoms>
  150.7950  134.7002  159.6545 H   0  0  0  0  0  0  0  0  0  0  0  0  # atno 6907 bound_to 6896
  152.4061  134.6202  160.0058 H   0  0  0  0  0  0  0  0  0  0  0  0  # atno 6908 bound_to 6896
  151.6459  133.3286  159.3177 H   0  0  0  0  0  0  0  0  0  0  0  0  # atno 6909 bound_to 6896
  146.0277  140.6771  142.9147 H   0  0  0  0  0  0  0  0  0  0  0  0  # atno 7974 bound_to 7965
  154.4648  140.0941  156.6990 H   0  0  0  0  0  0  0  0  0  0  0  0  # atno 8008 bound_to 7997
  155.4890  140.3470  155.4333 H   0  0  0  0  0  0  0  0  0  0  0  0  # atno 8009 bound_to 7997
  156.0936  140.1403  156.9548 H   0  0  0  0  0  0  0  0  0  0  0  0  # atno 8010 bound_to 7997
  140.6909  143.2948  151.3447 H   0  0  0  0  0  0  0  0  0  0  0  0  # atno 10167 bound_to 10162
  156.4329  130.4449  149.7105 H   0  0  0  0  0  0  0  0  0  0  0  0  # atno 10718 bound_to 10713
  154.3819  135.6072  153.5795 H   0  0  0  0  0  0  0  0  0  0  0  0  # atno 10763 bound_to 10752
  152.9788  135.5863  154.4400 H   0  0  0  0  0  0  0  0  0  0  0  0  # atno 10764 bound_to 10752
  154.4171  135.2845  155.1978 H   0  0  0  0  0  0  0  0  0  0  0  0  # atno 10765 bound_to 10752
  140.7373  133.8699  155.8940 H   0  0  0  0  0  0  0  0  0  0  0  0  # atno 11005 bound_to 11000
  144.7017  140.3679  143.7151 LP  0  0  0  0  0  0  0  0  0  0  0  0  # atno 17320 bound_to 7965
  145.7091  139.1680  143.2549 LP  0  0  0  0  0  0  0  0  0  0  0  0  # atno 17321 bound_to 7965
  139.6312  144.0717  152.2478 LP  0  0  0  0  0  0  0  0  0  0  0  0  # atno 17342 bound_to 10162
  140.0193  144.6165  150.7581 LP  0  0  0  0  0  0  0  0  0  0  0  0  # atno 17343 bound_to 10162
  156.4000  130.7670  151.2677 LP  0  0  0  0  0  0  0  0  0  0  0  0  # atno 17370 bound_to 10713
  157.7508  131.0242  150.3868 LP  0  0  0  0  0  0  0  0  0  0  0  0  # atno 17371 bound_to 10713
  140.9868  134.1332  157.4445 LP  0  0  0  0  0  0  0  0  0  0  0  0  # atno 17394 bound_to 11000
  139.8813  135.0028  156.6148 LP  0  0  0  0  0  0  0  0  0  0  0  0  # atno 17395 bound_to 11000

$$$$
