AV-unprocessed.smi:2749|AV-procd|sdf|10588|dock5
  -GOLD-   2272015 43D 1   1.00000     0.00000
 Structure written by MMmdl.
 32 34  0  0  0  0  0  0  0  0  1 V2000
  150.4119  140.6816  157.0409 O   0  0  0  0  0  0  0  0  0  0  0  0
  150.3440  141.8626  156.7045 C   0  0  0  0  0  0  0  0  0  0  0  0
  150.8255  142.8392  157.5039 N   0  0  0  0  0  0  0  0  0  0  0  0
  151.4560  142.7935  158.7827 C   0  0  0  0  0  0  0  0  0  0  0  0
  151.3200  143.9775  159.5435 C   0  0  0  0  0  0  0  0  0  0  0  0
  151.9041  144.0550  160.8229 C   0  0  0  0  0  0  0  0  0  0  0  0
  152.6131  142.9431  161.3103 C   0  0  0  0  0  0  0  0  0  0  0  0
  153.1922  142.9699  162.5338 F   0  0  0  0  0  0  0  0  0  0  0  0
  152.7056  141.8025  160.4925 C   0  0  0  0  0  0  0  0  0  0  0  0
  152.1455  141.7283  159.2664 N   0  0  0  0  0  0  0  0  0  0  0  0
  149.8019  142.2597  155.5421 N   0  0  0  0  0  0  0  0  0  0  0  0
  149.2178  141.3945  154.5214 C   0  0  1  0  0  0  0  0  0  0  0  0
  149.9825  140.0735  154.3882 C   0  0  0  0  0  0  0  0  0  0  0  0
  148.8901  139.0433  154.7055 C   0  0  2  0  0  0  0  0  0  0  0  0
  147.8332  138.9595  153.5943 C   0  0  0  0  0  0  0  0  0  0  0  0
  147.0659  140.2675  153.7902 C   0  0  0  0  0  0  0  0  0  0  0  0
  147.8285  140.9020  154.9607 C   0  0  1  0  0  0  0  0  0  0  0  0
  148.1656  139.7409  155.7024 O   0  0  0  0  0  0  0  0  0  0  0  0
  150.7381  143.7685  157.1191 H   0  0  0  0  0  0  0  0  0  0  0  0
  150.7725  144.8236  159.1539 H   0  0  0  0  0  0  0  0  0  0  0  0
  151.8096  144.9513  161.4179 H   0  0  0  0  0  0  0  0  0  0  0  0
  153.2426  140.9277  160.8288 H   0  0  0  0  0  0  0  0  0  0  0  0
  149.7911  143.2517  155.3498 H   0  0  0  0  0  0  0  0  0  0  0  0
  149.1501  141.9069  153.5601 H   0  0  0  0  0  0  0  0  0  0  0  0
  150.4096  139.9326  153.3948 H   0  0  0  0  0  0  0  0  0  0  0  0
  150.7927  140.0025  155.1157 H   0  0  0  0  0  0  0  0  0  0  0  0
  149.2749  138.0744  155.0246 H   0  0  0  0  0  0  0  0  0  0  0  0
  148.2802  138.8743  152.6033 H   0  0  0  0  0  0  0  0  0  0  0  0
  147.1745  138.1040  153.7473 H   0  0  0  0  0  0  0  0  0  0  0  0
  147.0638  140.8977  152.9001 H   0  0  0  0  0  0  0  0  0  0  0  0
  146.0308  140.0648  154.0677 H   0  0  0  0  0  0  0  0  0  0  0  0
  147.2437  141.6376  155.5143 H   0  0  0  0  0  0  0  0  0  0  0  0
  1  2  2  0  0  0  0
  2  3  1  0  0  0  0
  2 11  1  0  0  0  0
  3  4  1  0  0  0  0
  3 19  1  0  0  0  0
  4 10  1  0  0  0  0
  4  5  2  0  0  0  0
  5  6  1  0  0  0  0
  5 20  1  0  0  0  0
  6  7  2  0  0  0  0
  6 21  1  0  0  0  0
  7  8  1  0  0  0  0
  7  9  1  0  0  0  0
  9 10  2  0  0  0  0
  9 22  1  0  0  0  0
 11 12  1  0  0  0  0
 11 23  1  0  0  0  0
 12 17  1  0  0  0  0
 12 13  1  0  0  0  0
 12 24  1  0  0  0  0
 13 14  1  0  0  0  0
 13 25  1  0  0  0  0
 13 26  1  0  0  0  0
 14 18  1  0  0  0  0
 14 15  1  0  0  0  0
 14 27  1  0  0  0  0
 15 16  1  0  0  0  0
 15 28  1  0  0  0  0
 15 29  1  0  0  0  0
 16 17  1  0  0  0  0
 16 30  1  0  0  0  0
 16 31  1  0  0  0  0
 17 18  1  0  0  0  0
 17 32  1  0  0  0  0
M  END
> <s_m_source_file>
AV-unprocessed.smi

> <i_m_source_file_index>
2749

> <i_lp_mmshare_version>
43012

> <i_f3d_flags>
0

> <s_epik_input>
W0NIMl0xW0NIMl1bQ0BIXShPMilbQ0BASF0oW0NIMl1bQ0BASF0xMilbTkhdQyg9TylbTkhdYzNbY0hdW2NIXWMoRilbY0hdbjM=

> <s_epik_cmdline>
J2VwaWtfcHl0aG9uJywgJy1waCcsICc3LjAnLCAnLXRuJywgJzgnLCAnLW1hJywgJzIwMCcsICctbWV0YWxfYmluZGluZycsICctaW1hZScsICc8aW5maWxlLm1hZT4nLCAnLW9tYWUnLCAnPG91dGZpbGUubWFlPic=

> <r_lp_tautomer_probability>
1

> <r_epik_Ionization_Penalty>
3.37159e-05

> <r_epik_Ionization_Penalty_Charging>
0

> <r_epik_Ionization_Penalty_Neutral>
3.37159e-05

> <r_epik_State_Penalty>
-0

> <r_epik_Charging_Adjusted_Penalty>
0

> <i_epik_Tot_Q>
0

> <i_epik_Tot_abs_Q>
0

> <r_epik_Metal_State_Penalty>
-0

> <b_epik_Metal_Only>
0

> <s_lp_Force_Field>
OPLS_2005

> <r_lp_Energy>
42.1361

> <b_lp_Chiralities_Consistent>
1

> <s_lp_Variant>
AV-unprocessed.smi:2749-4

> <Gold.Version>
5.8.1

> <Gold.Id.Protein>
6NUR|6NUR_protein|mol2

> <Gold.PLP.Fitness>
37.9868

> <Gold.PLP.PLP>
-36.2732

> <Gold.PLP.part.hbond>
-1.2501

> <Gold.PLP.part.metal>
0.0000

> <Gold.PLP.part.buried>
-2.8668

> <Gold.PLP.part.nonpolar>
-31.9621

> <Gold.PLP.part.repulsive>
0.2241

> <Gold.PLP.ligand.clash>
0.0000

> <Gold.PLP.ligand.torsion>
0.4061

> <Gold.PLP.Chemscore.Hbond>
0.8320

> <Gold.PLP.Chemscore.CHOScore>
0.0000

> <Gold.PLP.Chemscore.Metal>
0.0000

> <Gold.Chemscore.Hbonds>
donor molecule, donor type, donor heavy atom, donor atom, acceptor molecule, acceptor atom, score
      L1  H    11    23       P1  8028  0.86

> <Gold.PLP.Chemscore.Internal.Correction>
0.0299

> <Gold.Rescore>
     Score         DG    S(hbond)    S(metal)    S(lipo)     H(rot)  DE(clash)    DE(int)     intcor
     13.10     -17.80       1.90        0.00      72.91       1.00       0.47       4.24       ----

> <Gold.Chemscore.Fitness>
13.0951

> <Gold.Chemscore.DG>
-17.8038

> <Gold.Chemscore.ZeroCoef>
-5.4800

> <Gold.Chemscore.Hbond>
1.9023

> <Gold.Chemscore.Metal>
0.0000

> <Gold.Chemscore.Lipo>
72.9085

> <Gold.Chemscore.Internal_Hbond>
0.0000

> <Gold.Chemscore.DEClash>
0.4715

> <Gold.Chemscore.DEInternal>
4.2373

> <Gold.Chemscore.Rot>
1.0000

> <Gold.Chemscore.Internal.Correction>
   9.000000E+99

> <Gold.Chemscore.Hbonds>
donor molecule, donor type, donor heavy atom, donor atom, acceptor molecule, acceptor atom, score
      L1  H    11    23       P1  8028  0.85

> <Gold.Chemscore.Hbond.Weighted>
-6.3535

> <Gold.Chemscore.Metal.Weighted>
-0.0000

> <Gold.Chemscore.Lipo.Weighted>
-8.5303

> <Gold.Chemscore.Internal_Hbond.Weighted>
0.0000

> <Gold.Chemscore.DEClash.Weighted>
0.4715

> <Gold.Chemscore.DEInternal.Weighted>
4.2373

> <Gold.Chemscore.Rot.Weighted>
2.5600

> <Gold.Chemscore.Internal.Correction.Weighted>
   9.000000E+99

> <Gold.Protein.RotatedTorsions>
[ 6907 6896 6895 6894 ] final  -11.94 input  -60.11 | X-H torsion
[ 7974 7965 7964 7962 ] final   96.46 input  175.53 | X-H torsion
[ 8008 7997 7996 7995 ] final  -28.73 input   59.86 | X-H torsion
[ 10167 10162 10161 10158 ] final  -84.86 input  -65.29 | X-H torsion
[ 10718 10713 10712 10709 ] final   70.88 input   66.30 | X-H torsion
[ 10763 10752 10751 10750 ] final  149.26 input  -60.55 | X-H torsion
[ 11005 11000 10999 10996 ] final -145.19 input  -57.11 | X-H torsion

> <Gold.Protein.ActiveResidues>
 VAL166  LYS551  ARG553  GLY616  TRP617  ASP618  TYR619  PRO620  LYS621  CYS622 
 ASP623  PHE694  ASN695  SER759  ASP760  ASP761  ALA762  ILE779  LEU786  VAL792 
 PHE793  MET794  SER795  GLU796  ALA797  LYS798  CYS799  TRP800  GLU811  SER814 

> <Gold.Protein.RotatedAtoms>
  151.3783  135.0935  159.9487 H   0  0  0  0  0  0  0  0  0  0  0  0  # atno 6907 bound_to 6896
  152.5115  133.9097  159.7492 H   0  0  0  0  0  0  0  0  0  0  0  0  # atno 6908 bound_to 6896
  150.9525  133.6479  159.2798 H   0  0  0  0  0  0  0  0  0  0  0  0  # atno 6909 bound_to 6896
  145.4385  139.2303  143.3105 H   0  0  0  0  0  0  0  0  0  0  0  0  # atno 7974 bound_to 7965
  154.4320  140.1837  156.1136 H   0  0  0  0  0  0  0  0  0  0  0  0  # atno 8008 bound_to 7997
  156.0199  140.3342  155.7002 H   0  0  0  0  0  0  0  0  0  0  0  0  # atno 8009 bound_to 7997
  155.5992  140.0638  157.2728 H   0  0  0  0  0  0  0  0  0  0  0  0  # atno 8010 bound_to 7997
  140.4092  143.2629  151.9040 H   0  0  0  0  0  0  0  0  0  0  0  0  # atno 10167 bound_to 10162
  157.6423  130.9500  150.0712 H   0  0  0  0  0  0  0  0  0  0  0  0  # atno 10718 bound_to 10713
  154.0683  135.2868  155.3313 H   0  0  0  0  0  0  0  0  0  0  0  0  # atno 10763 bound_to 10752
  154.6763  135.5280  153.8207 H   0  0  0  0  0  0  0  0  0  0  0  0  # atno 10764 bound_to 10752
  153.0495  135.6570  154.0866 H   0  0  0  0  0  0  0  0  0  0  0  0  # atno 10765 bound_to 10752
  140.7947  134.2927  157.5000 H   0  0  0  0  0  0  0  0  0  0  0  0  # atno 11005 bound_to 11000
  146.2569  140.5131  142.8870 LP  0  0  0  0  0  0  0  0  0  0  0  0  # atno 17320 bound_to 7965
  144.8136  140.6429  143.6399 LP  0  0  0  0  0  0  0  0  0  0  0  0  # atno 17321 bound_to 7965
  139.4783  144.5554  151.8322 LP  0  0  0  0  0  0  0  0  0  0  0  0  # atno 17342 bound_to 10162
  140.4656  144.1660  150.5911 LP  0  0  0  0  0  0  0  0  0  0  0  0  # atno 17343 bound_to 10162
  156.1715  130.3646  149.9158 LP  0  0  0  0  0  0  0  0  0  0  0  0  # atno 17370 bound_to 10713
  156.7132  130.8978  151.3611 LP  0  0  0  0  0  0  0  0  0  0  0  0  # atno 17371 bound_to 10713
  139.8727  134.9395  156.3744 LP  0  0  0  0  0  0  0  0  0  0  0  0  # atno 17394 bound_to 11000
  140.9354  133.7550  156.0078 LP  0  0  0  0  0  0  0  0  0  0  0  0  # atno 17395 bound_to 11000

$$$$
