AV-unprocessed.smi:1444|AV-procd|sdf|5883|dock4
  -GOLD-   22720 5563D 1   1.00000     0.00000
 Structure written by MMmdl.
 44 45  0  0  0  0  0  0  0  0  2 V2000
  152.0681  138.7475  154.6108 C   0  0  0  0  0  0  0  0  0  0  0  0
  150.7286  138.5147  154.1891 O   0  0  0  0  0  0  0  0  0  0  0  0
  149.8032  139.5306  154.3368 C   0  0  0  0  0  0  0  0  0  0  0  0
  150.2472  140.7558  154.7130 N   0  0  0  0  0  0  0  0  0  0  0  0
  149.3472  141.7492  154.8574 C   0  0  0  0  0  0  0  0  0  0  0  0
  147.9694  141.5769  154.6334 C   0  0  0  0  0  0  0  0  0  0  0  0
  147.5055  140.3072  154.2433 C   0  0  0  0  0  0  0  0  0  0  0  0
  148.4378  139.2509  154.0898 C   0  0  0  0  0  0  0  0  0  0  0  0
  148.0995  137.9229  153.7018 N   0  0  0  0  0  0  0  0  0  0  0  0
  147.0307  137.1745  154.0231 C   0  0  0  0  0  0  0  0  0  0  0  0
  146.0928  137.5257  154.7372 O   0  0  0  0  0  0  0  0  0  0  0  0
  147.1029  135.9665  153.4447 N   0  0  0  0  0  0  0  0  0  0  0  0
  146.1377  134.8768  153.5959 C   0  0  2  0  0  0  0  0  0  0  0  0
  145.9826  134.5541  155.0883 C   0  0  0  0  0  0  0  0  0  0  0  0
  146.5685  133.6261  152.7955 C   0  0  0  0  0  0  0  0  0  0  0  0
  145.4269  132.9154  152.1658 N   0  3  0  0  0  0  0  0  0  0  0  0
  144.7783  133.6987  151.0886 C   0  0  0  0  0  0  0  0  0  0  0  0
  143.5617  132.9366  150.5357 C   0  0  0  0  0  0  0  0  0  0  0  0
  143.9704  131.6559  150.0710 O   0  0  0  0  0  0  0  0  0  0  0  0
  144.5236  130.8617  151.1137 C   0  0  0  0  0  0  0  0  0  0  0  0
  145.7718  131.5562  151.6822 C   0  0  0  0  0  0  0  0  0  0  0  0
  152.6631  137.8529  154.4277 H   0  0  0  0  0  0  0  0  0  0  0  0
  152.1185  138.9651  155.6788 H   0  0  0  0  0  0  0  0  0  0  0  0
  152.5255  139.5675  154.0552 H   0  0  0  0  0  0  0  0  0  0  0  0
  149.7370  142.7099  155.1598 H   0  0  0  0  0  0  0  0  0  0  0  0
  147.2831  142.4012  154.7588 H   0  0  0  0  0  0  0  0  0  0  0  0
  146.4489  140.1828  154.0728 H   0  0  0  0  0  0  0  0  0  0  0  0
  148.7806  137.4761  153.1049 H   0  0  0  0  0  0  0  0  0  0  0  0
  147.9114  135.7716  152.8721 H   0  0  0  0  0  0  0  0  0  0  0  0
  145.1611  135.2129  153.2448 H   0  0  0  0  0  0  0  0  0  0  0  0
  145.2413  133.7699  155.2446 H   0  0  0  0  0  0  0  0  0  0  0  0
  145.6551  135.4308  155.6483 H   0  0  0  0  0  0  0  0  0  0  0  0
  146.9232  134.2135  155.5229 H   0  0  0  0  0  0  0  0  0  0  0  0
  147.2639  133.9460  152.0177 H   0  0  0  0  0  0  0  0  0  0  0  0
  147.1233  132.9329  153.4295 H   0  0  0  0  0  0  0  0  0  0  0  0
  144.4581  134.6675  151.4738 H   0  0  0  0  0  0  0  0  0  0  0  0
  145.4968  133.8904  150.2899 H   0  0  0  0  0  0  0  0  0  0  0  0
  142.7888  132.8303  151.2990 H   0  0  0  0  0  0  0  0  0  0  0  0
  143.1173  133.4884  149.7070 H   0  0  0  0  0  0  0  0  0  0  0  0
  143.7808  130.6948  151.8955 H   0  0  0  0  0  0  0  0  0  0  0  0
  144.7886  129.8838  150.7113 H   0  0  0  0  0  0  0  0  0  0  0  0
  146.5434  131.6234  150.9138 H   0  0  0  0  0  0  0  0  0  0  0  0
  146.1814  130.9555  152.4936 H   0  0  0  0  0  0  0  0  0  0  0  0
  144.7304  132.8005  152.8888 H   0  0  0  0  0  0  0  0  0  0  0  0
  1  2  1  0  0  0  0
  1 22  1  0  0  0  0
  1 23  1  0  0  0  0
  1 24  1  0  0  0  0
  2  3  1  0  0  0  0
  3  8  1  0  0  0  0
  3  4  2  0  0  0  0
  4  5  1  0  0  0  0
  5  6  2  0  0  0  0
  5 25  1  0  0  0  0
  6  7  1  0  0  0  0
  6 26  1  0  0  0  0
  7  8  2  0  0  0  0
  7 27  1  0  0  0  0
  8  9  1  0  0  0  0
  9 10  1  0  0  0  0
  9 28  1  0  0  0  0
 10 11  2  0  0  0  0
 10 12  1  0  0  0  0
 12 13  1  0  0  0  0
 12 29  1  0  0  0  0
 13 14  1  0  0  0  0
 13 15  1  0  0  0  0
 13 30  1  0  0  0  0
 14 31  1  0  0  0  0
 14 32  1  0  0  0  0
 14 33  1  0  0  0  0
 15 16  1  0  0  0  0
 15 34  1  0  0  0  0
 15 35  1  0  0  0  0
 16 21  1  0  0  0  0
 16 17  1  0  0  0  0
 16 44  1  0  0  0  0
 17 18  1  0  0  0  0
 17 36  1  0  0  0  0
 17 37  1  0  0  0  0
 18 19  1  0  0  0  0
 18 38  1  0  0  0  0
 18 39  1  0  0  0  0
 19 20  1  0  0  0  0
 20 21  1  0  0  0  0
 20 40  1  0  0  0  0
 20 41  1  0  0  0  0
 21 42  1  0  0  0  0
 21 43  1  0  0  0  0
M  CHG  1  16   1
M  END
> <s_m_source_file>
AV-unprocessed.smi

> <i_m_source_file_index>
1444

> <i_lp_mmshare_version>
43012

> <i_f3d_flags>
0

> <s_epik_input>
W0NIM11PYzFuW2NIXVtjSF1bY0hdYzFbTkhdQyg9TylbTkhdW0NASF0oW0NIM10pW0NIMl1OMltDSDJdW0NIMl1PW0NIMl1bQ0gyXTI=

> <s_epik_cmdline>
J2VwaWtfcHl0aG9uJywgJy1waCcsICc3LjAnLCAnLXRuJywgJzgnLCAnLW1hJywgJzIwMCcsICctbWV0YWxfYmluZGluZycsICctaW1hZScsICc8aW5maWxlLm1hZT4nLCAnLW9tYWUnLCAnPG91dGZpbGUubWFlPic=

> <r_lp_tautomer_probability>
1

> <r_epik_Ionization_Penalty>
0.602604

> <r_epik_Ionization_Penalty_Charging>
0.602531

> <r_epik_Ionization_Penalty_Neutral>
7.37688e-05

> <r_epik_State_Penalty>
0.617039

> <r_epik_Charging_Adjusted_Penalty>
1.21957

> <i_epik_Tot_Q>
1

> <i_epik_Tot_abs_Q>
1

> <r_epik_Metal_State_Penalty>
0.617045

> <b_epik_Metal_Only>
0

> <s_lp_Force_Field>
OPLS_2005

> <r_lp_Energy>
24.7121

> <b_lp_Chiralities_Consistent>
1

> <s_lp_Variant>
AV-unprocessed.smi:1444-3

> <Gold.Version>
5.8.1

> <Gold.Id.Protein>
6NUR|6NUR_protein|mol2

> <Gold.PLP.Fitness>
40.4640

> <Gold.PLP.PLP>
-29.8322

> <Gold.PLP.part.hbond>
-3.7433

> <Gold.PLP.part.metal>
0.0000

> <Gold.PLP.part.buried>
-3.1569

> <Gold.PLP.part.nonpolar>
-24.4694

> <Gold.PLP.part.repulsive>
0.5395

> <Gold.PLP.ligand.clash>
0.0000

> <Gold.PLP.ligand.torsion>
0.9243

> <Gold.PLP.Chemscore.Hbond>
3.1468

> <Gold.PLP.Chemscore.CHOScore>
1.0000

> <Gold.PLP.Chemscore.Metal>
0.0000

> <Gold.Chemscore.Hbonds>
donor molecule, donor type, donor heavy atom, donor atom, acceptor molecule, acceptor atom, score
      L1  H     9    28       P1  7948  0.88
      L1  H    12    29       P1  7948  0.96
      P1  H  7989  7998       L1     4  0.69
      P1  H 10785 10796       L1    19  0.53
      L1  C     5    25       P1  8028  1.00

> <Gold.PLP.Chemscore.Internal.Correction>
0.0398

> <Gold.Rescore>
     Score         DG    S(hbond)    S(metal)    S(lipo)     H(rot)  DE(clash)    DE(int)     intcor
     16.85     -18.50       2.69        0.00      73.38       1.78       0.72       0.93       ----

> <Gold.Chemscore.Fitness>
16.8487

> <Gold.Chemscore.DG>
-18.5038

> <Gold.Chemscore.ZeroCoef>
-5.4800

> <Gold.Chemscore.Hbond>
2.6932

> <Gold.Chemscore.Metal>
0.0000

> <Gold.Chemscore.Lipo>
73.3798

> <Gold.Chemscore.Internal_Hbond>
0.0000

> <Gold.Chemscore.DEClash>
0.7217

> <Gold.Chemscore.DEInternal>
0.9334

> <Gold.Chemscore.Rot>
1.7801

> <Gold.Chemscore.Internal.Correction>
   9.000000E+99

> <Gold.Chemscore.Hbonds>
donor molecule, donor type, donor heavy atom, donor atom, acceptor molecule, acceptor atom, score
      L1  H     9    28       P1  7948  0.87
      L1  H    12    29       P1  7948  0.87
      P1  H  7989  7998       L1     4  0.12
      P1  H 10785 10796       L1    19  0.15

> <Gold.Chemscore.Hbond.Weighted>
-8.9954

> <Gold.Chemscore.Metal.Weighted>
-0.0000

> <Gold.Chemscore.Lipo.Weighted>
-8.5854

> <Gold.Chemscore.Internal_Hbond.Weighted>
0.0000

> <Gold.Chemscore.DEClash.Weighted>
0.7217

> <Gold.Chemscore.DEInternal.Weighted>
0.9334

> <Gold.Chemscore.Rot.Weighted>
4.5570

> <Gold.Chemscore.Internal.Correction.Weighted>
   9.000000E+99

> <Gold.Protein.RotatedTorsions>
[ 6907 6896 6895 6894 ] final  177.06 input  -60.11 | X-H torsion
[ 7974 7965 7964 7962 ] final    4.59 input  175.53 | X-H torsion
[ 8008 7997 7996 7995 ] final  105.67 input   59.86 | X-H torsion
[ 10167 10162 10161 10158 ] final  145.28 input  -65.29 | X-H torsion
[ 10718 10713 10712 10709 ] final   91.85 input   66.30 | X-H torsion
[ 10763 10752 10751 10750 ] final -166.66 input  -60.55 | X-H torsion
[ 11005 11000 10999 10996 ] final   16.99 input  -57.11 | X-H torsion

> <Gold.Protein.ActiveResidues>
 VAL166  LYS551  ARG553  GLY616  TRP617  ASP618  TYR619  PRO620  LYS621  CYS622 
 ASP623  PHE694  ASN695  SER759  ASP760  ASP761  ALA762  ILE779  LEU786  VAL792 
 PHE793  MET794  SER795  GLU796  ALA797  LYS798  CYS799  TRP800  GLU811  SER814 

> <Gold.Protein.RotatedAtoms>
  151.7101  133.3312  159.3288 H   0  0  0  0  0  0  0  0  0  0  0  0  # atno 6907 bound_to 6896
  150.7698  134.6540  159.6313 H   0  0  0  0  0  0  0  0  0  0  0  0  # atno 6908 bound_to 6896
  152.3717  134.6727  160.0225 H   0  0  0  0  0  0  0  0  0  0  0  0  # atno 6909 bound_to 6896
  146.2443  140.0512  142.8375 H   0  0  0  0  0  0  0  0  0  0  0  0  # atno 7974 bound_to 7965
  156.1679  140.3126  155.8921 H   0  0  0  0  0  0  0  0  0  0  0  0  # atno 8008 bound_to 7997
  155.3649  140.0478  157.3063 H   0  0  0  0  0  0  0  0  0  0  0  0  # atno 8009 bound_to 7997
  154.5211  140.2198  155.8986 H   0  0  0  0  0  0  0  0  0  0  0  0  # atno 8010 bound_to 7997
  139.4929  144.5913  151.6675 H   0  0  0  0  0  0  0  0  0  0  0  0  # atno 10167 bound_to 10162
  157.6960  131.0422  150.3792 H   0  0  0  0  0  0  0  0  0  0  0  0  # atno 10718 bound_to 10713
  154.6811  135.2955  154.9611 H   0  0  0  0  0  0  0  0  0  0  0  0  # atno 10763 bound_to 10752
  154.0606  135.6632  153.4815 H   0  0  0  0  0  0  0  0  0  0  0  0  # atno 10764 bound_to 10752
  153.0548  135.5151  154.7855 H   0  0  0  0  0  0  0  0  0  0  0  0  # atno 10765 bound_to 10752
  140.4409  134.1322  155.7690 H   0  0  0  0  0  0  0  0  0  0  0  0  # atno 11005 bound_to 11000
  145.0983  140.9329  143.4728 LP  0  0  0  0  0  0  0  0  0  0  0  0  # atno 17320 bound_to 7965
  145.0699  139.3039  143.5837 LP  0  0  0  0  0  0  0  0  0  0  0  0  # atno 17321 bound_to 7965
  140.5541  144.0378  150.6139 LP  0  0  0  0  0  0  0  0  0  0  0  0  # atno 17342 bound_to 10162
  140.3441  143.3002  152.0556 LP  0  0  0  0  0  0  0  0  0  0  0  0  # atno 17343 bound_to 10162
  156.4207  130.3952  149.6827 LP  0  0  0  0  0  0  0  0  0  0  0  0  # atno 17370 bound_to 10713
  156.4078  130.7707  151.2718 LP  0  0  0  0  0  0  0  0  0  0  0  0  # atno 17371 bound_to 10713
  141.1706  133.8617  157.1583 LP  0  0  0  0  0  0  0  0  0  0  0  0  # atno 17394 bound_to 11000
  140.0070  135.0004  157.0314 LP  0  0  0  0  0  0  0  0  0  0  0  0  # atno 17395 bound_to 11000

$$$$
