AV-unprocessed.smi:2203|AV-procd|sdf|8935|dock7
  -GOLD-   2272012153D 1   1.00000     0.00000
 Structure written by MMmdl.
 48 49  0  0  0  0  0  0  0  0  1 V2000
  152.7075  137.4295  159.5267 C   0  0  0  0  0  0  0  0  0  0  0  0
  152.0996  138.7677  159.2168 C   0  0  0  0  0  0  0  0  0  0  0  0
  152.5789  139.8479  159.8091 N   0  0  0  0  0  0  0  0  0  0  0  0
  151.8398  140.8674  159.3246 N   0  0  0  0  0  0  0  0  0  0  0  0
  152.1136  142.2217  159.7822 C   0  0  0  0  0  0  0  0  0  0  0  0
  151.8068  142.4319  161.2807 C   0  0  0  0  0  0  0  0  0  0  0  0
  151.7354  143.9286  161.6160 C   0  0  0  0  0  0  0  0  0  0  0  0
  152.8063  141.7121  162.2026 C   0  0  0  0  0  0  0  0  0  0  0  0
  150.8964  140.4270  158.4137 C   0  0  0  0  0  0  0  0  0  0  0  0
  149.9541  141.3548  157.7150 C   0  0  0  0  0  0  0  0  0  0  0  0
  151.0313  139.0674  158.3215 C   0  0  0  0  0  0  0  0  0  0  0  0
  150.2467  138.1016  157.4704 C   0  0  0  0  0  0  0  0  0  0  0  0
  149.5207  137.1019  158.3701 C   0  0  0  0  0  0  0  0  0  0  0  0
  150.0615  136.6913  159.3967 O   0  0  0  0  0  0  0  0  0  0  0  0
  148.2945  136.7261  157.9800 N   0  0  0  0  0  0  0  0  0  0  0  0
  147.4435  135.8003  158.7133 C   0  0  0  0  0  0  0  0  0  0  0  0
  147.5064  136.0859  160.2198 C   0  0  2  0  0  0  0  0  0  0  0  0
  146.9369  134.9592  161.0817 C   0  0  0  0  0  0  0  0  0  0  0  0
  146.4868  135.7093  162.3140 C   0  0  0  0  0  0  0  0  0  0  0  0
  145.9356  136.9924  161.7024 C   0  0  0  0  0  0  0  0  0  0  0  0
  146.7287  137.2378  160.5446 O   0  0  0  0  0  0  0  0  0  0  0  0
  153.4066  137.1311  158.7454 H   0  0  0  0  0  0  0  0  0  0  0  0
  151.9420  136.6573  159.6008 H   0  0  0  0  0  0  0  0  0  0  0  0
  153.2510  137.4439  160.4722 H   0  0  0  0  0  0  0  0  0  0  0  0
  153.1600  142.4566  159.5793 H   0  0  0  0  0  0  0  0  0  0  0  0
  151.5272  142.9123  159.1758 H   0  0  0  0  0  0  0  0  0  0  0  0
  150.8211  142.0124  161.4831 H   0  0  0  0  0  0  0  0  0  0  0  0
  152.6935  144.4198  161.4433 H   0  0  0  0  0  0  0  0  0  0  0  0
  151.4641  144.0856  162.6605 H   0  0  0  0  0  0  0  0  0  0  0  0
  150.9871  144.4328  161.0040 H   0  0  0  0  0  0  0  0  0  0  0  0
  153.8252  142.0582  162.0262 H   0  0  0  0  0  0  0  0  0  0  0  0
  152.7892  140.6330  162.0500 H   0  0  0  0  0  0  0  0  0  0  0  0
  152.5710  141.8922  163.2518 H   0  0  0  0  0  0  0  0  0  0  0  0
  149.4536  140.8562  156.8849 H   0  0  0  0  0  0  0  0  0  0  0  0
  150.4803  142.2178  157.3075 H   0  0  0  0  0  0  0  0  0  0  0  0
  149.1860  141.7144  158.3995 H   0  0  0  0  0  0  0  0  0  0  0  0
  149.5226  138.6193  156.8402 H   0  0  0  0  0  0  0  0  0  0  0  0
  150.8961  137.5535  156.7871 H   0  0  0  0  0  0  0  0  0  0  0  0
  147.9260  137.1071  157.1207 H   0  0  0  0  0  0  0  0  0  0  0  0
  146.4141  135.8764  158.3594 H   0  0  0  0  0  0  0  0  0  0  0  0
  147.7800  134.7821  158.5130 H   0  0  0  0  0  0  0  0  0  0  0  0
  148.5357  136.2805  160.5261 H   0  0  0  0  0  0  0  0  0  0  0  0
  146.0763  134.4972  160.5952 H   0  0  0  0  0  0  0  0  0  0  0  0
  147.6667  134.1785  161.2973 H   0  0  0  0  0  0  0  0  0  0  0  0
  145.7486  135.1654  162.9041 H   0  0  0  0  0  0  0  0  0  0  0  0
  147.3427  135.9317  162.9527 H   0  0  0  0  0  0  0  0  0  0  0  0
  144.9007  136.8497  161.3888 H   0  0  0  0  0  0  0  0  0  0  0  0
  145.9668  137.8335  162.3952 H   0  0  0  0  0  0  0  0  0  0  0  0
  1  2  1  0  0  0  0
  1 22  1  0  0  0  0
  1 23  1  0  0  0  0
  1 24  1  0  0  0  0
  2 11  1  0  0  0  0
  2  3  2  0  0  0  0
  3  4  1  0  0  0  0
  4  5  1  0  0  0  0
  4  9  1  0  0  0  0
  5  6  1  0  0  0  0
  5 25  1  0  0  0  0
  5 26  1  0  0  0  0
  6  7  1  0  0  0  0
  6  8  1  0  0  0  0
  6 27  1  0  0  0  0
  7 28  1  0  0  0  0
  7 29  1  0  0  0  0
  7 30  1  0  0  0  0
  8 31  1  0  0  0  0
  8 32  1  0  0  0  0
  8 33  1  0  0  0  0
  9 10  1  0  0  0  0
  9 11  2  0  0  0  0
 10 34  1  0  0  0  0
 10 35  1  0  0  0  0
 10 36  1  0  0  0  0
 11 12  1  0  0  0  0
 12 13  1  0  0  0  0
 12 37  1  0  0  0  0
 12 38  1  0  0  0  0
 13 14  2  0  0  0  0
 13 15  1  0  0  0  0
 15 16  1  0  0  0  0
 15 39  1  0  0  0  0
 16 17  1  0  0  0  0
 16 40  1  0  0  0  0
 16 41  1  0  0  0  0
 17 21  1  0  0  0  0
 17 18  1  0  0  0  0
 17 42  1  0  0  0  0
 18 19  1  0  0  0  0
 18 43  1  0  0  0  0
 18 44  1  0  0  0  0
 19 20  1  0  0  0  0
 19 45  1  0  0  0  0
 19 46  1  0  0  0  0
 20 21  1  0  0  0  0
 20 47  1  0  0  0  0
 20 48  1  0  0  0  0
M  END
> <s_m_source_file>
AV-unprocessed.smi

> <i_m_source_file_index>
2203

> <i_lp_mmshare_version>
43012

> <i_f3d_flags>
0

> <s_epik_input>
W0NIM11jMW5uKFtDSDJdW0NIXShbQ0gzXSlbQ0gzXSljKFtDSDNdKWMxW0NIMl1DKD1PKVtOSF1bQ0gyXVtDQEBIXTJbQ0gyXVtDSDJdW0NIMl1PMg==

> <s_epik_cmdline>
J2VwaWtfcHl0aG9uJywgJy1waCcsICc3LjAnLCAnLXRuJywgJzgnLCAnLW1hJywgJzIwMCcsICctbWV0YWxfYmluZGluZycsICctaW1hZScsICc8aW5maWxlLm1hZT4nLCAnLW9tYWUnLCAnPG91dGZpbGUubWFlPic=

> <r_lp_tautomer_probability>
1

> <r_epik_Ionization_Penalty>
0.00306713

> <r_epik_Ionization_Penalty_Charging>
0

> <r_epik_Ionization_Penalty_Neutral>
0.00306713

> <r_epik_State_Penalty>
0.00215672

> <r_epik_Charging_Adjusted_Penalty>
0.00215672

> <i_epik_Tot_Q>
0

> <i_epik_Tot_abs_Q>
0

> <r_epik_Metal_State_Penalty>
-0

> <b_epik_Metal_Only>
0

> <s_lp_Force_Field>
OPLS_2005

> <r_lp_Energy>
15.5636

> <b_lp_Chiralities_Consistent>
1

> <s_lp_Variant>
AV-unprocessed.smi:2203-1

> <Gold.Version>
5.8.1

> <Gold.Id.Protein>
6NUR|6NUR_protein|mol2

> <Gold.PLP.Fitness>
49.9796

> <Gold.PLP.PLP>
-44.3776

> <Gold.PLP.part.hbond>
-3.0000

> <Gold.PLP.part.metal>
0.0000

> <Gold.PLP.part.buried>
-5.0267

> <Gold.PLP.part.nonpolar>
-36.5102

> <Gold.PLP.part.repulsive>
0.1250

> <Gold.PLP.ligand.clash>
0.0000

> <Gold.PLP.ligand.torsion>
0.6909

> <Gold.PLP.Chemscore.Hbond>
2.3043

> <Gold.PLP.Chemscore.CHOScore>
0.0000

> <Gold.PLP.Chemscore.Metal>
0.0000

> <Gold.Chemscore.Hbonds>
donor molecule, donor type, donor heavy atom, donor atom, acceptor molecule, acceptor atom, score
      P1  H  6896  6909       L1    14  1.00
      P1  H  6934  6947       L1    21  0.90

> <Gold.PLP.Chemscore.Internal.Correction>
0.0707

> <Gold.Rescore>
     Score         DG    S(hbond)    S(metal)    S(lipo)     H(rot)  DE(clash)    DE(int)     intcor
     17.25     -20.73       1.92        0.00     111.22       1.63       0.34       3.14       ----

> <Gold.Chemscore.Fitness>
17.2502

> <Gold.Chemscore.DG>
-20.7250

> <Gold.Chemscore.ZeroCoef>
-5.4800

> <Gold.Chemscore.Hbond>
1.9200

> <Gold.Chemscore.Metal>
0.0000

> <Gold.Chemscore.Lipo>
111.2186

> <Gold.Chemscore.Internal_Hbond>
0.0000

> <Gold.Chemscore.DEClash>
0.3382

> <Gold.Chemscore.DEInternal>
3.1366

> <Gold.Chemscore.Rot>
1.6329

> <Gold.Chemscore.Internal.Correction>
   9.000000E+99

> <Gold.Chemscore.Hbonds>
donor molecule, donor type, donor heavy atom, donor atom, acceptor molecule, acceptor atom, score
      P1  H  6896  6909       L1    14  0.98
      P1  H  6934  6947       L1    21  0.18

> <Gold.Chemscore.Hbond.Weighted>
-6.4127

> <Gold.Chemscore.Metal.Weighted>
-0.0000

> <Gold.Chemscore.Lipo.Weighted>
-13.0126

> <Gold.Chemscore.Internal_Hbond.Weighted>
0.0000

> <Gold.Chemscore.DEClash.Weighted>
0.3382

> <Gold.Chemscore.DEInternal.Weighted>
3.1366

> <Gold.Chemscore.Rot.Weighted>
4.1803

> <Gold.Chemscore.Internal.Correction.Weighted>
   9.000000E+99

> <Gold.Protein.RotatedTorsions>
[ 6907 6896 6895 6894 ] final   78.10 input  -60.11 | X-H torsion
[ 7974 7965 7964 7962 ] final    2.26 input  175.53 | X-H torsion
[ 8008 7997 7996 7995 ] final  119.82 input   59.86 | X-H torsion
[ 10167 10162 10161 10158 ] final   -4.89 input  -65.29 | X-H torsion
[ 10718 10713 10712 10709 ] final  144.42 input   66.30 | X-H torsion
[ 10763 10752 10751 10750 ] final   98.76 input  -60.55 | X-H torsion
[ 11005 11000 10999 10996 ] final   69.71 input  -57.11 | X-H torsion

> <Gold.Protein.ActiveResidues>
 VAL166  LYS551  ARG553  GLY616  TRP617  ASP618  TYR619  PRO620  LYS621  CYS622 
 ASP623  PHE694  ASN695  SER759  ASP760  ASP761  ALA762  ILE779  LEU786  VAL792 
 PHE793  MET794  SER795  GLU796  ALA797  LYS798  CYS799  TRP800  GLU811  SER814 

> <Gold.Protein.RotatedAtoms>
  152.5145  134.3716  159.9319 H   0  0  0  0  0  0  0  0  0  0  0  0  # atno 6907 bound_to 6896
  151.3670  133.3862  159.2703 H   0  0  0  0  0  0  0  0  0  0  0  0  # atno 6908 bound_to 6896
  150.9607  134.9015  159.7787 H   0  0  0  0  0  0  0  0  0  0  0  0  # atno 6909 bound_to 6896
  146.2443  140.0862  142.8354 H   0  0  0  0  0  0  0  0  0  0  0  0  # atno 7974 bound_to 7965
  156.2614  140.2844  156.1052 H   0  0  0  0  0  0  0  0  0  0  0  0  # atno 8008 bound_to 7997
  155.1317  140.0394  157.2794 H   0  0  0  0  0  0  0  0  0  0  0  0  # atno 8009 bound_to 7997
  154.6595  140.2563  155.7131 H   0  0  0  0  0  0  0  0  0  0  0  0  # atno 8010 bound_to 7997
  140.6944  143.6371  150.8469 H   0  0  0  0  0  0  0  0  0  0  0  0  # atno 10167 bound_to 10162
  157.3574  131.0960  151.0946 H   0  0  0  0  0  0  0  0  0  0  0  0  # atno 10718 bound_to 10713
  153.2930  135.4137  155.1184 H   0  0  0  0  0  0  0  0  0  0  0  0  # atno 10763 bound_to 10752
  154.8526  135.3523  154.5955 H   0  0  0  0  0  0  0  0  0  0  0  0  # atno 10764 bound_to 10752
  153.6378  135.7058  153.5310 H   0  0  0  0  0  0  0  0  0  0  0  0  # atno 10765 bound_to 10752
  139.9638  134.7015  156.0588 H   0  0  0  0  0  0  0  0  0  0  0  0  # atno 11005 bound_to 11000
  145.0690  140.9142  143.4893 LP  0  0  0  0  0  0  0  0  0  0  0  0  # atno 17320 bound_to 7965
  145.0993  139.2834  143.5695 LP  0  0  0  0  0  0  0  0  0  0  0  0  # atno 17321 bound_to 7965
  140.0087  143.5666  152.2847 LP  0  0  0  0  0  0  0  0  0  0  0  0  # atno 17342 bound_to 10162
  139.6382  144.7652  151.2395 LP  0  0  0  0  0  0  0  0  0  0  0  0  # atno 17343 bound_to 10162
  157.2099  130.6433  149.5770 LP  0  0  0  0  0  0  0  0  0  0  0  0  # atno 17370 bound_to 10713
  155.9731  130.4663  150.6286 LP  0  0  0  0  0  0  0  0  0  0  0  0  # atno 17371 bound_to 10713
  141.1317  133.6585  156.3483 LP  0  0  0  0  0  0  0  0  0  0  0  0  # atno 17394 bound_to 11000
  140.5440  134.6092  157.5388 LP  0  0  0  0  0  0  0  0  0  0  0  0  # atno 17395 bound_to 11000

$$$$
