AV-unprocessed.smi:1484|AV-procd|sdf|5995|dock1
  -GOLD-   22720 6 93D 1   1.00000     0.00000
 Structure written by MMmdl.
 37 38  0  0  0  0  0  0  0  0  2 V2000
  153.2379  142.1289  161.1275 C   0  0  0  0  0  0  0  0  0  0  0  0
  152.9660  142.5103  159.6653 C   0  0  2  0  0  0  0  0  0  0  0  0
  152.7277  144.0246  159.5128 C   0  0  0  0  0  0  0  0  0  0  0  0
  152.4587  144.4056  158.0489 C   0  0  0  0  0  0  0  0  0  0  0  0
  151.2754  143.6108  157.4759 C   0  0  0  0  0  0  0  0  0  0  0  0
  151.4975  142.0938  157.6165 C   0  0  2  0  0  0  0  0  0  0  0  0
  150.3258  141.3819  157.1154 N   0  0  0  0  0  0  0  0  0  0  0  0
  150.3139  140.5417  156.0692 C   0  0  0  0  0  0  0  0  0  0  0  0
  151.3203  140.2755  155.4097 O   0  0  0  0  0  0  0  0  0  0  0  0
  148.9503  139.9125  155.7407 C   0  0  0  0  0  0  0  0  0  0  0  0
  147.9288  140.8759  155.3045 N   0  0  0  0  0  0  0  0  0  0  0  0
  146.7353  140.8914  156.1462 N   0  5  0  0  0  0  0  0  0  0  0  0
  145.7125  141.7293  155.8302 C   0  0  0  0  0  0  0  0  0  0  0  0
  144.6715  141.7850  156.4807 O   0  0  0  0  0  0  0  0  0  0  0  0
  145.8697  142.5950  154.6733 C   0  0  0  0  0  0  0  0  0  0  0  0
  146.9921  142.5759  153.9277 C   0  0  0  0  0  0  0  0  0  0  0  0
  148.1113  141.6903  154.2259 C   0  0  0  0  0  0  0  0  0  0  0  0
  149.1432  141.6747  153.5546 O   0  0  0  0  0  0  0  0  0  0  0  0
  151.7786  141.7164  159.0863 C   0  0  0  0  0  0  0  0  0  0  0  0
  152.3833  142.3612  161.7638 H   0  0  0  0  0  0  0  0  0  0  0  0
  154.1014  142.6669  161.5196 H   0  0  0  0  0  0  0  0  0  0  0  0
  153.4439  141.0625  161.2229 H   0  0  0  0  0  0  0  0  0  0  0  0
  153.8549  142.2504  159.0887 H   0  0  0  0  0  0  0  0  0  0  0  0
  151.8803  144.3287  160.1291 H   0  0  0  0  0  0  0  0  0  0  0  0
  153.5919  144.5784  159.8814 H   0  0  0  0  0  0  0  0  0  0  0  0
  152.2591  145.4749  157.9739 H   0  0  0  0  0  0  0  0  0  0  0  0
  153.3510  144.2151  157.4512 H   0  0  0  0  0  0  0  0  0  0  0  0
  150.3611  143.9007  157.9961 H   0  0  0  0  0  0  0  0  0  0  0  0
  151.1309  143.8725  156.4270 H   0  0  0  0  0  0  0  0  0  0  0  0
  152.3632  141.8203  157.0100 H   0  0  0  0  0  0  0  0  0  0  0  0
  149.4552  141.5391  157.6015 H   0  0  0  0  0  0  0  0  0  0  0  0
  149.1041  139.1523  154.9724 H   0  0  0  0  0  0  0  0  0  0  0  0
  148.5914  139.3708  156.6176 H   0  0  0  0  0  0  0  0  0  0  0  0
  145.0695  143.2699  154.4072 H   0  0  0  0  0  0  0  0  0  0  0  0
  147.0659  143.2369  153.0771 H   0  0  0  0  0  0  0  0  0  0  0  0
  151.9835  140.6476  159.1614 H   0  0  0  0  0  0  0  0  0  0  0  0
  150.8878  141.9010  159.6889 H   0  0  0  0  0  0  0  0  0  0  0  0
  1  2  1  0  0  0  0
  1 20  1  0  0  0  0
  1 21  1  0  0  0  0
  1 22  1  0  0  0  0
  2 19  1  0  0  0  0
  2  3  1  0  0  0  0
  2 23  1  0  0  0  0
  3  4  1  0  0  0  0
  3 24  1  0  0  0  0
  3 25  1  0  0  0  0
  4  5  1  0  0  0  0
  4 26  1  0  0  0  0
  4 27  1  0  0  0  0
  5  6  1  0  0  0  0
  5 28  1  0  0  0  0
  5 29  1  0  0  0  0
  6  7  1  0  0  0  0
  6 19  1  0  0  0  0
  6 30  1  0  0  0  0
  7  8  1  0  0  0  0
  7 31  1  0  0  0  0
  8  9  2  0  0  0  0
  8 10  1  0  0  0  0
 10 32  1  0  0  0  0
 10 33  1  0  0  0  0
 10 11  1  0  0  0  0
 11 12  1  0  0  0  0
 11 17  1  0  0  0  0
 12 13  1  0  0  0  0
 13 14  2  0  0  0  0
 13 15  1  0  0  0  0
 15 34  1  0  0  0  0
 15 16  2  0  0  0  0
 16 35  1  0  0  0  0
 16 17  1  0  0  0  0
 17 18  2  0  0  0  0
 19 36  1  0  0  0  0
 19 37  1  0  0  0  0
M  CHG  1  12  -1
M  END
> <s_m_source_file>
AV-unprocessed.smi

> <i_m_source_file_index>
1484

> <i_lp_mmshare_version>
43012

> <i_f3d_flags>
0

> <s_epik_input>
W0NIM11bQ0BASF0xW0NIMl1bQ0gyXVtDSDJdW0NASF0oW0NIMl0xKVtOSF1DKD1PKVtDSDJdbjJbbkhdYyg9TylbY0hdW2NIXWMyPU8=

> <s_epik_cmdline>
J2VwaWtfcHl0aG9uJywgJy1waCcsICc3LjAnLCAnLXRuJywgJzgnLCAnLW1hJywgJzIwMCcsICctbWV0YWxfYmluZGluZycsICctaW1hZScsICc8aW5maWxlLm1hZT4nLCAnLW9tYWUnLCAnPG91dGZpbGUubWFlPic=

> <r_lp_tautomer_probability>
1

> <r_epik_Ionization_Penalty>
0.101352

> <r_epik_Ionization_Penalty_Charging>
0.101352

> <r_epik_Ionization_Penalty_Neutral>
1.90469e-08

> <r_epik_State_Penalty>
0.0358555

> <r_epik_Charging_Adjusted_Penalty>
0.137208

> <i_epik_Tot_Q>
-1

> <i_epik_Tot_abs_Q>
1

> <r_epik_Metal_State_Penalty>
0.0358555

> <b_epik_Metal_Only>
0

> <s_lp_Force_Field>
OPLS_2005

> <r_lp_Energy>
24.7991

> <b_lp_Chiralities_Consistent>
1

> <s_lp_Variant>
AV-unprocessed.smi:1484-3

> <Gold.Version>
5.8.1

> <Gold.Id.Protein>
6NUR|6NUR_protein|mol2

> <Gold.PLP.Fitness>
43.9307

> <Gold.PLP.PLP>
-38.7487

> <Gold.PLP.part.hbond>
-2.4738

> <Gold.PLP.part.metal>
0.0000

> <Gold.PLP.part.buried>
-2.7267

> <Gold.PLP.part.nonpolar>
-33.0387

> <Gold.PLP.part.repulsive>
1.8634

> <Gold.PLP.ligand.clash>
0.0000

> <Gold.PLP.ligand.torsion>
0.0290

> <Gold.PLP.Chemscore.Hbond>
1.7440

> <Gold.PLP.Chemscore.CHOScore>
0.0000

> <Gold.PLP.Chemscore.Metal>
0.0000

> <Gold.Chemscore.Hbonds>
donor molecule, donor type, donor heavy atom, donor atom, acceptor molecule, acceptor atom, score
      P1  H  7989  7998       L1     9  0.99
      P1  H  8011  8017       L1    18  0.72

> <Gold.PLP.Chemscore.Internal.Correction>
0.0080

> <Gold.Rescore>
     Score         DG    S(hbond)    S(metal)    S(lipo)     H(rot)  DE(clash)    DE(int)     intcor
     16.67     -17.82       1.61        0.00      95.62       1.65       0.47       0.68       ----

> <Gold.Chemscore.Fitness>
16.6724

> <Gold.Chemscore.DG>
-17.8240

> <Gold.Chemscore.ZeroCoef>
-5.4800

> <Gold.Chemscore.Hbond>
1.6146

> <Gold.Chemscore.Metal>
0.0000

> <Gold.Chemscore.Lipo>
95.6221

> <Gold.Chemscore.Internal_Hbond>
0.0000

> <Gold.Chemscore.DEClash>
0.4697

> <Gold.Chemscore.DEInternal>
0.6820

> <Gold.Chemscore.Rot>
1.6549

> <Gold.Chemscore.Internal.Correction>
   9.000000E+99

> <Gold.Chemscore.Hbonds>
donor molecule, donor type, donor heavy atom, donor atom, acceptor molecule, acceptor atom, score
      P1  H  7989  7998       L1     9  0.88
      P1  H  8011  8017       L1    18  0.70

> <Gold.Chemscore.Hbond.Weighted>
-5.3927

> <Gold.Chemscore.Metal.Weighted>
-0.0000

> <Gold.Chemscore.Lipo.Weighted>
-11.1878

> <Gold.Chemscore.Internal_Hbond.Weighted>
0.0000

> <Gold.Chemscore.DEClash.Weighted>
0.4697

> <Gold.Chemscore.DEInternal.Weighted>
0.6820

> <Gold.Chemscore.Rot.Weighted>
4.2364

> <Gold.Chemscore.Internal.Correction.Weighted>
   9.000000E+99

> <Gold.Protein.RotatedTorsions>
[ 6907 6896 6895 6894 ] final  108.51 input  -60.11 | X-H torsion
[ 7974 7965 7964 7962 ] final  -61.08 input  175.53 | X-H torsion
[ 8008 7997 7996 7995 ] final -109.28 input   59.86 | X-H torsion
[ 10167 10162 10161 10158 ] final   22.30 input  -65.29 | X-H torsion
[ 10718 10713 10712 10709 ] final   56.84 input   66.30 | X-H torsion
[ 10763 10752 10751 10750 ] final  -47.31 input  -60.55 | X-H torsion
[ 11005 11000 10999 10996 ] final   38.40 input  -57.11 | X-H torsion

> <Gold.Protein.ActiveResidues>
 VAL166  LYS551  ARG553  GLY616  TRP617  ASP618  TYR619  PRO620  LYS621  CYS622 
 ASP623  PHE694  ASN695  SER759  ASP760  ASP761  ALA762  ILE779  LEU786  VAL792 
 PHE793  MET794  SER795  GLU796  ALA797  LYS798  CYS799  TRP800  GLU811  SER814 

> <Gold.Protein.RotatedAtoms>
  152.5109  133.9078  159.7472 H   0  0  0  0  0  0  0  0  0  0  0  0  # atno 6907 bound_to 6896
  150.9479  133.6574  159.2784 H   0  0  0  0  0  0  0  0  0  0  0  0  # atno 6908 bound_to 6896
  151.3863  135.0953  159.9565 H   0  0  0  0  0  0  0  0  0  0  0  0  # atno 6909 bound_to 6896
  145.8077  140.8617  143.0198 H   0  0  0  0  0  0  0  0  0  0  0  0  # atno 7974 bound_to 7965
  154.9570  140.0400  157.2171 H   0  0  0  0  0  0  0  0  0  0  0  0  # atno 8008 bound_to 7997
  154.7925  140.2838  155.5959 H   0  0  0  0  0  0  0  0  0  0  0  0  # atno 8009 bound_to 7997
  156.2951  140.2570  156.2775 H   0  0  0  0  0  0  0  0  0  0  0  0  # atno 8010 bound_to 7997
  140.5359  143.9761  150.6491 H   0  0  0  0  0  0  0  0  0  0  0  0  # atno 10167 bound_to 10162
  157.5464  130.8734  149.8898 H   0  0  0  0  0  0  0  0  0  0  0  0  # atno 10718 bound_to 10713
  154.0592  135.6620  153.4810 H   0  0  0  0  0  0  0  0  0  0  0  0  # atno 10763 bound_to 10752
  153.0433  135.5131  154.7675 H   0  0  0  0  0  0  0  0  0  0  0  0  # atno 10764 bound_to 10752
  154.6706  135.3029  154.9713 H   0  0  0  0  0  0  0  0  0  0  0  0  # atno 10765 bound_to 10752
  140.2130  134.3732  155.8040 H   0  0  0  0  0  0  0  0  0  0  0  0  # atno 11005 bound_to 11000
  144.6761  140.0351  143.7482 LP  0  0  0  0  0  0  0  0  0  0  0  0  # atno 17320 bound_to 7965
  145.9810  139.2941  143.1042 LP  0  0  0  0  0  0  0  0  0  0  0  0  # atno 17321 bound_to 7965
  140.3149  143.3174  152.0842 LP  0  0  0  0  0  0  0  0  0  0  0  0  # atno 17342 bound_to 10162
  139.4971  144.6612  151.6460 LP  0  0  0  0  0  0  0  0  0  0  0  0  # atno 17343 bound_to 10162
  156.0539  130.3712  150.1136 LP  0  0  0  0  0  0  0  0  0  0  0  0  # atno 17370 bound_to 10713
  156.9312  130.9714  151.3532 LP  0  0  0  0  0  0  0  0  0  0  0  0  # atno 17371 bound_to 10713
  141.2225  133.7153  156.8450 LP  0  0  0  0  0  0  0  0  0  0  0  0  # atno 17394 bound_to 11000
  140.1930  134.8952  157.3082 LP  0  0  0  0  0  0  0  0  0  0  0  0  # atno 17395 bound_to 11000

$$$$
