#       Name:                AV-unprocessed.smi:1773
#       Creating user name   scv26
#       Creation time:       Fri Mar 27 08:40:10 2020


#       File generated by GOLD software.
#

@<TRIPOS>MOLECULE
AV-unprocessed.smi:1773
    45    46     1
SMALL
NO_CHARGES


@<TRIPOS>ATOM
      1 ****        -4.5126  -0.4357   1.0649 C.3            1 S1                 0.0000
      2 ****        -4.1648   1.0438   1.0296 C.ar           1 S1                 0.0000
      3 ****        -5.2045   1.9959   0.9683 C.ar           1 S1                 0.0000
      4 ****        -4.8814   3.3632   0.9356 C.ar           1 S1                 0.0000
      5 ****        -3.5231   3.7227   0.9652 C.ar           1 S1                 0.0000
      6 ****        -2.5232   2.8196   1.0240 N.ar           1 S1                 0.0000
      7 ****        -2.8179   1.4955   1.0567 C.ar           1 S1                 0.0000
      8 ****        -1.8156   0.4866   1.1211 N.am           1 S1                 0.0000
      9 ****        -0.4793   0.6332   1.1550 C.2            1 S1                 0.0000
     10 ****         0.1218   1.7073   1.1197 O.2            1 S1                 0.0000
     11 ****         0.1337  -0.5576   1.2247 N.am           1 S1                 0.0000
     12 ****         1.5790  -0.7742   1.2727 C.3            1 S1                 0.0000
     13 ****         2.1723  -1.2395  -0.0806 C.3            1 S1                 0.0000
     14 ****         1.7018  -2.5578  -0.3001 O.3            1 S1                 0.0000
     15 ****         1.7551  -0.3419  -1.2739 C.3            1 S1                 0.0000
     16 ****         2.4566  -0.7227  -2.5902 C.3            1 S1                 0.0000
     17 ****         3.9827  -0.7441  -2.4297 C.3            1 S1                 0.0000
     18 ****         4.4007  -1.6895  -1.2955 C.3            1 S1                 0.0000
     19 ****         3.7147  -1.3096   0.0290 C.3            1 S1                 0.0000
     20 ****        -5.5919  -0.5906   1.0519 H              1 S1                 0.0000
     21 ****        -4.1189  -0.8995   1.9699 H              1 S1                 0.0000
     22 ****        -4.0899  -0.9476   0.2000 H              1 S1                 0.0000
     23 ****        -6.2389   1.6854   0.9465 H              1 S1                 0.0000
     24 ****        -5.6538   4.1165   0.8890 H              1 S1                 0.0000
     25 ****        -3.2305   4.7620   0.9418 H              1 S1                 0.0000
     26 ****        -2.1599  -0.4615   1.1493 H              1 S1                 0.0000
     27 ****        -0.4420  -1.3866   1.2388 H              1 S1                 0.0000
     28 ****         2.0798   0.1387   1.5995 H              1 S1                 0.0000
     29 ****         1.7852  -1.5128   2.0485 H              1 S1                 0.0000
     30 ****         2.0755  -2.8768  -1.1073 H              1 S1                 0.0000
     31 ****         0.6760  -0.3790  -1.4265 H              1 S1                 0.0000
     32 ****         1.9923   0.6967  -1.0385 H              1 S1                 0.0000
     33 ****         2.1100  -1.7016  -2.9238 H              1 S1                 0.0000
     34 ****         2.1778  -0.0170  -3.3732 H              1 S1                 0.0000
     35 ****         4.4514  -1.0534  -3.3644 H              1 S1                 0.0000
     36 ****         4.3439   0.2635  -2.2200 H              1 S1                 0.0000
     37 ****         4.1516  -2.7172  -1.5625 H              1 S1                 0.0000
     38 ****         5.4835  -1.6604  -1.1709 H              1 S1                 0.0000
     39 ****         4.0956  -0.3377   0.3464 H              1 S1                 0.0000
     40 ****         4.0073  -2.0145   0.8085 H              1 S1                 0.0000
     41 ****        -1.5708   3.1238   1.0434 LP             1 S1                 0.0000
     42 ****        -0.3895   2.5647   1.0609 LP             1 S1                 0.0000
     43 ****         1.1212   1.7221   1.1498 LP             1 S1                 0.0000
     44 ****         0.7041  -2.5536  -0.3681 LP             1 S1                 0.0000
     45 ****         1.9817  -3.1471   0.4579 LP             1 S1                 0.0000
@<TRIPOS>BOND
    1    1    2 1     
    2    1   20 1     
    3    1   21 1     
    4    1   22 1     
    5    2    7 ar    
    6    2    3 ar    
    7    3    4 ar    
    8    3   23 1     
    9    4    5 ar    
   10    4   24 1     
   11    5    6 ar    
   12    5   25 1     
   13    6    7 ar    
   14    7    8 1     
   15    8    9 am    
   16    8   26 1     
   17    9   10 2     
   18    9   11 am    
   19   11   12 1     
   20   11   27 1     
   21   12   13 1     
   22   12   28 1     
   23   12   29 1     
   24   13   19 1     
   25   13   14 1     
   26   13   15 1     
   27   14   30 1     
   28   15   16 1     
   29   15   31 1     
   30   15   32 1     
   31   16   17 1     
   32   16   33 1     
   33   16   34 1     
   34   17   18 1     
   35   17   35 1     
   36   17   36 1     
   37   18   19 1     
   38   18   37 1     
   39   18   38 1     
   40   19   39 1     
   41   19   40 1     
   42    6   41 1     
   43   10   42 1     
   44   10   43 1     
   45   14   44 1     
   46   14   45 1     
@<TRIPOS>SUBSTRUCTURE
      1 S1             1
@<TRIPOS>SET
LONE_PAIRS      STATIC     ATOMS    <user>   **** ""
5 41 42 43 44 45
DONOR_HYDROGENS      STATIC     ATOMS    <user>   **** ""
3 26 27 30
ATOM$BLUE        STATIC     ATOMS    COLORGROUP SYSTEM
5 41 42 43 44 45
ATOM$RED        STATIC     ATOMS    COLORGROUP SYSTEM
3 26 27 30
