AV-unprocessed.smi:2874|AV-procd|sdf|11038|dock8
  -GOLD-   2272015503D 1   1.00000     0.00000
 Structure written by MMmdl.
 39 41  0  0  0  0  0  0  0  0  1 V2000
  153.9883  136.0003  164.0019 C   0  0  0  0  0  0  0  0  0  0  0  0
  154.6217  137.2075  163.6177 O   0  0  0  0  0  0  0  0  0  0  0  0
  154.0990  137.7357  162.4093 C   0  0  0  0  0  0  0  0  0  0  0  0
  154.6495  139.1507  162.1835 C   0  0  0  0  0  0  0  0  0  0  0  0
  154.1697  139.7322  160.9380 N   0  0  0  0  0  0  0  0  0  0  0  0
  154.1468  139.1627  159.7073 C   0  0  0  0  0  0  0  0  0  0  0  0
  154.7333  137.5161  159.4415 S   0  0  0  0  0  0  0  0  0  0  0  0
  154.3116  137.3212  157.6839 C   0  0  0  0  0  0  0  0  0  0  0  0
  155.5673  137.0400  156.8831 C   0  0  0  0  0  0  0  0  0  0  0  0
  156.3099  138.0983  156.5402 N   0  0  0  0  0  0  0  0  0  0  0  0
  157.4302  137.8522  155.8273 C   0  0  0  0  0  0  0  0  0  0  0  0
  157.8015  136.5440  155.4565 C   0  0  0  0  0  0  0  0  0  0  0  0
  156.9386  135.5098  155.8719 C   0  0  0  0  0  0  0  0  0  0  0  0
  157.2115  134.1824  155.5525 N   0  0  0  0  0  0  0  0  0  0  0  0
  155.8213  135.7606  156.5871 N   0  0  0  0  0  0  0  0  0  0  0  0
  153.6450  139.9250  158.7335 N   0  0  0  0  0  0  0  0  0  0  0  0
  153.3136  141.0917  159.3927 C   0  0  0  0  0  0  0  0  0  0  0  0
  152.7367  142.2874  158.9092 C   0  0  0  0  0  0  0  0  0  0  0  0
  152.4838  143.3631  159.7857 C   0  0  0  0  0  0  0  0  0  0  0  0
  151.7788  144.8163  159.1795 Cl  0  0  0  0  0  0  0  0  0  0  0  0
  152.8031  143.2573  161.1552 C   0  0  0  0  0  0  0  0  0  0  0  0
  153.3787  142.0742  161.6570 C   0  0  0  0  0  0  0  0  0  0  0  0
  153.6297  141.0043  160.7771 C   0  0  0  0  0  0  0  0  0  0  0  0
  154.4345  135.6309  164.9251 H   0  0  0  0  0  0  0  0  0  0  0  0
  154.1084  135.2307  163.2384 H   0  0  0  0  0  0  0  0  0  0  0  0
  152.9234  136.1546  164.1802 H   0  0  0  0  0  0  0  0  0  0  0  0
  154.3777  137.0942  161.5722 H   0  0  0  0  0  0  0  0  0  0  0  0
  153.0089  137.7603  162.4523 H   0  0  0  0  0  0  0  0  0  0  0  0
  154.3556  139.8008  163.0080 H   0  0  0  0  0  0  0  0  0  0  0  0
  155.7395  139.1404  162.1810 H   0  0  0  0  0  0  0  0  0  0  0  0
  153.5926  136.5096  157.5625 H   0  0  0  0  0  0  0  0  0  0  0  0
  153.8424  138.2340  157.3144 H   0  0  0  0  0  0  0  0  0  0  0  0
  158.0326  138.7039  155.5490 H   0  0  0  0  0  0  0  0  0  0  0  0
  158.6970  136.3510  154.8846 H   0  0  0  0  0  0  0  0  0  0  0  0
  158.0286  133.9244  155.0186 H   0  0  0  0  0  0  0  0  0  0  0  0
  156.5927  133.4363  155.8357 H   0  0  0  0  0  0  0  0  0  0  0  0
  152.4876  142.3761  157.8621 H   0  0  0  0  0  0  0  0  0  0  0  0
  152.6054  144.0838  161.8220 H   0  0  0  0  0  0  0  0  0  0  0  0
  153.6220  141.9891  162.7057 H   0  0  0  0  0  0  0  0  0  0  0  0
  1  2  1  0  0  0  0
  1 24  1  0  0  0  0
  1 25  1  0  0  0  0
  1 26  1  0  0  0  0
  2  3  1  0  0  0  0
  3  4  1  0  0  0  0
  3 27  1  0  0  0  0
  3 28  1  0  0  0  0
  4  5  1  0  0  0  0
  4 29  1  0  0  0  0
  4 30  1  0  0  0  0
  5 23  1  0  0  0  0
  5  6  1  0  0  0  0
  6  7  1  0  0  0  0
  6 16  2  0  0  0  0
  7  8  1  0  0  0  0
  8  9  1  0  0  0  0
  8 31  1  0  0  0  0
  8 32  1  0  0  0  0
  9 15  1  0  0  0  0
  9 10  2  0  0  0  0
 10 11  1  0  0  0  0
 11 12  2  0  0  0  0
 11 33  1  0  0  0  0
 12 13  1  0  0  0  0
 12 34  1  0  0  0  0
 13 14  1  0  0  0  0
 13 15  2  0  0  0  0
 14 35  1  0  0  0  0
 14 36  1  0  0  0  0
 16 17  1  0  0  0  0
 17 23  2  0  0  0  0
 17 18  1  0  0  0  0
 18 19  2  0  0  0  0
 18 37  1  0  0  0  0
 19 20  1  0  0  0  0
 19 21  1  0  0  0  0
 21 22  2  0  0  0  0
 21 38  1  0  0  0  0
 22 23  1  0  0  0  0
 22 39  1  0  0  0  0
M  END
> <s_m_source_file>
AV-unprocessed.smi

> <i_m_source_file_index>
2874

> <i_lp_mmshare_version>
43012

> <i_f3d_flags>
0

> <s_epik_input>
W2NIXTFjKENsKVtjSF1bY0hdYyhjMTIpbihbQ0gyXVtDSDJdT1tDSDNdKWMobjIpU1tDSDJdYzNuW2NIXVtjSF1jKG4zKVtOSDJd

> <s_epik_cmdline>
J2VwaWtfcHl0aG9uJywgJy1waCcsICc3LjAnLCAnLXRuJywgJzgnLCAnLW1hJywgJzIwMCcsICctbWV0YWxfYmluZGluZycsICctaW1hZScsICc8aW5maWxlLm1hZT4nLCAnLW9tYWUnLCAnPG91dGZpbGUubWFlPic=

> <r_lp_tautomer_probability>
1

> <r_epik_Ionization_Penalty>
0.0126717

> <r_epik_Ionization_Penalty_Charging>
0

> <r_epik_Ionization_Penalty_Neutral>
0.0126717

> <r_epik_State_Penalty>
0.00687269

> <r_epik_Charging_Adjusted_Penalty>
0.00687269

> <i_epik_Tot_Q>
0

> <i_epik_Tot_abs_Q>
0

> <r_epik_Metal_State_Penalty>
0.00678378

> <b_epik_Metal_Only>
0

> <s_lp_Force_Field>
OPLS_2005

> <r_lp_Energy>
1.60018

> <b_lp_Chiralities_Consistent>
1

> <s_lp_Variant>
AV-unprocessed.smi:2874-1

> <Gold.Version>
5.8.1

> <Gold.Id.Protein>
6NUR|6NUR_protein|mol2

> <Gold.PLP.Fitness>
49.3573

> <Gold.PLP.PLP>
-44.5616

> <Gold.PLP.part.hbond>
-3.0000

> <Gold.PLP.part.metal>
0.0000

> <Gold.PLP.part.buried>
-5.0198

> <Gold.PLP.part.nonpolar>
-36.9903

> <Gold.PLP.part.repulsive>
0.1608

> <Gold.PLP.ligand.clash>
0.0000

> <Gold.PLP.ligand.torsion>
0.8591

> <Gold.PLP.Chemscore.Hbond>
2.1659

> <Gold.PLP.Chemscore.CHOScore>
0.0000

> <Gold.PLP.Chemscore.Metal>
0.0000

> <Gold.Chemscore.Hbonds>
donor molecule, donor type, donor heavy atom, donor atom, acceptor molecule, acceptor atom, score
      P1  H  7997  8009       L1    10  0.15
      P1  H  7997  8010       L1    16  1.00
      P1  H 10752 10765       L1    15  1.00

> <Gold.PLP.Chemscore.Internal.Correction>
0.0163

> <Gold.Rescore>
     Score         DG    S(hbond)    S(metal)    S(lipo)     H(rot)  DE(clash)    DE(int)     intcor
     17.18     -18.05       1.36        0.00     122.09       2.44       0.16       0.71       ----

> <Gold.Chemscore.Fitness>
17.1757

> <Gold.Chemscore.DG>
-18.0470

> <Gold.Chemscore.ZeroCoef>
-5.4800

> <Gold.Chemscore.Hbond>
1.3578

> <Gold.Chemscore.Metal>
0.0000

> <Gold.Chemscore.Lipo>
122.0936

> <Gold.Chemscore.Internal_Hbond>
0.0000

> <Gold.Chemscore.DEClash>
0.1587

> <Gold.Chemscore.DEInternal>
0.7126

> <Gold.Chemscore.Rot>
2.4426

> <Gold.Chemscore.Internal.Correction>
   9.000000E+99

> <Gold.Chemscore.Hbonds>
donor molecule, donor type, donor heavy atom, donor atom, acceptor molecule, acceptor atom, score
      P1  H  7997  8009       L1    10  0.04
      P1  H  7997  8010       L1    16  0.85
      P1  H 10752 10765       L1    15  0.13

> <Gold.Chemscore.Hbond.Weighted>
-4.5352

> <Gold.Chemscore.Metal.Weighted>
-0.0000

> <Gold.Chemscore.Lipo.Weighted>
-14.2849

> <Gold.Chemscore.Internal_Hbond.Weighted>
0.0000

> <Gold.Chemscore.DEClash.Weighted>
0.1587

> <Gold.Chemscore.DEInternal.Weighted>
0.7126

> <Gold.Chemscore.Rot.Weighted>
6.2531

> <Gold.Chemscore.Internal.Correction.Weighted>
   9.000000E+99

> <Gold.Protein.RotatedTorsions>
[ 6907 6896 6895 6894 ] final   35.45 input  -60.11 | X-H torsion
[ 7974 7965 7964 7962 ] final  -16.14 input  175.53 | X-H torsion
[ 8008 7997 7996 7995 ] final   23.80 input   59.86 | X-H torsion
[ 10167 10162 10161 10158 ] final  111.03 input  -65.29 | X-H torsion
[ 10718 10713 10712 10709 ] final   -0.90 input   66.30 | X-H torsion
[ 10763 10752 10751 10750 ] final  -70.35 input  -60.55 | X-H torsion
[ 11005 11000 10999 10996 ] final  -97.25 input  -57.11 | X-H torsion

> <Gold.Protein.ActiveResidues>
 VAL166  LYS551  ARG553  GLY616  TRP617  ASP618  TYR619  PRO620  LYS621  CYS622 
 ASP623  PHE694  ASN695  SER759  ASP760  ASP761  ALA762  ILE779  LEU786  VAL792 
 PHE793  MET794  SER795  GLU796  ALA797  LYS798  CYS799  TRP800  GLU811  SER814 

> <Gold.Protein.RotatedAtoms>
  152.1163  134.9238  160.0564 H   0  0  0  0  0  0  0  0  0  0  0  0  # atno 6907 bound_to 6896
  152.0396  133.3967  159.4339 H   0  0  0  0  0  0  0  0  0  0  0  0  # atno 6908 bound_to 6896
  150.6846  134.3350  159.4887 H   0  0  0  0  0  0  0  0  0  0  0  0  # atno 6909 bound_to 6896
  146.2001  140.3594  142.8426 H   0  0  0  0  0  0  0  0  0  0  0  0  # atno 7974 bound_to 7965
  154.9864  140.3108  155.4924 H   0  0  0  0  0  0  0  0  0  0  0  0  # atno 8008 bound_to 7997
  156.2946  140.2257  156.4907 H   0  0  0  0  0  0  0  0  0  0  0  0  # atno 8009 bound_to 7997
  154.7742  140.0450  157.1064 H   0  0  0  0  0  0  0  0  0  0  0  0  # atno 8010 bound_to 7997
  139.6642  144.7128  151.1807 H   0  0  0  0  0  0  0  0  0  0  0  0  # atno 10167 bound_to 10162
  156.8135  130.5432  149.5706 H   0  0  0  0  0  0  0  0  0  0  0  0  # atno 10718 bound_to 10713
  154.4164  135.5997  153.5983 H   0  0  0  0  0  0  0  0  0  0  0  0  # atno 10763 bound_to 10752
  152.9792  135.5941  154.4008 H   0  0  0  0  0  0  0  0  0  0  0  0  # atno 10764 bound_to 10752
  154.3827  135.2841  155.2180 H   0  0  0  0  0  0  0  0  0  0  0  0  # atno 10765 bound_to 10752
  141.1385  133.8157  157.0680 H   0  0  0  0  0  0  0  0  0  0  0  0  # atno 11005 bound_to 11000
  144.8664  140.7212  143.6074 LP  0  0  0  0  0  0  0  0  0  0  0  0  # atno 17320 bound_to 7965
  145.3513  139.1705  143.4433 LP  0  0  0  0  0  0  0  0  0  0  0  0  # atno 17321 bound_to 7965
  140.7592  143.5945  150.8762 LP  0  0  0  0  0  0  0  0  0  0  0  0  # atno 17342 bound_to 10162
  139.9605  143.6169  152.3003 LP  0  0  0  0  0  0  0  0  0  0  0  0  # atno 17343 bound_to 10162
  156.1030  130.5983  150.9925 LP  0  0  0  0  0  0  0  0  0  0  0  0  # atno 17370 bound_to 10713
  157.6493  131.0899  150.8085 LP  0  0  0  0  0  0  0  0  0  0  0  0  # atno 17371 bound_to 10713
  140.0529  134.9796  157.1168 LP  0  0  0  0  0  0  0  0  0  0  0  0  # atno 17394 bound_to 11000
  140.3963  134.2131  155.7164 LP  0  0  0  0  0  0  0  0  0  0  0  0  # atno 17395 bound_to 11000

$$$$
