AV-unprocessed.smi:2543|AV-procd|sdf|9993|dock1
  -GOLD-   2272014 43D 1   1.00000     0.00000
 Structure written by MMmdl.
 37 38  0  0  0  0  0  0  0  0  1 V2000
  145.4666  136.1489  151.0541 C   0  0  0  0  0  0  0  0  0  0  0  0
  145.6909  137.0989  151.9741 C   0  0  0  0  0  0  0  0  0  0  0  0
  146.4003  138.4095  151.6967 C   0  0  0  0  0  0  0  0  0  0  0  0
  147.6975  138.4656  152.3591 N   0  0  0  0  0  0  0  0  0  0  0  0
  148.0351  139.3433  153.3149 C   0  0  0  0  0  0  0  0  0  0  0  0
  147.2667  140.2009  153.7495 O   0  0  0  0  0  0  0  0  0  0  0  0
  149.2980  139.1445  153.7307 N   0  0  0  0  0  0  0  0  0  0  0  0
  150.0391  139.8644  154.7074 C   0  0  0  0  0  0  0  0  0  0  0  0
  151.1956  139.3764  155.3591 C   0  0  0  0  0  0  0  0  0  0  0  0
  151.8284  140.1849  156.3226 C   0  0  0  0  0  0  0  0  0  0  0  0
  151.2896  141.4583  156.6229 C   0  0  0  0  0  0  0  0  0  0  0  0
  151.9078  142.2843  157.5874 N   0  0  0  0  0  0  0  0  0  0  0  0
  152.0334  141.7141  158.9267 C   0  0  0  0  0  0  0  0  0  0  0  0
  152.9837  142.5661  159.7858 C   0  0  0  0  0  0  0  0  0  0  0  0
  152.5396  143.9185  159.8008 O   0  0  0  0  0  0  0  0  0  0  0  0
  152.5354  144.4877  158.4961 C   0  0  0  0  0  0  0  0  0  0  0  0
  151.5664  143.7060  157.5931 C   0  0  0  0  0  0  0  0  0  0  0  0
  150.1783  141.9200  155.9988 N   0  0  0  0  0  0  0  0  0  0  0  0
  149.5742  141.1419  155.0768 C   0  0  0  0  0  0  0  0  0  0  0  0
  145.7937  136.2701  150.0318 H   0  0  0  0  0  0  0  0  0  0  0  0
  144.9525  135.2354  151.3137 H   0  0  0  0  0  0  0  0  0  0  0  0
  145.3477  136.9434  152.9867 H   0  0  0  0  0  0  0  0  0  0  0  0
  146.5101  138.5689  150.6226 H   0  0  0  0  0  0  0  0  0  0  0  0
  145.7844  139.2248  152.0760 H   0  0  0  0  0  0  0  0  0  0  0  0
  148.3879  137.7898  152.0663 H   0  0  0  0  0  0  0  0  0  0  0  0
  149.7756  138.3519  153.3273 H   0  0  0  0  0  0  0  0  0  0  0  0
  151.6061  138.4009  155.1519 H   0  0  0  0  0  0  0  0  0  0  0  0
  152.7217  139.8224  156.8088 H   0  0  0  0  0  0  0  0  0  0  0  0
  151.0453  141.6795  159.3875 H   0  0  0  0  0  0  0  0  0  0  0  0
  152.4056  140.6911  158.8992 H   0  0  0  0  0  0  0  0  0  0  0  0
  153.0041  142.1883  160.8081 H   0  0  0  0  0  0  0  0  0  0  0  0
  154.0052  142.5112  159.4062 H   0  0  0  0  0  0  0  0  0  0  0  0
  152.2256  145.5306  158.5642 H   0  0  0  0  0  0  0  0  0  0  0  0
  153.5447  144.4819  158.0811 H   0  0  0  0  0  0  0  0  0  0  0  0
  151.6128  144.1103  156.5810 H   0  0  0  0  0  0  0  0  0  0  0  0
  150.5426  143.8304  157.9485 H   0  0  0  0  0  0  0  0  0  0  0  0
  148.6901  141.5580  154.6162 H   0  0  0  0  0  0  0  0  0  0  0  0
  1  2  2  0  0  0  0
  1 20  1  0  0  0  0
  1 21  1  0  0  0  0
  2  3  1  0  0  0  0
  2 22  1  0  0  0  0
  3  4  1  0  0  0  0
  3 23  1  0  0  0  0
  3 24  1  0  0  0  0
  4  5  1  0  0  0  0
  4 25  1  0  0  0  0
  5  6  2  0  0  0  0
  5  7  1  0  0  0  0
  7  8  1  0  0  0  0
  7 26  1  0  0  0  0
  8 19  1  0  0  0  0
  8  9  2  0  0  0  0
  9 10  1  0  0  0  0
  9 27  1  0  0  0  0
 10 11  2  0  0  0  0
 10 28  1  0  0  0  0
 11 12  1  0  0  0  0
 11 18  1  0  0  0  0
 12 17  1  0  0  0  0
 12 13  1  0  0  0  0
 13 14  1  0  0  0  0
 13 29  1  0  0  0  0
 13 30  1  0  0  0  0
 14 15  1  0  0  0  0
 14 31  1  0  0  0  0
 14 32  1  0  0  0  0
 15 16  1  0  0  0  0
 16 17  1  0  0  0  0
 16 33  1  0  0  0  0
 16 34  1  0  0  0  0
 17 35  1  0  0  0  0
 17 36  1  0  0  0  0
 18 19  2  0  0  0  0
 19 37  1  0  0  0  0
M  END
> <s_m_source_file>
AV-unprocessed.smi

> <i_m_source_file_index>
2543

> <i_lp_mmshare_version>
43012

> <i_f3d_flags>
0

> <s_epik_input>
W0NIMl09W0NIXVtDSDJdW05IXUMoPU8pW05IXWMxW2NIXVtjSF1jKG5bY0hdMSlOMltDSDJdW0NIMl1PW0NIMl1bQ0gyXTI=

> <s_epik_cmdline>
J2VwaWtfcHl0aG9uJywgJy1waCcsICc3LjAnLCAnLXRuJywgJzgnLCAnLW1hJywgJzIwMCcsICctbWV0YWxfYmluZGluZycsICctaW1hZScsICc8aW5maWxlLm1hZT4nLCAnLW9tYWUnLCAnPG91dGZpbGUubWFlPic=

> <r_lp_tautomer_probability>
1

> <r_epik_Ionization_Penalty>
0.00651682

> <r_epik_Ionization_Penalty_Charging>
0

> <r_epik_Ionization_Penalty_Neutral>
0.00651682

> <r_epik_State_Penalty>
0.00479503

> <r_epik_Charging_Adjusted_Penalty>
0.00479503

> <i_epik_Tot_Q>
0

> <i_epik_Tot_abs_Q>
0

> <r_epik_Metal_State_Penalty>
-0

> <b_epik_Metal_Only>
0

> <s_lp_Force_Field>
OPLS_2005

> <r_lp_Energy>
19.3567

> <b_lp_Chiralities_Consistent>
1

> <s_lp_Variant>
AV-unprocessed.smi:2543-1

> <Gold.Version>
5.8.1

> <Gold.Id.Protein>
6NUR|6NUR_protein|mol2

> <Gold.PLP.Fitness>
42.5615

> <Gold.PLP.PLP>
-39.9021

> <Gold.PLP.part.hbond>
-3.0000

> <Gold.PLP.part.metal>
0.0000

> <Gold.PLP.part.buried>
-0.8067

> <Gold.PLP.part.nonpolar>
-37.7402

> <Gold.PLP.part.repulsive>
0.9835

> <Gold.PLP.ligand.clash>
0.0000

> <Gold.PLP.ligand.torsion>
0.3502

> <Gold.PLP.Chemscore.Hbond>
1.0000

> <Gold.PLP.Chemscore.CHOScore>
0.0000

> <Gold.PLP.Chemscore.Metal>
0.0000

> <Gold.Chemscore.Hbonds>
donor molecule, donor type, donor heavy atom, donor atom, acceptor molecule, acceptor atom, score
      L1  H     4    25       P1  7948  1.00

> <Gold.PLP.Chemscore.Internal.Correction>
0.3599

> <Gold.Rescore>
     Score         DG    S(hbond)    S(metal)    S(lipo)     H(rot)  DE(clash)    DE(int)     intcor
     14.17     -15.86       1.00        0.00      90.44       1.38       0.07       1.62       ----

> <Gold.Chemscore.Fitness>
14.1652

> <Gold.Chemscore.DG>
-15.8602

> <Gold.Chemscore.ZeroCoef>
-5.4800

> <Gold.Chemscore.Hbond>
0.9994

> <Gold.Chemscore.Metal>
0.0000

> <Gold.Chemscore.Lipo>
90.4424

> <Gold.Chemscore.Internal_Hbond>
0.0000

> <Gold.Chemscore.DEClash>
0.0747

> <Gold.Chemscore.DEInternal>
1.6203

> <Gold.Chemscore.Rot>
1.3827

> <Gold.Chemscore.Internal.Correction>
   9.000000E+99

> <Gold.Chemscore.Hbonds>
donor molecule, donor type, donor heavy atom, donor atom, acceptor molecule, acceptor atom, score
      L1  H     4    25       P1  7948  0.98

> <Gold.Chemscore.Hbond.Weighted>
-3.3380

> <Gold.Chemscore.Metal.Weighted>
-0.0000

> <Gold.Chemscore.Lipo.Weighted>
-10.5818

> <Gold.Chemscore.Internal_Hbond.Weighted>
0.0000

> <Gold.Chemscore.DEClash.Weighted>
0.0747

> <Gold.Chemscore.DEInternal.Weighted>
1.6203

> <Gold.Chemscore.Rot.Weighted>
3.5396

> <Gold.Chemscore.Internal.Correction.Weighted>
   9.000000E+99

> <Gold.Protein.RotatedTorsions>
[ 6907 6896 6895 6894 ] final  156.12 input  -60.11 | X-H torsion
[ 7974 7965 7964 7962 ] final  176.99 input  175.53 | X-H torsion
[ 8008 7997 7996 7995 ] final   77.88 input   59.86 | X-H torsion
[ 10167 10162 10161 10158 ] final -135.45 input  -65.29 | X-H torsion
[ 10718 10713 10712 10709 ] final  101.07 input   66.30 | X-H torsion
[ 10763 10752 10751 10750 ] final -111.30 input  -60.55 | X-H torsion
[ 11005 11000 10999 10996 ] final  163.11 input  -57.11 | X-H torsion

> <Gold.Protein.ActiveResidues>
 VAL166  LYS551  ARG553  GLY616  TRP617  ASP618  TYR619  PRO620  LYS621  CYS622 
 ASP623  PHE694  ASN695  SER759  ASP760  ASP761  ALA762  ILE779  LEU786  VAL792 
 PHE793  MET794  SER795  GLU796  ALA797  LYS798  CYS799  TRP800  GLU811  SER814 

> <Gold.Protein.RotatedAtoms>
  152.0342  133.3950  159.4309 H   0  0  0  0  0  0  0  0  0  0  0  0  # atno 6907 bound_to 6896
  150.6880  134.3486  159.4908 H   0  0  0  0  0  0  0  0  0  0  0  0  # atno 6908 bound_to 6896
  152.1277  134.9158  160.0611 H   0  0  0  0  0  0  0  0  0  0  0  0  # atno 6909 bound_to 6896
  144.7175  140.0180  143.6440 H   0  0  0  0  0  0  0  0  0  0  0  0  # atno 7974 bound_to 7965
  155.8478  140.3459  155.5674 H   0  0  0  0  0  0  0  0  0  0  0  0  # atno 8008 bound_to 7997
  155.8070  140.0893  157.1945 H   0  0  0  0  0  0  0  0  0  0  0  0  # atno 8009 bound_to 7997
  154.4007  140.1455  156.3329 H   0  0  0  0  0  0  0  0  0  0  0  0  # atno 8010 bound_to 7997
  139.8777  143.6878  152.2631 H   0  0  0  0  0  0  0  0  0  0  0  0  # atno 10167 bound_to 10162
  157.6839  131.0716  150.5196 H   0  0  0  0  0  0  0  0  0  0  0  0  # atno 10718 bound_to 10713
  154.8293  135.4532  154.1018 H   0  0  0  0  0  0  0  0  0  0  0  0  # atno 10763 bound_to 10752
  153.2305  135.6905  153.7902 H   0  0  0  0  0  0  0  0  0  0  0  0  # atno 10764 bound_to 10752
  153.7286  135.3330  155.3258 H   0  0  0  0  0  0  0  0  0  0  0  0  # atno 10765 bound_to 10752
  140.2325  134.8113  157.3331 H   0  0  0  0  0  0  0  0  0  0  0  0  # atno 11005 bound_to 11000
  146.0204  139.3246  143.0816 LP  0  0  0  0  0  0  0  0  0  0  0  0  # atno 17320 bound_to 7965
  145.8575  140.9494  143.0717 LP  0  0  0  0  0  0  0  0  0  0  0  0  # atno 17321 bound_to 7965
  139.7225  144.7600  151.0932 LP  0  0  0  0  0  0  0  0  0  0  0  0  # atno 17342 bound_to 10162
  140.7750  143.5190  150.9560 LP  0  0  0  0  0  0  0  0  0  0  0  0  # atno 17343 bound_to 10162
  156.5510  130.4231  149.6108 LP  0  0  0  0  0  0  0  0  0  0  0  0  # atno 17370 bound_to 10713
  156.2903  130.7120  151.1967 LP  0  0  0  0  0  0  0  0  0  0  0  0  # atno 17371 bound_to 10713
  140.1736  134.4577  155.7816 LP  0  0  0  0  0  0  0  0  0  0  0  0  # atno 17394 bound_to 11000
  141.2217  133.6952  156.7749 LP  0  0  0  0  0  0  0  0  0  0  0  0  # atno 17395 bound_to 11000

$$$$
