AV-unprocessed.smi:2216|AV-procd|sdf|8965|dock2
  -GOLD-   2272012183D 1   1.00000     0.00000
 Structure written by MMmdl.
 41 42  0  0  0  0  0  0  0  0  1 V2000
  145.9322  131.1514  150.9310 C   0  0  0  0  0  0  0  0  0  0  0  0
  145.4527  132.5867  150.8060 C   0  0  0  0  0  0  0  0  0  0  0  0
  146.1668  133.6219  151.3062 C   0  0  0  0  0  0  0  0  0  0  0  0
  145.7111  135.0024  151.1765 C   0  0  0  0  0  0  0  0  0  0  0  0
  146.3857  136.1324  151.6603 N   0  0  0  0  0  0  0  0  0  0  0  0
  145.8904  137.2115  152.2933 C   0  0  0  0  0  0  0  0  0  0  0  0
  144.7036  137.4247  152.5378 O   0  0  0  0  0  0  0  0  0  0  0  0
  146.8723  138.0612  152.6277 N   0  0  0  0  0  0  0  0  0  0  0  0
  146.6831  139.3349  153.3132 C   0  0  0  0  0  0  0  0  0  0  0  0
  147.9254  140.2335  153.1869 C   0  0  0  0  0  0  0  0  0  0  0  0
  148.8350  140.1754  154.4244 C   0  0  1  0  0  0  0  0  0  0  0  0
  149.7885  138.9652  154.3803 C   0  0  0  0  0  0  0  0  0  0  0  0
  150.7311  138.9769  155.5891 C   0  0  0  0  0  0  0  0  0  0  0  0
  151.4421  140.3313  155.6749 C   0  0  0  0  0  0  0  0  0  0  0  0
  150.4159  141.4752  155.6473 C   0  0  0  0  0  0  0  0  0  0  0  0
  149.6072  141.3739  154.4789 O   0  0  0  0  0  0  0  0  0  0  0  0
  144.5532  135.1969  150.5218 C   0  0  0  0  0  0  0  0  0  0  0  0
  143.8143  134.1298  150.0058 N   0  0  0  0  0  0  0  0  0  0  0  0
  144.1800  132.8320  150.1083 C   0  0  0  0  0  0  0  0  0  0  0  0
  143.4712  131.9455  149.6347 O   0  0  0  0  0  0  0  0  0  0  0  0
  142.9510  134.3552  149.5329 H   0  0  0  0  0  0  0  0  0  0  0  0
  146.8769  131.0915  151.4725 H   0  0  0  0  0  0  0  0  0  0  0  0
  146.0814  130.7126  149.9439 H   0  0  0  0  0  0  0  0  0  0  0  0
  145.1984  130.5493  151.4679 H   0  0  0  0  0  0  0  0  0  0  0  0
  147.0992  133.3907  151.7944 H   0  0  0  0  0  0  0  0  0  0  0  0
  147.3830  136.1265  151.5047 H   0  0  0  0  0  0  0  0  0  0  0  0
  147.8207  137.8107  152.3896 H   0  0  0  0  0  0  0  0  0  0  0  0
  145.7987  139.8422  152.9240 H   0  0  0  0  0  0  0  0  0  0  0  0
  146.4820  139.1254  154.3640 H   0  0  0  0  0  0  0  0  0  0  0  0
  148.4962  139.9249  152.3101 H   0  0  0  0  0  0  0  0  0  0  0  0
  147.6222  141.2659  153.0075 H   0  0  0  0  0  0  0  0  0  0  0  0
  148.2101  140.1098  155.3170 H   0  0  0  0  0  0  0  0  0  0  0  0
  149.2203  138.0346  154.3611 H   0  0  0  0  0  0  0  0  0  0  0  0
  150.3755  138.9924  153.4612 H   0  0  0  0  0  0  0  0  0  0  0  0
  150.1602  138.8027  156.5021 H   0  0  0  0  0  0  0  0  0  0  0  0
  151.4583  138.1681  155.5133 H   0  0  0  0  0  0  0  0  0  0  0  0
  152.0451  140.3847  156.5817 H   0  0  0  0  0  0  0  0  0  0  0  0
  152.1293  140.4388  154.8348 H   0  0  0  0  0  0  0  0  0  0  0  0
  149.7882  141.4568  156.5395 H   0  0  0  0  0  0  0  0  0  0  0  0
  150.9278  142.4376  155.6391 H   0  0  0  0  0  0  0  0  0  0  0  0
  144.1050  136.1646  150.3490 H   0  0  0  0  0  0  0  0  0  0  0  0
  1  2  1  0  0  0  0
  1 22  1  0  0  0  0
  1 23  1  0  0  0  0
  1 24  1  0  0  0  0
  2 19  1  0  0  0  0
  2  3  2  0  0  0  0
  3  4  1  0  0  0  0
  3 25  1  0  0  0  0
  4  5  1  0  0  0  0
  4 17  2  0  0  0  0
  5  6  1  0  0  0  0
  5 26  1  0  0  0  0
  6  7  2  0  0  0  0
  6  8  1  0  0  0  0
  8  9  1  0  0  0  0
  8 27  1  0  0  0  0
  9 10  1  0  0  0  0
  9 28  1  0  0  0  0
  9 29  1  0  0  0  0
 10 11  1  0  0  0  0
 10 30  1  0  0  0  0
 10 31  1  0  0  0  0
 11 16  1  0  0  0  0
 11 12  1  0  0  0  0
 11 32  1  0  0  0  0
 12 13  1  0  0  0  0
 12 33  1  0  0  0  0
 12 34  1  0  0  0  0
 13 14  1  0  0  0  0
 13 35  1  0  0  0  0
 13 36  1  0  0  0  0
 14 15  1  0  0  0  0
 14 37  1  0  0  0  0
 14 38  1  0  0  0  0
 15 16  1  0  0  0  0
 15 39  1  0  0  0  0
 15 40  1  0  0  0  0
 17 18  1  0  0  0  0
 17 41  1  0  0  0  0
 18 21  1  0  0  0  0
 18 19  1  0  0  0  0
 19 20  2  0  0  0  0
M  END
> <s_m_source_file>
AV-unprocessed.smi

> <i_m_source_file_index>
2216

> <i_lp_mmshare_version>
43012

> <i_f3d_flags>
0

> <s_epik_input>
Tz1jMVtuSF1bY0hdYyhbY0hdYzFbQ0gzXSlbTkhdQyg9TylbTkhdW0NIMl1bQ0gyXVtDQEBIXTJbQ0gyXVtDSDJdW0NIMl1bQ0gyXU8y

> <s_epik_cmdline>
J2VwaWtfcHl0aG9uJywgJy1waCcsICc3LjAnLCAnLXRuJywgJzgnLCAnLW1hJywgJzIwMCcsICctbWV0YWxfYmluZGluZycsICctaW1hZScsICc8aW5maWxlLm1hZT4nLCAnLW9tYWUnLCAnPG91dGZpbGUubWFlPic=

> <r_lp_tautomer_probability>
1

> <r_epik_Ionization_Penalty>
4.73984e-05

> <r_epik_Ionization_Penalty_Charging>
2.74455e-05

> <r_epik_Ionization_Penalty_Neutral>
1.99529e-05

> <r_epik_State_Penalty>
-0

> <r_epik_Charging_Adjusted_Penalty>
2.74455e-05

> <i_epik_Tot_Q>
0

> <i_epik_Tot_abs_Q>
0

> <r_epik_Metal_State_Penalty>
0.0206128

> <b_epik_Metal_Only>
0

> <s_lp_Force_Field>
OPLS_2005

> <r_lp_Energy>
17.5226

> <b_lp_Chiralities_Consistent>
1

> <s_lp_Variant>
AV-unprocessed.smi:2216-2

> <Gold.Version>
5.8.1

> <Gold.Id.Protein>
6NUR|6NUR_protein|mol2

> <Gold.PLP.Fitness>
50.1423

> <Gold.PLP.PLP>
-37.1395

> <Gold.PLP.part.hbond>
-5.7861

> <Gold.PLP.part.metal>
0.0000

> <Gold.PLP.part.buried>
-0.4673

> <Gold.PLP.part.nonpolar>
-32.2216

> <Gold.PLP.part.repulsive>
1.6231

> <Gold.PLP.ligand.clash>
0.0000

> <Gold.PLP.ligand.torsion>
0.9699

> <Gold.PLP.Chemscore.Hbond>
3.9749

> <Gold.PLP.Chemscore.CHOScore>
1.0000

> <Gold.PLP.Chemscore.Metal>
0.0000

> <Gold.Chemscore.Hbonds>
donor molecule, donor type, donor heavy atom, donor atom, acceptor molecule, acceptor atom, score
      L1  H     5    26       P1  7948  1.00
      L1  H     8    27       P1  7948  0.85
      L1  H    18    21       P1 10186  0.99
      P1  H  7989  7998       L1    16  0.02
      P1  H  8011  8017       L1    16  0.07
      P1  H 10785 10796       L1    20  1.00
      L1  C    17    41       P1 10171  1.00

> <Gold.PLP.Chemscore.Internal.Correction>
0.0179

> <Gold.Rescore>
     Score         DG    S(hbond)    S(metal)    S(lipo)     H(rot)  DE(clash)    DE(int)     intcor
     20.29     -25.11       4.03        0.00      85.31       1.50       2.72       2.09       ----

> <Gold.Chemscore.Fitness>
20.2942

> <Gold.Chemscore.DG>
-25.1065

> <Gold.Chemscore.ZeroCoef>
-5.4800

> <Gold.Chemscore.Hbond>
4.0347

> <Gold.Chemscore.Metal>
0.0000

> <Gold.Chemscore.Lipo>
85.3118

> <Gold.Chemscore.Internal_Hbond>
0.0000

> <Gold.Chemscore.DEClash>
2.7204

> <Gold.Chemscore.DEInternal>
2.0919

> <Gold.Chemscore.Rot>
1.4964

> <Gold.Chemscore.Internal.Correction>
   9.000000E+99

> <Gold.Chemscore.Hbonds>
donor molecule, donor type, donor heavy atom, donor atom, acceptor molecule, acceptor atom, score
      L1  H     5    26       P1  7948  0.97
      L1  H     8    27       P1  7948  0.80
      L1  H    18    21       P1 10186  0.93
      P1  H  8011  8017       L1    16  0.07
      P1  H 10785 10796       L1    20  0.90

> <Gold.Chemscore.Hbond.Weighted>
-13.4759

> <Gold.Chemscore.Metal.Weighted>
-0.0000

> <Gold.Chemscore.Lipo.Weighted>
-9.9815

> <Gold.Chemscore.Internal_Hbond.Weighted>
0.0000

> <Gold.Chemscore.DEClash.Weighted>
2.7204

> <Gold.Chemscore.DEInternal.Weighted>
2.0919

> <Gold.Chemscore.Rot.Weighted>
3.8308

> <Gold.Chemscore.Internal.Correction.Weighted>
   9.000000E+99

> <Gold.Protein.RotatedTorsions>
[ 6907 6896 6895 6894 ] final  128.36 input  -60.11 | X-H torsion
[ 7974 7965 7964 7962 ] final   18.45 input  175.53 | X-H torsion
[ 8008 7997 7996 7995 ] final -128.07 input   59.86 | X-H torsion
[ 10167 10162 10161 10158 ] final -109.02 input  -65.29 | X-H torsion
[ 10718 10713 10712 10709 ] final   29.55 input   66.30 | X-H torsion
[ 10763 10752 10751 10750 ] final    2.76 input  -60.55 | X-H torsion
[ 11005 11000 10999 10996 ] final -132.57 input  -57.11 | X-H torsion

> <Gold.Protein.ActiveResidues>
 VAL166  LYS551  ARG553  GLY616  TRP617  ASP618  TYR619  PRO620  LYS621  CYS622 
 ASP623  PHE694  ASN695  SER759  ASP760  ASP761  ALA762  ILE779  LEU786  VAL792 
 PHE793  MET794  SER795  GLU796  ALA797  LYS798  CYS799  TRP800  GLU811  SER814 

> <Gold.Protein.RotatedAtoms>
  152.3727  133.6440  159.6099 H   0  0  0  0  0  0  0  0  0  0  0  0  # atno 6907 bound_to 6896
  150.7680  133.9244  159.3416 H   0  0  0  0  0  0  0  0  0  0  0  0  # atno 6908 bound_to 6896
  151.7064  135.0922  160.0311 H   0  0  0  0  0  0  0  0  0  0  0  0  # atno 6909 bound_to 6896
  146.2184  139.8455  142.8632 H   0  0  0  0  0  0  0  0  0  0  0  0  # atno 7974 bound_to 7965
  155.2566  140.0434  157.2993 H   0  0  0  0  0  0  0  0  0  0  0  0  # atno 8008 bound_to 7997
  154.5736  140.2381  155.8125 H   0  0  0  0  0  0  0  0  0  0  0  0  # atno 8009 bound_to 7997
  156.2141  140.2990  155.9807 H   0  0  0  0  0  0  0  0  0  0  0  0  # atno 8010 bound_to 7997
  140.1598  143.4129  152.1434 H   0  0  0  0  0  0  0  0  0  0  0  0  # atno 10167 bound_to 10162
  157.2481  130.7101  149.6391 H   0  0  0  0  0  0  0  0  0  0  0  0  # atno 10718 bound_to 10713
  153.2917  135.6949  153.7287 H   0  0  0  0  0  0  0  0  0  0  0  0  # atno 10763 bound_to 10752
  153.6235  135.3423  155.3019 H   0  0  0  0  0  0  0  0  0  0  0  0  # atno 10764 bound_to 10752
  154.8526  135.4392  154.2001 H   0  0  0  0  0  0  0  0  0  0  0  0  # atno 10765 bound_to 10752
  140.9159  134.1508  157.4353 H   0  0  0  0  0  0  0  0  0  0  0  0  # atno 11005 bound_to 11000
  145.2855  141.0151  143.3693 LP  0  0  0  0  0  0  0  0  0  0  0  0  # atno 17320 bound_to 7965
  144.9117  139.4520  143.6583 LP  0  0  0  0  0  0  0  0  0  0  0  0  # atno 17321 bound_to 7965
  139.5386  144.7235  151.4808 LP  0  0  0  0  0  0  0  0  0  0  0  0  # atno 17342 bound_to 10162
  140.6650  143.8417  150.6931 LP  0  0  0  0  0  0  0  0  0  0  0  0  # atno 17343 bound_to 10162
  155.9667  130.4436  150.5430 LP  0  0  0  0  0  0  0  0  0  0  0  0  # atno 17370 bound_to 10713
  157.3307  131.0699  151.1862 LP  0  0  0  0  0  0  0  0  0  0  0  0  # atno 17371 bound_to 10713
  139.8766  134.9953  156.5737 LP  0  0  0  0  0  0  0  0  0  0  0  0  # atno 17394 bound_to 11000
  140.8051  133.8474  155.8760 LP  0  0  0  0  0  0  0  0  0  0  0  0  # atno 17395 bound_to 11000

$$$$
