AV-unprocessed.smi:81|AV-procd|sdf|788|dock1
  -GOLD-   2262017153D 1   1.00000     0.00000
 Structure written by MMmdl.
 64 67  0  0  0  0  0  0  0  0  2 V2000
  146.3504  141.9488  156.2920 C   0  0  0  0  0  0  0  0  0  0  0  0
  147.7067  141.7906  155.5847 C   0  0  0  0  0  0  0  0  0  0  0  0
  147.5142  141.7145  154.0638 C   0  0  0  0  0  0  0  0  0  0  0  0
  148.4792  140.5518  156.0922 C   0  0  0  0  0  0  0  0  0  0  0  0
  149.9070  140.5616  155.7603 N   0  0  0  0  0  0  0  0  0  0  0  0
  150.3989  139.3692  155.3407 C   0  0  0  0  0  0  0  0  0  0  0  0
  151.5409  139.3244  154.6049 N   0  0  0  0  0  0  0  0  0  0  0  0
  152.0342  138.1478  154.2068 C   0  0  0  0  0  0  0  0  0  0  0  0
  151.5556  136.9227  154.4339 N   0  0  0  0  0  0  0  0  0  0  0  0
  150.4165  136.9654  155.1828 C   0  0  0  0  0  0  0  0  0  0  0  0
  149.7746  138.1370  155.6705 C   0  0  0  0  0  0  0  0  0  0  0  0
  148.6393  137.7947  156.3936 N   0  0  0  0  0  0  0  0  0  0  0  0
  148.6120  136.4911  156.3384 C   0  0  0  0  0  0  0  0  0  0  0  0
  149.6459  135.9104  155.6384 N   0  0  0  0  0  0  0  0  0  0  0  0
  149.8661  134.4880  155.4314 C   0  0  0  0  0  0  0  0  0  0  0  0
  148.7035  133.7904  154.6859 C   0  0  1  0  0  0  0  0  0  0  0  0
  147.9754  134.7712  153.9646 O   0  0  0  0  0  0  0  0  0  0  0  0
  149.1485  132.7077  153.7139 C   0  0  0  0  0  0  0  0  0  0  0  0
  147.9063  131.8327  153.6021 C   0  0  0  0  0  0  0  0  0  0  0  0
  147.3248  131.8533  154.8997 O   0  0  0  0  0  0  0  0  0  0  0  0
  147.7699  132.9981  155.6266 C   0  0  2  0  0  0  0  0  0  0  0  0
  146.5817  133.7672  156.2258 C   0  0  0  0  0  0  0  0  0  0  0  0
  150.7789  141.3510  156.6421 C   0  0  2  0  0  0  0  0  0  0  0  0
  151.7109  140.4959  157.5264 C   0  0  0  0  0  0  0  0  0  0  0  0
  152.6510  141.3872  158.3537 C   0  0  0  0  0  0  0  0  0  0  0  0
  151.8796  142.3435  159.1860 N   0  3  1  0  0  0  0  0  0  0  0  0
  152.7462  143.1301  160.0898 C   0  0  0  0  0  0  0  0  0  0  0  0
  150.9908  143.2039  158.3658 C   0  0  0  0  0  0  0  0  0  0  0  0
  150.0157  142.3571  157.5310 C   0  0  0  0  0  0  0  0  0  0  0  0
  145.7137  141.0792  156.1263 H   0  0  0  0  0  0  0  0  0  0  0  0
  145.8170  142.8263  155.9254 H   0  0  0  0  0  0  0  0  0  0  0  0
  146.4722  142.0705  157.3683 H   0  0  0  0  0  0  0  0  0  0  0  0
  148.2956  142.6871  155.7823 H   0  0  0  0  0  0  0  0  0  0  0  0
  146.9268  140.8402  153.7815 H   0  0  0  0  0  0  0  0  0  0  0  0
  148.4738  141.6518  153.5495 H   0  0  0  0  0  0  0  0  0  0  0  0
  146.9983  142.5986  153.6883 H   0  0  0  0  0  0  0  0  0  0  0  0
  148.3686  140.4815  157.1751 H   0  0  0  0  0  0  0  0  0  0  0  0
  148.0250  139.6469  155.6865 H   0  0  0  0  0  0  0  0  0  0  0  0
  152.9441  138.1934  153.6267 H   0  0  0  0  0  0  0  0  0  0  0  0
  147.8355  135.9127  156.8177 H   0  0  0  0  0  0  0  0  0  0  0  0
  150.7962  134.3722  154.8733 H   0  0  0  0  0  0  0  0  0  0  0  0
  150.0315  134.0164  156.4010 H   0  0  0  0  0  0  0  0  0  0  0  0
  148.5105  135.0740  153.2469 H   0  0  0  0  0  0  0  0  0  0  0  0
  149.4902  133.0922  152.7516 H   0  0  0  0  0  0  0  0  0  0  0  0
  149.9606  132.1231  154.1485 H   0  0  0  0  0  0  0  0  0  0  0  0
  147.1986  132.2612  152.8914 H   0  0  0  0  0  0  0  0  0  0  0  0
  148.1357  130.8163  153.2814 H   0  0  0  0  0  0  0  0  0  0  0  0
  148.3653  132.6008  156.4499 H   0  0  0  0  0  0  0  0  0  0  0  0
  146.9203  134.6474  156.7727 H   0  0  0  0  0  0  0  0  0  0  0  0
  146.0274  133.1375  156.9219 H   0  0  0  0  0  0  0  0  0  0  0  0
  145.8834  134.0955  155.4556 H   0  0  0  0  0  0  0  0  0  0  0  0
  151.4231  141.9281  155.9772 H   0  0  0  0  0  0  0  0  0  0  0  0
  151.1313  139.8699  158.2063 H   0  0  0  0  0  0  0  0  0  0  0  0
  152.3021  139.8223  156.9051 H   0  0  0  0  0  0  0  0  0  0  0  0
  153.2725  140.7614  158.9954 H   0  0  0  0  0  0  0  0  0  0  0  0
  153.3263  141.9355  157.6948 H   0  0  0  0  0  0  0  0  0  0  0  0
  153.4272  143.7672  159.5238 H   0  0  0  0  0  0  0  0  0  0  0  0
  153.3403  142.4713  160.7240 H   0  0  0  0  0  0  0  0  0  0  0  0
  152.1460  143.7652  160.7420 H   0  0  0  0  0  0  0  0  0  0  0  0
  150.4252  143.8708  159.0177 H   0  0  0  0  0  0  0  0  0  0  0  0
  151.5940  143.8356  157.7119 H   0  0  0  0  0  0  0  0  0  0  0  0
  149.3998  143.0174  156.9200 H   0  0  0  0  0  0  0  0  0  0  0  0
  149.3370  141.8330  158.2041 H   0  0  0  0  0  0  0  0  0  0  0  0
  151.2777  141.7891  159.7782 H   0  0  0  0  0  0  0  0  0  0  0  0
  1  2  1  0  0  0  0
  1 30  1  0  0  0  0
  1 31  1  0  0  0  0
  1 32  1  0  0  0  0
  2  3  1  0  0  0  0
  2  4  1  0  0  0  0
  2 33  1  0  0  0  0
  3 34  1  0  0  0  0
  3 35  1  0  0  0  0
  3 36  1  0  0  0  0
  4  5  1  0  0  0  0
  4 37  1  0  0  0  0
  4 38  1  0  0  0  0
  5  6  1  0  0  0  0
  5 23  1  0  0  0  0
  6 11  1  0  0  0  0
  6  7  2  0  0  0  0
  7  8  1  0  0  0  0
  8  9  2  0  0  0  0
  8 39  1  0  0  0  0
  9 10  1  0  0  0  0
 10 14  1  0  0  0  0
 10 11  2  0  0  0  0
 11 12  1  0  0  0  0
 12 13  2  0  0  0  0
 13 14  1  0  0  0  0
 13 40  1  0  0  0  0
 14 15  1  0  0  0  0
 15 16  1  0  0  0  0
 15 41  1  0  0  0  0
 15 42  1  0  0  0  0
 16 21  1  0  0  0  0
 16 17  1  0  0  0  0
 16 18  1  0  0  0  0
 17 43  1  0  0  0  0
 18 19  1  0  0  0  0
 18 44  1  0  0  0  0
 18 45  1  0  0  0  0
 19 20  1  0  0  0  0
 19 46  1  0  0  0  0
 19 47  1  0  0  0  0
 20 21  1  0  0  0  0
 21 22  1  0  0  0  0
 21 48  1  0  0  0  0
 22 49  1  0  0  0  0
 22 50  1  0  0  0  0
 22 51  1  0  0  0  0
 23 29  1  0  0  0  0
 23 24  1  0  0  0  0
 23 52  1  0  0  0  0
 24 25  1  0  0  0  0
 24 53  1  0  0  0  0
 24 54  1  0  0  0  0
 25 26  1  0  0  0  0
 25 55  1  0  0  0  0
 25 56  1  0  0  0  0
 26 27  1  0  0  0  0
 26 28  1  0  0  0  0
 26 64  1  0  0  0  0
 27 57  1  0  0  0  0
 27 58  1  0  0  0  0
 27 59  1  0  0  0  0
 28 29  1  0  0  0  0
 28 60  1  0  0  0  0
 28 61  1  0  0  0  0
 29 62  1  0  0  0  0
 29 63  1  0  0  0  0
M  CHG  1  26   1
M  END
> <s_m_source_file>
AV-unprocessed.smi

> <i_m_source_file_index>
81

> <i_lp_mmshare_version>
43012

> <i_f3d_flags>
0

> <s_epik_input>
W0NIMl0xW0NIMl1OKFtDSDNdKVtDSDJdW0NIMl1bQ0hdMU4oW0NIMl1bQ0hdKFtDSDNdKVtDSDNdKWMobltjSF1uMiljKGMyMyluW2NIXW4zW0NIMl1bQ0BAXTQoW09IXSlbQ0gyXVtDSDJdT1tDQEhdNFtDSDNd

> <s_epik_cmdline>
J2VwaWtfcHl0aG9uJywgJy1waCcsICc3LjAnLCAnLXRuJywgJzgnLCAnLW1hJywgJzIwMCcsICctbWV0YWxfYmluZGluZycsICctaW1hZScsICc8aW5maWxlLm1hZT4nLCAnLW9tYWUnLCAnPG91dGZpbGUubWFlPic=

> <r_lp_tautomer_probability>
1

> <r_epik_Ionization_Penalty>
0.00272708

> <r_epik_Ionization_Penalty_Charging>
0.00158983

> <r_epik_Ionization_Penalty_Neutral>
0.00113725

> <r_epik_State_Penalty>
-0

> <r_epik_Charging_Adjusted_Penalty>
0.00158983

> <i_epik_Tot_Q>
1

> <i_epik_Tot_abs_Q>
1

> <r_epik_Metal_State_Penalty>
-0

> <b_epik_Metal_Only>
0

> <s_lp_Force_Field>
OPLS_2005

> <r_lp_Energy>
45.229

> <b_lp_Chiralities_Consistent>
1

> <s_lp_Variant>
AV-unprocessed.smi:81-3

> <Gold.Version>
5.8.1

> <Gold.Id.Protein>
6NUR|6NUR_protein|mol2

> <Gold.PLP.Fitness>
46.6444

> <Gold.PLP.PLP>
-41.4128

> <Gold.PLP.part.hbond>
-2.7981

> <Gold.PLP.part.metal>
0.0000

> <Gold.PLP.part.buried>
-6.5622

> <Gold.PLP.part.nonpolar>
-32.3582

> <Gold.PLP.part.repulsive>
0.4532

> <Gold.PLP.ligand.clash>
0.0114

> <Gold.PLP.ligand.torsion>
2.6243

> <Gold.PLP.Chemscore.Hbond>
2.9760

> <Gold.PLP.Chemscore.CHOScore>
0.0000

> <Gold.PLP.Chemscore.Metal>
0.0000

> <Gold.Chemscore.Hbonds>
donor molecule, donor type, donor heavy atom, donor atom, acceptor molecule, acceptor atom, score
      L1  H    17    43       P1  7948  1.00
      P1  H  7989  7998       L1     7  1.00
      P1  H 10752 10765       L1     9  1.00

> <Gold.PLP.Chemscore.Internal.Correction>
1.5636

> <Gold.Rescore>
     Score         DG    S(hbond)    S(metal)    S(lipo)     H(rot)  DE(clash)    DE(int)     intcor
     12.58     -18.30       2.59        0.00      92.15       2.58       0.52       5.21       ----

> <Gold.Chemscore.Fitness>
12.5771

> <Gold.Chemscore.DG>
-18.3044

> <Gold.Chemscore.ZeroCoef>
-5.4800

> <Gold.Chemscore.Hbond>
2.5873

> <Gold.Chemscore.Metal>
0.0000

> <Gold.Chemscore.Lipo>
92.1451

> <Gold.Chemscore.Internal_Hbond>
0.0000

> <Gold.Chemscore.DEClash>
0.5215

> <Gold.Chemscore.DEInternal>
5.2059

> <Gold.Chemscore.Rot>
2.5774

> <Gold.Chemscore.Internal.Correction>
   9.000000E+99

> <Gold.Chemscore.Hbonds>
donor molecule, donor type, donor heavy atom, donor atom, acceptor molecule, acceptor atom, score
      L1  H    17    43       P1  7948  0.81
      P1  H  7989  7998       L1     7  0.73
      P1  H 10752 10765       L1     9  0.78

> <Gold.Chemscore.Hbond.Weighted>
-8.6417

> <Gold.Chemscore.Metal.Weighted>
-0.0000

> <Gold.Chemscore.Lipo.Weighted>
-10.7810

> <Gold.Chemscore.Internal_Hbond.Weighted>
0.0000

> <Gold.Chemscore.DEClash.Weighted>
0.5215

> <Gold.Chemscore.DEInternal.Weighted>
5.2059

> <Gold.Chemscore.Rot.Weighted>
6.5982

> <Gold.Chemscore.Internal.Correction.Weighted>
   9.000000E+99

> <Gold.Protein.RotatedTorsions>
[ 6907 6896 6895 6894 ] final   67.43 input  -60.11 | X-H torsion
[ 7974 7965 7964 7962 ] final   87.96 input  175.53 | X-H torsion
[ 8008 7997 7996 7995 ] final  125.31 input   59.86 | X-H torsion
[ 10167 10162 10161 10158 ] final -116.13 input  -65.29 | X-H torsion
[ 10718 10713 10712 10709 ] final   51.13 input   66.30 | X-H torsion
[ 10763 10752 10751 10750 ] final  168.11 input  -60.55 | X-H torsion
[ 11005 11000 10999 10996 ] final    6.68 input  -57.11 | X-H torsion

> <Gold.Protein.ActiveResidues>
 VAL166  LYS551  ARG553  GLY616  TRP617  ASP618  TYR619  PRO620  LYS621  CYS622 
 ASP623  PHE694  ASN695  SER759  ASP760  ASP761  ALA762  ILE779  LEU786  VAL792 
 PHE793  MET794  SER795  GLU796  ALA797  LYS798  CYS799  TRP800  GLU811  SER814 

> <Gold.Protein.RotatedAtoms>
  152.4551  134.5309  159.9810 H   0  0  0  0  0  0  0  0  0  0  0  0  # atno 6907 bound_to 6896
  151.5372  133.3433  159.2937 H   0  0  0  0  0  0  0  0  0  0  0  0  # atno 6908 bound_to 6896
  150.8493  134.7843  159.7058 H   0  0  0  0  0  0  0  0  0  0  0  0  # atno 6909 bound_to 6896
  145.5520  139.2296  143.2507 H   0  0  0  0  0  0  0  0  0  0  0  0  # atno 7974 bound_to 7965
  156.2830  140.2719  156.1929 H   0  0  0  0  0  0  0  0  0  0  0  0  # atno 8008 bound_to 7997
  155.0440  140.0386  157.2538 H   0  0  0  0  0  0  0  0  0  0  0  0  # atno 8009 bound_to 7997
  154.7250  140.2695  155.6512 H   0  0  0  0  0  0  0  0  0  0  0  0  # atno 8010 bound_to 7997
  140.0825  143.4774  152.1917 H   0  0  0  0  0  0  0  0  0  0  0  0  # atno 10167 bound_to 10162
  157.4952  130.8401  149.8250 H   0  0  0  0  0  0  0  0  0  0  0  0  # atno 10718 bound_to 10713
  154.3638  135.2753  155.2305 H   0  0  0  0  0  0  0  0  0  0  0  0  # atno 10763 bound_to 10752
  154.4482  135.5937  153.6177 H   0  0  0  0  0  0  0  0  0  0  0  0  # atno 10764 bound_to 10752
  152.9842  135.6035  154.3861 H   0  0  0  0  0  0  0  0  0  0  0  0  # atno 10765 bound_to 10752
  140.5567  134.0231  155.7956 H   0  0  0  0  0  0  0  0  0  0  0  0  # atno 11005 bound_to 11000
  146.1910  140.6343  142.9145 LP  0  0  0  0  0  0  0  0  0  0  0  0  # atno 17320 bound_to 7965
  144.7525  140.5225  143.6792 LP  0  0  0  0  0  0  0  0  0  0  0  0  # atno 17321 bound_to 7965
  139.5771  144.7493  151.3736 LP  0  0  0  0  0  0  0  0  0  0  0  0  # atno 17342 bound_to 10162
  140.7070  143.7487  150.7500 LP  0  0  0  0  0  0  0  0  0  0  0  0  # atno 17343 bound_to 10162
  156.0196  130.3800  150.2002 LP  0  0  0  0  0  0  0  0  0  0  0  0  # atno 17370 bound_to 10713
  157.0192  130.9974  151.3344 LP  0  0  0  0  0  0  0  0  0  0  0  0  # atno 17371 bound_to 10713
  141.1139  133.9572  157.2859 LP  0  0  0  0  0  0  0  0  0  0  0  0  # atno 17394 bound_to 11000
  139.9428  135.0188  156.8760 LP  0  0  0  0  0  0  0  0  0  0  0  0  # atno 17395 bound_to 11000

$$$$
