AV-unprocessed.smi:3158|AV-procd|sdf|12041|dock3
  -GOLD-   2272017463D 1   1.00000     0.00000
 Structure written by MMmdl.
 40 40  0  0  0  0  0  0  0  0  2 V2000
  146.0310  132.4706  151.1731 C   0  0  0  0  0  0  0  0  0  0  0  0
  146.5983  133.8977  151.1575 C   0  0  0  0  0  0  0  0  0  0  0  0
  145.6458  134.9493  151.7565 C   0  0  2  0  0  0  0  0  0  0  0  0
  144.2643  134.9105  151.0846 C   0  0  0  0  0  0  0  0  0  0  0  0
  146.2261  136.2845  151.6303 N   0  0  0  0  0  0  0  0  0  0  0  0
  145.5994  137.4365  151.9151 C   0  0  0  0  0  0  0  0  0  0  0  0
  144.4364  137.4929  152.3174 O   0  0  0  0  0  0  0  0  0  0  0  0
  146.4182  138.7215  151.7232 C   0  0  2  0  0  0  0  0  0  0  0  0
  146.7474  138.9163  150.2351 C   0  0  0  0  0  0  0  0  0  0  0  0
  147.6698  138.6966  152.5127 N   0  3  0  0  0  0  0  0  0  0  0  0
  147.5501  139.1943  153.9013 C   0  0  0  0  0  0  0  0  0  0  0  0
  148.6353  140.2337  154.2192 C   0  0  0  0  0  0  0  0  0  0  0  0
  149.8530  139.6102  154.7048 N   0  0  0  0  0  0  0  0  0  0  0  0
  150.3423  138.3518  154.4242 C   0  0  0  0  0  0  0  0  0  0  0  0
  151.5256  138.2183  155.0924 C   0  0  0  0  0  0  0  0  0  0  0  0
  151.6778  139.4640  155.7632 C   0  0  0  0  0  0  0  0  0  0  0  0
  150.6763  140.2963  155.5269 N   0  0  0  0  0  0  0  0  0  0  0  0
  146.7230  131.7748  150.6986 H   0  0  0  0  0  0  0  0  0  0  0  0
  145.0859  132.4181  150.6322 H   0  0  0  0  0  0  0  0  0  0  0  0
  145.8560  132.1175  152.1897 H   0  0  0  0  0  0  0  0  0  0  0  0
  147.5500  133.9126  151.6907 H   0  0  0  0  0  0  0  0  0  0  0  0
  146.8261  134.1687  150.1258 H   0  0  0  0  0  0  0  0  0  0  0  0
  145.5157  134.7138  152.8144 H   0  0  0  0  0  0  0  0  0  0  0  0
  143.8083  133.9251  151.1837 H   0  0  0  0  0  0  0  0  0  0  0  0
  144.3331  135.1388  150.0204 H   0  0  0  0  0  0  0  0  0  0  0  0
  143.5832  135.6316  151.5373 H   0  0  0  0  0  0  0  0  0  0  0  0
  147.1834  136.3312  151.3120 H   0  0  0  0  0  0  0  0  0  0  0  0
  145.8233  139.5746  152.0548 H   0  0  0  0  0  0  0  0  0  0  0  0
  145.8409  138.9719  149.6308 H   0  0  0  0  0  0  0  0  0  0  0  0
  147.3551  138.0968  149.8482 H   0  0  0  0  0  0  0  0  0  0  0  0
  147.3008  139.8421  150.0755 H   0  0  0  0  0  0  0  0  0  0  0  0
  148.0036  137.7428  152.5391 H   0  0  0  0  0  0  0  0  0  0  0  0
  146.5621  139.6369  154.0315 H   0  0  0  0  0  0  0  0  0  0  0  0
  147.6222  138.3673  154.6089 H   0  0  0  0  0  0  0  0  0  0  0  0
  148.8647  140.8377  153.3398 H   0  0  0  0  0  0  0  0  0  0  0  0
  148.2771  140.9213  154.9863 H   0  0  0  0  0  0  0  0  0  0  0  0
  149.8161  137.6650  153.7776 H   0  0  0  0  0  0  0  0  0  0  0  0
  152.1832  137.3616  155.1006 H   0  0  0  0  0  0  0  0  0  0  0  0
  152.4815  139.7862  156.4088 H   0  0  0  0  0  0  0  0  0  0  0  0
  148.3591  139.2637  152.0405 H   0  0  0  0  0  0  0  0  0  0  0  0
  1  2  1  0  0  0  0
  1 18  1  0  0  0  0
  1 19  1  0  0  0  0
  1 20  1  0  0  0  0
  2  3  1  0  0  0  0
  2 21  1  0  0  0  0
  2 22  1  0  0  0  0
  3  4  1  0  0  0  0
  3  5  1  0  0  0  0
  3 23  1  0  0  0  0
  4 24  1  0  0  0  0
  4 25  1  0  0  0  0
  4 26  1  0  0  0  0
  5  6  1  0  0  0  0
  5 27  1  0  0  0  0
  6  7  2  0  0  0  0
  6  8  1  0  0  0  0
  8  9  1  0  0  0  0
  8 10  1  0  0  0  0
  8 28  1  0  0  0  0
  9 29  1  0  0  0  0
  9 30  1  0  0  0  0
  9 31  1  0  0  0  0
 10 11  1  0  0  0  0
 10 32  1  0  0  0  0
 10 40  1  0  0  0  0
 11 12  1  0  0  0  0
 11 33  1  0  0  0  0
 11 34  1  0  0  0  0
 12 13  1  0  0  0  0
 12 35  1  0  0  0  0
 12 36  1  0  0  0  0
 13 17  1  0  0  0  0
 13 14  1  0  0  0  0
 14 15  2  0  0  0  0
 14 37  1  0  0  0  0
 15 16  1  0  0  0  0
 15 38  1  0  0  0  0
 16 17  2  0  0  0  0
 16 39  1  0  0  0  0
M  CHG  1  10   1
M  END
> <s_m_source_file>
AV-unprocessed.smi

> <i_m_source_file_index>
3158

> <i_lp_mmshare_version>
43012

> <i_f3d_flags>
0

> <s_epik_input>
W0NIM11bQ0gyXVtDQEhdKFtDSDNdKVtOSF1DKD1PKVtDQEhdKFtDSDNdKVtOSF1bQ0gyXVtDSDJdbjFbY0hdW2NIXVtjSF1uMQ==

> <s_epik_cmdline>
J2VwaWtfcHl0aG9uJywgJy1waCcsICc3LjAnLCAnLXRuJywgJzgnLCAnLW1hJywgJzIwMCcsICctbWV0YWxfYmluZGluZycsICctaW1hZScsICc8aW5maWxlLm1hZT4nLCAnLW9tYWUnLCAnPG91dGZpbGUubWFlPic=

> <r_lp_tautomer_probability>
1

> <r_epik_Ionization_Penalty>
0.20724

> <r_epik_Ionization_Penalty_Charging>
0.207237

> <r_epik_Ionization_Penalty_Neutral>
3.33806e-06

> <r_epik_State_Penalty>
0.197234

> <r_epik_Charging_Adjusted_Penalty>
0.404471

> <i_epik_Tot_Q>
1

> <i_epik_Tot_abs_Q>
1

> <r_epik_Metal_State_Penalty>
0.197524

> <b_epik_Metal_Only>
0

> <s_lp_Force_Field>
OPLS_2005

> <r_lp_Energy>
5.42496

> <b_lp_Chiralities_Consistent>
1

> <s_lp_Variant>
AV-unprocessed.smi:3158-1

> <Gold.Version>
5.8.1

> <Gold.Id.Protein>
6NUR|6NUR_protein|mol2

> <Gold.PLP.Fitness>
46.8783

> <Gold.PLP.PLP>
-34.7174

> <Gold.PLP.part.hbond>
-4.0000

> <Gold.PLP.part.metal>
0.0000

> <Gold.PLP.part.buried>
0.7719

> <Gold.PLP.part.nonpolar>
-30.6704

> <Gold.PLP.part.repulsive>
0.2903

> <Gold.PLP.ligand.clash>
0.0000

> <Gold.PLP.ligand.torsion>
1.3736

> <Gold.PLP.Chemscore.Hbond>
3.8320

> <Gold.PLP.Chemscore.CHOScore>
1.0977

> <Gold.PLP.Chemscore.Metal>
0.0000

> <Gold.Chemscore.Hbonds>
donor molecule, donor type, donor heavy atom, donor atom, acceptor molecule, acceptor atom, score
      L1  H     5    27       P1  7948  0.91
      L1  H    10    32       P1  7948  2.00
      L1  H    10    40       P1  7957  1.00
      P1  H  7989  7998       L1    17  0.01
      L1  C    14    37       P1  7948  1.00

> <Gold.PLP.Chemscore.Internal.Correction>
0.1191

> <Gold.Rescore>
     Score         DG    S(hbond)    S(metal)    S(lipo)     H(rot)  DE(clash)    DE(int)     intcor
     14.41     -18.48       2.81        0.00      79.30       2.21       1.04       3.02       ----

> <Gold.Chemscore.Fitness>
14.4114

> <Gold.Chemscore.DG>
-18.4786

> <Gold.Chemscore.ZeroCoef>
-5.4800

> <Gold.Chemscore.Hbond>
2.8101

> <Gold.Chemscore.Metal>
0.0000

> <Gold.Chemscore.Lipo>
79.3033

> <Gold.Chemscore.Internal_Hbond>
0.0000

> <Gold.Chemscore.DEClash>
1.0441

> <Gold.Chemscore.DEInternal>
3.0230

> <Gold.Chemscore.Rot>
2.2132

> <Gold.Chemscore.Internal.Correction>
   9.000000E+99

> <Gold.Chemscore.Hbonds>
donor molecule, donor type, donor heavy atom, donor atom, acceptor molecule, acceptor atom, score
      L1  H     5    27       P1  7948  0.90
      L1  H    10    32       P1  7948  0.97
      L1  H    10    40       P1  7957  1.00

> <Gold.Chemscore.Hbond.Weighted>
-9.3859

> <Gold.Chemscore.Metal.Weighted>
-0.0000

> <Gold.Chemscore.Lipo.Weighted>
-9.2785

> <Gold.Chemscore.Internal_Hbond.Weighted>
0.0000

> <Gold.Chemscore.DEClash.Weighted>
1.0441

> <Gold.Chemscore.DEInternal.Weighted>
3.0230

> <Gold.Chemscore.Rot.Weighted>
5.6658

> <Gold.Chemscore.Internal.Correction.Weighted>
   9.000000E+99

> <Gold.Protein.RotatedTorsions>
[ 6907 6896 6895 6894 ] final  -43.57 input  -60.11 | X-H torsion
[ 7974 7965 7964 7962 ] final -149.63 input  175.53 | X-H torsion
[ 8008 7997 7996 7995 ] final  129.76 input   59.86 | X-H torsion
[ 10167 10162 10161 10158 ] final  -36.81 input  -65.29 | X-H torsion
[ 10718 10713 10712 10709 ] final   89.91 input   66.30 | X-H torsion
[ 10763 10752 10751 10750 ] final  149.87 input  -60.55 | X-H torsion
[ 11005 11000 10999 10996 ] final   84.95 input  -57.11 | X-H torsion

> <Gold.Protein.ActiveResidues>
 VAL166  LYS551  ARG553  GLY616  TRP617  ASP618  TYR619  PRO620  LYS621  CYS622 
 ASP623  PHE694  ASN695  SER759  ASP760  ASP761  ALA762  ILE779  LEU786  VAL792 
 PHE793  MET794  SER795  GLU796  ALA797  LYS798  CYS799  TRP800  GLU811  SER814 

> <Gold.Protein.RotatedAtoms>
  150.9425  134.8832  159.7620 H   0  0  0  0  0  0  0  0  0  0  0  0  # atno 6907 bound_to 6896
  152.5086  134.3922  159.9398 H   0  0  0  0  0  0  0  0  0  0  0  0  # atno 6908 bound_to 6896
  151.3942  133.3738  159.2759 H   0  0  0  0  0  0  0  0  0  0  0  0  # atno 6909 bound_to 6896
  144.7956  140.5039  143.5743 H   0  0  0  0  0  0  0  0  0  0  0  0  # atno 7974 bound_to 7965
  156.2942  140.2612  156.2651 H   0  0  0  0  0  0  0  0  0  0  0  0  # atno 8008 bound_to 7997
  154.9750  140.0390  157.2270 H   0  0  0  0  0  0  0  0  0  0  0  0  # atno 8009 bound_to 7997
  154.7824  140.2797  155.6058 H   0  0  0  0  0  0  0  0  0  0  0  0  # atno 8010 bound_to 7997
  140.7133  143.3383  151.2413 H   0  0  0  0  0  0  0  0  0  0  0  0  # atno 10167 bound_to 10162
  157.6957  131.0351  150.3498 H   0  0  0  0  0  0  0  0  0  0  0  0  # atno 10718 bound_to 10713
  154.0783  135.2861  155.3295 H   0  0  0  0  0  0  0  0  0  0  0  0  # atno 10763 bound_to 10752
  154.6701  135.5302  153.8130 H   0  0  0  0  0  0  0  0  0  0  0  0  # atno 10764 bound_to 10752
  153.0459  135.6555  154.0959 H   0  0  0  0  0  0  0  0  0  0  0  0  # atno 10765 bound_to 10752
  139.8985  134.8252  156.2515 H   0  0  0  0  0  0  0  0  0  0  0  0  # atno 11005 bound_to 11000
  145.5683  139.1482  143.3302 LP  0  0  0  0  0  0  0  0  0  0  0  0  # atno 17320 bound_to 7965
  146.2222  140.5817  142.9012 LP  0  0  0  0  0  0  0  0  0  0  0  0  # atno 17321 bound_to 7965
  139.6884  143.9734  152.2846 LP  0  0  0  0  0  0  0  0  0  0  0  0  # atno 17342 bound_to 10162
  139.9387  144.6695  150.8288 LP  0  0  0  0  0  0  0  0  0  0  0  0  # atno 17343 bound_to 10162
  156.3947  130.3904  149.7003 LP  0  0  0  0  0  0  0  0  0  0  0  0  # atno 17370 bound_to 10713
  156.4341  130.7829  151.2850 LP  0  0  0  0  0  0  0  0  0  0  0  0  # atno 17371 bound_to 10713
  141.0221  133.7035  156.1285 LP  0  0  0  0  0  0  0  0  0  0  0  0  # atno 17394 bound_to 11000
  140.7219  134.4349  157.5574 LP  0  0  0  0  0  0  0  0  0  0  0  0  # atno 17395 bound_to 11000

$$$$
