AV-unprocessed.smi:3032|AV-procd|sdf|11572|dock2
  -GOLD-   2272016533D 1   1.00000     0.00000
 Structure written by MMmdl.
 36 37  0  0  0  0  0  0  0  0  2 V2000
  152.8437  142.8629  162.4660 C   0  0  0  0  0  0  0  0  0  0  0  0
  152.1405  143.4367  161.2277 C   0  0  1  0  0  0  0  0  0  0  0  0
  152.2493  144.9719  161.1820 C   0  0  0  0  0  0  0  0  0  0  0  0
  151.5452  145.5517  159.9462 C   0  0  0  0  0  0  0  0  0  0  0  0
  152.0953  144.9361  158.6465 C   0  0  0  0  0  0  0  0  0  0  0  0
  152.0717  143.3895  158.6357 C   0  0  2  0  0  0  0  0  0  0  0  0
  150.6710  142.8125  158.3544 C   0  0  0  0  0  0  0  0  0  0  0  0
  149.7649  142.9176  159.1807 O   0  0  0  0  0  0  0  0  0  0  0  0
  150.5098  142.1984  157.1719 N   0  0  0  0  0  0  0  0  0  0  0  0
  149.2785  141.5661  156.7122 C   0  0  0  0  0  0  0  0  0  0  0  0
  149.3179  141.2846  155.2022 C   0  0  0  0  0  0  0  0  0  0  0  0
  150.0630  140.0070  154.8837 C   0  0  0  0  0  0  0  0  0  0  0  0
  151.3943  139.8217  154.9982 N   0  5  0  0  0  0  0  0  0  0  0  0
  151.7094  138.5829  154.6735 N   0  0  0  0  0  0  0  0  0  0  0  0
  150.5364  138.0163  154.3678 C   0  0  0  0  0  0  0  0  0  0  0  0
  149.5082  138.8620  154.4939 N   0  0  0  0  0  0  0  0  0  0  0  0
  152.7010  142.8176  159.9284 C   0  0  0  0  0  0  0  0  0  0  0  0
  153.9109  143.0867  162.4563 H   0  0  0  0  0  0  0  0  0  0  0  0
  152.7305  141.7796  162.5138 H   0  0  0  0  0  0  0  0  0  0  0  0
  152.4247  143.2779  163.3834 H   0  0  0  0  0  0  0  0  0  0  0  0
  151.0854  143.1755  161.3123 H   0  0  0  0  0  0  0  0  0  0  0  0
  151.8149  145.4041  162.0841 H   0  0  0  0  0  0  0  0  0  0  0  0
  153.2994  145.2676  161.1733 H   0  0  0  0  0  0  0  0  0  0  0  0
  150.4713  145.3822  160.0216 H   0  0  0  0  0  0  0  0  0  0  0  0
  151.6770  146.6337  159.9227 H   0  0  0  0  0  0  0  0  0  0  0  0
  151.5416  145.3285  157.7924 H   0  0  0  0  0  0  0  0  0  0  0  0
  153.1246  145.2702  158.5100 H   0  0  0  0  0  0  0  0  0  0  0  0
  152.7074  143.0719  157.8073 H   0  0  0  0  0  0  0  0  0  0  0  0
  151.3021  142.1547  156.5478 H   0  0  0  0  0  0  0  0  0  0  0  0
  149.0933  140.6455  157.2682 H   0  0  0  0  0  0  0  0  0  0  0  0
  148.4503  142.2379  156.9402 H   0  0  0  0  0  0  0  0  0  0  0  0
  148.3043  141.2044  154.8072 H   0  0  0  0  0  0  0  0  0  0  0  0
  149.7977  142.1090  154.6732 H   0  0  0  0  0  0  0  0  0  0  0  0
  150.4311  136.9847  154.0557 H   0  0  0  0  0  0  0  0  0  0  0  0
  153.7782  142.9860  159.8915 H   0  0  0  0  0  0  0  0  0  0  0  0
  152.5736  141.7341  159.9536 H   0  0  0  0  0  0  0  0  0  0  0  0
  1  2  1  0  0  0  0
  1 18  1  0  0  0  0
  1 19  1  0  0  0  0
  1 20  1  0  0  0  0
  2 17  1  0  0  0  0
  2  3  1  0  0  0  0
  2 21  1  0  0  0  0
  3  4  1  0  0  0  0
  3 22  1  0  0  0  0
  3 23  1  0  0  0  0
  4  5  1  0  0  0  0
  4 24  1  0  0  0  0
  4 25  1  0  0  0  0
  5  6  1  0  0  0  0
  5 26  1  0  0  0  0
  5 27  1  0  0  0  0
  6  7  1  0  0  0  0
  6 17  1  0  0  0  0
  6 28  1  0  0  0  0
  7  8  2  0  0  0  0
  7  9  1  0  0  0  0
  9 10  1  0  0  0  0
  9 29  1  0  0  0  0
 10 11  1  0  0  0  0
 10 30  1  0  0  0  0
 10 31  1  0  0  0  0
 11 32  1  0  0  0  0
 11 33  1  0  0  0  0
 11 12  1  0  0  0  0
 12 16  2  0  0  0  0
 12 13  1  0  0  0  0
 13 14  1  0  0  0  0
 14 15  2  0  0  0  0
 15 16  1  0  0  0  0
 15 34  1  0  0  0  0
 17 35  1  0  0  0  0
 17 36  1  0  0  0  0
M  CHG  1  13  -1
M  END
> <s_m_source_file>
AV-unprocessed.smi

> <i_m_source_file_index>
3032

> <i_lp_mmshare_version>
43012

> <i_f3d_flags>
0

> <s_epik_input>
W0NIM11bQ0BASF0xW0NIMl1bQ0gyXVtDSDJdW0NASF0oW0NIMl0xKUMoPU8pW05IXVtDSDJdW0NIMl1jMm5uW2NIXVtuSF0y

> <s_epik_cmdline>
J2VwaWtfcHl0aG9uJywgJy1waCcsICc3LjAnLCAnLXRuJywgJzgnLCAnLW1hJywgJzIwMCcsICctbWV0YWxfYmluZGluZycsICctaW1hZScsICc8aW5maWxlLm1hZT4nLCAnLW9tYWUnLCAnPG91dGZpbGUubWFlPic=

> <r_lp_tautomer_probability>
0.948284

> <r_epik_Ionization_Penalty>
12.042

> <r_epik_Ionization_Penalty_Charging>
12.042

> <r_epik_Ionization_Penalty_Neutral>
4.36781e-08

> <r_epik_State_Penalty>
4.67286

> <r_epik_Charging_Adjusted_Penalty>
16.7149

> <i_epik_Tot_Q>
-1

> <i_epik_Tot_abs_Q>
1

> <r_epik_Metal_State_Penalty>
0.981637

> <b_epik_Metal_Only>
1

> <s_lp_Force_Field>
OPLS_2005

> <r_lp_Energy>
8.14017

> <b_lp_Chiralities_Consistent>
1

> <s_lp_Variant>
AV-unprocessed.smi:3032-16

> <Gold.Version>
5.8.1

> <Gold.Id.Protein>
6NUR|6NUR_protein|mol2

> <Gold.PLP.Fitness>
46.3375

> <Gold.PLP.PLP>
-41.5536

> <Gold.PLP.part.hbond>
-2.6019

> <Gold.PLP.part.metal>
0.0000

> <Gold.PLP.part.buried>
-4.4008

> <Gold.PLP.part.nonpolar>
-35.4099

> <Gold.PLP.part.repulsive>
0.4863

> <Gold.PLP.ligand.clash>
0.0000

> <Gold.PLP.ligand.torsion>
0.4177

> <Gold.PLP.Chemscore.Hbond>
0.7500

> <Gold.PLP.Chemscore.CHOScore>
1.1056

> <Gold.PLP.Chemscore.Metal>
0.0000

> <Gold.Chemscore.Hbonds>
donor molecule, donor type, donor heavy atom, donor atom, acceptor molecule, acceptor atom, score
      P1  H  7989  7998       L1    13  0.50
      L1  C    15    34       P1  7948  0.41
      L1  C    15    34       P1  7949  0.10

> <Gold.PLP.Chemscore.Internal.Correction>
0.0524

> <Gold.Rescore>
     Score         DG    S(hbond)    S(metal)    S(lipo)     H(rot)  DE(clash)    DE(int)     intcor
     10.64     -11.01       0.00        0.00      95.68       2.21       0.13       0.24       ----

> <Gold.Chemscore.Fitness>
10.6429

> <Gold.Chemscore.DG>
-11.0064

> <Gold.Chemscore.ZeroCoef>
-5.4800

> <Gold.Chemscore.Hbond>
0.0006

> <Gold.Chemscore.Metal>
0.0000

> <Gold.Chemscore.Lipo>
95.6798

> <Gold.Chemscore.Internal_Hbond>
0.0000

> <Gold.Chemscore.DEClash>
0.1251

> <Gold.Chemscore.DEInternal>
0.2384

> <Gold.Chemscore.Rot>
2.2149

> <Gold.Chemscore.Internal.Correction>
   9.000000E+99

> <Gold.Chemscore.Hbonds>
donor molecule, donor type, donor heavy atom, donor atom, acceptor molecule, acceptor atom, score
      P1  H  7989  7998       L1    13  0.01

> <Gold.Chemscore.Hbond.Weighted>
-0.0021

> <Gold.Chemscore.Metal.Weighted>
-0.0000

> <Gold.Chemscore.Lipo.Weighted>
-11.1945

> <Gold.Chemscore.Internal_Hbond.Weighted>
0.0000

> <Gold.Chemscore.DEClash.Weighted>
0.1251

> <Gold.Chemscore.DEInternal.Weighted>
0.2384

> <Gold.Chemscore.Rot.Weighted>
5.6702

> <Gold.Chemscore.Internal.Correction.Weighted>
   9.000000E+99

> <Gold.Protein.RotatedTorsions>
[ 6907 6896 6895 6894 ] final  -55.87 input  -60.11 | X-H torsion
[ 7974 7965 7964 7962 ] final  -35.71 input  175.53 | X-H torsion
[ 8008 7997 7996 7995 ] final  -74.60 input   59.86 | X-H torsion
[ 10167 10162 10161 10158 ] final -114.01 input  -65.29 | X-H torsion
[ 10718 10713 10712 10709 ] final  -74.96 input   66.30 | X-H torsion
[ 10763 10752 10751 10750 ] final   20.64 input  -60.55 | X-H torsion
[ 11005 11000 10999 10996 ] final  128.20 input  -57.11 | X-H torsion

> <Gold.Protein.ActiveResidues>
 VAL166  LYS551  ARG553  GLY616  TRP617  ASP618  TYR619  PRO620  LYS621  CYS622 
 ASP623  PHE694  ASN695  SER759  ASP760  ASP761  ALA762  ILE779  LEU786  VAL792 
 PHE793  MET794  SER795  GLU796  ALA797  LYS798  CYS799  TRP800  GLU811  SER814 

> <Gold.Protein.RotatedAtoms>
  150.8215  134.7425  159.6775 H   0  0  0  0  0  0  0  0  0  0  0  0  # atno 6907 bound_to 6896
  152.4330  134.5737  159.9938 H   0  0  0  0  0  0  0  0  0  0  0  0  # atno 6908 bound_to 6896
  151.5920  133.3328  159.3065 H   0  0  0  0  0  0  0  0  0  0  0  0  # atno 6909 bound_to 6896
  146.0723  140.6192  142.8946 H   0  0  0  0  0  0  0  0  0  0  0  0  # atno 7974 bound_to 7965
  154.5344  140.0758  156.8402 H   0  0  0  0  0  0  0  0  0  0  0  0  # atno 8008 bound_to 7997
  155.3308  140.3401  155.4221 H   0  0  0  0  0  0  0  0  0  0  0  0  # atno 8009 bound_to 7997
  156.1814  140.1653  156.8254 H   0  0  0  0  0  0  0  0  0  0  0  0  # atno 8010 bound_to 7997
  140.1056  143.4573  152.1785 H   0  0  0  0  0  0  0  0  0  0  0  0  # atno 10167 bound_to 10162
  156.0224  130.4429  150.2971 H   0  0  0  0  0  0  0  0  0  0  0  0  # atno 10718 bound_to 10713
  153.1060  135.6685  153.9585 H   0  0  0  0  0  0  0  0  0  0  0  0  # atno 10763 bound_to 10752
  153.9142  135.3021  155.3450 H   0  0  0  0  0  0  0  0  0  0  0  0  # atno 10764 bound_to 10752
  154.7481  135.5048  153.9317 H   0  0  0  0  0  0  0  0  0  0  0  0  # atno 10765 bound_to 10752
  139.9548  134.9615  156.8967 H   0  0  0  0  0  0  0  0  0  0  0  0  # atno 11005 bound_to 11000
  144.7239  140.4464  143.6987 LP  0  0  0  0  0  0  0  0  0  0  0  0  # atno 17320 bound_to 7965
  145.6369  139.1544  143.2938 LP  0  0  0  0  0  0  0  0  0  0  0  0  # atno 17321 bound_to 7965
  139.5647  144.7428  151.4056 LP  0  0  0  0  0  0  0  0  0  0  0  0  # atno 17342 bound_to 10162
  140.6954  143.7762  150.7318 LP  0  0  0  0  0  0  0  0  0  0  0  0  # atno 17343 bound_to 10162
  157.1074  131.0212  151.3061 LP  0  0  0  0  0  0  0  0  0  0  0  0  # atno 17370 bound_to 10713
  157.4732  130.7721  149.7343 LP  0  0  0  0  0  0  0  0  0  0  0  0  # atno 17371 bound_to 10713
  140.5635  134.0512  155.7406 LP  0  0  0  0  0  0  0  0  0  0  0  0  # atno 17394 bound_to 11000
  141.1217  133.9450  157.2716 LP  0  0  0  0  0  0  0  0  0  0  0  0  # atno 17395 bound_to 11000

$$$$
