#       Name:                AV-unprocessed.smi:1049
#       Creating user name   scv26
#       Creation time:       Fri Mar 27 03:10:57 2020


#       File generated by GOLD software.
#

@<TRIPOS>MOLECULE
AV-unprocessed.smi:1049
    43    44     1
SMALL
NO_CHARGES


@<TRIPOS>ATOM
      1 ****        -4.8067   2.3331   1.5441 C.3            1 S1                 0.0000
      2 ****        -3.8472   1.1841   1.2042 C.3            1 S1                 0.0000
      3 ****        -4.6127  -0.0739   0.7387 C.3            1 S1                 0.0000
      4 ****        -3.6586  -1.1908   0.2754 C.3            1 S1                 0.0000
      5 ****        -2.6367  -0.6527  -0.7414 C.3            1 S1                 0.0000
      6 ****        -1.9112   0.4745  -0.1307 N.am           1 S1                 0.0000
      7 ****        -0.6244   0.4639   0.3020 C.2            1 S1                 0.0000
      8 ****        -0.1047   1.4065   0.9012 O.2            1 S1                 0.0000
      9 ****         0.0592  -0.6578   0.0166 N.am           1 S1                 0.0000
     10 ****         1.4501  -0.9080   0.3754 C.3            1 S1                 0.0000
     11 ****         2.4163  -0.2394  -0.6184 C.3            1 S1                 0.0000
     12 ****         3.8643  -0.4773  -0.3055 C.2            1 S1                 0.0000
     13 ****         4.3946  -0.5470   0.9222 N.pl3          1 S1                 1.0000
     14 ****         5.7457  -0.7472   0.8509 C.2            1 S1                 0.0000
     15 ****         6.0600  -0.7855  -0.4818 C.2            1 S1                 0.0000
     16 ****         4.8874  -0.6027  -1.1697 N.pl3          1 S1                 0.0000
     17 ****         4.7412  -0.5643  -2.6284 C.3            1 S1                 0.0000
     18 ****         4.0610  -1.6290  -3.0531 F              1 S1                 0.0000
     19 ****         4.1333   0.5599  -3.0086 F              1 S1                 0.0000
     20 ****        -2.8129   1.6032   0.1373 C.3            1 S1                 0.0000
     21 ****        -5.3837   2.6396   0.6709 H              1 S1                 0.0000
     22 ****        -4.2615   3.2051   1.9059 H              1 S1                 0.0000
     23 ****        -5.5111   2.0386   2.3225 H              1 S1                 0.0000
     24 ****        -3.3038   0.9293   2.1156 H              1 S1                 0.0000
     25 ****        -5.2558  -0.4433   1.5381 H              1 S1                 0.0000
     26 ****        -5.2726   0.1915  -0.0886 H              1 S1                 0.0000
     27 ****        -3.1332  -1.6052   1.1369 H              1 S1                 0.0000
     28 ****        -4.2298  -2.0096  -0.1630 H              1 S1                 0.0000
     29 ****        -1.9932  -1.4628  -1.0834 H              1 S1                 0.0000
     30 ****        -3.1532  -0.3012  -1.6359 H              1 S1                 0.0000
     31 ****        -0.4254  -1.3918  -0.4797 H              1 S1                 0.0000
     32 ****         1.6361  -0.5606   1.3932 H              1 S1                 0.0000
     33 ****         1.6094  -1.9866   0.3801 H              1 S1                 0.0000
     34 ****         2.2264  -0.6088  -1.6256 H              1 S1                 0.0000
     35 ****         2.2794   0.8424  -0.6334 H              1 S1                 0.0000
     36 ****         6.3658  -0.8409   1.7305 H              1 S1                 0.0000
     37 ****         7.0096  -0.9204  -0.9793 H              1 S1                 0.0000
     38 ****         5.7272  -0.5864  -3.0939 H              1 S1                 0.0000
     39 ****        -3.3179   1.8886  -0.7869 H              1 S1                 0.0000
     40 ****        -2.2779   2.4956   0.4657 H              1 S1                 0.0000
     41 ****         3.8661  -0.4626   1.7816 H              1 S1                 0.0000
     42 ****        -0.6358   2.2323   1.0908 LP             1 S1                 0.0000
     43 ****         0.8483   1.3459   1.1980 LP             1 S1                 0.0000
@<TRIPOS>BOND
    1    1    2 1     
    2    1   21 1     
    3    1   22 1     
    4    1   23 1     
    5    2   20 1     
    6    2    3 1     
    7    2   24 1     
    8    3    4 1     
    9    3   25 1     
   10    3   26 1     
   11    4    5 1     
   12    4   27 1     
   13    4   28 1     
   14    5    6 1     
   15    5   29 1     
   16    5   30 1     
   17    6    7 am    
   18    6   20 1     
   19    7    8 2     
   20    7    9 am    
   21    9   10 1     
   22    9   31 1     
   23   10   11 1     
   24   10   32 1     
   25   10   33 1     
   26   11   12 1     
   27   11   34 1     
   28   11   35 1     
   29   12   16 1     
   30   12   13 2     
   31   13   14 1     
   32   13   41 1     
   33   14   15 2     
   34   14   36 1     
   35   15   16 1     
   36   15   37 1     
   37   16   17 1     
   38   17   18 1     
   39   17   19 1     
   40   17   38 1     
   41   20   39 1     
   42   20   40 1     
   43    8   42 1     
   44    8   43 1     
@<TRIPOS>SUBSTRUCTURE
      1 S1             1
@<TRIPOS>SET
LONE_PAIRS      STATIC     ATOMS    <user>   **** ""
2 42 43
DONOR_HYDROGENS      STATIC     ATOMS    <user>   **** ""
2 31 41
ATOM$BLUE        STATIC     ATOMS    COLORGROUP SYSTEM
2 42 43
ATOM$RED        STATIC     ATOMS    COLORGROUP SYSTEM
2 31 41
