AV-unprocessed.smi:1072|AV-procd|sdf|4683|dock4
  -GOLD-   22720 3203D 1   1.00000     0.00000
 Structure written by MMmdl.
 46 47  0  0  0  0  0  0  0  0  1 V2000
  151.7753  138.5007  155.2481 C   0  0  0  0  0  0  0  0  0  0  0  0
  150.7313  137.7531  156.0501 C   0  0  0  0  0  0  0  0  0  0  0  0
  149.5721  137.4173  155.5877 N   0  0  0  0  0  0  0  0  0  0  0  0
  148.6882  136.7231  156.4255 C   0  0  0  0  0  0  0  0  0  0  0  0
  147.3491  136.3584  155.8076 C   0  0  0  0  0  0  0  0  0  0  0  0
  149.0231  136.3998  157.7091 C   0  0  0  0  0  0  0  0  0  0  0  0
  148.0821  135.6398  158.6428 C   0  0  0  0  0  0  0  0  0  0  0  0
  147.8006  136.3082  159.9905 C   0  0  0  0  0  0  0  0  0  0  0  0
  148.2005  137.4519  160.2078 O   0  0  0  0  0  0  0  0  0  0  0  0
  147.1191  135.5676  160.8820 N   0  0  0  0  0  0  0  0  0  0  0  0
  146.7344  135.9117  162.2587 C   0  0  1  0  0  0  0  0  0  0  0  0
  147.9549  136.4849  163.0110 C   0  0  0  0  0  0  0  0  0  0  0  0
  145.5560  136.9209  162.2931 C   0  0  0  0  0  0  0  0  0  0  0  0
  144.2613  136.3482  161.6890 C   0  0  0  0  0  0  0  0  0  0  0  0
  143.8365  135.0497  162.3980 C   0  0  1  0  0  0  0  0  0  0  0  0
  142.5502  134.4733  161.7902 C   0  0  0  0  0  0  0  0  0  0  0  0
  144.9844  134.0243  162.3693 C   0  0  0  0  0  0  0  0  0  0  0  0
  146.2828  134.6075  162.9596 C   0  0  0  0  0  0  0  0  0  0  0  0
  150.3494  136.7884  158.2266 C   0  0  0  0  0  0  0  0  0  0  0  0
  150.7551  136.5431  159.3616 O   0  0  0  0  0  0  0  0  0  0  0  0
  151.1348  137.4538  157.3504 N   0  0  0  0  0  0  0  0  0  0  0  0
  152.0531  137.7404  157.6569 H   0  0  0  0  0  0  0  0  0  0  0  0
  152.0630  137.9178  154.3729 H   0  0  0  0  0  0  0  0  0  0  0  0
  152.6717  138.6982  155.8372 H   0  0  0  0  0  0  0  0  0  0  0  0
  151.3742  139.4553  154.9074 H   0  0  0  0  0  0  0  0  0  0  0  0
  146.5362  136.8571  156.3353 H   0  0  0  0  0  0  0  0  0  0  0  0
  147.1840  135.2818  155.8513 H   0  0  0  0  0  0  0  0  0  0  0  0
  147.3016  136.6585  154.7602 H   0  0  0  0  0  0  0  0  0  0  0  0
  147.1263  135.4471  158.1546 H   0  0  0  0  0  0  0  0  0  0  0  0
  148.5060  134.6511  158.8225 H   0  0  0  0  0  0  0  0  0  0  0  0
  146.8438  134.6452  160.5776 H   0  0  0  0  0  0  0  0  0  0  0  0
  147.7217  136.6642  164.0609 H   0  0  0  0  0  0  0  0  0  0  0  0
  148.2857  137.4354  162.5924 H   0  0  0  0  0  0  0  0  0  0  0  0
  148.8011  135.7976  162.9769 H   0  0  0  0  0  0  0  0  0  0  0  0
  145.3586  137.2041  163.3279 H   0  0  0  0  0  0  0  0  0  0  0  0
  145.8166  137.8493  161.7854 H   0  0  0  0  0  0  0  0  0  0  0  0
  143.4661  137.0904  161.7673 H   0  0  0  0  0  0  0  0  0  0  0  0
  144.4006  136.1625  160.6233 H   0  0  0  0  0  0  0  0  0  0  0  0
  143.6277  135.2898  163.4416 H   0  0  0  0  0  0  0  0  0  0  0  0
  142.6883  134.2185  160.7390 H   0  0  0  0  0  0  0  0  0  0  0  0
  141.7311  135.1902  161.8543 H   0  0  0  0  0  0  0  0  0  0  0  0
  142.2387  133.5694  162.3142 H   0  0  0  0  0  0  0  0  0  0  0  0
  144.6997  133.1342  162.9314 H   0  0  0  0  0  0  0  0  0  0  0  0
  145.1582  133.6931  161.3447 H   0  0  0  0  0  0  0  0  0  0  0  0
  147.0745  133.8586  162.9081 H   0  0  0  0  0  0  0  0  0  0  0  0
  146.1242  134.8018  164.0215 H   0  0  0  0  0  0  0  0  0  0  0  0
  1  2  1  0  0  0  0
  1 23  1  0  0  0  0
  1 24  1  0  0  0  0
  1 25  1  0  0  0  0
  2 21  1  0  0  0  0
  2  3  2  0  0  0  0
  3  4  1  0  0  0  0
  4  5  1  0  0  0  0
  4  6  2  0  0  0  0
  5 26  1  0  0  0  0
  5 27  1  0  0  0  0
  5 28  1  0  0  0  0
  6  7  1  0  0  0  0
  6 19  1  0  0  0  0
  7  8  1  0  0  0  0
  7 29  1  0  0  0  0
  7 30  1  0  0  0  0
  8  9  2  0  0  0  0
  8 10  1  0  0  0  0
 10 11  1  0  0  0  0
 10 31  1  0  0  0  0
 11 18  1  0  0  0  0
 11 12  1  0  0  0  0
 11 13  1  0  0  0  0
 12 32  1  0  0  0  0
 12 33  1  0  0  0  0
 12 34  1  0  0  0  0
 13 14  1  0  0  0  0
 13 35  1  0  0  0  0
 13 36  1  0  0  0  0
 14 15  1  0  0  0  0
 14 37  1  0  0  0  0
 14 38  1  0  0  0  0
 15 16  1  0  0  0  0
 15 17  1  0  0  0  0
 15 39  1  0  0  0  0
 16 40  1  0  0  0  0
 16 41  1  0  0  0  0
 16 42  1  0  0  0  0
 17 18  1  0  0  0  0
 17 43  1  0  0  0  0
 17 44  1  0  0  0  0
 18 45  1  0  0  0  0
 18 46  1  0  0  0  0
 19 20  2  0  0  0  0
 19 21  1  0  0  0  0
 21 22  1  0  0  0  0
M  END
> <s_m_source_file>
AV-unprocessed.smi

> <i_m_source_file_index>
1072

> <i_lp_mmshare_version>
43012

> <i_f3d_flags>
0

> <s_epik_input>
W0NIM11jMW5jKFtDSDNdKWMoYyg9TylbbkhdMSlbQ0gyXUMoPU8pW05IXVtDQEBdMihbQ0gzXSlbQ0gyXVtDSDJdW0NAQEhdKFtDSDNdKVtDSDJdW0NIMl0y

> <s_epik_cmdline>
J2VwaWtfcHl0aG9uJywgJy1waCcsICc3LjAnLCAnLXRuJywgJzgnLCAnLW1hJywgJzIwMCcsICctbWV0YWxfYmluZGluZycsICctaW1hZScsICc8aW5maWxlLm1hZT4nLCAnLW9tYWUnLCAnPG91dGZpbGUubWFlPic=

> <r_lp_tautomer_probability>
0.839158

> <r_epik_Ionization_Penalty>
0.000352328

> <r_epik_Ionization_Penalty_Charging>
0.000314696

> <r_epik_Ionization_Penalty_Neutral>
3.76315e-05

> <r_epik_State_Penalty>
0.09125

> <r_epik_Charging_Adjusted_Penalty>
0.0915647

> <i_epik_Tot_Q>
0

> <i_epik_Tot_abs_Q>
0

> <r_epik_Metal_State_Penalty>
0.245598

> <b_epik_Metal_Only>
0

> <s_lp_Force_Field>
OPLS_2005

> <r_lp_Energy>
11.0611

> <b_lp_Chiralities_Consistent>
1

> <s_lp_Variant>
AV-unprocessed.smi:1072-1

> <Gold.Version>
5.8.1

> <Gold.Id.Protein>
6NUR|6NUR_protein|mol2

> <Gold.PLP.Fitness>
35.7914

> <Gold.PLP.PLP>
-30.4314

> <Gold.PLP.part.hbond>
-3.0000

> <Gold.PLP.part.metal>
0.0000

> <Gold.PLP.part.buried>
-2.2613

> <Gold.PLP.part.nonpolar>
-25.1060

> <Gold.PLP.part.repulsive>
0.1668

> <Gold.PLP.ligand.clash>
0.0000

> <Gold.PLP.ligand.torsion>
0.3323

> <Gold.PLP.Chemscore.Hbond>
2.0066

> <Gold.PLP.Chemscore.CHOScore>
0.0000

> <Gold.PLP.Chemscore.Metal>
0.0000

> <Gold.Chemscore.Hbonds>
donor molecule, donor type, donor heavy atom, donor atom, acceptor molecule, acceptor atom, score
      P1  H  6896  6908       L1    20  0.96
      P1  H  6931  6943       L1     9  0.53
      P1  H  6934  6947       L1     9  0.59

> <Gold.PLP.Chemscore.Internal.Correction>
0.0048

> <Gold.Rescore>
     Score         DG    S(hbond)    S(metal)    S(lipo)     H(rot)  DE(clash)    DE(int)     intcor
     17.11     -18.26       2.59        0.00      67.51       1.47       0.35       0.81       ----

> <Gold.Chemscore.Fitness>
17.1068

> <Gold.Chemscore.DG>
-18.2641

> <Gold.Chemscore.ZeroCoef>
-5.4800

> <Gold.Chemscore.Hbond>
2.5887

> <Gold.Chemscore.Metal>
0.0000

> <Gold.Chemscore.Lipo>
67.5097

> <Gold.Chemscore.Internal_Hbond>
0.0000

> <Gold.Chemscore.DEClash>
0.3514

> <Gold.Chemscore.DEInternal>
0.8059

> <Gold.Chemscore.Rot>
1.4690

> <Gold.Chemscore.Internal.Correction>
   9.000000E+99

> <Gold.Chemscore.Hbonds>
donor molecule, donor type, donor heavy atom, donor atom, acceptor molecule, acceptor atom, score
      P1  H  6896  6908       L1    20  0.85
      P1  H  6931  6943       L1     9  0.50
      P1  H  6934  6947       L1     9  0.56

> <Gold.Chemscore.Hbond.Weighted>
-8.6462

> <Gold.Chemscore.Metal.Weighted>
-0.0000

> <Gold.Chemscore.Lipo.Weighted>
-7.8986

> <Gold.Chemscore.Internal_Hbond.Weighted>
0.0000

> <Gold.Chemscore.DEClash.Weighted>
0.3514

> <Gold.Chemscore.DEInternal.Weighted>
0.8059

> <Gold.Chemscore.Rot.Weighted>
3.7607

> <Gold.Chemscore.Internal.Correction.Weighted>
   9.000000E+99

> <Gold.Protein.RotatedTorsions>
[ 6907 6896 6895 6894 ] final -165.12 input  -60.11 | X-H torsion
[ 7974 7965 7964 7962 ] final  161.34 input  175.53 | X-H torsion
[ 8008 7997 7996 7995 ] final -163.07 input   59.86 | X-H torsion
[ 10167 10162 10161 10158 ] final  133.68 input  -65.29 | X-H torsion
[ 10718 10713 10712 10709 ] final  -56.64 input   66.30 | X-H torsion
[ 10763 10752 10751 10750 ] final -170.86 input  -60.55 | X-H torsion
[ 11005 11000 10999 10996 ] final  141.51 input  -57.11 | X-H torsion

> <Gold.Protein.ActiveResidues>
 VAL166  LYS551  ARG553  GLY616  TRP617  ASP618  TYR619  PRO620  LYS621  CYS622 
 ASP623  PHE694  ASN695  SER759  ASP760  ASP761  ALA762  ILE779  LEU786  VAL792 
 PHE793  MET794  SER795  GLU796  ALA797  LYS798  CYS799  TRP800  GLU811  SER814 

> <Gold.Protein.RotatedAtoms>
  151.4226  133.3694  159.2757 H   0  0  0  0  0  0  0  0  0  0  0  0  # atno 6907 bound_to 6896
  150.9283  134.8700  159.7545 H   0  0  0  0  0  0  0  0  0  0  0  0  # atno 6908 bound_to 6896
  152.5015  134.4169  159.9519 H   0  0  0  0  0  0  0  0  0  0  0  0  # atno 6909 bound_to 6896
  144.7691  139.7884  143.6304 H   0  0  0  0  0  0  0  0  0  0  0  0  # atno 7974 bound_to 7965
  155.8160  140.0912  157.1877 H   0  0  0  0  0  0  0  0  0  0  0  0  # atno 8008 bound_to 7997
  154.3979  140.1446  156.3503 H   0  0  0  0  0  0  0  0  0  0  0  0  # atno 8009 bound_to 7997
  155.8316  140.3442  155.5578 H   0  0  0  0  0  0  0  0  0  0  0  0  # atno 8010 bound_to 7997
  139.5287  144.6604  151.5030 H   0  0  0  0  0  0  0  0  0  0  0  0  # atno 10167 bound_to 10162
  156.1272  130.4162  150.0333 H   0  0  0  0  0  0  0  0  0  0  0  0  # atno 10718 bound_to 10713
  154.6368  135.2893  155.0151 H   0  0  0  0  0  0  0  0  0  0  0  0  # atno 10763 bound_to 10752
  154.1291  135.6536  153.4922 H   0  0  0  0  0  0  0  0  0  0  0  0  # atno 10764 bound_to 10752
  153.0307  135.5306  154.7219 H   0  0  0  0  0  0  0  0  0  0  0  0  # atno 10765 bound_to 10752
  140.0407  134.9306  157.0838 H   0  0  0  0  0  0  0  0  0  0  0  0  # atno 11005 bound_to 11000
  146.1823  139.5021  142.9859 LP  0  0  0  0  0  0  0  0  0  0  0  0  # atno 17320 bound_to 7965
  145.6380  141.0290  143.1827 LP  0  0  0  0  0  0  0  0  0  0  0  0  # atno 17321 bound_to 7965
  140.6450  143.8813  150.6728 LP  0  0  0  0  0  0  0  0  0  0  0  0  # atno 17342 bound_to 10162
  140.2160  143.3846  152.1681 LP  0  0  0  0  0  0  0  0  0  0  0  0  # atno 17343 bound_to 10162
  156.8255  130.9374  151.3639 LP  0  0  0  0  0  0  0  0  0  0  0  0  # atno 17370 bound_to 10713
  157.6453  130.8839  149.9527 LP  0  0  0  0  0  0  0  0  0  0  0  0  # atno 17371 bound_to 10713
  140.4074  134.2018  155.7163 LP  0  0  0  0  0  0  0  0  0  0  0  0  # atno 17394 bound_to 11000
  141.1881  133.8266  157.1006 LP  0  0  0  0  0  0  0  0  0  0  0  0  # atno 17395 bound_to 11000

$$$$
