AV-unprocessed.smi:101|AV-procd|sdf|930|dock8
  -GOLD-   2262017443D 1   1.00000     0.00000
 Structure written by MMmdl.
 43 45  0  0  0  0  0  0  0  0  2 V2000
  143.8751  144.8974  154.6426 C   0  0  0  0  0  0  0  0  0  0  0  0
  144.8375  143.8484  155.1713 C   0  0  0  0  0  0  0  0  0  0  0  0
  145.7901  143.2869  154.3945 C   0  0  0  0  0  0  0  0  0  0  0  0
  146.6674  142.3339  154.8810 N   0  0  0  0  0  0  0  0  0  0  0  0
  147.7246  141.7363  153.9758 C   0  0  1  0  0  0  0  0  0  0  0  0
  148.9186  141.6372  154.6937 O   0  0  0  0  0  0  0  0  0  0  0  0
  149.5374  140.3859  154.4206 C   0  0  1  0  0  0  0  0  0  0  0  0
  150.5117  139.9957  155.5411 C   0  0  0  0  0  0  0  0  0  0  0  0
  150.9097  141.1638  156.2393 O   0  0  0  0  0  0  0  0  0  0  0  0
  151.8010  141.0770  157.2451 C   0  0  0  0  0  0  0  0  0  0  0  0
  152.4712  140.0687  157.4773 O   0  0  0  0  0  0  0  0  0  0  0  0
  151.8937  142.3308  158.0478 C   0  0  0  0  0  0  0  0  0  0  0  0
  151.3343  143.5246  157.5356 C   0  0  0  0  0  0  0  0  0  0  0  0
  151.4073  144.7241  158.2704 C   0  0  0  0  0  0  0  0  0  0  0  0
  152.0414  144.7446  159.5263 C   0  0  0  0  0  0  0  0  0  0  0  0
  152.6024  143.5639  160.0468 C   0  0  0  0  0  0  0  0  0  0  0  0
  152.5302  142.3634  159.3134 C   0  0  0  0  0  0  0  0  0  0  0  0
  148.3566  139.4319  154.2043 C   0  0  1  0  0  0  0  0  0  0  0  0
  147.8571  138.9555  155.4440 O   0  0  0  0  0  0  0  0  0  0  0  0
  147.3590  140.3231  153.4710 C   0  0  1  0  0  0  0  0  0  0  0  0
  146.0122  139.9240  153.6597 O   0  0  0  0  0  0  0  0  0  0  0  0
  146.5852  141.9322  156.2401 C   0  0  0  0  0  0  0  0  0  0  0  0
  147.3952  141.1019  156.6527 O   0  0  0  0  0  0  0  0  0  0  0  0
  145.6226  142.4886  157.0297 N   0  5  0  0  0  0  0  0  0  0  0  0
  144.7421  143.4255  156.5736 C   0  0  0  0  0  0  0  0  0  0  0  0
  143.8797  143.9202  157.2989 O   0  0  0  0  0  0  0  0  0  0  0  0
  144.0380  145.0853  153.5810 H   0  0  0  0  0  0  0  0  0  0  0  0
  144.0078  145.8381  155.1776 H   0  0  0  0  0  0  0  0  0  0  0  0
  142.8434  144.5691  154.7726 H   0  0  0  0  0  0  0  0  0  0  0  0
  145.8680  143.5959  153.3628 H   0  0  0  0  0  0  0  0  0  0  0  0
  147.8839  142.4460  153.1634 H   0  0  0  0  0  0  0  0  0  0  0  0
  150.0801  140.4772  153.4776 H   0  0  0  0  0  0  0  0  0  0  0  0
  150.0481  139.2809  156.2229 H   0  0  0  0  0  0  0  0  0  0  0  0
  151.3966  139.5217  155.1146 H   0  0  0  0  0  0  0  0  0  0  0  0
  150.8424  143.5334  156.5733 H   0  0  0  0  0  0  0  0  0  0  0  0
  150.9759  145.6293  157.8691 H   0  0  0  0  0  0  0  0  0  0  0  0
  152.0971  145.6643  160.0896 H   0  0  0  0  0  0  0  0  0  0  0  0
  153.0899  143.5783  161.0105 H   0  0  0  0  0  0  0  0  0  0  0  0
  152.9726  141.4757  159.7413 H   0  0  0  0  0  0  0  0  0  0  0  0
  148.6414  138.5690  153.6014 H   0  0  0  0  0  0  0  0  0  0  0  0
  146.9453  139.1931  155.5129 H   0  0  0  0  0  0  0  0  0  0  0  0
  147.5788  140.2987  152.4030 H   0  0  0  0  0  0  0  0  0  0  0  0
  145.4819  140.3624  153.0115 H   0  0  0  0  0  0  0  0  0  0  0  0
  1  2  1  0  0  0  0
  1 27  1  0  0  0  0
  1 28  1  0  0  0  0
  1 29  1  0  0  0  0
  2 25  1  0  0  0  0
  2  3  2  0  0  0  0
  3  4  1  0  0  0  0
  3 30  1  0  0  0  0
  4  5  1  0  0  0  0
  4 22  1  0  0  0  0
  5 20  1  0  0  0  0
  5  6  1  0  0  0  0
  5 31  1  0  0  0  0
  6  7  1  0  0  0  0
  7  8  1  0  0  0  0
  7 18  1  0  0  0  0
  7 32  1  0  0  0  0
  8  9  1  0  0  0  0
  8 33  1  0  0  0  0
  8 34  1  0  0  0  0
  9 10  1  0  0  0  0
 10 11  2  0  0  0  0
 10 12  1  0  0  0  0
 12 17  1  0  0  0  0
 12 13  2  0  0  0  0
 13 14  1  0  0  0  0
 13 35  1  0  0  0  0
 14 15  2  0  0  0  0
 14 36  1  0  0  0  0
 15 16  1  0  0  0  0
 15 37  1  0  0  0  0
 16 17  2  0  0  0  0
 16 38  1  0  0  0  0
 17 39  1  0  0  0  0
 18 19  1  0  0  0  0
 18 20  1  0  0  0  0
 18 40  1  0  0  0  0
 19 41  1  0  0  0  0
 20 21  1  0  0  0  0
 20 42  1  0  0  0  0
 21 43  1  0  0  0  0
 22 23  2  0  0  0  0
 22 24  1  0  0  0  0
 24 25  1  0  0  0  0
 25 26  2  0  0  0  0
M  CHG  1  24  -1
M  END
> <s_m_source_file>
AV-unprocessed.smi

> <i_m_source_file_index>
101

> <i_lp_mmshare_version>
43012

> <i_f3d_flags>
0

> <s_epik_input>
Tz1jMVtuSF1jKD1PKW4oW2NIXWMxW0NIM10pW0NAQEhdMk9bQ0BIXShbQ0BASF0oW09IXSlbQ0BIXTJbT0hdKVtDSDJdT0MoPU8pYzNbY0hdW2NIXVtjSF1bY0hdW2NIXTM=

> <s_epik_cmdline>
J2VwaWtfcHl0aG9uJywgJy1waCcsICc3LjAnLCAnLXRuJywgJzgnLCAnLW1hJywgJzIwMCcsICctbWV0YWxfYmluZGluZycsICctaW1hZScsICc8aW5maWxlLm1hZT4nLCAnLW9tYWUnLCAnPG91dGZpbGUubWFlPic=

> <r_lp_tautomer_probability>
0.999537

> <r_epik_Ionization_Penalty>
3.21006

> <r_epik_Ionization_Penalty_Charging>
5.75142e-08

> <r_epik_Ionization_Penalty_Neutral>
3.21006

> <r_epik_State_Penalty>
3.20925

> <r_epik_Charging_Adjusted_Penalty>
3.20925

> <i_epik_Tot_Q>
-1

> <i_epik_Tot_abs_Q>
1

> <r_epik_Metal_State_Penalty>
0.119957

> <b_epik_Metal_Only>
1

> <s_epik_Chemistry_Notes>
This compound has an ester and may undergo hydrolysis at high or low pH. This compound contains an acetal/aminal-like group ( X-CH(R)-Y where X, Y are N, S, or O) that may be acid/base labile, releasing an aldehyde.

> <s_lp_Force_Field>
OPLS_2005

> <r_lp_Energy>
50.5402

> <b_lp_Chiralities_Consistent>
1

> <s_lp_Variant>
AV-unprocessed.smi:101-18

> <Gold.Version>
5.8.1

> <Gold.Id.Protein>
6NUR|6NUR_protein|mol2

> <Gold.PLP.Fitness>
51.7695

> <Gold.PLP.PLP>
-48.7976

> <Gold.PLP.part.hbond>
-2.0616

> <Gold.PLP.part.metal>
0.0000

> <Gold.PLP.part.buried>
-6.8159

> <Gold.PLP.part.nonpolar>
-40.3744

> <Gold.PLP.part.repulsive>
0.3531

> <Gold.PLP.ligand.clash>
0.0000

> <Gold.PLP.ligand.torsion>
1.2742

> <Gold.PLP.Chemscore.Hbond>
1.8320

> <Gold.PLP.Chemscore.CHOScore>
0.0000

> <Gold.PLP.Chemscore.Metal>
0.0000

> <Gold.Chemscore.Hbonds>
donor molecule, donor type, donor heavy atom, donor atom, acceptor molecule, acceptor atom, score
      L1  H    21    43       P1 10175  0.80
      P1  H  7997  8010       L1    11  0.89

> <Gold.PLP.Chemscore.Internal.Correction>
0.0243

> <Gold.Rescore>
     Score         DG    S(hbond)    S(metal)    S(lipo)     H(rot)  DE(clash)    DE(int)     intcor
     11.43     -16.24       1.88        0.00     109.66       3.27       0.04       4.77       ----

> <Gold.Chemscore.Fitness>
11.4302

> <Gold.Chemscore.DG>
-16.2395

> <Gold.Chemscore.ZeroCoef>
-5.4800

> <Gold.Chemscore.Hbond>
1.8830

> <Gold.Chemscore.Metal>
0.0000

> <Gold.Chemscore.Lipo>
109.6574

> <Gold.Chemscore.Internal_Hbond>
0.0000

> <Gold.Chemscore.DEClash>
0.0385

> <Gold.Chemscore.DEInternal>
4.7707

> <Gold.Chemscore.Rot>
3.2656

> <Gold.Chemscore.Internal.Correction>
   9.000000E+99

> <Gold.Chemscore.Hbonds>
donor molecule, donor type, donor heavy atom, donor atom, acceptor molecule, acceptor atom, score
      L1  H    21    43       P1 10175  0.75
      P1  H  7997  8010       L1    11  0.79

> <Gold.Chemscore.Hbond.Weighted>
-6.2894

> <Gold.Chemscore.Metal.Weighted>
-0.0000

> <Gold.Chemscore.Lipo.Weighted>
-12.8299

> <Gold.Chemscore.Internal_Hbond.Weighted>
0.0000

> <Gold.Chemscore.DEClash.Weighted>
0.0385

> <Gold.Chemscore.DEInternal.Weighted>
4.7707

> <Gold.Chemscore.Rot.Weighted>
8.3598

> <Gold.Chemscore.Internal.Correction.Weighted>
   9.000000E+99

> <Gold.Protein.RotatedTorsions>
[ 6907 6896 6895 6894 ] final   89.48 input  -60.11 | X-H torsion
[ 7974 7965 7964 7962 ] final  -91.25 input  175.53 | X-H torsion
[ 8008 7997 7996 7995 ] final   52.33 input   59.86 | X-H torsion
[ 10167 10162 10161 10158 ] final  -82.99 input  -65.29 | X-H torsion
[ 10718 10713 10712 10709 ] final  107.44 input   66.30 | X-H torsion
[ 10763 10752 10751 10750 ] final   87.83 input  -60.55 | X-H torsion
[ 11005 11000 10999 10996 ] final -125.54 input  -57.11 | X-H torsion

> <Gold.Protein.ActiveResidues>
 VAL166  LYS551  ARG553  GLY616  TRP617  ASP618  TYR619  PRO620  LYS621  CYS622 
 ASP623  PHE694  ASN695  SER759  ASP760  ASP761  ALA762  ILE779  LEU786  VAL792 
 PHE793  MET794  SER795  GLU796  ALA797  LYS798  CYS799  TRP800  GLU811  SER814 

> <Gold.Protein.RotatedAtoms>
  152.5436  134.1960  159.8692 H   0  0  0  0  0  0  0  0  0  0  0  0  # atno 6907 bound_to 6896
  151.1952  133.4637  159.2603 H   0  0  0  0  0  0  0  0  0  0  0  0  # atno 6908 bound_to 6896
  151.1044  135.0003  159.8519 H   0  0  0  0  0  0  0  0  0  0  0  0  # atno 6909 bound_to 6896
  145.4157  140.9548  143.2209 H   0  0  0  0  0  0  0  0  0  0  0  0  # atno 7974 bound_to 7965
  155.4499  140.3458  155.4299 H   0  0  0  0  0  0  0  0  0  0  0  0  # atno 8008 bound_to 7997
  156.1226  140.1491  156.9212 H   0  0  0  0  0  0  0  0  0  0  0  0  # atno 8009 bound_to 7997
  154.4835  140.0862  156.7411 H   0  0  0  0  0  0  0  0  0  0  0  0  # atno 8010 bound_to 7997
  140.4268  143.2563  151.8814 H   0  0  0  0  0  0  0  0  0  0  0  0  # atno 10167 bound_to 10162
  157.6628  131.0873  150.6157 H   0  0  0  0  0  0  0  0  0  0  0  0  # atno 10718 bound_to 10713
  153.1707  135.4529  154.9898 H   0  0  0  0  0  0  0  0  0  0  0  0  # atno 10763 bound_to 10752
  154.7964  135.3239  154.7660 H   0  0  0  0  0  0  0  0  0  0  0  0  # atno 10764 bound_to 10752
  153.8136  135.6952  153.4892 H   0  0  0  0  0  0  0  0  0  0  0  0  # atno 10765 bound_to 10752
  140.9754  134.0748  157.3824 H   0  0  0  0  0  0  0  0  0  0  0  0  # atno 11005 bound_to 11000
  144.8279  139.5678  143.6957 LP  0  0  0  0  0  0  0  0  0  0  0  0  # atno 17320 bound_to 7965
  146.2682  139.6571  142.9314 LP  0  0  0  0  0  0  0  0  0  0  0  0  # atno 17321 bound_to 7965
  139.4784  144.5378  151.8573 LP  0  0  0  0  0  0  0  0  0  0  0  0  # atno 17342 bound_to 10162
  140.4472  144.1905  150.5895 LP  0  0  0  0  0  0  0  0  0  0  0  0  # atno 17343 bound_to 10162
  156.6459  130.4471  149.5736 LP  0  0  0  0  0  0  0  0  0  0  0  0  # atno 17370 bound_to 10713
  156.2174  130.6716  151.1333 LP  0  0  0  0  0  0  0  0  0  0  0  0  # atno 17371 bound_to 10713
  139.8928  135.0127  156.6866 LP  0  0  0  0  0  0  0  0  0  0  0  0  # atno 17394 bound_to 11000
  140.7267  133.9094  155.8183 LP  0  0  0  0  0  0  0  0  0  0  0  0  # atno 17395 bound_to 11000

$$$$
