AV-unprocessed.smi:1737|AV-procd|sdf|6996|dock10
  -GOLD-   22720 8213D 1   1.00000     0.00000
 Structure written by MMmdl.
 43 44  0  0  0  0  0  0  0  0  2 V2000
  147.7112  132.9930  152.3932 C   0  0  0  0  0  0  0  0  0  0  0  0
  146.2943  132.8736  151.8554 C   0  0  0  0  0  0  0  0  0  0  0  0
  145.6805  131.6038  151.8037 C   0  0  0  0  0  0  0  0  0  0  0  0
  144.3709  131.4952  151.3056 C   0  0  0  0  0  0  0  0  0  0  0  0
  143.7261  132.6682  150.8772 C   0  0  0  0  0  0  0  0  0  0  0  0
  144.3051  133.8854  150.9236 N   0  0  0  0  0  0  0  0  0  0  0  0
  145.5693  134.0077  151.4004 C   0  0  0  0  0  0  0  0  0  0  0  0
  146.2403  135.2605  151.4814 N   0  0  0  0  0  0  0  0  0  0  0  0
  145.7393  136.4555  151.8410 C   0  0  0  0  0  0  0  0  0  0  0  0
  144.5650  136.6783  152.1351 O   0  0  0  0  0  0  0  0  0  0  0  0
  146.6919  137.3989  151.8433 N   0  0  0  0  0  0  0  0  0  0  0  0
  146.4904  138.8070  152.1831 C   0  0  0  0  0  0  0  0  0  0  0  0
  146.5215  139.0865  153.7101 C   0  0  1  0  0  0  0  0  0  0  0  0
  147.9075  138.7214  154.2857 C   0  0  0  0  0  0  0  0  0  0  0  0
  146.1058  140.4872  154.0463 N   0  3  0  0  0  0  0  0  0  0  0  0
  145.9369  140.7093  155.5083 C   0  0  0  0  0  0  0  0  0  0  0  0
  145.4592  142.1408  155.8007 C   0  0  0  0  0  0  0  0  0  0  0  0
  146.3861  143.0707  155.2609 O   0  0  0  0  0  0  0  0  0  0  0  0
  146.4816  142.9485  153.8497 C   0  0  0  0  0  0  0  0  0  0  0  0
  146.9877  141.5441  153.4789 C   0  0  0  0  0  0  0  0  0  0  0  0
  148.1073  132.0210  152.6896 H   0  0  0  0  0  0  0  0  0  0  0  0
  147.7346  133.6448  153.2672 H   0  0  0  0  0  0  0  0  0  0  0  0
  148.3742  133.4065  151.6327 H   0  0  0  0  0  0  0  0  0  0  0  0
  146.2041  130.7214  152.1412 H   0  0  0  0  0  0  0  0  0  0  0  0
  143.8733  130.5380  151.2531 H   0  0  0  0  0  0  0  0  0  0  0  0
  142.7196  132.6295  150.4878 H   0  0  0  0  0  0  0  0  0  0  0  0
  147.2212  135.2382  151.2456 H   0  0  0  0  0  0  0  0  0  0  0  0
  147.6254  137.1272  151.5716 H   0  0  0  0  0  0  0  0  0  0  0  0
  147.2775  139.3746  151.6874 H   0  0  0  0  0  0  0  0  0  0  0  0
  145.5641  139.1789  151.7416 H   0  0  0  0  0  0  0  0  0  0  0  0
  145.8049  138.4092  154.1776 H   0  0  0  0  0  0  0  0  0  0  0  0
  148.2456  137.7535  153.9145 H   0  0  0  0  0  0  0  0  0  0  0  0
  147.8884  138.6392  155.3722 H   0  0  0  0  0  0  0  0  0  0  0  0
  148.6636  139.4591  154.0161 H   0  0  0  0  0  0  0  0  0  0  0  0
  145.2080  140.0172  155.9272 H   0  0  0  0  0  0  0  0  0  0  0  0
  146.8837  140.5226  156.0177 H   0  0  0  0  0  0  0  0  0  0  0  0
  144.4640  142.3126  155.3872 H   0  0  0  0  0  0  0  0  0  0  0  0
  145.3881  142.2998  156.8769 H   0  0  0  0  0  0  0  0  0  0  0  0
  145.5132  143.1482  153.3877 H   0  0  0  0  0  0  0  0  0  0  0  0
  147.1721  143.7055  153.4775 H   0  0  0  0  0  0  0  0  0  0  0  0
  148.0068  141.4039  153.8425 H   0  0  0  0  0  0  0  0  0  0  0  0
  147.0195  141.4848  152.3918 H   0  0  0  0  0  0  0  0  0  0  0  0
  145.1981  140.6221  153.6239 H   0  0  0  0  0  0  0  0  0  0  0  0
  1  2  1  0  0  0  0
  1 21  1  0  0  0  0
  1 22  1  0  0  0  0
  1 23  1  0  0  0  0
  2  7  1  0  0  0  0
  2  3  2  0  0  0  0
  3  4  1  0  0  0  0
  3 24  1  0  0  0  0
  4  5  2  0  0  0  0
  4 25  1  0  0  0  0
  5  6  1  0  0  0  0
  5 26  1  0  0  0  0
  6  7  2  0  0  0  0
  7  8  1  0  0  0  0
  8  9  1  0  0  0  0
  8 27  1  0  0  0  0
  9 10  2  0  0  0  0
  9 11  1  0  0  0  0
 11 12  1  0  0  0  0
 11 28  1  0  0  0  0
 12 13  1  0  0  0  0
 12 29  1  0  0  0  0
 12 30  1  0  0  0  0
 13 14  1  0  0  0  0
 13 15  1  0  0  0  0
 13 31  1  0  0  0  0
 14 32  1  0  0  0  0
 14 33  1  0  0  0  0
 14 34  1  0  0  0  0
 15 20  1  0  0  0  0
 15 16  1  0  0  0  0
 15 43  1  0  0  0  0
 16 17  1  0  0  0  0
 16 35  1  0  0  0  0
 16 36  1  0  0  0  0
 17 18  1  0  0  0  0
 17 37  1  0  0  0  0
 17 38  1  0  0  0  0
 18 19  1  0  0  0  0
 19 20  1  0  0  0  0
 19 39  1  0  0  0  0
 19 40  1  0  0  0  0
 20 41  1  0  0  0  0
 20 42  1  0  0  0  0
M  CHG  1  15   1
M  END
> <s_m_source_file>
AV-unprocessed.smi

> <i_m_source_file_index>
1737

> <i_lp_mmshare_version>
43012

> <i_f3d_flags>
0

> <s_epik_input>
W0NIM11jMVtjSF1bY0hdW2NIXW5jMVtOSF1DKD1PKVtOSF1bQ0gyXVtDQEhdKFtDSDNdKU4yW0NIMl1bQ0gyXU9bQ0gyXVtDSDJdMg==

> <s_epik_cmdline>
J2VwaWtfcHl0aG9uJywgJy1waCcsICc3LjAnLCAnLXRuJywgJzgnLCAnLW1hJywgJzIwMCcsICctbWV0YWxfYmluZGluZycsICctaW1hZScsICc8aW5maWxlLm1hZT4nLCAnLW9tYWUnLCAnPG91dGZpbGUubWFlPic=

> <r_epik_Ionization_Penalty>
0.602573

> <r_epik_Ionization_Penalty_Charging>
0.602531

> <r_epik_Ionization_Penalty_Neutral>
4.25912e-05

> <r_epik_State_Penalty>
0.617039

> <r_epik_Charging_Adjusted_Penalty>
1.21957

> <i_epik_Tot_Q>
1

> <i_epik_Tot_abs_Q>
1

> <r_epik_Metal_State_Penalty>
0.617042

> <b_epik_Metal_Only>
0

> <s_lp_Force_Field>
OPLS_2005

> <r_lp_Energy>
29.9094

> <b_lp_Chiralities_Consistent>
1

> <s_lp_Variant>
AV-unprocessed.smi:1737-4

> <Gold.Version>
5.8.1

> <Gold.Id.Protein>
6NUR|6NUR_protein|mol2

> <Gold.PLP.Fitness>
47.8473

> <Gold.PLP.PLP>
-34.5519

> <Gold.PLP.part.hbond>
-2.8488

> <Gold.PLP.part.metal>
0.0000

> <Gold.PLP.part.buried>
-6.3440

> <Gold.PLP.part.nonpolar>
-27.7480

> <Gold.PLP.part.repulsive>
1.7622

> <Gold.PLP.ligand.clash>
0.0000

> <Gold.PLP.ligand.torsion>
0.5184

> <Gold.PLP.Chemscore.Hbond>
3.7840

> <Gold.PLP.Chemscore.CHOScore>
0.9770

> <Gold.PLP.Chemscore.Metal>
0.0000

> <Gold.Chemscore.Hbonds>
donor molecule, donor type, donor heavy atom, donor atom, acceptor molecule, acceptor atom, score
      L1  H     8    27       P1  7948  0.76
      L1  H    11    28       P1  7948  1.00
      L1  H    15    43       P1 10175  2.00
      L1  C     5    26       P1 10186  0.71

> <Gold.PLP.Chemscore.Internal.Correction>
0.0493

> <Gold.Rescore>
     Score         DG    S(hbond)    S(metal)    S(lipo)     H(rot)  DE(clash)    DE(int)     intcor
     17.43     -18.95       2.84        0.00      67.25       1.51       0.10       1.42       ----

> <Gold.Chemscore.Fitness>
17.4294

> <Gold.Chemscore.DG>
-18.9472

> <Gold.Chemscore.ZeroCoef>
-5.4800

> <Gold.Chemscore.Hbond>
2.8358

> <Gold.Chemscore.Metal>
0.0000

> <Gold.Chemscore.Lipo>
67.2493

> <Gold.Chemscore.Internal_Hbond>
0.0000

> <Gold.Chemscore.DEClash>
0.1024

> <Gold.Chemscore.DEInternal>
1.4154

> <Gold.Chemscore.Rot>
1.5128

> <Gold.Chemscore.Internal.Correction>
   9.000000E+99

> <Gold.Chemscore.Hbonds>
donor molecule, donor type, donor heavy atom, donor atom, acceptor molecule, acceptor atom, score
      L1  H     8    27       P1  7948  0.52
      L1  H    11    28       P1  7948  0.94
      L1  H    15    43       P1 10175  0.97

> <Gold.Chemscore.Hbond.Weighted>
-9.4716

> <Gold.Chemscore.Metal.Weighted>
-0.0000

> <Gold.Chemscore.Lipo.Weighted>
-7.8682

> <Gold.Chemscore.Internal_Hbond.Weighted>
0.0000

> <Gold.Chemscore.DEClash.Weighted>
0.1024

> <Gold.Chemscore.DEInternal.Weighted>
1.4154

> <Gold.Chemscore.Rot.Weighted>
3.8726

> <Gold.Chemscore.Internal.Correction.Weighted>
   9.000000E+99

> <Gold.Protein.RotatedTorsions>
[ 6907 6896 6895 6894 ] final  -95.71 input  -60.11 | X-H torsion
[ 7974 7965 7964 7962 ] final   55.78 input  175.53 | X-H torsion
[ 8008 7997 7996 7995 ] final  174.24 input   59.86 | X-H torsion
[ 10167 10162 10161 10158 ] final  -60.27 input  -65.29 | X-H torsion
[ 10718 10713 10712 10709 ] final  123.04 input   66.30 | X-H torsion
[ 10763 10752 10751 10750 ] final -100.21 input  -60.55 | X-H torsion
[ 11005 11000 10999 10996 ] final  -24.58 input  -57.11 | X-H torsion

> <Gold.Protein.ActiveResidues>
 VAL166  LYS551  ARG553  GLY616  TRP617  ASP618  TYR619  PRO620  LYS621  CYS622 
 ASP623  PHE694  ASN695  SER759  ASP760  ASP761  ALA762  ILE779  LEU786  VAL792 
 PHE793  MET794  SER795  GLU796  ALA797  LYS798  CYS799  TRP800  GLU811  SER814 

> <Gold.Protein.RotatedAtoms>
  150.6970  134.1616  159.4177 H   0  0  0  0  0  0  0  0  0  0  0  0  # atno 6907 bound_to 6896
  151.9596  135.0127  160.0556 H   0  0  0  0  0  0  0  0  0  0  0  0  # atno 6908 bound_to 6896
  152.1938  133.4757  159.5059 H   0  0  0  0  0  0  0  0  0  0  0  0  # atno 6909 bound_to 6896
  145.9468  139.3937  143.0330 H   0  0  0  0  0  0  0  0  0  0  0  0  # atno 7974 bound_to 7965
  156.0994  140.1439  156.9488 H   0  0  0  0  0  0  0  0  0  0  0  0  # atno 8008 bound_to 7997
  154.4692  140.0915  156.7147 H   0  0  0  0  0  0  0  0  0  0  0  0  # atno 8009 bound_to 7997
  155.4786  140.3444  155.4338 H   0  0  0  0  0  0  0  0  0  0  0  0  # atno 8010 bound_to 7997
  140.6082  143.2379  151.5771 H   0  0  0  0  0  0  0  0  0  0  0  0  # atno 10167 bound_to 10162
  157.5696  131.1084  150.8392 H   0  0  0  0  0  0  0  0  0  0  0  0  # atno 10718 bound_to 10713
  154.7561  135.4943  153.9377 H   0  0  0  0  0  0  0  0  0  0  0  0  # atno 10763 bound_to 10752
  153.1197  135.6729  153.9365 H   0  0  0  0  0  0  0  0  0  0  0  0  # atno 10764 bound_to 10752
  153.9100  135.3100  155.3427 H   0  0  0  0  0  0  0  0  0  0  0  0  # atno 10765 bound_to 10752
  140.8859  133.7622  156.0359 H   0  0  0  0  0  0  0  0  0  0  0  0  # atno 11005 bound_to 11000
  145.8225  140.9672  143.0891 LP  0  0  0  0  0  0  0  0  0  0  0  0  # atno 17320 bound_to 7965
  144.6788  140.0060  143.7484 LP  0  0  0  0  0  0  0  0  0  0  0  0  # atno 17321 bound_to 7965
  139.5341  144.2831  152.1213 LP  0  0  0  0  0  0  0  0  0  0  0  0  # atno 17342 bound_to 10162
  140.2025  144.4643  150.6424 LP  0  0  0  0  0  0  0  0  0  0  0  0  # atno 17343 bound_to 10162
  156.8867  130.5198  149.5288 LP  0  0  0  0  0  0  0  0  0  0  0  0  # atno 17370 bound_to 10713
  156.0742  130.5768  150.9442 LP  0  0  0  0  0  0  0  0  0  0  0  0  # atno 17371 bound_to 10713
  140.8406  134.3071  157.5315 LP  0  0  0  0  0  0  0  0  0  0  0  0  # atno 17394 bound_to 11000
  139.8724  134.9414  156.3795 LP  0  0  0  0  0  0  0  0  0  0  0  0  # atno 17395 bound_to 11000

$$$$
