AV-unprocessed.smi:2095|AV-procd|sdf|8560|dock10
  -GOLD-   2272011283D 1   1.00000     0.00000
 Structure written by MMmdl.
 42 43  0  0  0  0  0  0  0  0  2 V2000
  146.6733  134.1196  151.7478 C   0  0  0  0  0  0  0  0  0  0  0  0
  145.3948  134.9456  151.9752 C   0  0  2  0  0  0  0  0  0  0  0  0
  144.9027  135.6457  150.6941 C   0  0  0  0  0  0  0  0  0  0  0  0
  145.7884  136.8492  150.3377 C   0  0  0  0  0  0  0  0  0  0  0  0
  145.9143  137.8108  151.5294 C   0  0  0  0  0  0  0  0  0  0  0  0
  146.4351  137.0983  152.7278 N   0  3  1  0  0  0  0  0  0  0  0  0
  146.8256  137.9714  153.8728 C   0  0  1  0  0  0  0  0  0  0  0  0
  147.2798  137.1208  155.0742 C   0  0  0  0  0  0  0  0  0  0  0  0
  147.8632  139.0560  153.4868 C   0  0  0  0  0  0  0  0  0  0  0  0
  149.2300  138.5474  153.5123 N   0  0  0  0  0  0  0  0  0  0  0  0
  150.2974  139.2378  153.9439 C   0  0  0  0  0  0  0  0  0  0  0  0
  150.2276  140.3877  154.3769 O   0  0  0  0  0  0  0  0  0  0  0  0
  151.6473  138.5207  153.8913 C   0  0  0  0  0  0  0  0  0  0  0  0
  152.3655  138.6542  155.1452 N   0  0  0  0  0  0  0  0  0  0  0  0
  152.3730  139.6332  156.0523 C   0  0  0  0  0  0  0  0  0  0  0  0
  153.1893  139.3598  157.0588 N   0  0  0  0  0  0  0  0  0  0  0  0
  153.7039  138.1197  156.7194 N   0  0  0  0  0  0  0  0  0  0  0  0
  153.2186  137.6956  155.5851 N   0  0  0  0  0  0  0  0  0  0  0  0
  145.5548  135.9651  153.1223 C   0  0  0  0  0  0  0  0  0  0  0  0
  147.5199  134.7458  151.4661 H   0  0  0  0  0  0  0  0  0  0  0  0
  146.5280  133.3840  150.9562 H   0  0  0  0  0  0  0  0  0  0  0  0
  146.9530  133.5757  152.6505 H   0  0  0  0  0  0  0  0  0  0  0  0
  144.6218  134.2364  152.2745 H   0  0  0  0  0  0  0  0  0  0  0  0
  144.8659  134.9417  149.8620 H   0  0  0  0  0  0  0  0  0  0  0  0
  143.8792  135.9912  150.8459 H   0  0  0  0  0  0  0  0  0  0  0  0
  146.7782  136.5085  150.0318 H   0  0  0  0  0  0  0  0  0  0  0  0
  145.3687  137.3751  149.4799 H   0  0  0  0  0  0  0  0  0  0  0  0
  146.5760  138.6319  151.2555 H   0  0  0  0  0  0  0  0  0  0  0  0
  144.9385  138.2465  151.7482 H   0  0  0  0  0  0  0  0  0  0  0  0
  145.9165  138.4778  154.1998 H   0  0  0  0  0  0  0  0  0  0  0  0
  147.3904  137.7309  155.9711 H   0  0  0  0  0  0  0  0  0  0  0  0
  148.2388  136.6362  154.8919 H   0  0  0  0  0  0  0  0  0  0  0  0
  146.5503  136.3436  155.3032 H   0  0  0  0  0  0  0  0  0  0  0  0
  147.6779  139.4191  152.4758 H   0  0  0  0  0  0  0  0  0  0  0  0
  147.7892  139.9236  154.1436 H   0  0  0  0  0  0  0  0  0  0  0  0
  149.3775  137.6081  153.1704 H   0  0  0  0  0  0  0  0  0  0  0  0
  151.4999  137.4597  153.6849 H   0  0  0  0  0  0  0  0  0  0  0  0
  152.2529  138.9270  153.0798 H   0  0  0  0  0  0  0  0  0  0  0  0
  151.7895  140.5388  155.9740 H   0  0  0  0  0  0  0  0  0  0  0  0
  144.5752  136.3503  153.4078 H   0  0  0  0  0  0  0  0  0  0  0  0
  145.9576  135.4604  154.0014 H   0  0  0  0  0  0  0  0  0  0  0  0
  147.2973  136.6628  152.4324 H   0  0  0  0  0  0  0  0  0  0  0  0
  1  2  1  0  0  0  0
  1 20  1  0  0  0  0
  1 21  1  0  0  0  0
  1 22  1  0  0  0  0
  2 19  1  0  0  0  0
  2  3  1  0  0  0  0
  2 23  1  0  0  0  0
  3  4  1  0  0  0  0
  3 24  1  0  0  0  0
  3 25  1  0  0  0  0
  4  5  1  0  0  0  0
  4 26  1  0  0  0  0
  4 27  1  0  0  0  0
  5  6  1  0  0  0  0
  5 28  1  0  0  0  0
  5 29  1  0  0  0  0
  6  7  1  0  0  0  0
  6 19  1  0  0  0  0
  6 42  1  0  0  0  0
  7  8  1  0  0  0  0
  7  9  1  0  0  0  0
  7 30  1  0  0  0  0
  8 31  1  0  0  0  0
  8 32  1  0  0  0  0
  8 33  1  0  0  0  0
  9 10  1  0  0  0  0
  9 34  1  0  0  0  0
  9 35  1  0  0  0  0
 10 11  1  0  0  0  0
 10 36  1  0  0  0  0
 11 12  2  0  0  0  0
 11 13  1  0  0  0  0
 13 14  1  0  0  0  0
 13 37  1  0  0  0  0
 13 38  1  0  0  0  0
 14 18  1  0  0  0  0
 14 15  1  0  0  0  0
 15 16  2  0  0  0  0
 15 39  1  0  0  0  0
 16 17  1  0  0  0  0
 17 18  2  0  0  0  0
 19 40  1  0  0  0  0
 19 41  1  0  0  0  0
M  CHG  1   6   1
M  END
> <s_m_source_file>
AV-unprocessed.smi

> <i_m_source_file_index>
2095

> <i_lp_mmshare_version>
43012

> <i_f3d_flags>
0

> <s_epik_input>
W0NIM11bQ0BASF0xW0NIMl1bQ0gyXVtDSDJdTihbQ0gyXTEpW0NASF0oW0NIM10pW0NIMl1bTkhdQyg9TylbQ0gyXW4yW2NIXW5ubjI=

> <s_epik_cmdline>
J2VwaWtfcHl0aG9uJywgJy1waCcsICc3LjAnLCAnLXRuJywgJzgnLCAnLW1hJywgJzIwMCcsICctbWV0YWxfYmluZGluZycsICctaW1hZScsICc8aW5maWxlLm1hZT4nLCAnLW9tYWUnLCAnPG91dGZpbGUubWFlPic=

> <r_lp_tautomer_probability>
1

> <r_epik_Ionization_Penalty>
0.00268321

> <r_epik_Ionization_Penalty_Charging>
0.00267875

> <r_epik_Ionization_Penalty_Neutral>
4.46125e-06

> <r_epik_State_Penalty>
0.00186642

> <r_epik_Charging_Adjusted_Penalty>
0.00454517

> <i_epik_Tot_Q>
1

> <i_epik_Tot_abs_Q>
1

> <r_epik_Metal_State_Penalty>
-0

> <b_epik_Metal_Only>
0

> <s_lp_Force_Field>
OPLS_2005

> <r_lp_Energy>
24.9707

> <b_lp_Chiralities_Consistent>
1

> <s_lp_Variant>
AV-unprocessed.smi:2095-7

> <Gold.Version>
5.8.1

> <Gold.Id.Protein>
6NUR|6NUR_protein|mol2

> <Gold.PLP.Fitness>
42.4787

> <Gold.PLP.PLP>
-27.9768

> <Gold.PLP.part.hbond>
-6.0000

> <Gold.PLP.part.metal>
0.0000

> <Gold.PLP.part.buried>
4.9291

> <Gold.PLP.part.nonpolar>
-25.9797

> <Gold.PLP.part.repulsive>
0.1788

> <Gold.PLP.ligand.clash>
0.0000

> <Gold.PLP.ligand.torsion>
0.9214

> <Gold.PLP.Chemscore.Hbond>
5.4080

> <Gold.PLP.Chemscore.CHOScore>
0.0000

> <Gold.PLP.Chemscore.Metal>
0.0000

> <Gold.Chemscore.Hbonds>
donor molecule, donor type, donor heavy atom, donor atom, acceptor molecule, acceptor atom, score
      L1  H     6    42       P1  7948  2.00
      L1  H    10    36       P1  7948  0.98
      P1  H  7989  7998       L1    12  0.58
      P1  H  7997  8009       L1    16  0.54
      P1  H 10752 10765       L1    18  0.13

> <Gold.PLP.Chemscore.Internal.Correction>
0.1206

> <Gold.Rescore>
     Score         DG    S(hbond)    S(metal)    S(lipo)     H(rot)  DE(clash)    DE(int)     intcor
     12.19     -18.04       3.76        0.00      57.93       2.64       3.59       2.26       ----

> <Gold.Chemscore.Fitness>
12.1854

> <Gold.Chemscore.DG>
-18.0352

> <Gold.Chemscore.ZeroCoef>
-5.4800

> <Gold.Chemscore.Hbond>
3.7563

> <Gold.Chemscore.Metal>
0.0000

> <Gold.Chemscore.Lipo>
57.9280

> <Gold.Chemscore.Internal_Hbond>
0.0000

> <Gold.Chemscore.DEClash>
3.5921

> <Gold.Chemscore.DEInternal>
2.2577

> <Gold.Chemscore.Rot>
2.6439

> <Gold.Chemscore.Internal.Correction>
   9.000000E+99

> <Gold.Chemscore.Hbonds>
donor molecule, donor type, donor heavy atom, donor atom, acceptor molecule, acceptor atom, score
      L1  H     6    42       P1  7948  1.00
      L1  H    10    36       P1  7948  0.89
      P1  H  7989  7998       L1    12  0.04
      P1  H  7997  8009       L1    16  0.03
      P1  H 10752 10765       L1    18  0.13

> <Gold.Chemscore.Hbond.Weighted>
-12.5461

> <Gold.Chemscore.Metal.Weighted>
-0.0000

> <Gold.Chemscore.Lipo.Weighted>
-6.7776

> <Gold.Chemscore.Internal_Hbond.Weighted>
0.0000

> <Gold.Chemscore.DEClash.Weighted>
3.5921

> <Gold.Chemscore.DEInternal.Weighted>
2.2577

> <Gold.Chemscore.Rot.Weighted>
6.7685

> <Gold.Chemscore.Internal.Correction.Weighted>
   9.000000E+99

> <Gold.Protein.RotatedTorsions>
[ 6907 6896 6895 6894 ] final  -56.93 input  -60.11 | X-H torsion
[ 7974 7965 7964 7962 ] final   17.37 input  175.53 | X-H torsion
[ 8008 7997 7996 7995 ] final  152.78 input   59.86 | X-H torsion
[ 10167 10162 10161 10158 ] final -162.74 input  -65.29 | X-H torsion
[ 10718 10713 10712 10709 ] final  134.60 input   66.30 | X-H torsion
[ 10763 10752 10751 10750 ] final -140.28 input  -60.55 | X-H torsion
[ 11005 11000 10999 10996 ] final -162.15 input  -57.11 | X-H torsion

> <Gold.Protein.ActiveResidues>
 VAL166  LYS551  ARG553  GLY616  TRP617  ASP618  TYR619  PRO620  LYS621  CYS622 
 ASP623  PHE694  ASN695  SER759  ASP760  ASP761  ALA762  ILE779  LEU786  VAL792 
 PHE793  MET794  SER795  GLU796  ALA797  LYS798  CYS799  TRP800  GLU811  SER814 

> <Gold.Protein.RotatedAtoms>
  150.8127  134.7291  159.6702 H   0  0  0  0  0  0  0  0  0  0  0  0  # atno 6907 bound_to 6896
  152.4247  134.5888  159.9978 H   0  0  0  0  0  0  0  0  0  0  0  0  # atno 6908 bound_to 6896
  151.6093  133.3311  159.3100 H   0  0  0  0  0  0  0  0  0  0  0  0  # atno 6909 bound_to 6896
  146.2220  139.8612  142.8604 H   0  0  0  0  0  0  0  0  0  0  0  0  # atno 7974 bound_to 7965
  156.2613  140.2011  156.6388 H   0  0  0  0  0  0  0  0  0  0  0  0  # atno 8008 bound_to 7997
  154.6626  140.0559  157.0103 H   0  0  0  0  0  0  0  0  0  0  0  0  # atno 8009 bound_to 7997
  155.1254  140.3228  155.4490 H   0  0  0  0  0  0  0  0  0  0  0  0  # atno 8010 bound_to 7997
  139.6370  144.0331  152.2062 H   0  0  0  0  0  0  0  0  0  0  0  0  # atno 10167 bound_to 10162
  157.4656  131.1076  150.9867 H   0  0  0  0  0  0  0  0  0  0  0  0  # atno 10718 bound_to 10713
  154.8583  135.3558  154.5682 H   0  0  0  0  0  0  0  0  0  0  0  0  # atno 10763 bound_to 10752
  153.6296  135.7003  153.5285 H   0  0  0  0  0  0  0  0  0  0  0  0  # atno 10764 bound_to 10752
  153.3061  135.4192  155.1254 H   0  0  0  0  0  0  0  0  0  0  0  0  # atno 10765 bound_to 10752
  140.6124  134.4835  157.5216 H   0  0  0  0  0  0  0  0  0  0  0  0  # atno 11005 bound_to 11000
  145.2702  141.0106  143.3776 LP  0  0  0  0  0  0  0  0  0  0  0  0  # atno 17320 bound_to 7965
  144.9229  139.4390  143.6532 LP  0  0  0  0  0  0  0  0  0  0  0  0  # atno 17321 bound_to 7965
  140.0011  144.6293  150.7729 LP  0  0  0  0  0  0  0  0  0  0  0  0  # atno 17342 bound_to 10162
  140.7471  143.2900  151.3356 LP  0  0  0  0  0  0  0  0  0  0  0  0  # atno 17343 bound_to 10162
  157.0649  130.5840  149.5392 LP  0  0  0  0  0  0  0  0  0  0  0  0  # atno 17370 bound_to 10713
  156.0049  130.5134  150.7793 LP  0  0  0  0  0  0  0  0  0  0  0  0  # atno 17371 bound_to 10713
  139.9186  134.8194  156.1283 LP  0  0  0  0  0  0  0  0  0  0  0  0  # atno 17394 bound_to 11000
  141.0799  133.6759  156.2313 LP  0  0  0  0  0  0  0  0  0  0  0  0  # atno 17395 bound_to 11000

$$$$
