#       Name:                AV-unprocessed.smi:139
#       Creating user name   scv26
#       Creation time:       Thu Mar 26 18:33:23 2020


#       File generated by GOLD software.
#

@<TRIPOS>MOLECULE
AV-unprocessed.smi:139
    58    61     1
SMALL
NO_CHARGES


@<TRIPOS>ATOM
      1 ****        -1.3465   1.3053   1.1362 O.2            1 S1                 0.0000
      2 ****        -0.6058   0.3593   1.4076 C.2            1 S1                 0.0000
      3 ****         0.9208   0.5293   1.4159 C.3            1 S1                 0.0000
      4 ****         1.3806   1.7262   0.6786 N.am           1 S1                 0.0000
      5 ****         1.5934   2.9313   1.3929 C.2            1 S1                 0.0000
      6 ****         1.4133   2.9936   2.6099 O.2            1 S1                 0.0000
      7 ****         2.0247   4.0704   0.5906 C.2            1 S1                 0.0000
      8 ****         2.2509   5.2546   1.1842 F              1 S1                 0.0000
      9 ****         2.1989   3.9568  -0.7423 C.2            1 S1                 0.0000
     10 ****         1.9868   2.7733  -1.4273 N.am           1 S1                 0.0000
     11 ****         2.1681   2.6664  -2.9272 C.3            1 S1                 0.0000
     12 ****         3.4324   1.8533  -3.2657 C.3            1 S1                 0.0000
     13 ****         4.1716   2.7655  -4.2247 C.3            1 S1                 0.0000
     14 ****         3.7221   4.1420  -3.7593 C.3            1 S1                 0.0000
     15 ****         2.3434   3.9409  -3.4779 O.3            1 S1                 0.0000
     16 ****         1.5587   1.6278  -0.7220 C.2            1 S1                 0.0000
     17 ****         1.3429   0.5691  -1.3165 O.2            1 S1                 0.0000
     18 ****        -1.0548  -0.8659   1.7189 N.am           1 S1                 0.0000
     19 ****        -2.4529  -1.2909   1.7456 C.3            1 S1                 0.0000
     20 ****        -2.9262  -1.4547   3.2024 C.3            1 S1                 0.0000
     21 ****        -2.5468  -2.8201   3.7828 C.3            1 S1                 0.0000
     22 ****        -3.1661  -3.9580   2.9631 C.3            1 S1                 0.0000
     23 ****        -2.9655  -3.7974   1.4641 C.ar           1 S1                 0.0000
     24 ****        -3.1167  -4.9270   0.6326 C.ar           1 S1                 0.0000
     25 ****        -2.9449  -4.8161  -0.7600 C.ar           1 S1                 0.0000
     26 ****        -2.6214  -3.5716  -1.3303 C.ar           1 S1                 0.0000
     27 ****        -2.4717  -2.4396  -0.5076 C.ar           1 S1                 0.0000
     28 ****        -2.6446  -2.5400   0.8903 C.ar           1 S1                 0.0000
     29 ****         1.2558   0.5435   2.4539 H              1 S1                 0.0000
     30 ****         1.3808  -0.3703   1.0027 H              1 S1                 0.0000
     31 ****         2.5147   4.8396  -1.2767 H              1 S1                 0.0000
     32 ****         1.2411   2.2316  -3.3054 H              1 S1                 0.0000
     33 ****         4.0269   1.6850  -2.3662 H              1 S1                 0.0000
     34 ****         3.1723   0.8896  -3.7044 H              1 S1                 0.0000
     35 ****         5.2535   2.6355  -4.1917 H              1 S1                 0.0000
     36 ****         3.8352   2.5882  -5.2470 H              1 S1                 0.0000
     37 ****         4.2526   4.4382  -2.8532 H              1 S1                 0.0000
     38 ****         3.8702   4.9133  -4.5151 H              1 S1                 0.0000
     39 ****        -0.3678  -1.5752   1.9306 H              1 S1                 0.0000
     40 ****        -3.0730  -0.5159   1.2917 H              1 S1                 0.0000
     41 ****        -2.5463  -0.6454   3.8274 H              1 S1                 0.0000
     42 ****        -4.0133  -1.3679   3.2299 H              1 S1                 0.0000
     43 ****        -1.4606  -2.9190   3.7811 H              1 S1                 0.0000
     44 ****        -2.8625  -2.8948   4.8238 H              1 S1                 0.0000
     45 ****        -2.7526  -4.9135   3.2885 H              1 S1                 0.0000
     46 ****        -4.2393  -4.0017   3.1518 H              1 S1                 0.0000
     47 ****        -3.3660  -5.8860   1.0627 H              1 S1                 0.0000
     48 ****        -3.0610  -5.6860  -1.3896 H              1 S1                 0.0000
     49 ****        -2.4873  -3.4843  -2.3984 H              1 S1                 0.0000
     50 ****        -2.2205  -1.4878  -0.9530 H              1 S1                 0.0000
     51 ****        -0.9558   2.1994   0.9172 LP             1 S1                 0.0000
     52 ****        -2.3385   1.1792   1.1349 LP             1 S1                 0.0000
     53 ****         1.1112   2.1837   3.1128 LP             1 S1                 0.0000
     54 ****         1.5693   3.8540   3.0951 LP             1 S1                 0.0000
     55 ****         2.0304   4.6326  -2.8270 LP             1 S1                 0.0000
     56 ****         1.8150   4.0156  -4.3235 LP             1 S1                 0.0000
     57 ****         1.0374  -0.2363  -0.8085 LP             1 S1                 0.0000
     58 ****         1.4735   0.5160  -2.3065 LP             1 S1                 0.0000
@<TRIPOS>BOND
    1    1    2 2     
    2    2    3 1     
    3    2   18 am    
    4    3    4 1     
    5    3   29 1     
    6    3   30 1     
    7    4   16 am    
    8    4    5 am    
    9    5    6 2     
   10    5    7 1     
   11    7    8 1     
   12    7    9 2     
   13    9   10 1     
   14    9   31 1     
   15   10   11 1     
   16   10   16 am    
   17   11   15 1     
   18   11   12 1     
   19   11   32 1     
   20   12   13 1     
   21   12   33 1     
   22   12   34 1     
   23   13   14 1     
   24   13   35 1     
   25   13   36 1     
   26   14   15 1     
   27   14   37 1     
   28   14   38 1     
   29   16   17 2     
   30   18   19 1     
   31   18   39 1     
   32   19   28 1     
   33   19   20 1     
   34   19   40 1     
   35   20   21 1     
   36   20   41 1     
   37   20   42 1     
   38   21   22 1     
   39   21   43 1     
   40   21   44 1     
   41   22   23 1     
   42   22   45 1     
   43   22   46 1     
   44   23   28 ar    
   45   23   24 ar    
   46   24   25 ar    
   47   24   47 1     
   48   25   26 ar    
   49   25   48 1     
   50   26   27 ar    
   51   26   49 1     
   52   27   28 ar    
   53   27   50 1     
   54    1   51 1     
   55    1   52 1     
   56    6   53 1     
   57    6   54 1     
   58   15   55 1     
   59   15   56 1     
   60   17   57 1     
   61   17   58 1     
@<TRIPOS>SUBSTRUCTURE
      1 S1             1
@<TRIPOS>SET
LONE_PAIRS      STATIC     ATOMS    <user>   **** ""
8 51 52 53 54 55 56 57 58
DONOR_HYDROGENS      STATIC     ATOMS    <user>   **** ""
1 39
ATOM$BLUE        STATIC     ATOMS    COLORGROUP SYSTEM
8 51 52 53 54 55 56 57 58
ATOM$RED        STATIC     ATOMS    COLORGROUP SYSTEM
1 39
