#       Name:                AV-unprocessed.smi:295
#       Creating user name   scv26
#       Creation time:       Thu Mar 26 22:14:06 2020


#       File generated by GOLD software.
#

@<TRIPOS>MOLECULE
AV-unprocessed.smi:295
    40    41     1
SMALL
NO_CHARGES


@<TRIPOS>ATOM
      1 ****        -0.9171  -0.0810  -1.7455 C.3            1 S1                 0.0000
      2 ****        -1.2399  -0.8499  -0.4508 C.3            1 S1                 0.0000
      3 ****        -2.7225  -1.2720  -0.4224 C.3            1 S1                 0.0000
      4 ****        -3.0684  -2.0543   0.8537 C.3            1 S1                 0.0000
      5 ****        -2.7192  -1.2440   2.1097 C.3            1 S1                 0.0000
      6 ****        -1.2417  -0.8262   2.1026 C.3            1 S1                 0.0000
      7 ****        -0.8796  -0.0459   0.8230 C.3            1 S1                 0.0000
      8 ****         0.5451   0.2703   0.8259 N.am           1 S1                 0.0000
      9 ****         1.0980   1.4116   1.2645 C.2            1 S1                 0.0000
     10 ****         0.4615   2.3133   1.8082 O.2            1 S1                 0.0000
     11 ****         2.6033   1.5628   1.0387 C.3            1 S1                 0.0000
     12 ****         2.9167   1.5568  -0.3797 N.pl3          1 S1                 0.0000
     13 ****         2.8642   2.5398  -1.2849 C.2            1 S1                 0.0000
     14 ****         3.1912   2.1593  -2.5138 N.2            1 S1                 0.0000
     15 ****         3.4498   0.8425  -2.2661 C.2            1 S1                 0.0000
     16 ****         3.8518  -0.0654  -3.3268 C.1            1 S1                 0.0000
     17 ****         4.1713  -0.7889  -4.1716 N.1            1 S1                 0.0000
     18 ****         3.3071   0.4221  -1.0112 N.2            1 S1                 0.0000
     19 ****        -1.4579   0.8648  -1.7884 H              1 S1                 0.0000
     20 ****        -1.1944  -0.6624  -2.6251 H              1 S1                 0.0000
     21 ****         0.1472   0.1407  -1.8307 H              1 S1                 0.0000
     22 ****        -0.6395  -1.7613  -0.4565 H              1 S1                 0.0000
     23 ****        -3.3581  -0.3879  -0.4894 H              1 S1                 0.0000
     24 ****        -2.9532  -1.8830  -1.2958 H              1 S1                 0.0000
     25 ****        -4.1287  -2.3086   0.8582 H              1 S1                 0.0000
     26 ****        -2.5233  -2.9991   0.8633 H              1 S1                 0.0000
     27 ****        -3.3504  -0.3558   2.1608 H              1 S1                 0.0000
     28 ****        -2.9360  -1.8303   3.0030 H              1 S1                 0.0000
     29 ****        -1.0300  -0.2200   2.9843 H              1 S1                 0.0000
     30 ****        -0.6156  -1.7161   2.1829 H              1 S1                 0.0000
     31 ****        -1.4564   0.8812   0.8092 H              1 S1                 0.0000
     32 ****         1.1579  -0.4121   0.4030 H              1 S1                 0.0000
     33 ****         2.9578   2.4988   1.4724 H              1 S1                 0.0000
     34 ****         3.1376   0.7514   1.5353 H              1 S1                 0.0000
     35 ****         2.5700   3.5503  -1.0415 H              1 S1                 0.0000
     36 ****        -0.5246   2.2175   1.9441 LP             1 S1                 0.0000
     37 ****         0.9303   3.1419   2.1143 LP             1 S1                 0.0000
     38 ****         3.2350   2.6811  -3.3657 LP             1 S1                 0.0000
     39 ****         4.4474  -1.4141  -4.9016 LP             1 S1                 0.0000
     40 ****         3.4505  -0.4924  -0.6327 LP             1 S1                 0.0000
@<TRIPOS>BOND
    1    1    2 1     
    2    1   19 1     
    3    1   20 1     
    4    1   21 1     
    5    2    7 1     
    6    2    3 1     
    7    2   22 1     
    8    3    4 1     
    9    3   23 1     
   10    3   24 1     
   11    4    5 1     
   12    4   25 1     
   13    4   26 1     
   14    5    6 1     
   15    5   27 1     
   16    5   28 1     
   17    6    7 1     
   18    6   29 1     
   19    6   30 1     
   20    7    8 1     
   21    7   31 1     
   22    8    9 am    
   23    8   32 1     
   24    9   10 2     
   25    9   11 1     
   26   11   12 1     
   27   11   33 1     
   28   11   34 1     
   29   12   18 1     
   30   12   13 1     
   31   13   14 2     
   32   13   35 1     
   33   14   15 1     
   34   15   16 1     
   35   15   18 2     
   36   16   17 3     
   37   10   36 1     
   38   10   37 1     
   39   14   38 1     
   40   17   39 1     
   41   18   40 1     
@<TRIPOS>SUBSTRUCTURE
      1 S1             1
@<TRIPOS>SET
LONE_PAIRS      STATIC     ATOMS    <user>   **** ""
5 36 37 38 39 40
DONOR_HYDROGENS      STATIC     ATOMS    <user>   **** ""
1 32
ATOM$BLUE        STATIC     ATOMS    COLORGROUP SYSTEM
5 36 37 38 39 40
ATOM$RED        STATIC     ATOMS    COLORGROUP SYSTEM
1 32
