AV-unprocessed.smi:2257|AV-procd|sdf|9128|dock8
  -GOLD-   2272012333D 1   1.00000     0.00000
 Structure written by MMmdl.
 40 42  0  0  0  0  0  0  0  0  1 V2000
  145.6439  132.1387  151.3311 C   0  0  0  0  0  0  0  0  0  0  0  0
  145.8385  132.9763  152.4649 O   0  0  0  0  0  0  0  0  0  0  0  0
  145.2191  134.2618  152.4133 C   0  0  0  0  0  0  0  0  0  0  0  0
  145.4984  135.0796  153.6866 C   0  0  0  0  0  0  0  0  0  0  0  0
  146.7090  135.8845  153.5572 N   0  0  0  0  0  0  0  0  0  0  0  0
  147.1612  136.7684  154.4568 C   0  0  0  0  0  0  0  0  0  0  0  0
  146.5821  137.0272  155.5111 O   0  0  0  0  0  0  0  0  0  0  0  0
  148.3047  137.3372  154.0401 N   0  0  0  0  0  0  0  0  0  0  0  0
  149.1079  138.2968  154.7118 C   0  0  0  0  0  0  0  0  0  0  0  0
  148.8283  138.5968  156.0615 C   0  0  0  0  0  0  0  0  0  0  0  0
  149.5401  139.5109  156.7545 N   0  0  0  0  0  0  0  0  0  0  0  0
  150.5175  140.1394  156.0955 C   0  0  0  0  0  0  0  0  0  0  0  0
  151.3303  141.1252  156.8761 C   0  0  0  0  0  0  0  0  0  0  0  0
  151.1012  141.3210  158.3612 C   0  0  0  0  0  0  0  0  0  0  0  0
  150.7046  142.4032  157.3964 C   0  0  0  0  0  0  0  0  0  0  0  0
  150.8751  139.9415  154.8238 N   0  0  0  0  0  0  0  0  0  0  0  0
  150.1699  139.0267  154.1232 C   0  0  0  0  0  0  0  0  0  0  0  0
  145.5698  134.9034  151.0558 C   0  0  0  0  0  0  0  0  0  0  0  0
  144.1038  135.3163  150.9167 C   0  0  0  0  0  0  0  0  0  0  0  0
  143.7708  134.1812  151.8859 C   0  0  0  0  0  0  0  0  0  0  0  0
  146.1792  131.2022  151.4859 H   0  0  0  0  0  0  0  0  0  0  0  0
  146.0319  132.5887  150.4176 H   0  0  0  0  0  0  0  0  0  0  0  0
  144.5957  131.8896  151.1745 H   0  0  0  0  0  0  0  0  0  0  0  0
  144.6776  135.7736  153.8685 H   0  0  0  0  0  0  0  0  0  0  0  0
  145.5386  134.4503  154.5758 H   0  0  0  0  0  0  0  0  0  0  0  0
  147.2542  135.7440  152.7194 H   0  0  0  0  0  0  0  0  0  0  0  0
  148.6167  137.0823  153.1144 H   0  0  0  0  0  0  0  0  0  0  0  0
  148.0313  138.0974  156.5929 H   0  0  0  0  0  0  0  0  0  0  0  0
  152.3532  141.1736  156.5076 H   0  0  0  0  0  0  0  0  0  0  0  0
  150.3010  140.7533  158.8320 H   0  0  0  0  0  0  0  0  0  0  0  0
  151.9757  141.4970  158.9840 H   0  0  0  0  0  0  0  0  0  0  0  0
  151.3127  143.3052  157.3740 H   0  0  0  0  0  0  0  0  0  0  0  0
  149.6407  142.5542  157.2247 H   0  0  0  0  0  0  0  0  0  0  0  0
  150.4587  138.9081  153.0906 H   0  0  0  0  0  0  0  0  0  0  0  0
  146.2695  135.7381  151.1018 H   0  0  0  0  0  0  0  0  0  0  0  0
  145.8704  134.1751  150.3003 H   0  0  0  0  0  0  0  0  0  0  0  0
  143.8982  136.3045  151.3312 H   0  0  0  0  0  0  0  0  0  0  0  0
  143.6887  135.2007  149.9150 H   0  0  0  0  0  0  0  0  0  0  0  0
  143.5463  133.2504  151.3619 H   0  0  0  0  0  0  0  0  0  0  0  0
  143.0011  134.4233  152.6193 H   0  0  0  0  0  0  0  0  0  0  0  0
  1  2  1  0  0  0  0
  1 21  1  0  0  0  0
  1 22  1  0  0  0  0
  1 23  1  0  0  0  0
  2  3  1  0  0  0  0
  3 20  1  0  0  0  0
  3  4  1  0  0  0  0
  3 18  1  0  0  0  0
  4  5  1  0  0  0  0
  4 24  1  0  0  0  0
  4 25  1  0  0  0  0
  5  6  1  0  0  0  0
  5 26  1  0  0  0  0
  6  7  2  0  0  0  0
  6  8  1  0  0  0  0
  8  9  1  0  0  0  0
  8 27  1  0  0  0  0
  9 17  1  0  0  0  0
  9 10  2  0  0  0  0
 10 11  1  0  0  0  0
 10 28  1  0  0  0  0
 11 12  2  0  0  0  0
 12 13  1  0  0  0  0
 12 16  1  0  0  0  0
 13 15  1  0  0  0  0
 13 14  1  0  0  0  0
 13 29  1  0  0  0  0
 14 15  1  0  0  0  0
 14 30  1  0  0  0  0
 14 31  1  0  0  0  0
 15 32  1  0  0  0  0
 15 33  1  0  0  0  0
 16 17  2  0  0  0  0
 17 34  1  0  0  0  0
 18 19  1  0  0  0  0
 18 35  1  0  0  0  0
 18 36  1  0  0  0  0
 19 20  1  0  0  0  0
 19 37  1  0  0  0  0
 19 38  1  0  0  0  0
 20 39  1  0  0  0  0
 20 40  1  0  0  0  0
M  END
> <s_m_source_file>
AV-unprocessed.smi

> <i_m_source_file_index>
2257

> <i_lp_mmshare_version>
43012

> <i_f3d_flags>
0

> <s_epik_input>
W0NIMl0xW0NIMl1bQ0gyXUMxKE9bQ0gzXSlbQ0gyXVtOSF1DKD1PKVtOSF1jMltjSF1uYyhuW2NIXTIpW0NIXTNbQ0gyXVtDSDJdMw==

> <s_epik_cmdline>
J2VwaWtfcHl0aG9uJywgJy1waCcsICc3LjAnLCAnLXRuJywgJzgnLCAnLW1hJywgJzIwMCcsICctbWV0YWxfYmluZGluZycsICctaW1hZScsICc8aW5maWxlLm1hZT4nLCAnLW9tYWUnLCAnPG91dGZpbGUubWFlPic=

> <r_lp_tautomer_probability>
1

> <r_epik_Ionization_Penalty>
2.49679e-05

> <r_epik_Ionization_Penalty_Charging>
0

> <r_epik_Ionization_Penalty_Neutral>
2.49679e-05

> <r_epik_State_Penalty>
-0

> <r_epik_Charging_Adjusted_Penalty>
0

> <i_epik_Tot_Q>
0

> <i_epik_Tot_abs_Q>
0

> <r_epik_Metal_State_Penalty>
-0

> <b_epik_Metal_Only>
0

> <s_lp_Force_Field>
OPLS_2005

> <r_lp_Energy>
15.4086

> <b_lp_Chiralities_Consistent>
1

> <s_lp_Variant>
AV-unprocessed.smi:2257-1

> <Gold.Version>
5.8.1

> <Gold.Id.Protein>
6NUR|6NUR_protein|mol2

> <Gold.PLP.Fitness>
37.5523

> <Gold.PLP.PLP>
-27.1464

> <Gold.PLP.part.hbond>
-2.9617

> <Gold.PLP.part.metal>
0.0000

> <Gold.PLP.part.buried>
-4.5292

> <Gold.PLP.part.nonpolar>
-20.5778

> <Gold.PLP.part.repulsive>
0.1971

> <Gold.PLP.ligand.clash>
0.0000

> <Gold.PLP.ligand.torsion>
0.8155

> <Gold.PLP.Chemscore.Hbond>
2.8800

> <Gold.PLP.Chemscore.CHOScore>
1.0000

> <Gold.PLP.Chemscore.Metal>
0.0000

> <Gold.Chemscore.Hbonds>
donor molecule, donor type, donor heavy atom, donor atom, acceptor molecule, acceptor atom, score
      L1  H     5    26       P1  7948  0.88
      L1  H     8    27       P1  7948  1.00
      P1  H  7989  7998       L1    16  1.00
      L1  C    17    34       P1  7957  1.00

> <Gold.PLP.Chemscore.Internal.Correction>
0.3968

> <Gold.Rescore>
     Score         DG    S(hbond)    S(metal)    S(lipo)     H(rot)  DE(clash)    DE(int)     intcor
     14.37     -16.55       2.35        0.00      63.12       1.62       0.31       1.87       ----

> <Gold.Chemscore.Fitness>
14.3709

> <Gold.Chemscore.DG>
-16.5490

> <Gold.Chemscore.ZeroCoef>
-5.4800

> <Gold.Chemscore.Hbond>
2.3467

> <Gold.Chemscore.Metal>
0.0000

> <Gold.Chemscore.Lipo>
63.1235

> <Gold.Chemscore.Internal_Hbond>
0.0000

> <Gold.Chemscore.DEClash>
0.3089

> <Gold.Chemscore.DEInternal>
1.8691

> <Gold.Chemscore.Rot>
1.6229

> <Gold.Chemscore.Internal.Correction>
   9.000000E+99

> <Gold.Chemscore.Hbonds>
donor molecule, donor type, donor heavy atom, donor atom, acceptor molecule, acceptor atom, score
      L1  H     5    26       P1  7948  0.86
      L1  H     8    27       P1  7948  0.94
      P1  H  7989  7998       L1    16  0.30

> <Gold.Chemscore.Hbond.Weighted>
-7.8380

> <Gold.Chemscore.Metal.Weighted>
-0.0000

> <Gold.Chemscore.Lipo.Weighted>
-7.3855

> <Gold.Chemscore.Internal_Hbond.Weighted>
0.0000

> <Gold.Chemscore.DEClash.Weighted>
0.3089

> <Gold.Chemscore.DEInternal.Weighted>
1.8691

> <Gold.Chemscore.Rot.Weighted>
4.1545

> <Gold.Chemscore.Internal.Correction.Weighted>
   9.000000E+99

> <Gold.Protein.RotatedTorsions>
[ 6907 6896 6895 6894 ] final  104.12 input  -60.11 | X-H torsion
[ 7974 7965 7964 7962 ] final   99.36 input  175.53 | X-H torsion
[ 8008 7997 7996 7995 ] final  -87.07 input   59.86 | X-H torsion
[ 10167 10162 10161 10158 ] final    3.07 input  -65.29 | X-H torsion
[ 10718 10713 10712 10709 ] final -135.98 input   66.30 | X-H torsion
[ 10763 10752 10751 10750 ] final   93.15 input  -60.55 | X-H torsion
[ 11005 11000 10999 10996 ] final  -11.75 input  -57.11 | X-H torsion

> <Gold.Protein.ActiveResidues>
 VAL166  LYS551  ARG553  GLY616  TRP617  ASP618  TYR619  PRO620  LYS621  CYS622 
 ASP623  PHE694  ASN695  SER759  ASP760  ASP761  ALA762  ILE779  LEU786  VAL792 
 PHE793  MET794  SER795  GLU796  ALA797  LYS798  CYS799  TRP800  GLU811  SER814 

> <Gold.Protein.RotatedAtoms>
  152.5274  133.9724  159.7767 H   0  0  0  0  0  0  0  0  0  0  0  0  # atno 6907 bound_to 6896
  150.9993  133.6064  159.2704 H   0  0  0  0  0  0  0  0  0  0  0  0  # atno 6908 bound_to 6896
  151.3178  135.0817  159.9348 H   0  0  0  0  0  0  0  0  0  0  0  0  # atno 6909 bound_to 6896
  145.3998  139.2349  143.3306 H   0  0  0  0  0  0  0  0  0  0  0  0  # atno 7974 bound_to 7965
  154.6591  140.0570  157.0042 H   0  0  0  0  0  0  0  0  0  0  0  0  # atno 8008 bound_to 7997
  155.1256  140.3251  155.4468 H   0  0  0  0  0  0  0  0  0  0  0  0  # atno 8009 bound_to 7997
  156.2610  140.1990  156.6377 H   0  0  0  0  0  0  0  0  0  0  0  0  # atno 8010 bound_to 7997
  140.6604  143.7319  150.7728 H   0  0  0  0  0  0  0  0  0  0  0  0  # atno 10167 bound_to 10162
  156.2720  130.7271  151.1241 H   0  0  0  0  0  0  0  0  0  0  0  0  # atno 10718 bound_to 10713
  153.2271  135.4335  155.0554 H   0  0  0  0  0  0  0  0  0  0  0  0  # atno 10763 bound_to 10752
  154.8279  135.3370  154.6841 H   0  0  0  0  0  0  0  0  0  0  0  0  # atno 10764 bound_to 10752
  153.7270  135.7013  153.5055 H   0  0  0  0  0  0  0  0  0  0  0  0  # atno 10765 bound_to 10752
  140.7585  133.8534  155.9105 H   0  0  0  0  0  0  0  0  0  0  0  0  # atno 11005 bound_to 11000
  146.2757  140.4694  142.8796 LP  0  0  0  0  0  0  0  0  0  0  0  0  # atno 17320 bound_to 7965
  144.8382  140.6815  143.6247 LP  0  0  0  0  0  0  0  0  0  0  0  0  # atno 17321 bound_to 7965
  140.0986  143.4809  152.2438 LP  0  0  0  0  0  0  0  0  0  0  0  0  # atno 17342 bound_to 10162
  139.5836  144.7521  151.3576 LP  0  0  0  0  0  0  0  0  0  0  0  0  # atno 17343 bound_to 10162
  157.7287  131.0630  150.5808 LP  0  0  0  0  0  0  0  0  0  0  0  0  # atno 17370 bound_to 10713
  156.5906  130.4328  149.5938 LP  0  0  0  0  0  0  0  0  0  0  0  0  # atno 17371 bound_to 10713
  140.9685  134.1563  157.4596 LP  0  0  0  0  0  0  0  0  0  0  0  0  # atno 17394 bound_to 11000
  139.8775  134.9970  156.5824 LP  0  0  0  0  0  0  0  0  0  0  0  0  # atno 17395 bound_to 11000

$$$$
