AV-unprocessed.smi:1550|AV-procd|sdf|6224|dock8
  -GOLD-   22720 6403D 1   1.00000     0.00000
 Structure written by MMmdl.
 43 44  0  0  0  0  0  0  0  0  1 V2000
  149.4707  137.9271  156.9891 C   0  0  0  0  0  0  0  0  0  0  0  0
  149.3245  138.4275  158.4339 C   0  0  2  0  0  0  0  0  0  0  0  0
  150.4027  139.3239  158.6871 O   0  0  0  0  0  0  0  0  0  0  0  0
  150.5062  140.4255  157.7916 C   0  0  0  0  0  0  0  0  0  0  0  0
  150.7594  141.7029  158.6016 C   0  0  2  0  0  0  0  0  0  0  0  0
  150.8699  142.9520  157.7046 C   0  0  0  0  0  0  0  0  0  0  0  0
  151.2135  144.1883  158.5425 C   0  0  0  0  0  0  0  0  0  0  0  0
  152.4584  143.9075  159.3908 C   0  0  0  0  0  0  0  0  0  0  0  0
  152.2725  142.6150  160.2013 C   0  0  0  0  0  0  0  0  0  0  0  0
  151.9752  141.5305  159.3268 O   0  0  0  0  0  0  0  0  0  0  0  0
  149.3533  137.2633  159.4382 C   0  0  0  0  0  0  0  0  0  0  0  0
  150.4340  136.8756  159.8809 O   0  0  0  0  0  0  0  0  0  0  0  0
  148.1465  136.7704  159.7818 N   0  0  0  0  0  0  0  0  0  0  0  0
  147.8110  135.7378  160.6748 C   0  0  0  0  0  0  0  0  0  0  0  0
  148.1007  134.4213  160.4997 C   0  0  0  0  0  0  0  0  0  0  0  0
  147.7191  133.4108  161.4726 C   0  0  0  0  0  0  0  0  0  0  0  0
  147.9986  131.9340  161.2379 C   0  0  0  0  0  0  0  0  0  0  0  0
  146.8724  131.2195  161.2486 F   0  0  0  0  0  0  0  0  0  0  0  0
  148.6046  131.7422  160.0660 F   0  0  0  0  0  0  0  0  0  0  0  0
  148.7956  131.4668  162.1978 F   0  0  0  0  0  0  0  0  0  0  0  0
  147.0366  133.8414  162.5495 C   0  0  0  0  0  0  0  0  0  0  0  0
  146.7379  135.1920  162.7391 N   0  0  0  0  0  0  0  0  0  0  0  0
  147.0774  136.1742  161.8748 C   0  0  0  0  0  0  0  0  0  0  0  0
  146.7736  137.3426  162.1134 O   0  0  0  0  0  0  0  0  0  0  0  0
  146.2327  135.4372  163.5782 H   0  0  0  0  0  0  0  0  0  0  0  0
  148.6768  137.2258  156.7296 H   0  0  0  0  0  0  0  0  0  0  0  0
  150.4266  137.4259  156.8313 H   0  0  0  0  0  0  0  0  0  0  0  0
  149.4171  138.7586  156.2859 H   0  0  0  0  0  0  0  0  0  0  0  0
  148.3789  138.9676  158.5143 H   0  0  0  0  0  0  0  0  0  0  0  0
  151.3388  140.2530  157.1081 H   0  0  0  0  0  0  0  0  0  0  0  0
  149.6075  140.5431  157.1851 H   0  0  0  0  0  0  0  0  0  0  0  0
  149.9438  141.8299  159.3158 H   0  0  0  0  0  0  0  0  0  0  0  0
  151.6426  142.7968  156.9505 H   0  0  0  0  0  0  0  0  0  0  0  0
  149.9366  143.1164  157.1650 H   0  0  0  0  0  0  0  0  0  0  0  0
  151.3787  145.0516  157.8974 H   0  0  0  0  0  0  0  0  0  0  0  0
  150.3734  144.4365  159.1925 H   0  0  0  0  0  0  0  0  0  0  0  0
  153.3293  143.8075  158.7417 H   0  0  0  0  0  0  0  0  0  0  0  0
  152.6589  144.7467  160.0572 H   0  0  0  0  0  0  0  0  0  0  0  0
  153.1851  142.3838  160.7508 H   0  0  0  0  0  0  0  0  0  0  0  0
  151.4777  142.7294  160.9399 H   0  0  0  0  0  0  0  0  0  0  0  0
  147.3504  137.2262  159.3591 H   0  0  0  0  0  0  0  0  0  0  0  0
  148.6239  134.0742  159.6248 H   0  0  0  0  0  0  0  0  0  0  0  0
  146.6689  133.1974  163.3347 H   0  0  0  0  0  0  0  0  0  0  0  0
  1  2  1  0  0  0  0
  1 26  1  0  0  0  0
  1 27  1  0  0  0  0
  1 28  1  0  0  0  0
  2  3  1  0  0  0  0
  2 11  1  0  0  0  0
  2 29  1  0  0  0  0
  3  4  1  0  0  0  0
  4  5  1  0  0  0  0
  4 30  1  0  0  0  0
  4 31  1  0  0  0  0
  5 10  1  0  0  0  0
  5  6  1  0  0  0  0
  5 32  1  0  0  0  0
  6  7  1  0  0  0  0
  6 33  1  0  0  0  0
  6 34  1  0  0  0  0
  7  8  1  0  0  0  0
  7 35  1  0  0  0  0
  7 36  1  0  0  0  0
  8  9  1  0  0  0  0
  8 37  1  0  0  0  0
  8 38  1  0  0  0  0
  9 10  1  0  0  0  0
  9 39  1  0  0  0  0
  9 40  1  0  0  0  0
 11 12  2  0  0  0  0
 11 13  1  0  0  0  0
 13 14  1  0  0  0  0
 13 41  1  0  0  0  0
 14 23  1  0  0  0  0
 14 15  2  0  0  0  0
 15 16  1  0  0  0  0
 15 42  1  0  0  0  0
 16 17  1  0  0  0  0
 16 21  2  0  0  0  0
 17 18  1  0  0  0  0
 17 19  1  0  0  0  0
 17 20  1  0  0  0  0
 21 22  1  0  0  0  0
 21 43  1  0  0  0  0
 22 25  1  0  0  0  0
 22 23  1  0  0  0  0
 23 24  2  0  0  0  0
M  END
> <s_m_source_file>
AV-unprocessed.smi

> <i_m_source_file_index>
1550

> <i_lp_mmshare_version>
43012

> <i_f3d_flags>
0

> <s_epik_input>
TzFbQ0gyXVtDSDJdW0NIMl1bQ0gyXVtDQEhdMVtDSDJdT1tDQEBIXShbQ0gzXSlDKD1PKVtOSF1jMltjSF1jKEMoRikoRilGKVtjSF1bbkhdYzI9Tw==

> <s_epik_cmdline>
J2VwaWtfcHl0aG9uJywgJy1waCcsICc3LjAnLCAnLXRuJywgJzgnLCAnLW1hJywgJzIwMCcsICctbWV0YWxfYmluZGluZycsICctaW1hZScsICc8aW5maWxlLm1hZT4nLCAnLW9tYWUnLCAnPG91dGZpbGUubWFlPic=

> <r_lp_tautomer_probability>
0.999

> <r_epik_Ionization_Penalty>
0.00891333

> <r_epik_Ionization_Penalty_Charging>
0.00891323

> <r_epik_Ionization_Penalty_Neutral>
1.00146e-07

> <r_epik_State_Penalty>
0.00674197

> <r_epik_Charging_Adjusted_Penalty>
0.0156552

> <i_epik_Tot_Q>
0

> <i_epik_Tot_abs_Q>
0

> <r_epik_Metal_State_Penalty>
0.321024

> <b_epik_Metal_Only>
0

> <s_lp_Force_Field>
OPLS_2005

> <r_lp_Energy>
25.3727

> <b_lp_Chiralities_Consistent>
1

> <s_lp_Variant>
AV-unprocessed.smi:1550-1

> <Gold.Version>
5.8.1

> <Gold.Id.Protein>
6NUR|6NUR_protein|mol2

> <Gold.PLP.Fitness>
49.2474

> <Gold.PLP.PLP>
-45.6622

> <Gold.PLP.part.hbond>
-3.0000

> <Gold.PLP.part.metal>
0.0000

> <Gold.PLP.part.buried>
-6.4791

> <Gold.PLP.part.nonpolar>
-36.4441

> <Gold.PLP.part.repulsive>
0.3299

> <Gold.PLP.ligand.clash>
0.0000

> <Gold.PLP.ligand.torsion>
1.7326

> <Gold.PLP.Chemscore.Hbond>
2.3120

> <Gold.PLP.Chemscore.CHOScore>
0.0000

> <Gold.PLP.Chemscore.Metal>
0.0000

> <Gold.Chemscore.Hbonds>
donor molecule, donor type, donor heavy atom, donor atom, acceptor molecule, acceptor atom, score
      P1  H  6896  6907       L1    12  1.00
      P1  H  6934  6947       L1    24  0.67

> <Gold.PLP.Chemscore.Internal.Correction>
0.1143

> <Gold.Rescore>
     Score         DG    S(hbond)    S(metal)    S(lipo)     H(rot)  DE(clash)    DE(int)     intcor
     18.39     -20.32       2.70        0.00      90.36       1.86       0.13       1.80       ----

> <Gold.Chemscore.Fitness>
18.3889

> <Gold.Chemscore.DG>
-20.3224

> <Gold.Chemscore.ZeroCoef>
-5.4800

> <Gold.Chemscore.Hbond>
2.7018

> <Gold.Chemscore.Metal>
0.0000

> <Gold.Chemscore.Lipo>
90.3621

> <Gold.Chemscore.Internal_Hbond>
0.0000

> <Gold.Chemscore.DEClash>
0.1288

> <Gold.Chemscore.DEInternal>
1.8048

> <Gold.Chemscore.Rot>
1.8571

> <Gold.Chemscore.Internal.Correction>
   9.000000E+99

> <Gold.Chemscore.Hbonds>
donor molecule, donor type, donor heavy atom, donor atom, acceptor molecule, acceptor atom, score
      P1  H  6896  6907       L1    12  0.99
      P1  H  6931  6943       L1    24  0.01
      P1  H  6934  6947       L1    24  0.66

> <Gold.Chemscore.Hbond.Weighted>
-9.0241

> <Gold.Chemscore.Metal.Weighted>
-0.0000

> <Gold.Chemscore.Lipo.Weighted>
-10.5724

> <Gold.Chemscore.Internal_Hbond.Weighted>
0.0000

> <Gold.Chemscore.DEClash.Weighted>
0.1288

> <Gold.Chemscore.DEInternal.Weighted>
1.8048

> <Gold.Chemscore.Rot.Weighted>
4.7541

> <Gold.Chemscore.Internal.Correction.Weighted>
   9.000000E+99

> <Gold.Protein.RotatedTorsions>
[ 6907 6896 6895 6894 ] final  -15.49 input  -60.11 | X-H torsion
[ 7974 7965 7964 7962 ] final  -36.46 input  175.53 | X-H torsion
[ 8008 7997 7996 7995 ] final -153.09 input   59.86 | X-H torsion
[ 10167 10162 10161 10158 ] final -102.70 input  -65.29 | X-H torsion
[ 10718 10713 10712 10709 ] final  -34.77 input   66.30 | X-H torsion
[ 10763 10752 10751 10750 ] final  -91.40 input  -60.55 | X-H torsion
[ 11005 11000 10999 10996 ] final  -54.78 input  -57.11 | X-H torsion

> <Gold.Protein.ActiveResidues>
 VAL166  LYS551  ARG553  GLY616  TRP617  ASP618  TYR619  PRO620  LYS621  CYS622 
 ASP623  PHE694  ASN695  SER759  ASP760  ASP761  ALA762  ILE779  LEU786  VAL792 
 PHE793  MET794  SER795  GLU796  ALA797  LYS798  CYS799  TRP800  GLU811  SER814 

> <Gold.Protein.RotatedAtoms>
  151.3232  135.0823  159.9312 H   0  0  0  0  0  0  0  0  0  0  0  0  # atno 6907 bound_to 6896
  152.5252  133.9618  159.7731 H   0  0  0  0  0  0  0  0  0  0  0  0  # atno 6908 bound_to 6896
  150.9942  133.6067  159.2734 H   0  0  0  0  0  0  0  0  0  0  0  0  # atno 6909 bound_to 6896
  146.0659  140.6281  142.8975 H   0  0  0  0  0  0  0  0  0  0  0  0  # atno 7974 bound_to 7965
  155.6654  140.0727  157.2539 H   0  0  0  0  0  0  0  0  0  0  0  0  # atno 8008 bound_to 7997
  154.4134  140.1708  156.1873 H   0  0  0  0  0  0  0  0  0  0  0  0  # atno 8009 bound_to 7997
  155.9661  140.3366  155.6537 H   0  0  0  0  0  0  0  0  0  0  0  0  # atno 8010 bound_to 7997
  140.2279  143.3628  152.0913 H   0  0  0  0  0  0  0  0  0  0  0  0  # atno 10167 bound_to 10162
  156.3466  130.4302  149.7741 H   0  0  0  0  0  0  0  0  0  0  0  0  # atno 10718 bound_to 10713
  154.6757  135.5269  153.8196 H   0  0  0  0  0  0  0  0  0  0  0  0  # atno 10763 bound_to 10752
  153.0530  135.6540  154.0655 H   0  0  0  0  0  0  0  0  0  0  0  0  # atno 10764 bound_to 10752
  154.0549  135.2966  155.3314 H   0  0  0  0  0  0  0  0  0  0  0  0  # atno 10765 bound_to 10752
  141.1042  133.6615  156.4371 H   0  0  0  0  0  0  0  0  0  0  0  0  # atno 11005 bound_to 11000
  144.7202  140.4348  143.7014 LP  0  0  0  0  0  0  0  0  0  0  0  0  # atno 17320 bound_to 7965
  145.6478  139.1560  143.2879 LP  0  0  0  0  0  0  0  0  0  0  0  0  # atno 17321 bound_to 7965
  139.5120  144.6910  151.5758 LP  0  0  0  0  0  0  0  0  0  0  0  0  # atno 17342 bound_to 10162
  140.6207  143.9264  150.6524 LP  0  0  0  0  0  0  0  0  0  0  0  0  # atno 17343 bound_to 10162
  156.4957  130.8105  151.3112 LP  0  0  0  0  0  0  0  0  0  0  0  0  # atno 17370 bound_to 10713
  157.7455  130.9961  150.2767 LP  0  0  0  0  0  0  0  0  0  0  0  0  # atno 17371 bound_to 10713
  140.4944  134.6545  157.5224 LP  0  0  0  0  0  0  0  0  0  0  0  0  # atno 17394 bound_to 11000
  139.9906  134.6992  155.9697 LP  0  0  0  0  0  0  0  0  0  0  0  0  # atno 17395 bound_to 11000

$$$$
