AV-unprocessed.smi:3141|AV-procd|sdf|11966|dock7
  -GOLD-   2272017363D 1   1.00000     0.00000
 Structure written by MMmdl.
 35 37  0  0  0  0  0  0  0  0  1 V2000
  151.6457  142.0047  158.7790 O   0  0  0  0  0  0  0  0  0  0  0  0
  151.4808  142.7024  157.7779 C   0  0  0  0  0  0  0  0  0  0  0  0
  151.8120  143.9979  157.6985 N   0  0  0  0  0  0  0  0  0  0  0  0
  152.4039  144.7648  158.7462 C   0  0  0  0  0  0  0  0  0  0  0  0
  152.1426  144.3295  160.1722 C   0  0  0  0  0  0  0  0  0  0  0  0
  151.4790  145.5675  159.6355 C   0  0  0  0  0  0  0  0  0  0  0  0
  150.9421  142.2575  156.6342 N   0  0  0  0  0  0  0  0  0  0  0  0
  150.4603  140.8968  156.4129 C   0  0  2  0  0  0  0  0  0  0  0  0
  151.5172  139.8703  156.8633 C   0  0  0  0  0  0  0  0  0  0  0  0
  152.0474  139.2134  155.5873 C   0  0  0  0  0  0  0  0  0  0  0  0
  150.8660  139.2596  154.6241 C   0  0  0  0  0  0  0  0  0  0  0  0
  150.2161  140.6186  154.9100 C   0  0  1  0  0  0  0  0  0  0  0  0
  148.8132  140.6778  154.5299 N   0  0  0  0  0  0  0  0  0  0  0  0
  148.0680  139.6598  153.9486 C   0  0  0  0  0  0  0  0  0  0  0  0
  146.7995  140.1581  153.7561 C   0  0  0  0  0  0  0  0  0  0  0  0
  146.7390  141.4737  154.2085 N   0  0  0  0  0  0  0  0  0  0  0  0
  147.9670  141.7120  154.6500 C   0  0  0  0  0  0  0  0  0  0  0  0
  151.6341  144.4799  156.8297 H   0  0  0  0  0  0  0  0  0  0  0  0
  153.3803  145.2065  158.5520 H   0  0  0  0  0  0  0  0  0  0  0  0
  151.5169  143.4534  160.3314 H   0  0  0  0  0  0  0  0  0  0  0  0
  152.9470  144.4634  160.8926 H   0  0  0  0  0  0  0  0  0  0  0  0
  151.8405  146.5279  159.9976 H   0  0  0  0  0  0  0  0  0  0  0  0
  150.4098  145.5173  159.4377 H   0  0  0  0  0  0  0  0  0  0  0  0
  150.8477  142.9057  155.8661 H   0  0  0  0  0  0  0  0  0  0  0  0
  149.5558  140.7363  157.0030 H   0  0  0  0  0  0  0  0  0  0  0  0
  152.3192  140.3060  157.4611 H   0  0  0  0  0  0  0  0  0  0  0  0
  151.0364  139.1112  157.4818 H   0  0  0  0  0  0  0  0  0  0  0  0
  152.8723  139.8029  155.1848 H   0  0  0  0  0  0  0  0  0  0  0  0
  152.4127  138.2003  155.7570 H   0  0  0  0  0  0  0  0  0  0  0  0
  151.1705  139.1525  153.5825 H   0  0  0  0  0  0  0  0  0  0  0  0
  150.1816  138.4426  154.8563 H   0  0  0  0  0  0  0  0  0  0  0  0
  150.7531  141.3618  154.3170 H   0  0  0  0  0  0  0  0  0  0  0  0
  148.4910  138.6924  153.7220 H   0  0  0  0  0  0  0  0  0  0  0  0
  145.9332  139.6749  153.3290 H   0  0  0  0  0  0  0  0  0  0  0  0
  148.2587  142.6637  155.0696 H   0  0  0  0  0  0  0  0  0  0  0  0
  1  2  2  0  0  0  0
  2  3  1  0  0  0  0
  2  7  1  0  0  0  0
  3  4  1  0  0  0  0
  3 18  1  0  0  0  0
  4  6  1  0  0  0  0
  4  5  1  0  0  0  0
  4 19  1  0  0  0  0
  5  6  1  0  0  0  0
  5 20  1  0  0  0  0
  5 21  1  0  0  0  0
  6 22  1  0  0  0  0
  6 23  1  0  0  0  0
  7  8  1  0  0  0  0
  7 24  1  0  0  0  0
  8 12  1  0  0  0  0
  8  9  1  0  0  0  0
  8 25  1  0  0  0  0
  9 10  1  0  0  0  0
  9 26  1  0  0  0  0
  9 27  1  0  0  0  0
 10 11  1  0  0  0  0
 10 28  1  0  0  0  0
 10 29  1  0  0  0  0
 11 12  1  0  0  0  0
 11 30  1  0  0  0  0
 11 31  1  0  0  0  0
 12 13  1  0  0  0  0
 12 32  1  0  0  0  0
 13 17  1  0  0  0  0
 13 14  1  0  0  0  0
 14 15  2  0  0  0  0
 14 33  1  0  0  0  0
 15 16  1  0  0  0  0
 15 34  1  0  0  0  0
 16 17  2  0  0  0  0
 17 35  1  0  0  0  0
M  END
> <s_m_source_file>
AV-unprocessed.smi

> <i_m_source_file_index>
3141

> <i_lp_mmshare_version>
43012

> <i_f3d_flags>
0

> <s_epik_input>
W0NIMl0xW0NIMl1bQ0hdMVtOSF1DKD1PKVtOSF1bQ0BASF0yW0NIMl1bQ0gyXVtDSDJdW0NASF0ybjNbY0hdW2NIXW5bY0hdMw==

> <s_epik_cmdline>
J2VwaWtfcHl0aG9uJywgJy1waCcsICc3LjAnLCAnLXRuJywgJzgnLCAnLW1hJywgJzIwMCcsICctbWV0YWxfYmluZGluZycsICctaW1hZScsICc8aW5maWxlLm1hZT4nLCAnLW9tYWUnLCAnPG91dGZpbGUubWFlPic=

> <r_lp_tautomer_probability>
1

> <r_epik_Ionization_Penalty>
0.728419

> <r_epik_Ionization_Penalty_Charging>
0.728357

> <r_epik_Ionization_Penalty_Neutral>
6.27871e-05

> <r_epik_State_Penalty>
0.753408

> <r_epik_Charging_Adjusted_Penalty>
1.48176

> <i_epik_Tot_Q>
0

> <i_epik_Tot_abs_Q>
0

> <r_epik_Metal_State_Penalty>
0.332413

> <b_epik_Metal_Only>
0

> <s_lp_Force_Field>
OPLS_2005

> <r_lp_Energy>
34.1677

> <b_lp_Chiralities_Consistent>
1

> <s_lp_Variant>
AV-unprocessed.smi:3141-5

> <Gold.Version>
5.8.1

> <Gold.Id.Protein>
6NUR|6NUR_protein|mol2

> <Gold.PLP.Fitness>
41.3533

> <Gold.PLP.PLP>
-36.3027

> <Gold.PLP.part.hbond>
0.0000

> <Gold.PLP.part.metal>
0.0000

> <Gold.PLP.part.buried>
-1.6339

> <Gold.PLP.part.nonpolar>
-34.3494

> <Gold.PLP.part.repulsive>
0.2562

> <Gold.PLP.ligand.clash>
0.0000

> <Gold.PLP.ligand.torsion>
0.4949

> <Gold.PLP.Chemscore.Hbond>
0.0000

> <Gold.PLP.Chemscore.CHOScore>
2.0000

> <Gold.PLP.Chemscore.Metal>
0.0000

> <Gold.Chemscore.Hbonds>
donor molecule, donor type, donor heavy atom, donor atom, acceptor molecule, acceptor atom, score
      L1  C    15    34       P1 10175  0.98
      L1  C    17    35       P1  8028  1.00

> <Gold.PLP.Chemscore.Internal.Correction>
0.0404

> <Gold.Rescore>
     Score         DG    S(hbond)    S(metal)    S(lipo)     H(rot)  DE(clash)    DE(int)     intcor
      8.15     -10.94       0.00        0.00      81.00       1.57       0.11       2.67       ----

> <Gold.Chemscore.Fitness>
8.1535

> <Gold.Chemscore.DG>
-10.9365

> <Gold.Chemscore.ZeroCoef>
-5.4800

> <Gold.Chemscore.Hbond>
0.0000

> <Gold.Chemscore.Metal>
0.0000

> <Gold.Chemscore.Lipo>
81.0012

> <Gold.Chemscore.Internal_Hbond>
0.0000

> <Gold.Chemscore.DEClash>
0.1135

> <Gold.Chemscore.DEInternal>
2.6695

> <Gold.Chemscore.Rot>
1.5705

> <Gold.Chemscore.Internal.Correction>
   9.000000E+99

> <Gold.Chemscore.Hbond.Weighted>
-0.0000

> <Gold.Chemscore.Metal.Weighted>
-0.0000

> <Gold.Chemscore.Lipo.Weighted>
-9.4771

> <Gold.Chemscore.Internal_Hbond.Weighted>
0.0000

> <Gold.Chemscore.DEClash.Weighted>
0.1135

> <Gold.Chemscore.DEInternal.Weighted>
2.6695

> <Gold.Chemscore.Rot.Weighted>
4.0206

> <Gold.Chemscore.Internal.Correction.Weighted>
   9.000000E+99

> <Gold.Protein.RotatedTorsions>
[ 6907 6896 6895 6894 ] final -107.14 input  -60.11 | X-H torsion
[ 7974 7965 7964 7962 ] final -129.51 input  175.53 | X-H torsion
[ 8008 7997 7996 7995 ] final  131.64 input   59.86 | X-H torsion
[ 10167 10162 10161 10158 ] final   41.36 input  -65.29 | X-H torsion
[ 10718 10713 10712 10709 ] final -158.03 input   66.30 | X-H torsion
[ 10763 10752 10751 10750 ] final  170.54 input  -60.55 | X-H torsion
[ 11005 11000 10999 10996 ] final -150.41 input  -57.11 | X-H torsion

> <Gold.Protein.ActiveResidues>
 VAL166  LYS551  ARG553  GLY616  TRP617  ASP618  TYR619  PRO620  LYS621  CYS622 
 ASP623  PHE694  ASN695  SER759  ASP760  ASP761  ALA762  ILE779  LEU786  VAL792 
 PHE793  MET794  SER795  GLU796  ALA797  LYS798  CYS799  TRP800  GLU811  SER814 

> <Gold.Protein.RotatedAtoms>
  150.7427  133.9871  159.3594 H   0  0  0  0  0  0  0  0  0  0  0  0  # atno 6907 bound_to 6896
  151.7816  135.0758  160.0384 H   0  0  0  0  0  0  0  0  0  0  0  0  # atno 6908 bound_to 6896
  152.3270  133.5879  159.5819 H   0  0  0  0  0  0  0  0  0  0  0  0  # atno 6909 bound_to 6896
  144.9564  140.7400  143.4756 H   0  0  0  0  0  0  0  0  0  0  0  0  # atno 7974 bound_to 7965
  156.2973  140.2566  156.2959 H   0  0  0  0  0  0  0  0  0  0  0  0  # atno 8008 bound_to 7997
  154.9464  140.0395  157.2141 H   0  0  0  0  0  0  0  0  0  0  0  0  # atno 8009 bound_to 7997
  154.8077  140.2839  155.5880 H   0  0  0  0  0  0  0  0  0  0  0  0  # atno 8010 bound_to 7997
  140.3651  144.2178  150.6136 H   0  0  0  0  0  0  0  0  0  0  0  0  # atno 10167 bound_to 10162
  156.5485  130.8595  151.2772 H   0  0  0  0  0  0  0  0  0  0  0  0  # atno 10718 bound_to 10713
  154.3991  135.2755  155.2107 H   0  0  0  0  0  0  0  0  0  0  0  0  # atno 10763 bound_to 10752
  154.4141  135.6015  153.5974 H   0  0  0  0  0  0  0  0  0  0  0  0  # atno 10764 bound_to 10752
  152.9831  135.5956  154.4257 H   0  0  0  0  0  0  0  0  0  0  0  0  # atno 10765 bound_to 10752
  140.7405  134.3520  157.5148 H   0  0  0  0  0  0  0  0  0  0  0  0  # atno 11005 bound_to 11000
  145.2765  139.1934  143.4813 LP  0  0  0  0  0  0  0  0  0  0  0  0  # atno 17320 bound_to 7965
  146.3339  140.2720  142.8606 LP  0  0  0  0  0  0  0  0  0  0  0  0  # atno 17321 bound_to 7965
  140.5089  143.2296  151.8566 LP  0  0  0  0  0  0  0  0  0  0  0  0  # atno 17342 bound_to 10162
  139.4810  144.4973  151.9107 LP  0  0  0  0  0  0  0  0  0  0  0  0  # atno 17343 bound_to 10162
  157.7392  130.9827  150.2299 LP  0  0  0  0  0  0  0  0  0  0  0  0  # atno 17370 bound_to 10713
  156.2906  130.3745  149.7845 LP  0  0  0  0  0  0  0  0  0  0  0  0  # atno 17371 bound_to 10713
  139.8807  134.9077  156.2952 LP  0  0  0  0  0  0  0  0  0  0  0  0  # atno 17394 bound_to 11000
  140.9841  133.7249  156.0715 LP  0  0  0  0  0  0  0  0  0  0  0  0  # atno 17395 bound_to 11000

$$$$
