AV-unprocessed.smi:1795|AV-procd|sdf|7249|dock4
  -GOLD-   22720 8503D 1   1.00000     0.00000
 Structure written by MMmdl.
 48 49  0  0  0  0  0  0  0  0  2 V2000
  145.8958  132.1347  149.6738 C   0  0  0  0  0  0  0  0  0  0  0  0
  146.2857  133.3369  150.5414 C   0  0  2  0  0  0  0  0  0  0  0  0
  146.9494  132.9089  151.8628 C   0  0  0  0  0  0  0  0  0  0  0  0
  147.2644  134.0897  152.7117 N   0  3  2  0  0  0  0  0  0  0  0  0
  148.0218  133.7192  153.9525 C   0  0  1  0  0  0  0  0  0  0  0  0
  149.3830  133.0963  153.5662 C   0  0  0  0  0  0  0  0  0  0  0  0
  148.2141  134.8994  154.9459 C   0  0  0  0  0  0  0  0  0  0  0  0
  149.2450  135.8399  154.5142 N   0  0  0  0  0  0  0  0  0  0  0  0
  150.2376  136.3147  155.2827 C   0  0  0  0  0  0  0  0  0  0  0  0
  150.4063  135.9762  156.4547 O   0  0  0  0  0  0  0  0  0  0  0  0
  151.1829  137.3244  154.6179 C   0  0  0  0  0  0  0  0  0  0  0  0
  150.8869  138.7168  154.9941 N   0  0  0  0  0  0  0  0  0  0  0  0
  149.6840  139.2722  154.5137 C   0  0  0  0  0  0  0  0  0  0  0  0
  149.3209  140.5329  154.7983 C   0  0  0  0  0  0  0  0  0  0  0  0
  150.2007  141.3274  155.6224 C   0  0  0  0  0  0  0  0  0  0  0  0
  151.3553  140.8075  156.0844 C   0  0  0  0  0  0  0  0  0  0  0  0
  151.7576  139.4307  155.7738 C   0  0  0  0  0  0  0  0  0  0  0  0
  152.8127  138.9484  156.1880 O   0  0  0  0  0  0  0  0  0  0  0  0
  146.0280  134.8937  152.9154 C   0  0  0  0  0  0  0  0  0  0  0  0
  145.3752  135.2578  151.5675 C   0  0  2  0  0  0  0  0  0  0  0  0
  144.0552  136.0149  151.7511 C   0  0  0  0  0  0  0  0  0  0  0  0
  145.1037  134.0683  150.8384 O   0  0  0  0  0  0  0  0  0  0  0  0
  146.7699  131.5362  149.4159 H   0  0  0  0  0  0  0  0  0  0  0  0
  145.4311  132.4604  148.7427 H   0  0  0  0  0  0  0  0  0  0  0  0
  145.1869  131.4869  150.1903 H   0  0  0  0  0  0  0  0  0  0  0  0
  146.9703  133.9680  149.9717 H   0  0  0  0  0  0  0  0  0  0  0  0
  146.2868  132.2364  152.4105 H   0  0  0  0  0  0  0  0  0  0  0  0
  147.8494  132.3420  151.6322 H   0  0  0  0  0  0  0  0  0  0  0  0
  147.4390  132.9608  154.4782 H   0  0  0  0  0  0  0  0  0  0  0  0
  149.9142  132.7143  154.4373 H   0  0  0  0  0  0  0  0  0  0  0  0
  150.0276  133.8320  153.0842 H   0  0  0  0  0  0  0  0  0  0  0  0
  149.2844  132.2518  152.8870 H   0  0  0  0  0  0  0  0  0  0  0  0
  147.2662  135.4130  155.1159 H   0  0  0  0  0  0  0  0  0  0  0  0
  148.5470  134.5319  155.9163 H   0  0  0  0  0  0  0  0  0  0  0  0
  149.1896  136.1694  153.5612 H   0  0  0  0  0  0  0  0  0  0  0  0
  152.2061  137.0576  154.8864 H   0  0  0  0  0  0  0  0  0  0  0  0
  151.1347  137.2185  153.5322 H   0  0  0  0  0  0  0  0  0  0  0  0
  149.0849  138.6156  153.8996 H   0  0  0  0  0  0  0  0  0  0  0  0
  148.3967  140.9429  154.4186 H   0  0  0  0  0  0  0  0  0  0  0  0
  149.9321  142.3444  155.8684 H   0  0  0  0  0  0  0  0  0  0  0  0
  152.0011  141.4174  156.6990 H   0  0  0  0  0  0  0  0  0  0  0  0
  145.3277  134.3340  153.5378 H   0  0  0  0  0  0  0  0  0  0  0  0
  146.2536  135.8270  153.4303 H   0  0  0  0  0  0  0  0  0  0  0  0
  146.0551  135.8856  150.9884 H   0  0  0  0  0  0  0  0  0  0  0  0
  144.2097  136.9496  152.2908 H   0  0  0  0  0  0  0  0  0  0  0  0
  143.3328  135.4203  152.3112 H   0  0  0  0  0  0  0  0  0  0  0  0
  143.6086  136.2589  150.7867 H   0  0  0  0  0  0  0  0  0  0  0  0
  147.8848  134.6797  152.1752 H   0  0  0  0  0  0  0  0  0  0  0  0
  1  2  1  0  0  0  0
  1 23  1  0  0  0  0
  1 24  1  0  0  0  0
  1 25  1  0  0  0  0
  2 22  1  0  0  0  0
  2  3  1  0  0  0  0
  2 26  1  0  0  0  0
  3  4  1  0  0  0  0
  3 27  1  0  0  0  0
  3 28  1  0  0  0  0
  4  5  1  0  0  0  0
  4 19  1  0  0  0  0
  4 48  1  0  0  0  0
  5  6  1  0  0  0  0
  5  7  1  0  0  0  0
  5 29  1  0  0  0  0
  6 30  1  0  0  0  0
  6 31  1  0  0  0  0
  6 32  1  0  0  0  0
  7  8  1  0  0  0  0
  7 33  1  0  0  0  0
  7 34  1  0  0  0  0
  8  9  1  0  0  0  0
  8 35  1  0  0  0  0
  9 10  2  0  0  0  0
  9 11  1  0  0  0  0
 11 12  1  0  0  0  0
 11 36  1  0  0  0  0
 11 37  1  0  0  0  0
 12 17  1  0  0  0  0
 12 13  1  0  0  0  0
 13 14  2  0  0  0  0
 13 38  1  0  0  0  0
 14 15  1  0  0  0  0
 14 39  1  0  0  0  0
 15 16  2  0  0  0  0
 15 40  1  0  0  0  0
 16 17  1  0  0  0  0
 16 41  1  0  0  0  0
 17 18  2  0  0  0  0
 19 20  1  0  0  0  0
 19 42  1  0  0  0  0
 19 43  1  0  0  0  0
 20 21  1  0  0  0  0
 20 22  1  0  0  0  0
 20 44  1  0  0  0  0
 21 45  1  0  0  0  0
 21 46  1  0  0  0  0
 21 47  1  0  0  0  0
M  CHG  1   4   1
M  END
> <s_m_source_file>
AV-unprocessed.smi

> <i_m_source_file_index>
1795

> <i_lp_mmshare_version>
43012

> <i_f3d_flags>
0

> <s_epik_input>
W0NIM11bQ0BASF0xW0NIMl1OKFtDSDJdW0NASF0oTzEpW0NIM10pW0NASF0oW0NIM10pW0NIMl1bTkhdQyg9TylbQ0gyXW4yW2NIXVtjSF1bY0hdW2NIXWMyPU8=

> <s_epik_cmdline>
J2VwaWtfcHl0aG9uJywgJy1waCcsICc3LjAnLCAnLXRuJywgJzgnLCAnLW1hJywgJzIwMCcsICctbWV0YWxfYmluZGluZycsICctaW1hZScsICc8aW5maWxlLm1hZT4nLCAnLW9tYWUnLCAnPG91dGZpbGUubWFlPic=

> <r_lp_tautomer_probability>
1

> <r_epik_Ionization_Penalty>
0.656654

> <r_epik_Ionization_Penalty_Charging>
0.656654

> <r_epik_Ionization_Penalty_Neutral>
8.90321e-08

> <r_epik_State_Penalty>
0.675641

> <r_epik_Charging_Adjusted_Penalty>
1.33229

> <i_epik_Tot_Q>
1

> <i_epik_Tot_abs_Q>
1

> <r_epik_Metal_State_Penalty>
0.675691

> <b_epik_Metal_Only>
0

> <s_lp_Force_Field>
OPLS_2005

> <r_lp_Energy>
27.2799

> <b_lp_Chiralities_Consistent>
1

> <s_lp_Variant>
AV-unprocessed.smi:1795-13

> <Gold.Version>
5.8.1

> <Gold.Id.Protein>
6NUR|6NUR_protein|mol2

> <Gold.PLP.Fitness>
54.9656

> <Gold.PLP.PLP>
-44.0542

> <Gold.PLP.part.hbond>
-3.0000

> <Gold.PLP.part.metal>
0.0000

> <Gold.PLP.part.buried>
-3.5099

> <Gold.PLP.part.nonpolar>
-36.1472

> <Gold.PLP.part.repulsive>
0.1834

> <Gold.PLP.ligand.clash>
0.0000

> <Gold.PLP.ligand.torsion>
0.5822

> <Gold.PLP.Chemscore.Hbond>
4.0000

> <Gold.PLP.Chemscore.CHOScore>
0.0000

> <Gold.PLP.Chemscore.Metal>
0.0000

> <Gold.Chemscore.Hbonds>
donor molecule, donor type, donor heavy atom, donor atom, acceptor molecule, acceptor atom, score
      L1  H     4    48       P1  7948  2.00
      L1  H     8    35       P1  7948  1.00
      P1  H  7997  8008       L1    18  1.00

> <Gold.PLP.Chemscore.Internal.Correction>
0.0758

> <Gold.Rescore>
     Score         DG    S(hbond)    S(metal)    S(lipo)     H(rot)  DE(clash)    DE(int)     intcor
     19.86     -20.49       2.92        0.00      86.39       1.89       0.13       0.50       ----

> <Gold.Chemscore.Fitness>
19.8628

> <Gold.Chemscore.DG>
-20.4933

> <Gold.Chemscore.ZeroCoef>
-5.4800

> <Gold.Chemscore.Hbond>
2.9151

> <Gold.Chemscore.Metal>
0.0000

> <Gold.Chemscore.Lipo>
86.3905

> <Gold.Chemscore.Internal_Hbond>
0.0000

> <Gold.Chemscore.DEClash>
0.1288

> <Gold.Chemscore.DEInternal>
0.5018

> <Gold.Chemscore.Rot>
1.8870

> <Gold.Chemscore.Internal.Correction>
   9.000000E+99

> <Gold.Chemscore.Hbonds>
donor molecule, donor type, donor heavy atom, donor atom, acceptor molecule, acceptor atom, score
      L1  H     4    48       P1  7948  0.49
      L1  H     8    35       P1  7948  0.90
      P1  H  7997  8008       L1    18  0.94

> <Gold.Chemscore.Hbond.Weighted>
-9.7364

> <Gold.Chemscore.Metal.Weighted>
-0.0000

> <Gold.Chemscore.Lipo.Weighted>
-10.1077

> <Gold.Chemscore.Internal_Hbond.Weighted>
0.0000

> <Gold.Chemscore.DEClash.Weighted>
0.1288

> <Gold.Chemscore.DEInternal.Weighted>
0.5018

> <Gold.Chemscore.Rot.Weighted>
4.8308

> <Gold.Chemscore.Internal.Correction.Weighted>
   9.000000E+99

> <Gold.Protein.RotatedTorsions>
[ 6907 6896 6895 6894 ] final  141.48 input  -60.11 | X-H torsion
[ 7974 7965 7964 7962 ] final  120.68 input  175.53 | X-H torsion
[ 8008 7997 7996 7995 ] final  -38.71 input   59.86 | X-H torsion
[ 10167 10162 10161 10158 ] final -136.81 input  -65.29 | X-H torsion
[ 10718 10713 10712 10709 ] final  174.73 input   66.30 | X-H torsion
[ 10763 10752 10751 10750 ] final -144.81 input  -60.55 | X-H torsion
[ 11005 11000 10999 10996 ] final  -43.92 input  -57.11 | X-H torsion

> <Gold.Protein.ActiveResidues>
 VAL166  LYS551  ARG553  GLY616  TRP617  ASP618  TYR619  PRO620  LYS621  CYS622 
 ASP623  PHE694  ASN695  SER759  ASP760  ASP761  ALA762  ILE779  LEU786  VAL792 
 PHE793  MET794  SER795  GLU796  ALA797  LYS798  CYS799  TRP800  GLU811  SER814 

> <Gold.Protein.RotatedAtoms>
  152.2304  133.5053  159.5212 H   0  0  0  0  0  0  0  0  0  0  0  0  # atno 6907 bound_to 6896
  150.7036  134.1224  159.4048 H   0  0  0  0  0  0  0  0  0  0  0  0  # atno 6908 bound_to 6896
  151.9145  135.0324  160.0568 H   0  0  0  0  0  0  0  0  0  0  0  0  # atno 6909 bound_to 6896
  145.1283  139.3344  143.4678 H   0  0  0  0  0  0  0  0  0  0  0  0  # atno 7974 bound_to 7965
  154.4033  140.1570  156.2744 H   0  0  0  0  0  0  0  0  0  0  0  0  # atno 8008 bound_to 7997
  155.8925  140.3438  155.5944 H   0  0  0  0  0  0  0  0  0  0  0  0  # atno 8009 bound_to 7997
  155.7542  140.0809  157.2177 H   0  0  0  0  0  0  0  0  0  0  0  0  # atno 8010 bound_to 7997
  139.8640  143.7041  152.2647 H   0  0  0  0  0  0  0  0  0  0  0  0  # atno 10167 bound_to 10162
  156.9452  131.0014  151.2960 H   0  0  0  0  0  0  0  0  0  0  0  0  # atno 10718 bound_to 10713
  154.8411  135.3430  154.6406 H   0  0  0  0  0  0  0  0  0  0  0  0  # atno 10763 bound_to 10752
  153.7017  135.6969  153.5066 H   0  0  0  0  0  0  0  0  0  0  0  0  # atno 10764 bound_to 10752
  153.2518  135.4351  155.0760 H   0  0  0  0  0  0  0  0  0  0  0  0  # atno 10765 bound_to 10752
  141.0416  133.6778  156.2800 H   0  0  0  0  0  0  0  0  0  0  0  0  # atno 11005 bound_to 11000
  146.3516  140.1271  142.8598 LP  0  0  0  0  0  0  0  0  0  0  0  0  # atno 17320 bound_to 7965
  145.0663  140.9124  143.4908 LP  0  0  0  0  0  0  0  0  0  0  0  0  # atno 17321 bound_to 7965
  139.7346  144.7574  151.0747 LP  0  0  0  0  0  0  0  0  0  0  0  0  # atno 17342 bound_to 10162
  140.7771  143.5046  150.9728 LP  0  0  0  0  0  0  0  0  0  0  0  0  # atno 17343 bound_to 10162
  157.5758  130.8342  149.8454 LP  0  0  0  0  0  0  0  0  0  0  0  0  # atno 17370 bound_to 10713
  156.0387  130.3744  150.1493 LP  0  0  0  0  0  0  0  0  0  0  0  0  # atno 17371 bound_to 10713
  140.6224  134.5348  157.5549 LP  0  0  0  0  0  0  0  0  0  0  0  0  # atno 17394 bound_to 11000
  139.9280  134.8018  156.1012 LP  0  0  0  0  0  0  0  0  0  0  0  0  # atno 17395 bound_to 11000

$$$$
