AV-unprocessed.smi:3228|AV-procd|sdf|12320|dock9
  -GOLD-   2272018173D 1   1.00000     0.00000
 Structure written by MMmdl.
 31 32  0  0  0  0  0  0  0  0  1 V2000
  145.0259  137.4073  152.4694 O   0  0  0  0  0  0  0  0  0  0  0  0
  146.1735  137.0482  152.2042 C   0  0  0  0  0  0  0  0  0  0  0  0
  147.2527  137.8183  152.4041 N   0  0  0  0  0  0  0  0  0  0  0  0
  147.2254  139.1707  152.9513 C   0  0  0  0  0  0  0  0  0  0  0  0
  148.1460  139.3167  154.1818 C   0  0  1  0  0  0  0  0  0  0  0  0
  149.3183  138.3280  154.2383 C   0  0  0  0  0  0  0  0  0  0  0  0
  150.3748  138.9836  155.1410 C   0  0  0  0  0  0  0  0  0  0  0  0
  149.9171  140.4324  155.3730 C   0  0  0  0  0  0  0  0  0  0  0  0
  148.8059  140.6932  154.3510 C   0  0  1  0  0  0  0  0  0  0  0  0
  149.3890  141.1432  153.1419 O   0  0  0  0  0  0  0  0  0  0  0  0
  146.5152  135.8545  151.6881 N   0  0  0  0  0  0  0  0  0  0  0  0
  145.6629  134.7765  151.3314 C   0  0  0  0  0  0  0  0  0  0  0  0
  144.3273  134.8113  151.4110 N   0  0  0  0  0  0  0  0  0  0  0  0
  143.7453  133.6119  150.9932 C   0  0  0  0  0  0  0  0  0  0  0  0
  144.6592  132.6681  150.5948 C   0  0  0  0  0  0  0  0  0  0  0  0
  146.2967  133.2514  150.7301 S   0  0  0  0  0  0  0  0  0  0  0  0
  148.1582  137.4451  152.1590 H   0  0  0  0  0  0  0  0  0  0  0  0
  147.5363  139.8518  152.1589 H   0  0  0  0  0  0  0  0  0  0  0  0
  146.2019  139.4459  153.2105 H   0  0  0  0  0  0  0  0  0  0  0  0
  147.5423  139.1516  155.0762 H   0  0  0  0  0  0  0  0  0  0  0  0
  149.0111  137.3488  154.6074 H   0  0  0  0  0  0  0  0  0  0  0  0
  149.7339  138.1848  153.2401 H   0  0  0  0  0  0  0  0  0  0  0  0
  150.4675  138.4552  156.0902 H   0  0  0  0  0  0  0  0  0  0  0  0
  151.3519  138.9573  154.6573 H   0  0  0  0  0  0  0  0  0  0  0  0
  149.5017  140.5150  156.3784 H   0  0  0  0  0  0  0  0  0  0  0  0
  150.7366  141.1493  155.3058 H   0  0  0  0  0  0  0  0  0  0  0  0
  148.0985  141.4451  154.7024 H   0  0  0  0  0  0  0  0  0  0  0  0
  149.4353  140.4143  152.5422 H   0  0  0  0  0  0  0  0  0  0  0  0
  147.4998  135.6987  151.5301 H   0  0  0  0  0  0  0  0  0  0  0  0
  142.6697  133.5156  151.0120 H   0  0  0  0  0  0  0  0  0  0  0  0
  144.4685  131.6692  150.2317 H   0  0  0  0  0  0  0  0  0  0  0  0
  1  2  2  0  0  0  0
  2  3  1  0  0  0  0
  2 11  1  0  0  0  0
  3  4  1  0  0  0  0
  3 17  1  0  0  0  0
  4  5  1  0  0  0  0
  4 18  1  0  0  0  0
  4 19  1  0  0  0  0
  5  9  1  0  0  0  0
  5  6  1  0  0  0  0
  5 20  1  0  0  0  0
  6  7  1  0  0  0  0
  6 21  1  0  0  0  0
  6 22  1  0  0  0  0
  7  8  1  0  0  0  0
  7 23  1  0  0  0  0
  7 24  1  0  0  0  0
  8  9  1  0  0  0  0
  8 25  1  0  0  0  0
  8 26  1  0  0  0  0
  9 10  1  0  0  0  0
  9 27  1  0  0  0  0
 10 28  1  0  0  0  0
 11 12  1  0  0  0  0
 11 29  1  0  0  0  0
 12 16  1  0  0  0  0
 12 13  2  0  0  0  0
 13 14  1  0  0  0  0
 14 15  2  0  0  0  0
 14 30  1  0  0  0  0
 15 16  1  0  0  0  0
 15 31  1  0  0  0  0
M  END
> <s_m_source_file>
AV-unprocessed.smi

> <i_m_source_file_index>
3228

> <i_lp_mmshare_version>
43012

> <i_f3d_flags>
0

> <s_epik_input>
czFbY0hdW2NIXW5jMVtOSF1DKD1PKVtOSF1bQ0gyXVtDQEBIXTJbQ0gyXVtDSDJdW0NIMl1bQ0BIXTJbT0hd

> <s_epik_cmdline>
J2VwaWtfcHl0aG9uJywgJy1waCcsICc3LjAnLCAnLXRuJywgJzgnLCAnLW1hJywgJzIwMCcsICctbWV0YWxfYmluZGluZycsICctaW1hZScsICc8aW5maWxlLm1hZT4nLCAnLW9tYWUnLCAnPG91dGZpbGUubWFlPic=

> <r_lp_tautomer_probability>
0.999

> <r_epik_Ionization_Penalty>
0.000399498

> <r_epik_Ionization_Penalty_Charging>
0

> <r_epik_Ionization_Penalty_Neutral>
0.000399498

> <r_epik_State_Penalty>
0.000177984

> <r_epik_Charging_Adjusted_Penalty>
0.000177984

> <i_epik_Tot_Q>
0

> <i_epik_Tot_abs_Q>
0

> <r_epik_Metal_State_Penalty>
0.0060793

> <b_epik_Metal_Only>
0

> <s_lp_Force_Field>
OPLS_2005

> <r_lp_Energy>
23.3764

> <b_lp_Chiralities_Consistent>
1

> <s_lp_Variant>
AV-unprocessed.smi:3228-2

> <Gold.Version>
5.8.1

> <Gold.Id.Protein>
6NUR|6NUR_protein|mol2

> <Gold.PLP.Fitness>
41.3206

> <Gold.PLP.PLP>
-27.6422

> <Gold.PLP.part.hbond>
-4.1285

> <Gold.PLP.part.metal>
0.0000

> <Gold.PLP.part.buried>
-2.8230

> <Gold.PLP.part.nonpolar>
-21.5526

> <Gold.PLP.part.repulsive>
0.5332

> <Gold.PLP.ligand.clash>
0.0000

> <Gold.PLP.ligand.torsion>
0.4620

> <Gold.PLP.Chemscore.Hbond>
3.8880

> <Gold.PLP.Chemscore.CHOScore>
0.9789

> <Gold.PLP.Chemscore.Metal>
0.0000

> <Gold.Chemscore.Hbonds>
donor molecule, donor type, donor heavy atom, donor atom, acceptor molecule, acceptor atom, score
      L1  H     3    17       P1  7948  0.78
      L1  H    10    28       P1  7957  0.69
      L1  H    11    29       P1  7948  0.93
      P1  H  7989  7998       L1    10  0.02
      P1  H  8011  8017       L1    10  1.00
      L1  C    14    30       P1 10186  1.00

> <Gold.PLP.Chemscore.Internal.Correction>
0.0018

> <Gold.Rescore>
     Score         DG    S(hbond)    S(metal)    S(lipo)     H(rot)  DE(clash)    DE(int)     intcor
     15.57     -17.74       3.01        0.00      59.88       1.88       0.21       1.95       ----

> <Gold.Chemscore.Fitness>
15.5732

> <Gold.Chemscore.DG>
-17.7384

> <Gold.Chemscore.ZeroCoef>
-5.4800

> <Gold.Chemscore.Hbond>
3.0124

> <Gold.Chemscore.Metal>
0.0000

> <Gold.Chemscore.Lipo>
59.8809

> <Gold.Chemscore.Internal_Hbond>
0.0000

> <Gold.Chemscore.DEClash>
0.2141

> <Gold.Chemscore.DEInternal>
1.9511

> <Gold.Chemscore.Rot>
1.8786

> <Gold.Chemscore.Internal.Correction>
   9.000000E+99

> <Gold.Chemscore.Hbonds>
donor molecule, donor type, donor heavy atom, donor atom, acceptor molecule, acceptor atom, score
      L1  H     3    17       P1  7948  0.74
      L1  H    10    28       P1  7957  0.66
      L1  H    11    29       P1  7948  0.82
      P1  H  8011  8017       L1    10  0.53

> <Gold.Chemscore.Hbond.Weighted>
-10.0614

> <Gold.Chemscore.Metal.Weighted>
-0.0000

> <Gold.Chemscore.Lipo.Weighted>
-7.0061

> <Gold.Chemscore.Internal_Hbond.Weighted>
0.0000

> <Gold.Chemscore.DEClash.Weighted>
0.2141

> <Gold.Chemscore.DEInternal.Weighted>
1.9511

> <Gold.Chemscore.Rot.Weighted>
4.8091

> <Gold.Chemscore.Internal.Correction.Weighted>
   9.000000E+99

> <Gold.Protein.RotatedTorsions>
[ 6907 6896 6895 6894 ] final  -54.83 input  -60.11 | X-H torsion
[ 7974 7965 7964 7962 ] final   51.65 input  175.53 | X-H torsion
[ 8008 7997 7996 7995 ] final  108.99 input   59.86 | X-H torsion
[ 10167 10162 10161 10158 ] final  -26.02 input  -65.29 | X-H torsion
[ 10718 10713 10712 10709 ] final  144.76 input   66.30 | X-H torsion
[ 10763 10752 10751 10750 ] final -107.16 input  -60.55 | X-H torsion
[ 11005 11000 10999 10996 ] final  128.08 input  -57.11 | X-H torsion

> <Gold.Protein.ActiveResidues>
 VAL166  LYS551  ARG553  GLY616  TRP617  ASP618  TYR619  PRO620  LYS621  CYS622 
 ASP623  PHE694  ASN695  SER759  ASP760  ASP761  ALA762  ILE779  LEU786  VAL792 
 PHE793  MET794  SER795  GLU796  ALA797  LYS798  CYS799  TRP800  GLU811  SER814 

> <Gold.Protein.RotatedAtoms>
  150.8304  134.7554  159.6848 H   0  0  0  0  0  0  0  0  0  0  0  0  # atno 6907 bound_to 6896
  152.4409  134.5589  159.9898 H   0  0  0  0  0  0  0  0  0  0  0  0  # atno 6908 bound_to 6896
  151.5751  133.3347  159.3033 H   0  0  0  0  0  0  0  0  0  0  0  0  # atno 6909 bound_to 6896
  145.9892  139.4322  143.0084 H   0  0  0  0  0  0  0  0  0  0  0  0  # atno 7974 bound_to 7965
  156.1945  140.3066  155.9400 H   0  0  0  0  0  0  0  0  0  0  0  0  # atno 8008 bound_to 7997
  155.3097  140.0450  157.3051 H   0  0  0  0  0  0  0  0  0  0  0  0  # atno 8009 bound_to 7997
  154.5493  140.2286  155.8520 H   0  0  0  0  0  0  0  0  0  0  0  0  # atno 8010 bound_to 7997
  140.7284  143.4215  151.0944 H   0  0  0  0  0  0  0  0  0  0  0  0  # atno 10167 bound_to 10162
  157.3533  131.0954  151.0980 H   0  0  0  0  0  0  0  0  0  0  0  0  # atno 10718 bound_to 10713
  154.8058  135.4685  154.0388 H   0  0  0  0  0  0  0  0  0  0  0  0  # atno 10763 bound_to 10752
  153.1858  135.6847  153.8424 H   0  0  0  0  0  0  0  0  0  0  0  0  # atno 10764 bound_to 10752
  153.7958  135.3237  155.3361 H   0  0  0  0  0  0  0  0  0  0  0  0  # atno 10765 bound_to 10752
  139.9541  134.9616  156.8949 H   0  0  0  0  0  0  0  0  0  0  0  0  # atno 11005 bound_to 11000
  145.7655  140.9918  143.1177 LP  0  0  0  0  0  0  0  0  0  0  0  0  # atno 17320 bound_to 7965
  144.6884  139.9382  143.7474 LP  0  0  0  0  0  0  0  0  0  0  0  0  # atno 17321 bound_to 7965
  139.7861  143.8286  152.3145 LP  0  0  0  0  0  0  0  0  0  0  0  0  # atno 17342 bound_to 10162
  139.8253  144.7277  150.9519 LP  0  0  0  0  0  0  0  0  0  0  0  0  # atno 17343 bound_to 10162
  157.2148  130.6454  149.5788 LP  0  0  0  0  0  0  0  0  0  0  0  0  # atno 17370 bound_to 10713
  155.9725  130.4648  150.6231 LP  0  0  0  0  0  0  0  0  0  0  0  0  # atno 17371 bound_to 10713
  140.5649  134.0499  155.7411 LP  0  0  0  0  0  0  0  0  0  0  0  0  # atno 17394 bound_to 11000
  141.1210  133.9462  157.2730 LP  0  0  0  0  0  0  0  0  0  0  0  0  # atno 17395 bound_to 11000

$$$$
