#       Name:                AV-unprocessed.smi:1254
#       Creating user name   scv26
#       Creation time:       Fri Mar 27 04:39:23 2020


#       File generated by GOLD software.
#

@<TRIPOS>MOLECULE
AV-unprocessed.smi:1254
    53    54     1
SMALL
NO_CHARGES


@<TRIPOS>ATOM
      1 ****        -7.7140   4.4857   0.6587 C.3            1 S1                 0.0000
      2 ****        -6.3455   3.9413   0.8888 C.2            1 S1                 0.0000
      3 ****        -5.3554   3.5316   0.0414 C.2            1 S1                 0.0000
      4 ****        -4.3210   3.1197   0.9256 C.2            1 S1                 0.0000
      5 ****        -3.1196   2.6407   0.5670 N.pl3          1 S1                -1.0000
      6 ****        -2.9585   1.3199   0.3242 C.2            1 S1                 0.0000
      7 ****        -3.8336   0.4525   0.3733 O.2            1 S1                 0.0000
      8 ****        -1.7026   0.9808   0.0074 N.am           1 S1                 0.0000
      9 ****        -1.2485  -0.3728  -0.2801 C.3            1 S1                 0.0000
     10 ****         0.2770  -0.4088  -0.4428 C.3            1 S1                 0.0000
     11 ****         0.8012  -1.8511  -0.6013 C.3            1 S1                 0.0000
     12 ****         2.2666  -1.8717  -0.8304 N.4            1 S1                 1.0000
     13 ****         3.0689  -1.6523   0.4036 C.3            1 S1                 0.0000
     14 ****         4.4746  -2.2857   0.3231 C.3            1 S1                 0.0000
     15 ****         4.4061  -3.8166   0.1915 C.3            1 S1                 0.0000
     16 ****         5.3163  -1.8908   1.5456 C.3            1 S1                 0.0000
     17 ****         2.6267  -0.9901  -1.9700 C.3            1 S1                 0.0000
     18 ****         2.0275   0.4199  -1.8052 C.3            1 S1                 0.0000
     19 ****         0.6219   0.3254  -1.6138 O.3            1 S1                 0.0000
     20 ****        -4.6479   3.2824   2.1968 N.2            1 S1                 0.0000
     21 ****        -5.9479   3.8016   2.1819 O.3            1 S1                 0.0000
     22 ****        -7.6855   5.3150  -0.0480 H              1 S1                 0.0000
     23 ****        -8.1541   4.8494   1.5875 H              1 S1                 0.0000
     24 ****        -8.3708   3.7165   0.2524 H              1 S1                 0.0000
     25 ****        -5.3695   3.5231  -1.0382 H              1 S1                 0.0000
     26 ****        -1.0143   1.7183  -0.0287 H              1 S1                 0.0000
     27 ****        -1.5468  -1.0283   0.5398 H              1 S1                 0.0000
     28 ****        -1.7391  -0.7404  -1.1826 H              1 S1                 0.0000
     29 ****         0.7351   0.0574   0.4318 H              1 S1                 0.0000
     30 ****         0.5430  -2.4583   0.2673 H              1 S1                 0.0000
     31 ****         0.3155  -2.3226  -1.4571 H              1 S1                 0.0000
     32 ****         3.1434  -0.5853   0.6139 H              1 S1                 0.0000
     33 ****         2.5502  -2.0883   1.2585 H              1 S1                 0.0000
     34 ****         4.9928  -1.8976  -0.5532 H              1 S1                 0.0000
     35 ****         3.8982  -4.2662   1.0453 H              1 S1                 0.0000
     36 ****         5.4051  -4.2498   0.1349 H              1 S1                 0.0000
     37 ****         3.8723  -4.1175  -0.7100 H              1 S1                 0.0000
     38 ****         4.8683  -2.2543   2.4711 H              1 S1                 0.0000
     39 ****         5.4123  -0.8076   1.6253 H              1 S1                 0.0000
     40 ****         6.3234  -2.3038   1.4799 H              1 S1                 0.0000
     41 ****         3.7063  -0.9346  -2.1028 H              1 S1                 0.0000
     42 ****         2.2317  -1.4401  -2.8817 H              1 S1                 0.0000
     43 ****         2.4851   0.9565  -0.9730 H              1 S1                 0.0000
     44 ****         2.2194   1.0117  -2.7004 H              1 S1                 0.0000
     45 ****         2.4835  -2.8161  -1.1156 H              1 S1                 0.0000
     46 ****        -2.3411   3.2623   0.4790 LP             1 S1                 0.0000
     47 ****        -4.7720   0.7020   0.6122 LP             1 S1                 0.0000
     48 ****        -3.6048  -0.5004   0.1742 LP             1 S1                 0.0000
     49 ****         0.2466   1.2489  -1.5351 LP             1 S1                 0.0000
     50 ****         0.2205  -0.1309  -2.4079 LP             1 S1                 0.0000
     51 ****        -4.0858   3.0780   2.9982 LP             1 S1                 0.0000
     52 ****        -6.5657   3.1762   2.6584 LP             1 S1                 0.0000
     53 ****        -5.9599   4.6925   2.6360 LP             1 S1                 0.0000
@<TRIPOS>BOND
    1    1    2 1     
    2    1   22 1     
    3    1   23 1     
    4    1   24 1     
    5    2   21 1     
    6    2    3 2     
    7    3    4 1     
    8    3   25 1     
    9    4    5 1     
   10    4   20 2     
   11    5    6 1     
   12    6    7 2     
   13    6    8 am    
   14    8    9 1     
   15    8   26 1     
   16    9   10 1     
   17    9   27 1     
   18    9   28 1     
   19   10   19 1     
   20   10   11 1     
   21   10   29 1     
   22   11   12 1     
   23   11   30 1     
   24   11   31 1     
   25   12   13 1     
   26   12   17 1     
   27   12   45 1     
   28   13   14 1     
   29   13   32 1     
   30   13   33 1     
   31   14   15 1     
   32   14   16 1     
   33   14   34 1     
   34   15   35 1     
   35   15   36 1     
   36   15   37 1     
   37   16   38 1     
   38   16   39 1     
   39   16   40 1     
   40   17   18 1     
   41   17   41 1     
   42   17   42 1     
   43   18   19 1     
   44   18   43 1     
   45   18   44 1     
   46   20   21 1     
   47    5   46 1     
   48    7   47 1     
   49    7   48 1     
   50   19   49 1     
   51   19   50 1     
   52   20   51 1     
   53   21   52 1     
   54   21   53 1     
@<TRIPOS>SUBSTRUCTURE
      1 S1             1
@<TRIPOS>SET
LONE_PAIRS      STATIC     ATOMS    <user>   **** ""
8 46 47 48 49 50 51 52 53
DONOR_HYDROGENS      STATIC     ATOMS    <user>   **** ""
2 26 45
ATOM$BLUE        STATIC     ATOMS    COLORGROUP SYSTEM
8 46 47 48 49 50 51 52 53
ATOM$RED        STATIC     ATOMS    COLORGROUP SYSTEM
2 26 45
