AV-unprocessed.smi:187|AV-procd|sdf|1468|dock2
  -GOLD-   2262019283D 1   1.00000     0.00000
 Structure written by MMmdl.
 53 56  0  0  0  0  0  0  0  0  1 V2000
  154.5703  139.7041  160.5098 C   0  0  0  0  0  0  0  0  0  0  0  0
  153.8720  140.8080  159.6896 C   0  0  2  0  0  0  0  0  0  0  0  0
  153.6581  142.0574  160.5682 C   0  0  0  0  0  0  0  0  0  0  0  0
  152.9348  143.1705  159.7976 C   0  0  0  0  0  0  0  0  0  0  0  0
  151.6013  142.6451  159.2334 C   0  0  1  0  0  0  0  0  0  0  0  0
  150.8814  143.7284  158.4203 C   0  0  0  0  0  0  0  0  0  0  0  0
  149.6395  144.0459  158.7944 N   0  0  0  0  0  0  0  0  0  0  0  0
  151.4357  144.2729  157.4671 O   0  0  0  0  0  0  0  0  0  0  0  0
  151.8615  141.3957  158.3698 C   0  0  0  0  0  0  0  0  0  0  0  0
  152.5892  140.3719  159.1190 N   0  0  0  0  0  0  0  0  0  0  0  0
  152.6067  139.2034  158.4399 C   0  0  0  0  0  0  0  0  0  0  0  0
  153.7973  138.8033  157.9305 N   0  0  0  0  0  0  0  0  0  0  0  0
  153.8787  137.6592  157.2446 C   0  0  0  0  0  0  0  0  0  0  0  0
  152.9118  136.7819  156.9663 N   0  0  0  0  0  0  0  0  0  0  0  0
  151.7155  137.1769  157.4900 C   0  0  0  0  0  0  0  0  0  0  0  0
  151.4738  138.3670  158.2317 C   0  0  0  0  0  0  0  0  0  0  0  0
  150.1335  138.4388  158.5906 N   0  0  0  0  0  0  0  0  0  0  0  0
  149.6103  137.3569  158.0817 C   0  0  0  0  0  0  0  0  0  0  0  0
  150.4948  136.5275  157.4293 N   0  0  0  0  0  0  0  0  0  0  0  0
  150.1847  135.3029  156.7521 C   0  0  0  0  0  0  0  0  0  0  0  0
  149.7257  134.0632  157.5237 C   0  0  0  0  0  0  0  0  0  0  0  0
  150.4316  133.1636  156.4835 C   0  0  0  0  0  0  0  0  0  0  0  0
  151.1995  131.9618  157.0582 C   0  0  0  0  0  0  0  0  0  0  0  0
  152.1058  132.3667  158.0640 O   0  0  0  0  0  0  0  0  0  0  0  0
  149.5466  132.6882  155.3135 C   0  0  0  0  0  0  0  0  0  0  0  0
  148.6411  131.6844  155.7254 O   0  0  0  0  0  0  0  0  0  0  0  0
  151.2930  134.4109  156.1884 C   0  0  0  0  0  0  0  0  0  0  0  0
  155.4882  140.0786  160.9633 H   0  0  0  0  0  0  0  0  0  0  0  0
  154.8478  138.8498  159.8921 H   0  0  0  0  0  0  0  0  0  0  0  0
  153.9278  139.3418  161.3130 H   0  0  0  0  0  0  0  0  0  0  0  0
  154.5304  141.0906  158.8675 H   0  0  0  0  0  0  0  0  0  0  0  0
  153.0744  141.7912  161.4509 H   0  0  0  0  0  0  0  0  0  0  0  0
  154.6166  142.4286  160.9323 H   0  0  0  0  0  0  0  0  0  0  0  0
  152.7601  144.0218  160.4567 H   0  0  0  0  0  0  0  0  0  0  0  0
  153.5769  143.5259  158.9900 H   0  0  0  0  0  0  0  0  0  0  0  0
  150.9630  142.3556  160.0705 H   0  0  0  0  0  0  0  0  0  0  0  0
  149.1258  144.7533  158.2894 H   0  0  0  0  0  0  0  0  0  0  0  0
  149.2185  143.5759  159.5828 H   0  0  0  0  0  0  0  0  0  0  0  0
  150.9115  140.9881  158.0195 H   0  0  0  0  0  0  0  0  0  0  0  0
  152.4371  141.6646  157.4822 H   0  0  0  0  0  0  0  0  0  0  0  0
  154.8590  137.4109  156.8655 H   0  0  0  0  0  0  0  0  0  0  0  0
  148.5583  137.1309  158.1773 H   0  0  0  0  0  0  0  0  0  0  0  0
  149.4645  135.5630  155.9744 H   0  0  0  0  0  0  0  0  0  0  0  0
  150.1766  133.9998  158.5160 H   0  0  0  0  0  0  0  0  0  0  0  0
  148.6432  133.9463  157.5819 H   0  0  0  0  0  0  0  0  0  0  0  0
  150.5125  131.2411  157.5028 H   0  0  0  0  0  0  0  0  0  0  0  0
  151.7460  131.4243  156.2830 H   0  0  0  0  0  0  0  0  0  0  0  0
  152.9170  132.6227  157.6518 H   0  0  0  0  0  0  0  0  0  0  0  0
  148.9639  133.5112  154.8993 H   0  0  0  0  0  0  0  0  0  0  0  0
  150.1476  132.3015  154.4901 H   0  0  0  0  0  0  0  0  0  0  0  0
  148.8120  131.4800  156.6320 H   0  0  0  0  0  0  0  0  0  0  0  0
  151.5144  134.5766  155.1333 H   0  0  0  0  0  0  0  0  0  0  0  0
  152.2042  134.4508  156.7885 H   0  0  0  0  0  0  0  0  0  0  0  0
  1  2  1  0  0  0  0
  1 28  1  0  0  0  0
  1 29  1  0  0  0  0
  1 30  1  0  0  0  0
  2 10  1  0  0  0  0
  2  3  1  0  0  0  0
  2 31  1  0  0  0  0
  3  4  1  0  0  0  0
  3 32  1  0  0  0  0
  3 33  1  0  0  0  0
  4  5  1  0  0  0  0
  4 34  1  0  0  0  0
  4 35  1  0  0  0  0
  5  6  1  0  0  0  0
  5  9  1  0  0  0  0
  5 36  1  0  0  0  0
  6  7  1  0  0  0  0
  6  8  2  0  0  0  0
  7 37  1  0  0  0  0
  7 38  1  0  0  0  0
  9 10  1  0  0  0  0
  9 39  1  0  0  0  0
  9 40  1  0  0  0  0
 10 11  1  0  0  0  0
 11 16  1  0  0  0  0
 11 12  2  0  0  0  0
 12 13  1  0  0  0  0
 13 14  2  0  0  0  0
 13 41  1  0  0  0  0
 14 15  1  0  0  0  0
 15 19  1  0  0  0  0
 15 16  2  0  0  0  0
 16 17  1  0  0  0  0
 17 18  2  0  0  0  0
 18 19  1  0  0  0  0
 18 42  1  0  0  0  0
 19 20  1  0  0  0  0
 20 27  1  0  0  0  0
 20 21  1  0  0  0  0
 20 43  1  0  0  0  0
 21 22  1  0  0  0  0
 21 44  1  0  0  0  0
 21 45  1  0  0  0  0
 22 23  1  0  0  0  0
 22 25  1  0  0  0  0
 22 27  1  0  0  0  0
 23 24  1  0  0  0  0
 23 46  1  0  0  0  0
 23 47  1  0  0  0  0
 24 48  1  0  0  0  0
 25 26  1  0  0  0  0
 25 49  1  0  0  0  0
 25 50  1  0  0  0  0
 26 51  1  0  0  0  0
 27 52  1  0  0  0  0
 27 53  1  0  0  0  0
M  END
> <s_m_source_file>
AV-unprocessed.smi

> <i_m_source_file_index>
187

> <i_lp_mmshare_version>
43012

> <i_f3d_flags>
0

> <s_epik_input>
W0NIM11bQ0BASF0xW0NIMl1bQ0gyXVtDQEBIXShDKD1PKVtOSDJdKVtDSDJdTjFjKG5bY0hdbjIpYyhjMjMpbltjSF1uM1tDSF0oW0NIMl00KVtDSDJdQzQoW0NIMl1bT0hdKVtDSDJdW09IXQ==

> <s_epik_cmdline>
J2VwaWtfcHl0aG9uJywgJy1waCcsICc3LjAnLCAnLXRuJywgJzgnLCAnLW1hJywgJzIwMCcsICctbWV0YWxfYmluZGluZycsICctaW1hZScsICc8aW5maWxlLm1hZT4nLCAnLW9tYWUnLCAnPG91dGZpbGUubWFlPic=

> <r_lp_tautomer_probability>
1

> <r_epik_Ionization_Penalty>
0.0017711

> <r_epik_Ionization_Penalty_Charging>
0

> <r_epik_Ionization_Penalty_Neutral>
0.0017711

> <r_epik_State_Penalty>
0.00107211

> <r_epik_Charging_Adjusted_Penalty>
0.00107211

> <i_epik_Tot_Q>
0

> <i_epik_Tot_abs_Q>
0

> <r_epik_Metal_State_Penalty>
-0

> <b_epik_Metal_Only>
0

> <s_lp_Force_Field>
OPLS_2005

> <r_lp_Energy>
40.3757

> <b_lp_Chiralities_Consistent>
1

> <s_lp_Variant>
AV-unprocessed.smi:187-1

> <Gold.Version>
5.8.1

> <Gold.Id.Protein>
6NUR|6NUR_protein|mol2

> <Gold.PLP.Fitness>
48.2494

> <Gold.PLP.PLP>
-37.4183

> <Gold.PLP.part.hbond>
-4.7769

> <Gold.PLP.part.metal>
0.0000

> <Gold.PLP.part.buried>
-5.4004

> <Gold.PLP.part.nonpolar>
-26.6485

> <Gold.PLP.part.repulsive>
0.2505

> <Gold.PLP.ligand.clash>
0.0000

> <Gold.PLP.ligand.torsion>
0.7314

> <Gold.PLP.Chemscore.Hbond>
3.8613

> <Gold.PLP.Chemscore.CHOScore>
0.0000

> <Gold.PLP.Chemscore.Metal>
0.0000

> <Gold.Chemscore.Hbonds>
donor molecule, donor type, donor heavy atom, donor atom, acceptor molecule, acceptor atom, score
      L1  H     7    37       P1  8029  1.00
      P1  H  6896  6909       L1    24  1.00
      P1  H  7997  8008       L1    12  1.00
      P1  H 10752 10764       L1    14  0.49

> <Gold.PLP.Chemscore.Internal.Correction>
0.7101

> <Gold.Rescore>
     Score         DG    S(hbond)    S(metal)    S(lipo)     H(rot)  DE(clash)    DE(int)     intcor
     11.41     -14.81       2.91        0.00      83.95       3.99       0.03       3.37       ----

> <Gold.Chemscore.Fitness>
11.4105

> <Gold.Chemscore.DG>
-14.8079

> <Gold.Chemscore.ZeroCoef>
-5.4800

> <Gold.Chemscore.Hbond>
2.9105

> <Gold.Chemscore.Metal>
0.0000

> <Gold.Chemscore.Lipo>
83.9461

> <Gold.Chemscore.Internal_Hbond>
0.0000

> <Gold.Chemscore.DEClash>
0.0310

> <Gold.Chemscore.DEInternal>
3.3664

> <Gold.Chemscore.Rot>
3.9902

> <Gold.Chemscore.Internal.Correction>
   9.000000E+99

> <Gold.Chemscore.Hbonds>
donor molecule, donor type, donor heavy atom, donor atom, acceptor molecule, acceptor atom, score
      L1  H     7    37       P1  8029  0.44
      P1  H  6896  6909       L1    24  0.88
      P1  H  7997  8008       L1    12  0.57
      P1  H 10752 10764       L1    14  0.41

> <Gold.Chemscore.Hbond.Weighted>
-9.7210

> <Gold.Chemscore.Metal.Weighted>
-0.0000

> <Gold.Chemscore.Lipo.Weighted>
-9.8217

> <Gold.Chemscore.Internal_Hbond.Weighted>
0.0000

> <Gold.Chemscore.DEClash.Weighted>
0.0310

> <Gold.Chemscore.DEInternal.Weighted>
3.3664

> <Gold.Chemscore.Rot.Weighted>
10.2148

> <Gold.Chemscore.Internal.Correction.Weighted>
   9.000000E+99

> <Gold.Protein.RotatedTorsions>
[ 6907 6896 6895 6894 ] final  -52.00 input  -60.11 | X-H torsion
[ 7974 7965 7964 7962 ] final  108.11 input  175.53 | X-H torsion
[ 8008 7997 7996 7995 ] final  -86.59 input   59.86 | X-H torsion
[ 10167 10162 10161 10158 ] final -151.57 input  -65.29 | X-H torsion
[ 10718 10713 10712 10709 ] final  -62.42 input   66.30 | X-H torsion
[ 10763 10752 10751 10750 ] final  -13.73 input  -60.55 | X-H torsion
[ 11005 11000 10999 10996 ] final  -32.01 input  -57.11 | X-H torsion

> <Gold.Protein.ActiveResidues>
 VAL166  LYS551  ARG553  GLY616  TRP617  ASP618  TYR619  PRO620  LYS621  CYS622 
 ASP623  PHE694  ASN695  SER759  ASP760  ASP761  ALA762  ILE779  LEU786  VAL792 
 PHE793  MET794  SER795  GLU796  ALA797  LYS798  CYS799  TRP800  GLU811  SER814 

> <Gold.Protein.RotatedAtoms>
  150.8559  134.7897  159.7044 H   0  0  0  0  0  0  0  0  0  0  0  0  # atno 6907 bound_to 6896
  152.4610  134.5180  159.9783 H   0  0  0  0  0  0  0  0  0  0  0  0  # atno 6908 bound_to 6896
  151.5292  133.3414  159.2951 H   0  0  0  0  0  0  0  0  0  0  0  0  # atno 6909 bound_to 6896
  145.2850  139.2620  143.3895 H   0  0  0  0  0  0  0  0  0  0  0  0  # atno 7974 bound_to 7965
  154.6536  140.0576  156.9984 H   0  0  0  0  0  0  0  0  0  0  0  0  # atno 8008 bound_to 7997
  155.1334  140.3258  155.4450 H   0  0  0  0  0  0  0  0  0  0  0  0  # atno 8009 bound_to 7997
  156.2587  140.1977  156.6452 H   0  0  0  0  0  0  0  0  0  0  0  0  # atno 8010 bound_to 7997
  139.7256  143.8889  152.2518 H   0  0  0  0  0  0  0  0  0  0  0  0  # atno 10167 bound_to 10162
  156.0856  130.4209  150.1132 H   0  0  0  0  0  0  0  0  0  0  0  0  # atno 10718 bound_to 10713
  153.5177  135.7016  153.5748 H   0  0  0  0  0  0  0  0  0  0  0  0  # atno 10763 bound_to 10752
  153.3810  135.3920  155.1857 H   0  0  0  0  0  0  0  0  0  0  0  0  # atno 10764 bound_to 10752
  154.8697  135.3835  154.4663 H   0  0  0  0  0  0  0  0  0  0  0  0  # atno 10765 bound_to 10752
  140.9516  133.7217  156.1229 H   0  0  0  0  0  0  0  0  0  0  0  0  # atno 11005 bound_to 11000
  146.3204  140.3326  142.8641 LP  0  0  0  0  0  0  0  0  0  0  0  0  # atno 17320 bound_to 7965
  144.9221  140.7880  143.5742 LP  0  0  0  0  0  0  0  0  0  0  0  0  # atno 17321 bound_to 7965
  139.8797  144.7024  150.8892 LP  0  0  0  0  0  0  0  0  0  0  0  0  # atno 17342 bound_to 10162
  140.7762  143.3671  151.1719 LP  0  0  0  0  0  0  0  0  0  0  0  0  # atno 17343 bound_to 10162
  156.9154  130.9665  151.3557 LP  0  0  0  0  0  0  0  0  0  0  0  0  # atno 17370 bound_to 10713
  157.5990  130.8498  149.8772 LP  0  0  0  0  0  0  0  0  0  0  0  0  # atno 17371 bound_to 10713
  140.7594  134.3956  157.5528 LP  0  0  0  0  0  0  0  0  0  0  0  0  # atno 17394 bound_to 11000
  139.8849  134.8951  156.2673 LP  0  0  0  0  0  0  0  0  0  0  0  0  # atno 17395 bound_to 11000

$$$$
