AV-unprocessed.smi:1007|AV-procd|sdf|4404|dock4
  -GOLD-   22720 2343D 1   1.00000     0.00000
 Structure written by MMmdl.
 57 59  0  0  0  0  0  0  0  0  3 V2000
  144.6871  145.1710  153.6249 C   0  0  0  0  0  0  0  0  0  0  0  0
  144.5765  144.6036  154.9185 O   0  0  0  0  0  0  0  0  0  0  0  0
  144.6645  143.1885  154.9009 C   0  0  0  0  0  0  0  0  0  0  0  0
  146.0029  142.7817  154.2659 C   0  0  0  0  0  0  0  0  0  0  0  0
  146.1223  141.3135  154.0819 N   0  3  0  0  0  0  0  0  0  0  0  0
  145.9376  140.5365  155.3368 C   0  0  0  0  0  0  0  0  0  0  0  0
  146.0250  139.0244  155.0468 C   0  0  0  0  0  0  0  0  0  0  0  0
  147.2798  138.6266  154.4028 N   0  0  0  0  0  0  0  0  0  0  0  0
  148.4634  138.6913  155.2683 C   0  0  0  0  0  0  0  0  0  0  0  0
  149.8096  138.4226  154.5680 C   0  0  2  0  0  0  0  0  0  0  0  0
  149.9681  137.0230  154.4493 O   0  0  0  0  0  0  0  0  0  0  0  0
  151.0100  138.9974  155.3471 C   0  0  0  0  0  0  0  0  0  0  0  0
  150.7634  140.3589  155.8376 N   0  0  0  0  0  0  0  0  0  0  0  0
  149.9713  141.3427  155.3319 C   0  0  0  0  0  0  0  0  0  0  0  0
  150.0749  142.4185  156.1609 N   0  3  0  0  0  0  0  0  0  0  0  0
  150.9458  142.1163  157.2103 C   0  0  0  0  0  0  0  0  0  0  0  0
  151.3652  142.8765  158.2956 C   0  0  0  0  0  0  0  0  0  0  0  0
  152.2662  142.2687  159.1994 C   0  0  0  0  0  0  0  0  0  0  0  0
  152.7406  143.0706  160.3993 C   0  0  0  0  0  0  0  0  0  0  0  0
  152.7196  140.9393  158.9960 C   0  0  0  0  0  0  0  0  0  0  0  0
  153.6897  140.2965  159.9728 C   0  0  0  0  0  0  0  0  0  0  0  0
  152.2819  140.1829  157.8854 C   0  0  0  0  0  0  0  0  0  0  0  0
  151.3925  140.7964  157.0072 C   0  0  0  0  0  0  0  0  0  0  0  0
  147.4357  139.4051  153.1744 C   0  0  0  0  0  0  0  0  0  0  0  0
  147.3895  140.9292  153.4086 C   0  0  0  0  0  0  0  0  0  0  0  0
  144.6151  146.2564  153.6933 H   0  0  0  0  0  0  0  0  0  0  0  0
  143.8872  144.8217  152.9707 H   0  0  0  0  0  0  0  0  0  0  0  0
  145.6465  144.9257  153.1673 H   0  0  0  0  0  0  0  0  0  0  0  0
  144.6221  142.8103  155.9235 H   0  0  0  0  0  0  0  0  0  0  0  0
  143.8190  142.7549  154.3667 H   0  0  0  0  0  0  0  0  0  0  0  0
  146.0839  143.2797  153.2986 H   0  0  0  0  0  0  0  0  0  0  0  0
  146.8368  143.1444  154.8685 H   0  0  0  0  0  0  0  0  0  0  0  0
  146.6819  140.8351  156.0760 H   0  0  0  0  0  0  0  0  0  0  0  0
  144.9630  140.7531  155.7719 H   0  0  0  0  0  0  0  0  0  0  0  0
  145.8663  138.4590  155.9637 H   0  0  0  0  0  0  0  0  0  0  0  0
  145.1949  138.7489  154.3947 H   0  0  0  0  0  0  0  0  0  0  0  0
  148.5153  139.6839  155.7186 H   0  0  0  0  0  0  0  0  0  0  0  0
  148.3536  137.9990  156.1027 H   0  0  0  0  0  0  0  0  0  0  0  0
  149.7958  138.8228  153.5548 H   0  0  0  0  0  0  0  0  0  0  0  0
  149.9007  136.7864  153.5366 H   0  0  0  0  0  0  0  0  0  0  0  0
  151.2668  138.3681  156.1998 H   0  0  0  0  0  0  0  0  0  0  0  0
  151.8960  139.0308  154.7113 H   0  0  0  0  0  0  0  0  0  0  0  0
  149.3653  141.2784  154.4396 H   0  0  0  0  0  0  0  0  0  0  0  0
  151.0164  143.8881  158.4438 H   0  0  0  0  0  0  0  0  0  0  0  0
  153.8236  143.1929  160.3745 H   0  0  0  0  0  0  0  0  0  0  0  0
  152.4695  142.5673  161.3277 H   0  0  0  0  0  0  0  0  0  0  0  0
  152.2933  144.0649  160.4174 H   0  0  0  0  0  0  0  0  0  0  0  0
  153.9504  139.2826  159.6674 H   0  0  0  0  0  0  0  0  0  0  0  0
  153.2502  140.2419  160.9689 H   0  0  0  0  0  0  0  0  0  0  0  0
  154.6130  140.8732  160.0319 H   0  0  0  0  0  0  0  0  0  0  0  0
  152.6257  139.1712  157.7289 H   0  0  0  0  0  0  0  0  0  0  0  0
  148.3692  139.1346  152.6794 H   0  0  0  0  0  0  0  0  0  0  0  0
  146.6419  139.1316  152.4777 H   0  0  0  0  0  0  0  0  0  0  0  0
  147.4596  141.4402  152.4477 H   0  0  0  0  0  0  0  0  0  0  0  0
  148.2426  141.2594  154.0025 H   0  0  0  0  0  0  0  0  0  0  0  0
  145.3793  141.0411  153.4535 H   0  0  0  0  0  0  0  0  0  0  0  0
  149.5831  143.2915  156.0200 H   0  0  0  0  0  0  0  0  0  0  0  0
  1  2  1  0  0  0  0
  1 26  1  0  0  0  0
  1 27  1  0  0  0  0
  1 28  1  0  0  0  0
  2  3  1  0  0  0  0
  3  4  1  0  0  0  0
  3 29  1  0  0  0  0
  3 30  1  0  0  0  0
  4  5  1  0  0  0  0
  4 31  1  0  0  0  0
  4 32  1  0  0  0  0
  5 25  1  0  0  0  0
  5  6  1  0  0  0  0
  5 56  1  0  0  0  0
  6  7  1  0  0  0  0
  6 33  1  0  0  0  0
  6 34  1  0  0  0  0
  7  8  1  0  0  0  0
  7 35  1  0  0  0  0
  7 36  1  0  0  0  0
  8  9  1  0  0  0  0
  8 24  1  0  0  0  0
  9 10  1  0  0  0  0
  9 37  1  0  0  0  0
  9 38  1  0  0  0  0
 10 11  1  0  0  0  0
 10 12  1  0  0  0  0
 10 39  1  0  0  0  0
 11 40  1  0  0  0  0
 12 13  1  0  0  0  0
 12 41  1  0  0  0  0
 12 42  1  0  0  0  0
 13 23  1  0  0  0  0
 13 14  1  0  0  0  0
 14 15  2  0  0  0  0
 14 43  1  0  0  0  0
 15 16  1  0  0  0  0
 15 57  1  0  0  0  0
 16 23  2  0  0  0  0
 16 17  1  0  0  0  0
 17 18  2  0  0  0  0
 17 44  1  0  0  0  0
 18 19  1  0  0  0  0
 18 20  1  0  0  0  0
 19 45  1  0  0  0  0
 19 46  1  0  0  0  0
 19 47  1  0  0  0  0
 20 21  1  0  0  0  0
 20 22  2  0  0  0  0
 21 48  1  0  0  0  0
 21 49  1  0  0  0  0
 21 50  1  0  0  0  0
 22 23  1  0  0  0  0
 22 51  1  0  0  0  0
 24 25  1  0  0  0  0
 24 52  1  0  0  0  0
 24 53  1  0  0  0  0
 25 54  1  0  0  0  0
 25 55  1  0  0  0  0
M  CHG  1   5   1
M  CHG  1  15   1
M  END
> <s_m_source_file>
AV-unprocessed.smi

> <i_m_source_file_index>
1007

> <i_lp_mmshare_version>
43012

> <i_f3d_flags>
0

> <s_epik_input>
W0NIM11PW0NIMl1bQ0gyXU4xW0NIMl1bQ0gyXU4oW0NIMl1bQ0gyXTEpW0NIMl1bQ0BIXShbT0hdKVtDSDJdbihbY0hdbjIpYyhjMjMpW2NIXWMoW0NIM10pYyhbY0hdMylbQ0gzXQ==

> <s_epik_cmdline>
J2VwaWtfcHl0aG9uJywgJy1waCcsICc3LjAnLCAnLXRuJywgJzgnLCAnLW1hJywgJzIwMCcsICctbWV0YWxfYmluZGluZycsICctaW1hZScsICc8aW5maWxlLm1hZT4nLCAnLW9tYWUnLCAnPG91dGZpbGUubWFlPic=

> <r_epik_Ionization_Penalty>
1.34507

> <r_epik_Ionization_Penalty_Charging>
1.29906

> <r_epik_Ionization_Penalty_Neutral>
0.0460038

> <r_epik_State_Penalty>
2.55679

> <r_epik_Charging_Adjusted_Penalty>
3.85586

> <i_epik_Tot_Q>
2

> <i_epik_Tot_abs_Q>
2

> <r_epik_Metal_State_Penalty>
6.56928

> <b_epik_Metal_Only>
0

> <s_lp_Force_Field>
OPLS_2005

> <r_lp_Energy>
40.0573

> <b_lp_Chiralities_Consistent>
1

> <s_lp_Variant>
AV-unprocessed.smi:1007-7

> <Gold.Version>
5.8.1

> <Gold.Id.Protein>
6NUR|6NUR_protein|mol2

> <Gold.PLP.Fitness>
60.3368

> <Gold.PLP.PLP>
-46.6975

> <Gold.PLP.part.hbond>
-3.0000

> <Gold.PLP.part.metal>
0.0000

> <Gold.PLP.part.buried>
-4.2437

> <Gold.PLP.part.nonpolar>
-41.1586

> <Gold.PLP.part.repulsive>
0.4000

> <Gold.PLP.ligand.clash>
0.0000

> <Gold.PLP.ligand.torsion>
0.7555

> <Gold.PLP.Chemscore.Hbond>
5.0000

> <Gold.PLP.Chemscore.CHOScore>
0.0000

> <Gold.PLP.Chemscore.Metal>
0.0000

> <Gold.Chemscore.Hbonds>
donor molecule, donor type, donor heavy atom, donor atom, acceptor molecule, acceptor atom, score
      L1  H     5    56       P1 10175  2.00
      L1  H    11    40       P1  7948  1.00
      L1  H    15    57       P1  8028  2.00

> <Gold.PLP.Chemscore.Internal.Correction>
0.1503

> <Gold.Rescore>
     Score         DG    S(hbond)    S(metal)    S(lipo)     H(rot)  DE(clash)    DE(int)     intcor
     20.21     -21.02       2.73        0.00     112.76       2.64       0.12       0.68       ----

> <Gold.Chemscore.Fitness>
20.2110

> <Gold.Chemscore.DG>
-21.0172

> <Gold.Chemscore.ZeroCoef>
-5.4800

> <Gold.Chemscore.Hbond>
2.7278

> <Gold.Chemscore.Metal>
0.0000

> <Gold.Chemscore.Lipo>
112.7607

> <Gold.Chemscore.Internal_Hbond>
0.0000

> <Gold.Chemscore.DEClash>
0.1229

> <Gold.Chemscore.DEInternal>
0.6833

> <Gold.Chemscore.Rot>
2.6432

> <Gold.Chemscore.Internal.Correction>
   9.000000E+99

> <Gold.Chemscore.Hbonds>
donor molecule, donor type, donor heavy atom, donor atom, acceptor molecule, acceptor atom, score
      L1  H     5    56       P1 10175  0.52
      L1  H    11    40       P1  7948  0.29
      L1  H    15    57       P1  8028  0.99

> <Gold.Chemscore.Hbond.Weighted>
-9.1107

> <Gold.Chemscore.Metal.Weighted>
-0.0000

> <Gold.Chemscore.Lipo.Weighted>
-13.1930

> <Gold.Chemscore.Internal_Hbond.Weighted>
0.0000

> <Gold.Chemscore.DEClash.Weighted>
0.1229

> <Gold.Chemscore.DEInternal.Weighted>
0.6833

> <Gold.Chemscore.Rot.Weighted>
6.7665

> <Gold.Chemscore.Internal.Correction.Weighted>
   9.000000E+99

> <Gold.Protein.RotatedTorsions>
[ 6907 6896 6895 6894 ] final   53.57 input  -60.11 | X-H torsion
[ 7974 7965 7964 7962 ] final  123.89 input  175.53 | X-H torsion
[ 8008 7997 7996 7995 ] final   94.33 input   59.86 | X-H torsion
[ 10167 10162 10161 10158 ] final -121.71 input  -65.29 | X-H torsion
[ 10718 10713 10712 10709 ] final -116.86 input   66.30 | X-H torsion
[ 10763 10752 10751 10750 ] final  -75.35 input  -60.55 | X-H torsion
[ 11005 11000 10999 10996 ] final  -34.40 input  -57.11 | X-H torsion

> <Gold.Protein.ActiveResidues>
 VAL166  LYS551  ARG553  GLY616  TRP617  ASP618  TYR619  PRO620  LYS621  CYS622 
 ASP623  PHE694  ASN695  SER759  ASP760  ASP761  ALA762  ILE779  LEU786  VAL792 
 PHE793  MET794  SER795  GLU796  ALA797  LYS798  CYS799  TRP800  GLU811  SER814 

> <Gold.Protein.RotatedAtoms>
  152.3350  134.7210  160.0279 H   0  0  0  0  0  0  0  0  0  0  0  0  # atno 6907 bound_to 6896
  151.7614  133.3328  159.3427 H   0  0  0  0  0  0  0  0  0  0  0  0  # atno 6908 bound_to 6896
  150.7445  134.6035  159.6093 H   0  0  0  0  0  0  0  0  0  0  0  0  # atno 6909 bound_to 6896
  145.0907  139.3589  143.4862 H   0  0  0  0  0  0  0  0  0  0  0  0  # atno 7974 bound_to 7965
  156.0567  140.3301  155.7413 H   0  0  0  0  0  0  0  0  0  0  0  0  # atno 8008 bound_to 7997
  155.5518  140.0611  157.2866 H   0  0  0  0  0  0  0  0  0  0  0  0  # atno 8009 bound_to 7997
  154.4461  140.1893  156.0682 H   0  0  0  0  0  0  0  0  0  0  0  0  # atno 8010 bound_to 7997
  140.0220  143.5334  152.2216 H   0  0  0  0  0  0  0  0  0  0  0  0  # atno 10167 bound_to 10162
  156.0993  130.6158  150.9090 H   0  0  0  0  0  0  0  0  0  0  0  0  # atno 10718 bound_to 10713
  154.4854  135.5834  153.6420 H   0  0  0  0  0  0  0  0  0  0  0  0  # atno 10763 bound_to 10752
  152.9854  135.6100  154.3193 H   0  0  0  0  0  0  0  0  0  0  0  0  # atno 10764 bound_to 10752
  154.3088  135.2845  155.2555 H   0  0  0  0  0  0  0  0  0  0  0  0  # atno 10765 bound_to 10752
  140.9713  133.7108  156.1528 H   0  0  0  0  0  0  0  0  0  0  0  0  # atno 11005 bound_to 11000
  146.3531  140.0740  142.8621 LP  0  0  0  0  0  0  0  0  0  0  0  0  # atno 17320 bound_to 7965
  145.1069  140.9381  143.4679 LP  0  0  0  0  0  0  0  0  0  0  0  0  # atno 17321 bound_to 7965
  139.6133  144.7614  151.2903 LP  0  0  0  0  0  0  0  0  0  0  0  0  # atno 17342 bound_to 10162
  140.7338  143.6784  150.8022 LP  0  0  0  0  0  0  0  0  0  0  0  0  # atno 17343 bound_to 10162
  157.6160  131.0933  150.8709 LP  0  0  0  0  0  0  0  0  0  0  0  0  # atno 17370 bound_to 10713
  156.8841  130.5189  149.5289 LP  0  0  0  0  0  0  0  0  0  0  0  0  # atno 17371 bound_to 10713
  140.7325  134.4239  157.5564 LP  0  0  0  0  0  0  0  0  0  0  0  0  # atno 17394 bound_to 11000
  139.8913  134.8782  156.2325 LP  0  0  0  0  0  0  0  0  0  0  0  0  # atno 17395 bound_to 11000

$$$$
