AV-unprocessed.smi:2351|AV-procd|sdf|9374|dock6
  -GOLD-   2272013 03D 1   1.00000     0.00000
 Structure written by MMmdl.
 47 49  0  0  0  0  0  0  0  0  2 V2000
  149.9300  140.5561  157.2402 O   0  0  0  0  0  0  0  0  0  0  0  0
  149.7431  141.7048  156.8384 C   0  0  0  0  0  0  0  0  0  0  0  0
  150.3602  142.7975  157.3167 N   0  0  0  0  0  0  0  0  0  0  0  0
  151.3114  142.8459  158.3681 C   0  0  0  0  0  0  0  0  0  0  0  0
  151.9830  141.6559  158.7162 C   0  0  0  0  0  0  0  0  0  0  0  0
  152.9459  141.6983  159.7443 C   0  0  0  0  0  0  0  0  0  0  0  0
  153.2733  142.8269  160.4084 N   0  0  0  0  0  0  0  0  0  0  0  0
  152.6473  143.9700  160.0553 C   0  0  0  0  0  0  0  0  0  0  0  0
  151.6707  144.0399  159.0410 C   0  0  0  0  0  0  0  0  0  0  0  0
  151.1256  145.2363  158.7136 F   0  0  0  0  0  0  0  0  0  0  0  0
  148.8999  142.0131  155.8422 N   0  0  0  0  0  0  0  0  0  0  0  0
  148.0801  141.0510  155.1114 C   0  0  2  0  0  0  0  0  0  0  0  0
  148.9654  139.9254  154.5542 C   0  0  0  0  0  0  0  0  0  0  0  0
  148.1440  138.9410  153.7048 C   0  0  0  0  0  0  0  0  0  0  0  0
  147.4392  139.6411  152.5999 N   0  3  1  0  0  0  0  0  0  0  0  0
  146.7520  138.6964  151.6822 C   0  0  0  0  0  0  0  0  0  0  0  0
  146.1313  137.4957  152.4234 C   0  0  2  0  0  0  0  0  0  0  0  0
  145.5548  136.4421  151.4992 C   0  0  0  0  0  0  0  0  0  0  0  0
  144.6248  135.6751  152.4345 C   0  0  0  0  0  0  0  0  0  0  0  0
  144.1637  136.6278  153.3884 O   0  0  0  0  0  0  0  0  0  0  0  0
  144.9015  137.8395  153.2657 C   0  0  0  0  0  0  0  0  0  0  0  0
  146.5455  140.7112  153.1176 C   0  0  0  0  0  0  0  0  0  0  0  0
  147.3308  141.7350  153.9532 C   0  0  0  0  0  0  0  0  0  0  0  0
  150.2147  143.6597  156.8124 H   0  0  0  0  0  0  0  0  0  0  0  0
  151.7607  140.7246  158.2157 H   0  0  0  0  0  0  0  0  0  0  0  0
  153.4689  140.8007  160.0398 H   0  0  0  0  0  0  0  0  0  0  0  0
  152.9444  144.8609  160.5886 H   0  0  0  0  0  0  0  0  0  0  0  0
  148.8164  142.9826  155.5730 H   0  0  0  0  0  0  0  0  0  0  0  0
  147.3532  140.6088  155.7959 H   0  0  0  0  0  0  0  0  0  0  0  0
  149.7657  140.3483  153.9448 H   0  0  0  0  0  0  0  0  0  0  0  0
  149.4496  139.3904  155.3720 H   0  0  0  0  0  0  0  0  0  0  0  0
  148.8127  138.1834  153.2944 H   0  0  0  0  0  0  0  0  0  0  0  0
  147.4175  138.4183  154.3291 H   0  0  0  0  0  0  0  0  0  0  0  0
  145.9562  139.2185  151.1487 H   0  0  0  0  0  0  0  0  0  0  0  0
  147.4535  138.3547  150.9195 H   0  0  0  0  0  0  0  0  0  0  0  0
  146.8717  137.0096  153.0591 H   0  0  0  0  0  0  0  0  0  0  0  0
  144.9763  136.9082  150.7000 H   0  0  0  0  0  0  0  0  0  0  0  0
  146.3154  135.8070  151.0438 H   0  0  0  0  0  0  0  0  0  0  0  0
  143.7953  135.2060  151.9049 H   0  0  0  0  0  0  0  0  0  0  0  0
  145.1743  134.8947  152.9625 H   0  0  0  0  0  0  0  0  0  0  0  0
  145.1651  138.2435  154.2436 H   0  0  0  0  0  0  0  0  0  0  0  0
  144.2738  138.5723  152.7564 H   0  0  0  0  0  0  0  0  0  0  0  0
  146.0573  141.2318  152.2948 H   0  0  0  0  0  0  0  0  0  0  0  0
  145.7534  140.2657  153.7215 H   0  0  0  0  0  0  0  0  0  0  0  0
  146.6460  142.4910  154.3396 H   0  0  0  0  0  0  0  0  0  0  0  0
  148.0392  142.2604  153.3107 H   0  0  0  0  0  0  0  0  0  0  0  0
  148.1578  140.0955  152.0545 H   0  0  0  0  0  0  0  0  0  0  0  0
  1  2  2  0  0  0  0
  2  3  1  0  0  0  0
  2 11  1  0  0  0  0
  3  4  1  0  0  0  0
  3 24  1  0  0  0  0
  4  9  1  0  0  0  0
  4  5  2  0  0  0  0
  5  6  1  0  0  0  0
  5 25  1  0  0  0  0
  6  7  2  0  0  0  0
  6 26  1  0  0  0  0
  7  8  1  0  0  0  0
  8  9  2  0  0  0  0
  8 27  1  0  0  0  0
  9 10  1  0  0  0  0
 11 12  1  0  0  0  0
 11 28  1  0  0  0  0
 12 23  1  0  0  0  0
 12 13  1  0  0  0  0
 12 29  1  0  0  0  0
 13 14  1  0  0  0  0
 13 30  1  0  0  0  0
 13 31  1  0  0  0  0
 14 15  1  0  0  0  0
 14 32  1  0  0  0  0
 14 33  1  0  0  0  0
 15 16  1  0  0  0  0
 15 22  1  0  0  0  0
 15 47  1  0  0  0  0
 16 17  1  0  0  0  0
 16 34  1  0  0  0  0
 16 35  1  0  0  0  0
 17 21  1  0  0  0  0
 17 18  1  0  0  0  0
 17 36  1  0  0  0  0
 18 19  1  0  0  0  0
 18 37  1  0  0  0  0
 18 38  1  0  0  0  0
 19 20  1  0  0  0  0
 19 39  1  0  0  0  0
 19 40  1  0  0  0  0
 20 21  1  0  0  0  0
 21 41  1  0  0  0  0
 21 42  1  0  0  0  0
 22 23  1  0  0  0  0
 22 43  1  0  0  0  0
 22 44  1  0  0  0  0
 23 45  1  0  0  0  0
 23 46  1  0  0  0  0
M  CHG  1  15   1
M  END
> <s_m_source_file>
AV-unprocessed.smi

> <i_m_source_file_index>
2351

> <i_lp_mmshare_version>
43012

> <i_f3d_flags>
0

> <s_epik_input>
RmMxW2NIXW5bY0hdW2NIXWMxW05IXUMoPU8pW05IXVtDSF0yW0NIMl1bQ0gyXU4oW0NIMl1bQ0gyXTIpW0NIMl1bQ0BASF0zW0NIMl1bQ0gyXU9bQ0gyXTM=

> <s_epik_cmdline>
J2VwaWtfcHl0aG9uJywgJy1waCcsICc3LjAnLCAnLXRuJywgJzgnLCAnLW1hJywgJzIwMCcsICctbWV0YWxfYmluZGluZycsICctaW1hZScsICc8aW5maWxlLm1hZT4nLCAnLW9tYWUnLCAnPG91dGZpbGUubWFlPic=

> <r_epik_Ionization_Penalty>
0.0102464

> <r_epik_Ionization_Penalty_Charging>
0.00747775

> <r_epik_Ionization_Penalty_Neutral>
0.00276864

> <r_epik_State_Penalty>
0.00558817

> <r_epik_Charging_Adjusted_Penalty>
0.0130659

> <i_epik_Tot_Q>
1

> <i_epik_Tot_abs_Q>
1

> <r_epik_Metal_State_Penalty>
-0

> <b_epik_Metal_Only>
0

> <s_lp_Force_Field>
OPLS_2005

> <r_lp_Energy>
40.2239

> <b_lp_Chiralities_Consistent>
1

> <s_lp_Variant>
AV-unprocessed.smi:2351-1

> <Gold.Version>
5.8.1

> <Gold.Id.Protein>
6NUR|6NUR_protein|mol2

> <Gold.PLP.Fitness>
49.3124

> <Gold.PLP.PLP>
-41.2680

> <Gold.PLP.part.hbond>
-3.0000

> <Gold.PLP.part.metal>
0.0000

> <Gold.PLP.part.buried>
-0.1815

> <Gold.PLP.part.nonpolar>
-39.6653

> <Gold.PLP.part.repulsive>
0.2978

> <Gold.PLP.ligand.clash>
0.0000

> <Gold.PLP.ligand.torsion>
0.4519

> <Gold.PLP.Chemscore.Hbond>
2.9280

> <Gold.PLP.Chemscore.CHOScore>
0.0000

> <Gold.PLP.Chemscore.Metal>
0.0000

> <Gold.Chemscore.Hbonds>
donor molecule, donor type, donor heavy atom, donor atom, acceptor molecule, acceptor atom, score
      L1  H     3    24       P1  8028  0.89
      L1  H    11    28       P1  8028  1.00
      L1  H    15    47       P1  7957  1.00

> <Gold.PLP.Chemscore.Internal.Correction>
0.1642

> <Gold.Rescore>
     Score         DG    S(hbond)    S(metal)    S(lipo)     H(rot)  DE(clash)    DE(int)     intcor
     20.28     -24.97       2.88        0.00     115.98       1.45       1.42       3.27       ----

> <Gold.Chemscore.Fitness>
20.2823

> <Gold.Chemscore.DG>
-24.9704

> <Gold.Chemscore.ZeroCoef>
-5.4800

> <Gold.Chemscore.Hbond>
2.8826

> <Gold.Chemscore.Metal>
0.0000

> <Gold.Chemscore.Lipo>
115.9839

> <Gold.Chemscore.Internal_Hbond>
0.0000

> <Gold.Chemscore.DEClash>
1.4155

> <Gold.Chemscore.DEInternal>
3.2726

> <Gold.Chemscore.Rot>
1.4483

> <Gold.Chemscore.Internal.Correction>
   9.000000E+99

> <Gold.Chemscore.Hbonds>
donor molecule, donor type, donor heavy atom, donor atom, acceptor molecule, acceptor atom, score
      L1  H     3    24       P1  8028  0.80
      L1  H    11    28       P1  8028  1.00
      L1  H    15    47       P1  7957  0.95

> <Gold.Chemscore.Hbond.Weighted>
-9.6280

> <Gold.Chemscore.Metal.Weighted>
-0.0000

> <Gold.Chemscore.Lipo.Weighted>
-13.5701

> <Gold.Chemscore.Internal_Hbond.Weighted>
0.0000

> <Gold.Chemscore.DEClash.Weighted>
1.4155

> <Gold.Chemscore.DEInternal.Weighted>
3.2726

> <Gold.Chemscore.Rot.Weighted>
3.7077

> <Gold.Chemscore.Internal.Correction.Weighted>
   9.000000E+99

> <Gold.Protein.RotatedTorsions>
[ 6907 6896 6895 6894 ] final   18.55 input  -60.11 | X-H torsion
[ 7974 7965 7964 7962 ] final -126.55 input  175.53 | X-H torsion
[ 8008 7997 7996 7995 ] final  -11.84 input   59.86 | X-H torsion
[ 10167 10162 10161 10158 ] final  151.75 input  -65.29 | X-H torsion
[ 10718 10713 10712 10709 ] final -140.96 input   66.30 | X-H torsion
[ 10763 10752 10751 10750 ] final  146.92 input  -60.55 | X-H torsion
[ 11005 11000 10999 10996 ] final -173.07 input  -57.11 | X-H torsion

> <Gold.Protein.ActiveResidues>
 VAL166  LYS551  ARG553  GLY616  TRP617  ASP618  TYR619  PRO620  LYS621  CYS622 
 ASP623  PHE694  ASN695  SER759  ASP760  ASP761  ALA762  ILE779  LEU786  VAL792 
 PHE793  MET794  SER795  GLU796  ALA797  LYS798  CYS799  TRP800  GLU811  SER814 

> <Gold.Protein.RotatedAtoms>
  151.8670  135.0503  160.0475 H   0  0  0  0  0  0  0  0  0  0  0  0  # atno 6907 bound_to 6896
  152.2618  133.5299  159.5394 H   0  0  0  0  0  0  0  0  0  0  0  0  # atno 6908 bound_to 6896
  150.7119  134.0735  159.3915 H   0  0  0  0  0  0  0  0  0  0  0  0  # atno 6909 bound_to 6896
  144.9862  140.7688  143.4582 H   0  0  0  0  0  0  0  0  0  0  0  0  # atno 7974 bound_to 7965
  154.5429  140.2292  155.8611 H   0  0  0  0  0  0  0  0  0  0  0  0  # atno 8008 bound_to 7997
  156.1876  140.3085  155.9230 H   0  0  0  0  0  0  0  0  0  0  0  0  # atno 8009 bound_to 7997
  155.3222  140.0441  157.3030 H   0  0  0  0  0  0  0  0  0  0  0  0  # atno 8010 bound_to 7997
  139.4838  144.5415  151.7556 H   0  0  0  0  0  0  0  0  0  0  0  0  # atno 10167 bound_to 10162
  156.3284  130.7573  151.1685 H   0  0  0  0  0  0  0  0  0  0  0  0  # atno 10718 bound_to 10713
  154.0299  135.2898  155.3370 H   0  0  0  0  0  0  0  0  0  0  0  0  # atno 10763 bound_to 10752
  154.6994  135.5194  153.8509 H   0  0  0  0  0  0  0  0  0  0  0  0  # atno 10764 bound_to 10752
  153.0645  135.6626  154.0513 H   0  0  0  0  0  0  0  0  0  0  0  0  # atno 10765 bound_to 10752
  140.4899  134.5995  157.4950 H   0  0  0  0  0  0  0  0  0  0  0  0  # atno 11005 bound_to 11000
  145.2351  139.2097  143.5022 LP  0  0  0  0  0  0  0  0  0  0  0  0  # atno 17320 bound_to 7965
  146.3420  140.2235  142.8592 LP  0  0  0  0  0  0  0  0  0  0  0  0  # atno 17321 bound_to 7965
  140.4955  144.1247  150.5959 LP  0  0  0  0  0  0  0  0  0  0  0  0  # atno 17342 bound_to 10162
  140.4122  143.2651  151.9819 LP  0  0  0  0  0  0  0  0  0  0  0  0  # atno 17343 bound_to 10162
  157.7426  131.0488  150.5014 LP  0  0  0  0  0  0  0  0  0  0  0  0  # atno 17370 bound_to 10713
  156.5176  130.4154  149.6267 LP  0  0  0  0  0  0  0  0  0  0  0  0  # atno 17371 bound_to 10713
  139.9776  134.7190  155.9921 LP  0  0  0  0  0  0  0  0  0  0  0  0  # atno 17394 bound_to 11000
  141.1489  133.6551  156.3953 LP  0  0  0  0  0  0  0  0  0  0  0  0  # atno 17395 bound_to 11000

$$$$
