AV-unprocessed.smi:36|AV-procd|sdf|283|dock8
  -GOLD-   2262016 63D 1   1.00000     0.00000
 Structure written by MMmdl.
 64 67  0  0  0  0  0  0  0  0  1 V2000
  145.8914  136.3714  162.2857 C   0  0  0  0  0  0  0  0  0  0  0  0
  146.1221  134.8532  162.2063 C   0  0  0  0  0  0  0  0  0  0  0  0
  147.4763  134.4962  162.8412 C   0  0  0  0  0  0  0  0  0  0  0  0
  144.9933  134.1131  162.9432 C   0  0  0  0  0  0  0  0  0  0  0  0
  146.1282  134.3068  160.3759 Si  0  0  0  0  0  0  0  0  0  0  0  0
  147.5205  135.1715  159.4139 C   0  0  0  0  0  0  0  0  0  0  0  0
  146.3112  132.4227  160.2167 C   0  0  0  0  0  0  0  0  0  0  0  0
  144.6449  134.7551  159.6955 O   0  0  0  0  0  0  0  0  0  0  0  0
  144.2778  134.4824  158.3586 C   0  0  0  0  0  0  0  0  0  0  0  0
  145.0998  135.3763  157.4176 C   0  0  2  0  0  0  0  0  0  0  0  0
  144.6232  136.7167  157.4199 O   0  0  0  0  0  0  0  0  0  0  0  0
  144.9871  137.3538  156.2299 C   0  0  1  0  0  0  0  0  0  0  0  0
  146.0385  138.3688  156.5379 N   0  0  0  0  0  0  0  0  0  0  0  0
  146.5288  138.7729  157.7615 C   0  0  0  0  0  0  0  0  0  0  0  0
  147.4581  139.6899  157.7145 N   0  0  0  0  0  0  0  0  0  0  0  0
  147.6225  139.9337  156.3567 C   0  0  0  0  0  0  0  0  0  0  0  0
  148.4559  140.8034  155.6064 C   0  0  0  0  0  0  0  0  0  0  0  0
  149.3196  141.6310  156.2401 N   0  0  0  0  0  0  0  0  0  0  0  0
  150.2964  141.2977  157.2620 C   0  0  0  0  0  0  0  0  0  0  0  0
  150.3789  140.1685  157.7464 O   0  0  0  0  0  0  0  0  0  0  0  0
  151.1469  142.4321  157.7558 C   0  0  0  0  0  0  0  0  0  0  0  0
  151.2493  143.6208  156.9984 C   0  0  0  0  0  0  0  0  0  0  0  0
  152.0286  144.6981  157.4638 C   0  0  0  0  0  0  0  0  0  0  0  0
  152.7064  144.5988  158.6933 C   0  0  0  0  0  0  0  0  0  0  0  0
  152.6014  143.4226  159.4594 C   0  0  0  0  0  0  0  0  0  0  0  0
  151.8222  142.3448  158.9956 C   0  0  0  0  0  0  0  0  0  0  0  0
  148.3407  140.7655  154.2523 N   0  0  0  0  0  0  0  0  0  0  0  0
  147.4687  139.9344  153.6736 C   0  0  0  0  0  0  0  0  0  0  0  0
  146.6281  139.0727  154.2506 N   0  0  0  0  0  0  0  0  0  0  0  0
  146.7388  139.1070  155.6098 C   0  0  0  0  0  0  0  0  0  0  0  0
  145.5525  136.2870  155.2816 C   0  0  0  0  0  0  0  0  0  0  0  0
  145.1097  134.9916  155.9340 C   0  0  2  0  0  0  0  0  0  0  0  0
  143.8283  134.6112  155.4700 O   0  0  0  0  0  0  0  0  0  0  0  0
  145.8849  136.7175  163.3198 H   0  0  0  0  0  0  0  0  0  0  0  0
  144.9368  136.6523  161.8403 H   0  0  0  0  0  0  0  0  0  0  0  0
  146.6737  136.9201  161.7607 H   0  0  0  0  0  0  0  0  0  0  0  0
  148.2973  135.0152  162.3459 H   0  0  0  0  0  0  0  0  0  0  0  0
  147.6755  133.4262  162.7741 H   0  0  0  0  0  0  0  0  0  0  0  0
  147.5047  134.7711  163.8963 H   0  0  0  0  0  0  0  0  0  0  0  0
  144.9664  134.3818  163.9997 H   0  0  0  0  0  0  0  0  0  0  0  0
  145.1228  133.0319  162.8818 H   0  0  0  0  0  0  0  0  0  0  0  0
  144.0175  134.3512  162.5191 H   0  0  0  0  0  0  0  0  0  0  0  0
  148.4996  134.9358  159.8299 H   0  0  0  0  0  0  0  0  0  0  0  0
  147.4109  136.2554  159.4367 H   0  0  0  0  0  0  0  0  0  0  0  0
  147.5347  134.8676  158.3678 H   0  0  0  0  0  0  0  0  0  0  0  0
  147.2466  132.0726  160.6524 H   0  0  0  0  0  0  0  0  0  0  0  0
  146.3018  132.1085  159.1734 H   0  0  0  0  0  0  0  0  0  0  0  0
  145.5006  131.8964  160.7199 H   0  0  0  0  0  0  0  0  0  0  0  0
  144.4068  133.4260  158.1214 H   0  0  0  0  0  0  0  0  0  0  0  0
  143.2162  134.7025  158.2459 H   0  0  0  0  0  0  0  0  0  0  0  0
  146.1310  135.4036  157.7735 H   0  0  0  0  0  0  0  0  0  0  0  0
  144.1471  137.9170  155.8219 H   0  0  0  0  0  0  0  0  0  0  0  0
  146.1745  138.3689  158.6985 H   0  0  0  0  0  0  0  0  0  0  0  0
  149.3038  142.5959  155.9436 H   0  0  0  0  0  0  0  0  0  0  0  0
  150.7336  143.7139  156.0534 H   0  0  0  0  0  0  0  0  0  0  0  0
  152.1045  145.6017  156.8769 H   0  0  0  0  0  0  0  0  0  0  0  0
  153.3028  145.4254  159.0505 H   0  0  0  0  0  0  0  0  0  0  0  0
  153.1161  143.3478  160.4061 H   0  0  0  0  0  0  0  0  0  0  0  0
  151.7474  141.4561  159.6055 H   0  0  0  0  0  0  0  0  0  0  0  0
  147.4397  139.9654  152.5944 H   0  0  0  0  0  0  0  0  0  0  0  0
  145.1839  136.4255  154.2646 H   0  0  0  0  0  0  0  0  0  0  0  0
  146.6424  136.3433  155.2674 H   0  0  0  0  0  0  0  0  0  0  0  0
  145.8051  134.1760  155.7331 H   0  0  0  0  0  0  0  0  0  0  0  0
  143.7418  133.6747  155.5633 H   0  0  0  0  0  0  0  0  0  0  0  0
  1  2  1  0  0  0  0
  1 34  1  0  0  0  0
  1 35  1  0  0  0  0
  1 36  1  0  0  0  0
  2  3  1  0  0  0  0
  2  4  1  0  0  0  0
  2  5  1  0  0  0  0
  3 37  1  0  0  0  0
  3 38  1  0  0  0  0
  3 39  1  0  0  0  0
  4 40  1  0  0  0  0
  4 41  1  0  0  0  0
  4 42  1  0  0  0  0
  5  6  1  0  0  0  0
  5  7  1  0  0  0  0
  5  8  1  0  0  0  0
  6 43  1  0  0  0  0
  6 44  1  0  0  0  0
  6 45  1  0  0  0  0
  7 46  1  0  0  0  0
  7 47  1  0  0  0  0
  7 48  1  0  0  0  0
  8  9  1  0  0  0  0
  9 10  1  0  0  0  0
  9 49  1  0  0  0  0
  9 50  1  0  0  0  0
 10 32  1  0  0  0  0
 10 11  1  0  0  0  0
 10 51  1  0  0  0  0
 11 12  1  0  0  0  0
 12 13  1  0  0  0  0
 12 31  1  0  0  0  0
 12 52  1  0  0  0  0
 13 30  1  0  0  0  0
 13 14  1  0  0  0  0
 14 15  2  0  0  0  0
 14 53  1  0  0  0  0
 15 16  1  0  0  0  0
 16 30  2  0  0  0  0
 16 17  1  0  0  0  0
 17 18  1  0  0  0  0
 17 27  2  0  0  0  0
 18 19  1  0  0  0  0
 18 54  1  0  0  0  0
 19 20  2  0  0  0  0
 19 21  1  0  0  0  0
 21 26  1  0  0  0  0
 21 22  2  0  0  0  0
 22 23  1  0  0  0  0
 22 55  1  0  0  0  0
 23 24  2  0  0  0  0
 23 56  1  0  0  0  0
 24 25  1  0  0  0  0
 24 57  1  0  0  0  0
 25 26  2  0  0  0  0
 25 58  1  0  0  0  0
 26 59  1  0  0  0  0
 27 28  1  0  0  0  0
 28 29  2  0  0  0  0
 28 60  1  0  0  0  0
 29 30  1  0  0  0  0
 31 32  1  0  0  0  0
 31 61  1  0  0  0  0
 31 62  1  0  0  0  0
 32 33  1  0  0  0  0
 32 63  1  0  0  0  0
 33 64  1  0  0  0  0
M  END
> <s_m_source_file>
AV-unprocessed.smi

> <i_m_source_file_index>
36

> <i_lp_mmshare_version>
43012

> <i_f3d_flags>
0

> <s_epik_input>
W0NIM11DKFtDSDNdKShbQ0gzXSlbU2ldKFtDSDNdKShbQ0gzXSlPW0NIMl1bQ0BASF0xT1tDQEhdKFtDSDJdW0NASF0xW09IXSluKFtjSF1uMiljKGMyMyluW2NIXW5jM1tOSF1DKD1PKWM0W2NIXVtjSF1bY0hdW2NIXVtjSF00

> <s_epik_cmdline>
J2VwaWtfcHl0aG9uJywgJy1waCcsICc3LjAnLCAnLXRuJywgJzgnLCAnLW1hJywgJzIwMCcsICctbWV0YWxfYmluZGluZycsICctaW1hZScsICc8aW5maWxlLm1hZT4nLCAnLW9tYWUnLCAnPG91dGZpbGUubWFlPic=

> <r_lp_tautomer_probability>
1

> <r_epik_Ionization_Penalty>
0.00150433

> <r_epik_Ionization_Penalty_Charging>
0

> <r_epik_Ionization_Penalty_Neutral>
0.00150433

> <r_epik_State_Penalty>
0.00724046

> <r_epik_Charging_Adjusted_Penalty>
0.00724046

> <i_epik_Tot_Q>
0

> <i_epik_Tot_abs_Q>
0

> <r_epik_Metal_State_Penalty>
0.323355

> <b_epik_Metal_Only>
0

> <s_epik_Chemistry_Notes>
This compound contains an acetal/aminal-like group ( X-CH(R)-Y where X, Y are N, S, or O) that may be acid/base labile, releasing an aldehyde.

> <s_lp_Force_Field>
OPLS_2005

> <r_lp_Energy>
37.4738

> <b_lp_Chiralities_Consistent>
1

> <s_lp_Variant>
AV-unprocessed.smi:36-5

> <Gold.Version>
5.8.1

> <Gold.Id.Protein>
6NUR|6NUR_protein|mol2

> <Gold.PLP.Fitness>
43.0608

> <Gold.PLP.PLP>
-38.5798

> <Gold.PLP.part.hbond>
-1.4003

> <Gold.PLP.part.metal>
0.0000

> <Gold.PLP.part.buried>
-3.8404

> <Gold.PLP.part.nonpolar>
-33.9510

> <Gold.PLP.part.repulsive>
0.3110

> <Gold.PLP.ligand.clash>
0.0000

> <Gold.PLP.ligand.torsion>
0.7957

> <Gold.PLP.Chemscore.Hbond>
1.1148

> <Gold.PLP.Chemscore.CHOScore>
0.8811

> <Gold.PLP.Chemscore.Metal>
0.0000

> <Gold.Chemscore.Hbonds>
donor molecule, donor type, donor heavy atom, donor atom, acceptor molecule, acceptor atom, score
      L1  H    18    54       P1  8028  0.62
      L1  H    33    64       P1 10957  0.27
      L1  C    28    60       P1  7957  0.75

> <Gold.PLP.Chemscore.Internal.Correction>
0.0847

> <Gold.Rescore>
     Score         DG    S(hbond)    S(metal)    S(lipo)     H(rot)  DE(clash)    DE(int)     intcor
     13.76     -14.84       1.14        0.00     106.73       2.70       0.24       0.84       ----

> <Gold.Chemscore.Fitness>
13.7642

> <Gold.Chemscore.DG>
-14.8371

> <Gold.Chemscore.ZeroCoef>
-5.4800

> <Gold.Chemscore.Hbond>
1.1354

> <Gold.Chemscore.Metal>
0.0000

> <Gold.Chemscore.Lipo>
106.7290

> <Gold.Chemscore.Internal_Hbond>
0.0000

> <Gold.Chemscore.DEClash>
0.2357

> <Gold.Chemscore.DEInternal>
0.8372

> <Gold.Chemscore.Rot>
2.7041

> <Gold.Chemscore.Internal.Correction>
   9.000000E+99

> <Gold.Chemscore.Hbonds>
donor molecule, donor type, donor heavy atom, donor atom, acceptor molecule, acceptor atom, score
      L1  H    18    54       P1  8028  0.63
      L1  H    33    64       P1 10957  0.26

> <Gold.Chemscore.Hbond.Weighted>
-3.7923

> <Gold.Chemscore.Metal.Weighted>
-0.0000

> <Gold.Chemscore.Lipo.Weighted>
-12.4873

> <Gold.Chemscore.Internal_Hbond.Weighted>
0.0000

> <Gold.Chemscore.DEClash.Weighted>
0.2357

> <Gold.Chemscore.DEInternal.Weighted>
0.8372

> <Gold.Chemscore.Rot.Weighted>
6.9225

> <Gold.Chemscore.Internal.Correction.Weighted>
   9.000000E+99

> <Gold.Protein.RotatedTorsions>
[ 6907 6896 6895 6894 ] final   94.50 input  -60.11 | X-H torsion
[ 7974 7965 7964 7962 ] final  151.25 input  175.53 | X-H torsion
[ 8008 7997 7996 7995 ] final  -67.49 input   59.86 | X-H torsion
[ 10167 10162 10161 10158 ] final  116.83 input  -65.29 | X-H torsion
[ 10718 10713 10712 10709 ] final   16.79 input   66.30 | X-H torsion
[ 10763 10752 10751 10750 ] final   -4.30 input  -60.55 | X-H torsion
[ 11005 11000 10999 10996 ] final  -17.86 input  -57.11 | X-H torsion

> <Gold.Protein.ActiveResidues>
 VAL166  LYS551  ARG553  GLY616  TRP617  ASP618  TYR619  PRO620  LYS621  CYS622 
 ASP623  PHE694  ASN695  SER759  ASP760  ASP761  ALA762  ILE779  LEU786  VAL792 
 PHE793  MET794  SER795  GLU796  ALA797  LYS798  CYS799  TRP800  GLU811  SER814 

> <Gold.Protein.RotatedAtoms>
  152.5449  134.1185  159.8388 H   0  0  0  0  0  0  0  0  0  0  0  0  # atno 6907 bound_to 6896
  151.1243  133.5074  159.2608 H   0  0  0  0  0  0  0  0  0  0  0  0  # atno 6908 bound_to 6896
  151.1744  135.0342  159.8820 H   0  0  0  0  0  0  0  0  0  0  0  0  # atno 6909 bound_to 6896
  144.8306  139.6513  143.6060 H   0  0  0  0  0  0  0  0  0  0  0  0  # atno 7974 bound_to 7965
  154.4804  140.0891  156.7363 H   0  0  0  0  0  0  0  0  0  0  0  0  # atno 8008 bound_to 7997
  155.4486  140.3456  155.4280 H   0  0  0  0  0  0  0  0  0  0  0  0  # atno 8009 bound_to 7997
  156.1182  140.1466  156.9231 H   0  0  0  0  0  0  0  0  0  0  0  0  # atno 8010 bound_to 7997
  139.6220  144.7102  151.2615 H   0  0  0  0  0  0  0  0  0  0  0  0  # atno 10167 bound_to 10162
  157.0729  130.6355  149.5809 H   0  0  0  0  0  0  0  0  0  0  0  0  # atno 10718 bound_to 10713
  153.3831  135.6999  153.6551 H   0  0  0  0  0  0  0  0  0  0  0  0  # atno 10763 bound_to 10752
  153.5154  135.3623  155.2607 H   0  0  0  0  0  0  0  0  0  0  0  0  # atno 10764 bound_to 10752
  154.8694  135.4145  154.3132 H   0  0  0  0  0  0  0  0  0  0  0  0  # atno 10765 bound_to 10752
  140.8211  133.8068  155.9660 H   0  0  0  0  0  0  0  0  0  0  0  0  # atno 11005 bound_to 11000
  146.2609  139.6408  142.9363 LP  0  0  0  0  0  0  0  0  0  0  0  0  # atno 17320 bound_to 7965
  145.4905  141.0438  143.2596 LP  0  0  0  0  0  0  0  0  0  0  0  0  # atno 17321 bound_to 7965
  140.7387  143.6638  150.8141 LP  0  0  0  0  0  0  0  0  0  0  0  0  # atno 17342 bound_to 10162
  140.0250  143.5502  152.2784 LP  0  0  0  0  0  0  0  0  0  0  0  0  # atno 17343 bound_to 10162
  155.9945  130.5009  150.7423 LP  0  0  0  0  0  0  0  0  0  0  0  0  # atno 17370 bound_to 10713
  157.4863  131.0907  151.0478 LP  0  0  0  0  0  0  0  0  0  0  0  0  # atno 17371 bound_to 10713
  140.9098  134.2274  157.4992 LP  0  0  0  0  0  0  0  0  0  0  0  0  # atno 17394 bound_to 11000
  139.8708  134.9745  156.4848 LP  0  0  0  0  0  0  0  0  0  0  0  0  # atno 17395 bound_to 11000

$$$$
