AV-unprocessed.smi:2063|AV-procd|sdf|8412|dock8
  -GOLD-   2272011103D 1   1.00000     0.00000
 Structure written by MMmdl.
 38 39  0  0  0  0  0  0  0  0  2 V2000
  146.8763  135.0314  162.6401 C   0  0  0  0  0  0  0  0  0  0  0  0
  147.0072  136.2445  161.7077 C   0  0  0  0  0  0  0  0  0  0  0  0
  145.6760  136.9745  161.4779 C   0  0  0  0  0  0  0  0  0  0  0  0
  147.6894  135.8964  160.4216 C   0  0  0  0  0  0  0  0  0  0  0  0
  148.0214  134.6459  160.0856 N   0  0  0  0  0  0  0  0  0  0  0  0
  148.6458  134.5831  158.8487 N   0  0  0  0  0  0  0  0  0  0  0  0
  148.7695  135.7815  158.2610 C   0  0  0  0  0  0  0  0  0  0  0  0
  149.3509  135.9408  157.0607 N   0  5  0  0  0  0  0  0  0  0  0  0
  149.7443  137.1704  156.6573 C   0  0  0  0  0  0  0  0  0  0  0  0
  149.9830  138.1358  157.3861 O   0  0  0  0  0  0  0  0  0  0  0  0
  149.8724  137.2828  155.3273 N   0  0  0  0  0  0  0  0  0  0  0  0
  150.3058  138.4698  154.5917 C   0  0  2  0  0  0  0  0  0  0  0  0
  151.6385  138.9751  155.1658 C   0  0  0  0  0  0  0  0  0  0  0  0
  149.2051  139.5456  154.6527 C   0  0  2  0  0  0  0  0  0  0  0  0
  147.9971  139.2735  153.7511 C   0  0  0  0  0  0  0  0  0  0  0  0
  147.4611  140.6595  153.4236 C   0  0  0  0  0  0  0  0  0  0  0  0
  148.5435  141.6113  153.9375 C   0  0  0  0  0  0  0  0  0  0  0  0
  149.6789  140.7867  154.1529 O   0  0  0  0  0  0  0  0  0  0  0  0
  148.1249  137.1079  159.2270 S   0  0  0  0  0  0  0  0  0  0  0  0
  147.8510  134.5859  162.8423 H   0  0  0  0  0  0  0  0  0  0  0  0
  146.2422  134.2606  162.2011 H   0  0  0  0  0  0  0  0  0  0  0  0
  146.4381  135.3165  163.5969 H   0  0  0  0  0  0  0  0  0  0  0  0
  147.6604  136.9532  162.2186 H   0  0  0  0  0  0  0  0  0  0  0  0
  145.8220  137.8786  160.8861 H   0  0  0  0  0  0  0  0  0  0  0  0
  145.2214  137.2690  162.4239 H   0  0  0  0  0  0  0  0  0  0  0  0
  144.9628  136.3415  160.9490 H   0  0  0  0  0  0  0  0  0  0  0  0
  149.6603  136.4635  154.7772 H   0  0  0  0  0  0  0  0  0  0  0  0
  150.4604  138.2131  153.5423 H   0  0  0  0  0  0  0  0  0  0  0  0
  151.9950  139.8500  154.6215 H   0  0  0  0  0  0  0  0  0  0  0  0
  152.4115  138.2092  155.0958 H   0  0  0  0  0  0  0  0  0  0  0  0
  151.5385  139.2533  156.2154 H   0  0  0  0  0  0  0  0  0  0  0  0
  148.8694  139.6876  155.6821 H   0  0  0  0  0  0  0  0  0  0  0  0
  148.3146  138.7804  152.8312 H   0  0  0  0  0  0  0  0  0  0  0  0
  147.2551  138.6350  154.2317 H   0  0  0  0  0  0  0  0  0  0  0  0
  147.3159  140.7673  152.3483 H   0  0  0  0  0  0  0  0  0  0  0  0
  146.5059  140.8532  153.9128 H   0  0  0  0  0  0  0  0  0  0  0  0
  148.7646  142.4154  153.2351 H   0  0  0  0  0  0  0  0  0  0  0  0
  148.2420  142.0597  154.8853 H   0  0  0  0  0  0  0  0  0  0  0  0
  1  2  1  0  0  0  0
  1 20  1  0  0  0  0
  1 21  1  0  0  0  0
  1 22  1  0  0  0  0
  2  3  1  0  0  0  0
  2  4  1  0  0  0  0
  2 23  1  0  0  0  0
  3 24  1  0  0  0  0
  3 25  1  0  0  0  0
  3 26  1  0  0  0  0
  4 19  1  0  0  0  0
  4  5  2  0  0  0  0
  5  6  1  0  0  0  0
  6  7  2  0  0  0  0
  7  8  1  0  0  0  0
  7 19  1  0  0  0  0
  8  9  1  0  0  0  0
  9 10  2  0  0  0  0
  9 11  1  0  0  0  0
 11 12  1  0  0  0  0
 11 27  1  0  0  0  0
 12 13  1  0  0  0  0
 12 14  1  0  0  0  0
 12 28  1  0  0  0  0
 13 29  1  0  0  0  0
 13 30  1  0  0  0  0
 13 31  1  0  0  0  0
 14 18  1  0  0  0  0
 14 15  1  0  0  0  0
 14 32  1  0  0  0  0
 15 16  1  0  0  0  0
 15 33  1  0  0  0  0
 15 34  1  0  0  0  0
 16 17  1  0  0  0  0
 16 35  1  0  0  0  0
 16 36  1  0  0  0  0
 17 18  1  0  0  0  0
 17 37  1  0  0  0  0
 17 38  1  0  0  0  0
M  CHG  1   8  -1
M  END
> <s_m_source_file>
AV-unprocessed.smi

> <i_m_source_file_index>
2063

> <i_lp_mmshare_version>
43012

> <i_f3d_flags>
0

> <s_epik_input>
W0NIM11bQ0hdKFtDSDNdKWMxbm5jKHMxKVtOSF1DKD1PKVtOSF1bQ0BIXShbQ0gzXSlbQ0BASF0yW0NIMl1bQ0gyXVtDSDJdTzI=

> <s_epik_cmdline>
J2VwaWtfcHl0aG9uJywgJy1waCcsICc3LjAnLCAnLXRuJywgJzgnLCAnLW1hJywgJzIwMCcsICctbWV0YWxfYmluZGluZycsICctaW1hZScsICc8aW5maWxlLm1hZT4nLCAnLW9tYWUnLCAnPG91dGZpbGUubWFlPic=

> <r_lp_tautomer_probability>
1

> <r_epik_Ionization_Penalty>
4.37022

> <r_epik_Ionization_Penalty_Charging>
4.21437

> <r_epik_Ionization_Penalty_Neutral>
0.15585

> <r_epik_State_Penalty>
4.21389

> <r_epik_Charging_Adjusted_Penalty>
8.42826

> <i_epik_Tot_Q>
-1

> <i_epik_Tot_abs_Q>
1

> <r_epik_Metal_State_Penalty>
0.693772

> <b_epik_Metal_Only>
1

> <s_lp_Force_Field>
OPLS_2005

> <r_lp_Energy>
9.58619

> <b_lp_Chiralities_Consistent>
1

> <s_lp_Variant>
AV-unprocessed.smi:2063-5

> <Gold.Version>
5.8.1

> <Gold.Id.Protein>
6NUR|6NUR_protein|mol2

> <Gold.PLP.Fitness>
35.3276

> <Gold.PLP.PLP>
-31.4912

> <Gold.PLP.part.hbond>
-2.3390

> <Gold.PLP.part.metal>
0.0000

> <Gold.PLP.part.buried>
-1.8845

> <Gold.PLP.part.nonpolar>
-28.0435

> <Gold.PLP.part.repulsive>
0.2908

> <Gold.PLP.ligand.clash>
0.0000

> <Gold.PLP.ligand.torsion>
0.4703

> <Gold.PLP.Chemscore.Hbond>
1.5504

> <Gold.PLP.Chemscore.CHOScore>
0.0000

> <Gold.PLP.Chemscore.Metal>
0.0000

> <Gold.Chemscore.Hbonds>
donor molecule, donor type, donor heavy atom, donor atom, acceptor molecule, acceptor atom, score
      P1  H  6896  6909       L1     6  0.68
      P1  H  7989  7998       L1    18  0.56

> <Gold.PLP.Chemscore.Internal.Correction>
0.1257

> <Gold.Rescore>
     Score         DG    S(hbond)    S(metal)    S(lipo)     H(rot)  DE(clash)    DE(int)     intcor
     11.16     -14.19       1.04        0.00      75.16       1.39       0.09       2.94       ----

> <Gold.Chemscore.Fitness>
11.1578

> <Gold.Chemscore.DG>
-14.1908

> <Gold.Chemscore.ZeroCoef>
-5.4800

> <Gold.Chemscore.Hbond>
1.0399

> <Gold.Chemscore.Metal>
0.0000

> <Gold.Chemscore.Lipo>
75.1641

> <Gold.Chemscore.Internal_Hbond>
0.0000

> <Gold.Chemscore.DEClash>
0.0941

> <Gold.Chemscore.DEInternal>
2.9389

> <Gold.Chemscore.Rot>
1.3893

> <Gold.Chemscore.Internal.Correction>
   9.000000E+99

> <Gold.Chemscore.Hbonds>
donor molecule, donor type, donor heavy atom, donor atom, acceptor molecule, acceptor atom, score
      P1  H  6896  6909       L1     6  0.12
      P1  H  7989  7998       L1    18  0.51

> <Gold.Chemscore.Hbond.Weighted>
-3.4733

> <Gold.Chemscore.Metal.Weighted>
-0.0000

> <Gold.Chemscore.Lipo.Weighted>
-8.7942

> <Gold.Chemscore.Internal_Hbond.Weighted>
0.0000

> <Gold.Chemscore.DEClash.Weighted>
0.0941

> <Gold.Chemscore.DEInternal.Weighted>
2.9389

> <Gold.Chemscore.Rot.Weighted>
3.5567

> <Gold.Chemscore.Internal.Correction.Weighted>
   9.000000E+99

> <Gold.Protein.RotatedTorsions>
[ 6907 6896 6895 6894 ] final   13.98 input  -60.11 | X-H torsion
[ 7974 7965 7964 7962 ] final -162.89 input  175.53 | X-H torsion
[ 8008 7997 7996 7995 ] final  -45.33 input   59.86 | X-H torsion
[ 10167 10162 10161 10158 ] final  167.51 input  -65.29 | X-H torsion
[ 10718 10713 10712 10709 ] final   34.62 input   66.30 | X-H torsion
[ 10763 10752 10751 10750 ] final  -34.04 input  -60.55 | X-H torsion
[ 11005 11000 10999 10996 ] final  105.20 input  -57.11 | X-H torsion

> <Gold.Protein.ActiveResidues>
 VAL166  LYS551  ARG553  GLY616  TRP617  ASP618  TYR619  PRO620  LYS621  CYS622 
 ASP623  PHE694  ASN695  SER759  ASP760  ASP761  ALA762  ILE779  LEU786  VAL792 
 PHE793  MET794  SER795  GLU796  ALA797  LYS798  CYS799  TRP800  GLU811  SER814 

> <Gold.Protein.RotatedAtoms>
  151.7949  135.0725  160.0392 H   0  0  0  0  0  0  0  0  0  0  0  0  # atno 6907 bound_to 6896
  152.3130  133.5768  159.5702 H   0  0  0  0  0  0  0  0  0  0  0  0  # atno 6908 bound_to 6896
  150.7329  134.0040  159.3689 H   0  0  0  0  0  0  0  0  0  0  0  0  # atno 6909 bound_to 6896
  144.7343  140.3187  143.6175 H   0  0  0  0  0  0  0  0  0  0  0  0  # atno 7974 bound_to 7965
  154.4000  140.1399  156.3829 H   0  0  0  0  0  0  0  0  0  0  0  0  # atno 8008 bound_to 7997
  155.7986  140.3476  155.5369 H   0  0  0  0  0  0  0  0  0  0  0  0  # atno 8009 bound_to 7997
  155.8506  140.0941  157.1667 H   0  0  0  0  0  0  0  0  0  0  0  0  # atno 8010 bound_to 7997
  139.4947  144.3914  151.9513 H   0  0  0  0  0  0  0  0  0  0  0  0  # atno 10167 bound_to 10162
  157.3125  130.7407  149.6734 H   0  0  0  0  0  0  0  0  0  0  0  0  # atno 10718 bound_to 10713
  153.8402  135.6858  153.4804 H   0  0  0  0  0  0  0  0  0  0  0  0  # atno 10763 bound_to 10752
  153.1458  135.4638  154.9562 H   0  0  0  0  0  0  0  0  0  0  0  0  # atno 10764 bound_to 10752
  154.7848  135.3281  154.7856 H   0  0  0  0  0  0  0  0  0  0  0  0  # atno 10765 bound_to 10752
  139.8799  134.9327  156.5478 H   0  0  0  0  0  0  0  0  0  0  0  0  # atno 11005 bound_to 11000
  145.7591  139.1819  143.2277 LP  0  0  0  0  0  0  0  0  0  0  0  0  # atno 17320 bound_to 7965
  146.1000  140.7555  142.9553 LP  0  0  0  0  0  0  0  0  0  0  0  0  # atno 17321 bound_to 7965
  140.3351  144.3270  150.5979 LP  0  0  0  0  0  0  0  0  0  0  0  0  # atno 17342 bound_to 10162
  140.5612  143.2192  151.7761 LP  0  0  0  0  0  0  0  0  0  0  0  0  # atno 17343 bound_to 10162
  155.9679  130.4247  150.4620 LP  0  0  0  0  0  0  0  0  0  0  0  0  # atno 17370 bound_to 10713
  157.2621  131.0569  151.2314 LP  0  0  0  0  0  0  0  0  0  0  0  0  # atno 17371 bound_to 10713
  140.8263  133.8314  155.8942 LP  0  0  0  0  0  0  0  0  0  0  0  0  # atno 17394 bound_to 11000
  140.9371  134.1948  157.4823 LP  0  0  0  0  0  0  0  0  0  0  0  0  # atno 17395 bound_to 11000

$$$$
