AV-unprocessed.smi:828|AV-procd|sdf|3861|dock2
  -GOLD-   22720 1313D 1   1.00000     0.00000
 Structure written by MMmdl.
 35 36  0  0  0  0  0  0  0  0  2 V2000
  151.0000  142.2219  156.6926 C   0  0  0  0  0  0  0  0  0  0  0  0
  150.6458  141.1057  155.7703 C   0  0  0  0  0  0  0  0  0  0  0  0
  151.5115  140.1437  155.4277 N   0  0  0  0  0  0  0  0  0  0  0  0
  150.9530  139.2184  154.5571 N   0  0  0  0  0  0  0  0  0  0  0  0
  149.6768  139.5099  154.2696 C   0  0  0  0  0  0  0  0  0  0  0  0
  148.8675  138.7343  153.3976 N   0  0  0  0  0  0  0  0  0  0  0  0
  147.5441  138.8345  153.1810 C   0  0  0  0  0  0  0  0  0  0  0  0
  146.8001  139.6730  153.6900 O   0  0  0  0  0  0  0  0  0  0  0  0
  147.1169  137.8880  152.3320 N   0  0  0  0  0  0  0  0  0  0  0  0
  145.7344  137.6990  151.9013 C   0  0  0  0  0  0  0  0  0  0  0  0
  145.3046  136.2188  151.9691 C   0  0  1  0  0  0  0  0  0  0  0  0
  144.9114  135.6107  150.6179 C   0  0  0  0  0  0  0  0  0  0  0  0
  145.1067  134.1189  150.8430 C   0  0  0  0  0  0  0  0  0  0  0  0
  146.3312  134.0556  151.7576 C   0  0  0  0  0  0  0  0  0  0  0  0
  146.3958  135.3514  152.4762 N   0  3  2  0  0  0  0  0  0  0  0  0
  146.4285  135.2135  153.9488 C   0  0  0  0  0  0  0  0  0  0  0  0
  149.0487  140.9528  155.0478 S   0  0  0  0  0  0  0  0  0  0  0  0
  152.0648  142.2046  156.9278 H   0  0  0  0  0  0  0  0  0  0  0  0
  150.4349  142.1315  157.6201 H   0  0  0  0  0  0  0  0  0  0  0  0
  150.7614  143.1789  156.2284 H   0  0  0  0  0  0  0  0  0  0  0  0
  149.3506  138.0027  152.8976 H   0  0  0  0  0  0  0  0  0  0  0  0
  147.7998  137.2442  151.9594 H   0  0  0  0  0  0  0  0  0  0  0  0
  145.0563  138.3227  152.4867 H   0  0  0  0  0  0  0  0  0  0  0  0
  145.6627  138.0582  150.8745 H   0  0  0  0  0  0  0  0  0  0  0  0
  144.4476  136.1216  152.6387 H   0  0  0  0  0  0  0  0  0  0  0  0
  143.8936  135.8620  150.3179 H   0  0  0  0  0  0  0  0  0  0  0  0
  145.5889  135.9523  149.8338 H   0  0  0  0  0  0  0  0  0  0  0  0
  144.2370  133.7081  151.3579 H   0  0  0  0  0  0  0  0  0  0  0  0
  145.2416  133.5625  149.9151 H   0  0  0  0  0  0  0  0  0  0  0  0
  146.2804  133.1974  152.4298 H   0  0  0  0  0  0  0  0  0  0  0  0
  147.2406  133.9529  151.1642 H   0  0  0  0  0  0  0  0  0  0  0  0
  145.5220  134.7322  154.3187 H   0  0  0  0  0  0  0  0  0  0  0  0
  146.5185  136.1892  154.4267 H   0  0  0  0  0  0  0  0  0  0  0  0
  147.2845  134.6111  154.2545 H   0  0  0  0  0  0  0  0  0  0  0  0
  147.2647  135.7834  152.1953 H   0  0  0  0  0  0  0  0  0  0  0  0
  1  2  1  0  0  0  0
  1 18  1  0  0  0  0
  1 19  1  0  0  0  0
  1 20  1  0  0  0  0
  2 17  1  0  0  0  0
  2  3  2  0  0  0  0
  3  4  1  0  0  0  0
  4  5  2  0  0  0  0
  5  6  1  0  0  0  0
  5 17  1  0  0  0  0
  6  7  1  0  0  0  0
  6 21  1  0  0  0  0
  7  8  2  0  0  0  0
  7  9  1  0  0  0  0
  9 10  1  0  0  0  0
  9 22  1  0  0  0  0
 10 11  1  0  0  0  0
 10 23  1  0  0  0  0
 10 24  1  0  0  0  0
 11 15  1  0  0  0  0
 11 12  1  0  0  0  0
 11 25  1  0  0  0  0
 12 13  1  0  0  0  0
 12 26  1  0  0  0  0
 12 27  1  0  0  0  0
 13 14  1  0  0  0  0
 13 28  1  0  0  0  0
 13 29  1  0  0  0  0
 14 15  1  0  0  0  0
 14 30  1  0  0  0  0
 14 31  1  0  0  0  0
 15 16  1  0  0  0  0
 15 35  1  0  0  0  0
 16 32  1  0  0  0  0
 16 33  1  0  0  0  0
 16 34  1  0  0  0  0
M  CHG  1  15   1
M  END
> <s_m_source_file>
AV-unprocessed.smi

> <i_m_source_file_index>
828

> <i_lp_mmshare_version>
43012

> <i_f3d_flags>
0

> <s_epik_input>
W0NIM11jMW5uYyhzMSlbTkhdQyg9TylbTkhdW0NIMl1bQ0BASF0yW0NIMl1bQ0gyXVtDSDJdTjJbQ0gzXQ==

> <s_epik_cmdline>
J2VwaWtfcHl0aG9uJywgJy1waCcsICc3LjAnLCAnLXRuJywgJzgnLCAnLW1hJywgJzIwMCcsICctbWV0YWxfYmluZGluZycsICctaW1hZScsICc8aW5maWxlLm1hZT4nLCAnLW9tYWUnLCAnPG91dGZpbGUubWFlPic=

> <r_lp_tautomer_probability>
1

> <r_epik_Ionization_Penalty>
0.00466477

> <r_epik_Ionization_Penalty_Charging>
0.00372199

> <r_epik_Ionization_Penalty_Neutral>
0.000942783

> <r_epik_State_Penalty>
-0

> <r_epik_Charging_Adjusted_Penalty>
0.00372199

> <i_epik_Tot_Q>
1

> <i_epik_Tot_abs_Q>
1

> <r_epik_Metal_State_Penalty>
0.28212

> <b_epik_Metal_Only>
0

> <s_lp_Force_Field>
OPLS_2005

> <r_lp_Energy>
24.9421

> <b_lp_Chiralities_Consistent>
1

> <s_lp_Variant>
AV-unprocessed.smi:828-4

> <Gold.Version>
5.8.1

> <Gold.Id.Protein>
6NUR|6NUR_protein|mol2

> <Gold.PLP.Fitness>
39.6259

> <Gold.PLP.PLP>
-29.8462

> <Gold.PLP.part.hbond>
-5.9181

> <Gold.PLP.part.metal>
0.0000

> <Gold.PLP.part.buried>
0.9380

> <Gold.PLP.part.nonpolar>
-24.0326

> <Gold.PLP.part.repulsive>
0.4970

> <Gold.PLP.ligand.clash>
0.0000

> <Gold.PLP.ligand.torsion>
0.8491

> <Gold.PLP.Chemscore.Hbond>
3.8247

> <Gold.PLP.Chemscore.CHOScore>
0.0000

> <Gold.PLP.Chemscore.Metal>
0.0000

> <Gold.Chemscore.Hbonds>
donor molecule, donor type, donor heavy atom, donor atom, acceptor molecule, acceptor atom, score
      L1  H     6    21       P1  7948  0.78
      L1  H     9    22       P1  7948  0.96
      L1  H    15    35       P1  7948  2.00

> <Gold.PLP.Chemscore.Internal.Correction>
0.0037

> <Gold.Rescore>
     Score         DG    S(hbond)    S(metal)    S(lipo)     H(rot)  DE(clash)    DE(int)     intcor
     15.28     -17.35       2.81        0.00      50.32       1.33       0.12       1.95       ----

> <Gold.Chemscore.Fitness>
15.2763

> <Gold.Chemscore.DG>
-17.3517

> <Gold.Chemscore.ZeroCoef>
-5.4800

> <Gold.Chemscore.Hbond>
2.8108

> <Gold.Chemscore.Metal>
0.0000

> <Gold.Chemscore.Lipo>
50.3154

> <Gold.Chemscore.Internal_Hbond>
0.0000

> <Gold.Chemscore.DEClash>
0.1214

> <Gold.Chemscore.DEInternal>
1.9540

> <Gold.Chemscore.Rot>
1.3294

> <Gold.Chemscore.Internal.Correction>
   9.000000E+99

> <Gold.Chemscore.Hbonds>
donor molecule, donor type, donor heavy atom, donor atom, acceptor molecule, acceptor atom, score
      L1  H     6    21       P1  7948  0.69
      L1  H     9    22       P1  7948  0.91
      L1  H    15    35       P1  7948  1.00

> <Gold.Chemscore.Hbond.Weighted>
-9.3881

> <Gold.Chemscore.Metal.Weighted>
-0.0000

> <Gold.Chemscore.Lipo.Weighted>
-5.8869

> <Gold.Chemscore.Internal_Hbond.Weighted>
0.0000

> <Gold.Chemscore.DEClash.Weighted>
0.1214

> <Gold.Chemscore.DEInternal.Weighted>
1.9540

> <Gold.Chemscore.Rot.Weighted>
3.4033

> <Gold.Chemscore.Internal.Correction.Weighted>
   9.000000E+99

> <Gold.Protein.RotatedTorsions>
[ 6907 6896 6895 6894 ] final  -80.86 input  -60.11 | X-H torsion
[ 7974 7965 7964 7962 ] final -125.79 input  175.53 | X-H torsion
[ 8008 7997 7996 7995 ] final -178.37 input   59.86 | X-H torsion
[ 10167 10162 10161 10158 ] final   68.06 input  -65.29 | X-H torsion
[ 10718 10713 10712 10709 ] final    9.91 input   66.30 | X-H torsion
[ 10763 10752 10751 10750 ] final -119.66 input  -60.55 | X-H torsion
[ 11005 11000 10999 10996 ] final   56.52 input  -57.11 | X-H torsion

> <Gold.Protein.ActiveResidues>
 VAL166  LYS551  ARG553  GLY616  TRP617  ASP618  TYR619  PRO620  LYS621  CYS622 
 ASP623  PHE694  ASN695  SER759  ASP760  ASP761  ALA762  ILE779  LEU786  VAL792 
 PHE793  MET794  SER795  GLU796  ALA797  LYS798  CYS799  TRP800  GLU811  SER814 

> <Gold.Protein.RotatedAtoms>
  150.6922  134.3905  159.5073 H   0  0  0  0  0  0  0  0  0  0  0  0  # atno 6907 bound_to 6896
  152.1694  134.8844  160.0545 H   0  0  0  0  0  0  0  0  0  0  0  0  # atno 6908 bound_to 6896
  151.9876  133.3745  159.4169 H   0  0  0  0  0  0  0  0  0  0  0  0  # atno 6909 bound_to 6896
  144.9939  140.7758  143.4537 H   0  0  0  0  0  0  0  0  0  0  0  0  # atno 7974 bound_to 7965
  156.0181  140.1255  157.0386 H   0  0  0  0  0  0  0  0  0  0  0  0  # atno 8008 bound_to 7997
  154.4301  140.1074  156.5994 H   0  0  0  0  0  0  0  0  0  0  0  0  # atno 8009 bound_to 7997
  155.5985  140.3470  155.4589 H   0  0  0  0  0  0  0  0  0  0  0  0  # atno 8010 bound_to 7997
  140.0828  144.5056  150.7151 H   0  0  0  0  0  0  0  0  0  0  0  0  # atno 10167 bound_to 10162
  156.9732  130.5977  149.5670 H   0  0  0  0  0  0  0  0  0  0  0  0  # atno 10718 bound_to 10713
  154.8623  135.4230  154.2334 H   0  0  0  0  0  0  0  0  0  0  0  0  # atno 10763 bound_to 10752
  153.3315  135.6988  153.6950 H   0  0  0  0  0  0  0  0  0  0  0  0  # atno 10764 bound_to 10752
  153.5965  135.3545  155.2903 H   0  0  0  0  0  0  0  0  0  0  0  0  # atno 10765 bound_to 10752
  140.0523  134.5719  155.9249 H   0  0  0  0  0  0  0  0  0  0  0  0  # atno 11005 bound_to 11000
  145.2247  139.2143  143.5074 LP  0  0  0  0  0  0  0  0  0  0  0  0  # atno 17320 bound_to 7965
  146.3437  140.2112  142.8590 LP  0  0  0  0  0  0  0  0  0  0  0  0  # atno 17321 bound_to 7965
  140.7069  143.2475  151.4699 LP  0  0  0  0  0  0  0  0  0  0  0  0  # atno 17342 bound_to 10162
  139.5770  144.1797  152.1916 LP  0  0  0  0  0  0  0  0  0  0  0  0  # atno 17343 bound_to 10162
  156.0274  130.5367  150.8443 LP  0  0  0  0  0  0  0  0  0  0  0  0  # atno 17370 bound_to 10713
  157.5578  131.0945  150.9603 LP  0  0  0  0  0  0  0  0  0  0  0  0  # atno 17371 bound_to 10713
  141.1936  133.6579  156.5555 LP  0  0  0  0  0  0  0  0  0  0  0  0  # atno 17394 bound_to 11000
  140.3898  134.7450  157.4714 LP  0  0  0  0  0  0  0  0  0  0  0  0  # atno 17395 bound_to 11000

$$$$
