AV-unprocessed.smi:3063|AV-procd|sdf|11686|dock3
  -GOLD-   2272017 93D 1   1.00000     0.00000
 Structure written by MMmdl.
 44 45  0  0  0  0  0  0  0  0  1 V2000
  149.5082  135.5739  157.3250 C   0  0  0  0  0  0  0  0  0  0  0  0
  150.6148  135.9840  156.3508 C   0  0  0  0  0  0  0  0  0  0  0  0
  151.7586  135.5856  156.5717 O   0  0  0  0  0  0  0  0  0  0  0  0
  150.3032  136.7496  155.2765 N   0  0  0  0  0  0  0  0  0  0  0  0
  148.9542  137.3056  155.0941 C   0  0  0  0  0  0  0  0  0  0  0  0
  148.8083  138.6663  155.8079 C   0  0  0  0  0  0  0  0  0  0  0  0
  149.8055  139.7342  155.3085 C   0  0  0  0  0  0  0  0  0  0  0  0
  151.2045  139.3251  155.5413 N   0  0  0  0  0  0  0  0  0  0  0  0
  151.9002  139.5379  156.6888 C   0  0  0  0  0  0  0  0  0  0  0  0
  153.0896  139.2467  156.8230 O   0  0  0  0  0  0  0  0  0  0  0  0
  151.1825  140.0831  157.6864 N   0  0  0  0  0  0  0  0  0  0  0  0
  151.6826  140.4143  159.0191 C   0  0  1  0  0  0  0  0  0  0  0  0
  152.4926  139.2260  159.5622 C   0  0  0  0  0  0  0  0  0  0  0  0
  152.4749  141.7439  159.0171 C   0  0  0  0  0  0  0  0  0  0  0  0
  152.4706  142.4301  160.2982 N   0  0  0  0  0  0  0  0  0  0  0  0
  152.0173  143.6986  160.5943 C   0  0  0  0  0  0  0  0  0  0  0  0
  152.2219  143.9026  161.9291 C   0  0  0  0  0  0  0  0  0  0  0  0
  152.8190  142.6881  162.3686 C   0  0  0  0  0  0  0  0  0  0  0  0
  152.9682  141.8120  161.3896 N   0  0  0  0  0  0  0  0  0  0  0  0
  151.8001  138.6013  154.4036 C   0  0  0  0  0  0  0  0  0  0  0  0
  151.2636  137.1549  154.2345 C   0  0  0  0  0  0  0  0  0  0  0  0
  148.6609  135.1390  156.7948 H   0  0  0  0  0  0  0  0  0  0  0  0
  149.1631  136.4337  157.8997 H   0  0  0  0  0  0  0  0  0  0  0  0
  149.8761  134.8262  158.0283 H   0  0  0  0  0  0  0  0  0  0  0  0
  148.7335  137.4292  154.0332 H   0  0  0  0  0  0  0  0  0  0  0  0
  148.1949  136.6128  155.4604 H   0  0  0  0  0  0  0  0  0  0  0  0
  147.7929  139.0340  155.6579 H   0  0  0  0  0  0  0  0  0  0  0  0
  148.9179  138.5313  156.8839 H   0  0  0  0  0  0  0  0  0  0  0  0
  149.6376  139.9055  154.2445 H   0  0  0  0  0  0  0  0  0  0  0  0
  149.5916  140.6959  155.7767 H   0  0  0  0  0  0  0  0  0  0  0  0
  150.2083  140.2785  157.5079 H   0  0  0  0  0  0  0  0  0  0  0  0
  150.8208  140.5443  159.6762 H   0  0  0  0  0  0  0  0  0  0  0  0
  152.8831  139.4410  160.5570 H   0  0  0  0  0  0  0  0  0  0  0  0
  153.3375  138.9832  158.9169 H   0  0  0  0  0  0  0  0  0  0  0  0
  151.8717  138.3330  159.6393 H   0  0  0  0  0  0  0  0  0  0  0  0
  153.5092  141.5817  158.7097 H   0  0  0  0  0  0  0  0  0  0  0  0
  152.0454  142.4193  158.2762 H   0  0  0  0  0  0  0  0  0  0  0  0
  151.5880  144.3412  159.8398 H   0  0  0  0  0  0  0  0  0  0  0  0
  151.9829  144.7851  162.5035 H   0  0  0  0  0  0  0  0  0  0  0  0
  153.1476  142.4179  163.3614 H   0  0  0  0  0  0  0  0  0  0  0  0
  151.6141  139.1641  153.4881 H   0  0  0  0  0  0  0  0  0  0  0  0
  152.8882  138.5669  154.4736 H   0  0  0  0  0  0  0  0  0  0  0  0
  152.1003  136.4611  154.1588 H   0  0  0  0  0  0  0  0  0  0  0  0
  150.7781  137.0740  153.2613 H   0  0  0  0  0  0  0  0  0  0  0  0
  1  2  1  0  0  0  0
  1 22  1  0  0  0  0
  1 23  1  0  0  0  0
  1 24  1  0  0  0  0
  2  3  2  0  0  0  0
  2  4  1  0  0  0  0
  4 21  1  0  0  0  0
  4  5  1  0  0  0  0
  5  6  1  0  0  0  0
  5 25  1  0  0  0  0
  5 26  1  0  0  0  0
  6  7  1  0  0  0  0
  6 27  1  0  0  0  0
  6 28  1  0  0  0  0
  7  8  1  0  0  0  0
  7 29  1  0  0  0  0
  7 30  1  0  0  0  0
  8  9  1  0  0  0  0
  8 20  1  0  0  0  0
  9 10  2  0  0  0  0
  9 11  1  0  0  0  0
 11 12  1  0  0  0  0
 11 31  1  0  0  0  0
 12 13  1  0  0  0  0
 12 14  1  0  0  0  0
 12 32  1  0  0  0  0
 13 33  1  0  0  0  0
 13 34  1  0  0  0  0
 13 35  1  0  0  0  0
 14 15  1  0  0  0  0
 14 36  1  0  0  0  0
 14 37  1  0  0  0  0
 15 19  1  0  0  0  0
 15 16  1  0  0  0  0
 16 17  2  0  0  0  0
 16 38  1  0  0  0  0
 17 18  1  0  0  0  0
 17 39  1  0  0  0  0
 18 19  2  0  0  0  0
 18 40  1  0  0  0  0
 20 21  1  0  0  0  0
 20 41  1  0  0  0  0
 20 42  1  0  0  0  0
 21 43  1  0  0  0  0
 21 44  1  0  0  0  0
M  END
> <s_m_source_file>
AV-unprocessed.smi

> <i_m_source_file_index>
3063

> <i_lp_mmshare_version>
43012

> <i_f3d_flags>
0

> <s_epik_input>
W0NIM11DKD1PKU4xW0NIMl1bQ0gyXVtDSDJdTihbQ0gyXVtDSDJdMSlDKD1PKVtOSF1bQ0BIXShbQ0gzXSlbQ0gyXW4yW2NIXVtjSF1bY0hdbjI=

> <s_epik_cmdline>
J2VwaWtfcHl0aG9uJywgJy1waCcsICc3LjAnLCAnLXRuJywgJzgnLCAnLW1hJywgJzIwMCcsICctbWV0YWxfYmluZGluZycsICctaW1hZScsICc8aW5maWxlLm1hZT4nLCAnLW9tYWUnLCAnPG91dGZpbGUubWFlPic=

> <r_lp_tautomer_probability>
1

> <r_epik_Ionization_Penalty>
6.19559e-05

> <r_epik_Ionization_Penalty_Charging>
0

> <r_epik_Ionization_Penalty_Neutral>
6.19559e-05

> <r_epik_State_Penalty>
-0

> <r_epik_Charging_Adjusted_Penalty>
0

> <i_epik_Tot_Q>
0

> <i_epik_Tot_abs_Q>
0

> <r_epik_Metal_State_Penalty>
-0

> <b_epik_Metal_Only>
0

> <s_lp_Force_Field>
OPLS_2005

> <r_lp_Energy>
38.4864

> <b_lp_Chiralities_Consistent>
1

> <s_lp_Variant>
AV-unprocessed.smi:3063-2

> <Gold.Version>
5.8.1

> <Gold.Id.Protein>
6NUR|6NUR_protein|mol2

> <Gold.PLP.Fitness>
42.6916

> <Gold.PLP.PLP>
-37.7808

> <Gold.PLP.part.hbond>
-1.9417

> <Gold.PLP.part.metal>
0.0000

> <Gold.PLP.part.buried>
-4.6475

> <Gold.PLP.part.nonpolar>
-32.2273

> <Gold.PLP.part.repulsive>
0.0775

> <Gold.PLP.ligand.clash>
0.0000

> <Gold.PLP.ligand.torsion>
0.5062

> <Gold.PLP.Chemscore.Hbond>
1.9588

> <Gold.PLP.Chemscore.CHOScore>
0.0000

> <Gold.PLP.Chemscore.Metal>
0.0000

> <Gold.Chemscore.Hbonds>
donor molecule, donor type, donor heavy atom, donor atom, acceptor molecule, acceptor atom, score
      P1  H  7997  8010       L1    10  1.00
      P1  H 10752 10765       L1     3  0.94

> <Gold.PLP.Chemscore.Internal.Correction>
0.0469

> <Gold.Rescore>
     Score         DG    S(hbond)    S(metal)    S(lipo)     H(rot)  DE(clash)    DE(int)     intcor
     16.03     -18.20       1.99        0.00      83.45       1.44       0.34       1.83       ----

> <Gold.Chemscore.Fitness>
16.0276

> <Gold.Chemscore.DG>
-18.1973

> <Gold.Chemscore.ZeroCoef>
-5.4800

> <Gold.Chemscore.Hbond>
1.9854

> <Gold.Chemscore.Metal>
0.0000

> <Gold.Chemscore.Lipo>
83.4537

> <Gold.Chemscore.Internal_Hbond>
0.0000

> <Gold.Chemscore.DEClash>
0.3385

> <Gold.Chemscore.DEInternal>
1.8311

> <Gold.Chemscore.Rot>
1.4368

> <Gold.Chemscore.Internal.Correction>
   9.000000E+99

> <Gold.Chemscore.Hbonds>
donor molecule, donor type, donor heavy atom, donor atom, acceptor molecule, acceptor atom, score
      P1  H  7997  8010       L1    10  0.94
      P1  H 10752 10765       L1     3  0.88

> <Gold.Chemscore.Hbond.Weighted>
-6.6314

> <Gold.Chemscore.Metal.Weighted>
-0.0000

> <Gold.Chemscore.Lipo.Weighted>
-9.7641

> <Gold.Chemscore.Internal_Hbond.Weighted>
0.0000

> <Gold.Chemscore.DEClash.Weighted>
0.3385

> <Gold.Chemscore.DEInternal.Weighted>
1.8311

> <Gold.Chemscore.Rot.Weighted>
3.6782

> <Gold.Chemscore.Internal.Correction.Weighted>
   9.000000E+99

> <Gold.Protein.RotatedTorsions>
[ 6907 6896 6895 6894 ] final -145.22 input  -60.11 | X-H torsion
[ 7974 7965 7964 7962 ] final  -55.50 input  175.53 | X-H torsion
[ 8008 7997 7996 7995 ] final   61.25 input   59.86 | X-H torsion
[ 10167 10162 10161 10158 ] final  -47.46 input  -65.29 | X-H torsion
[ 10718 10713 10712 10709 ] final -158.60 input   66.30 | X-H torsion
[ 10763 10752 10751 10750 ] final -151.56 input  -60.55 | X-H torsion
[ 11005 11000 10999 10996 ] final  -27.34 input  -57.11 | X-H torsion

> <Gold.Protein.ActiveResidues>
 VAL166  LYS551  ARG553  GLY616  TRP617  ASP618  TYR619  PRO620  LYS621  CYS622 
 ASP623  PHE694  ASN695  SER759  ASP760  ASP761  ALA762  ILE779  LEU786  VAL792 
 PHE793  MET794  SER795  GLU796  ALA797  LYS798  CYS799  TRP800  GLU811  SER814 

> <Gold.Protein.RotatedAtoms>
  151.1248  133.5078  159.2600 H   0  0  0  0  0  0  0  0  0  0  0  0  # atno 6907 bound_to 6896
  151.1822  135.0365  159.8807 H   0  0  0  0  0  0  0  0  0  0  0  0  # atno 6908 bound_to 6896
  152.5457  134.1099  159.8407 H   0  0  0  0  0  0  0  0  0  0  0  0  # atno 6909 bound_to 6896
  145.8734  140.8199  142.9876 H   0  0  0  0  0  0  0  0  0  0  0  0  # atno 7974 bound_to 7965
  155.5954  140.3493  155.4578 H   0  0  0  0  0  0  0  0  0  0  0  0  # atno 8008 bound_to 7997
  156.0269  140.1266  157.0323 H   0  0  0  0  0  0  0  0  0  0  0  0  # atno 8009 bound_to 7997
  154.4337  140.1051  156.6030 H   0  0  0  0  0  0  0  0  0  0  0  0  # atno 8010 bound_to 7997
  140.6774  143.2783  151.3930 H   0  0  0  0  0  0  0  0  0  0  0  0  # atno 10167 bound_to 10162
  156.5564  130.8628  151.2796 H   0  0  0  0  0  0  0  0  0  0  0  0  # atno 10718 bound_to 10713
  154.8050  135.3257  154.7453 H   0  0  0  0  0  0  0  0  0  0  0  0  # atno 10763 bound_to 10752
  153.8114  135.6895  153.4845 H   0  0  0  0  0  0  0  0  0  0  0  0  # atno 10764 bound_to 10752
  153.1790  135.4594  154.9948 H   0  0  0  0  0  0  0  0  0  0  0  0  # atno 10765 bound_to 10752
  140.9111  133.7460  156.0672 H   0  0  0  0  0  0  0  0  0  0  0  0  # atno 11005 bound_to 11000
  144.6726  140.1274  143.7446 LP  0  0  0  0  0  0  0  0  0  0  0  0  # atno 17320 bound_to 7965
  145.9109  139.2487  143.1438 LP  0  0  0  0  0  0  0  0  0  0  0  0  # atno 17321 bound_to 7965
  139.6075  144.1168  152.2264 LP  0  0  0  0  0  0  0  0  0  0  0  0  # atno 17342 bound_to 10162
  140.0571  144.5886  150.7291 LP  0  0  0  0  0  0  0  0  0  0  0  0  # atno 17343 bound_to 10162
  157.7377  130.9801  150.2210 LP  0  0  0  0  0  0  0  0  0  0  0  0  # atno 17370 bound_to 10713
  156.2838  130.3737  149.7908 LP  0  0  0  0  0  0  0  0  0  0  0  0  # atno 17371 bound_to 10713
  140.8109  134.3400  157.5412 LP  0  0  0  0  0  0  0  0  0  0  0  0  # atno 17394 bound_to 11000
  139.8757  134.9253  156.3372 LP  0  0  0  0  0  0  0  0  0  0  0  0  # atno 17395 bound_to 11000

$$$$
