AV-unprocessed.smi:1460|AV-procd|sdf|5929|dock4
  -GOLD-   22720 6 13D 1   1.00000     0.00000
 Structure written by MMmdl.
 41 42  0  0  0  0  0  0  0  0  1 V2000
  147.6189  136.6782  155.7567 C   0  0  0  0  0  0  0  0  0  0  0  0
  147.3051  137.6120  154.5802 C   0  0  1  0  0  0  0  0  0  0  0  0
  148.4755  138.5809  154.3045 C   0  0  0  0  0  0  0  0  0  0  0  0
  148.0377  139.9523  154.1120 N   0  0  0  0  0  0  0  0  0  0  0  0
  146.7996  140.4092  153.7106 C   0  0  0  0  0  0  0  0  0  0  0  0
  146.8560  141.7732  153.6945 C   0  0  0  0  0  0  0  0  0  0  0  0
  148.1889  142.0608  154.1014 C   0  0  0  0  0  0  0  0  0  0  0  0
  148.8949  140.9690  154.3466 N   0  0  0  0  0  0  0  0  0  0  0  0
  147.0100  136.8027  153.3983 N   0  0  0  0  0  0  0  0  0  0  0  0
  145.7843  136.5120  152.9325 C   0  0  0  0  0  0  0  0  0  0  0  0
  144.7457  136.8831  153.4803 O   0  0  0  0  0  0  0  0  0  0  0  0
  145.7230  135.6930  151.6376 C   0  0  0  0  0  0  0  0  0  0  0  0
  144.2751  135.6298  151.0970 C   0  0  0  0  0  0  0  0  0  0  0  0
  144.1790  134.7009  149.8731 C   0  0  0  0  0  0  0  0  0  0  0  0
  144.6763  133.3666  150.2485 N   0  0  0  0  0  0  0  0  0  0  0  0
  143.9187  132.2624  150.4685 C   0  0  0  0  0  0  0  0  0  0  0  0
  142.6195  132.3951  150.1826 N   0  0  0  0  0  0  0  0  0  0  0  0
  144.3718  131.1888  150.8619 O   0  0  0  0  0  0  0  0  0  0  0  0
  146.1038  133.4068  150.5888 C   0  0  0  0  0  0  0  0  0  0  0  0
  146.2948  134.2717  151.8476 C   0  0  0  0  0  0  0  0  0  0  0  0
  147.8159  137.2469  156.6658 H   0  0  0  0  0  0  0  0  0  0  0  0
  148.4952  136.0618  155.5538 H   0  0  0  0  0  0  0  0  0  0  0  0
  146.7815  136.0107  155.9628 H   0  0  0  0  0  0  0  0  0  0  0  0
  146.4247  138.1941  154.8598 H   0  0  0  0  0  0  0  0  0  0  0  0
  149.1787  138.5665  155.1386 H   0  0  0  0  0  0  0  0  0  0  0  0
  149.0349  138.2653  153.4228 H   0  0  0  0  0  0  0  0  0  0  0  0
  145.9888  139.7334  153.4820 H   0  0  0  0  0  0  0  0  0  0  0  0
  146.0656  142.4613  153.4342 H   0  0  0  0  0  0  0  0  0  0  0  0
  148.6614  143.0238  154.2249 H   0  0  0  0  0  0  0  0  0  0  0  0
  147.8034  136.4514  152.8817 H   0  0  0  0  0  0  0  0  0  0  0  0
  146.3373  136.1893  150.8841 H   0  0  0  0  0  0  0  0  0  0  0  0
  143.5950  135.2714  151.8716 H   0  0  0  0  0  0  0  0  0  0  0  0
  143.9336  136.6299  150.8266 H   0  0  0  0  0  0  0  0  0  0  0  0
  143.1578  134.7012  149.4926 H   0  0  0  0  0  0  0  0  0  0  0  0
  144.7903  135.0936  149.0593 H   0  0  0  0  0  0  0  0  0  0  0  0
  141.9913  131.6175  150.3213 H   0  0  0  0  0  0  0  0  0  0  0  0
  142.2736  133.2755  149.8300 H   0  0  0  0  0  0  0  0  0  0  0  0
  146.5251  132.4136  150.7514 H   0  0  0  0  0  0  0  0  0  0  0  0
  146.6632  133.8305  149.7533 H   0  0  0  0  0  0  0  0  0  0  0  0
  147.3552  134.3280  152.0968 H   0  0  0  0  0  0  0  0  0  0  0  0
  145.8048  133.7840  152.6919 H   0  0  0  0  0  0  0  0  0  0  0  0
  1  2  1  0  0  0  0
  1 21  1  0  0  0  0
  1 22  1  0  0  0  0
  1 23  1  0  0  0  0
  2  3  1  0  0  0  0
  2  9  1  0  0  0  0
  2 24  1  0  0  0  0
  3  4  1  0  0  0  0
  3 25  1  0  0  0  0
  3 26  1  0  0  0  0
  4  8  1  0  0  0  0
  4  5  1  0  0  0  0
  5  6  2  0  0  0  0
  5 27  1  0  0  0  0
  6  7  1  0  0  0  0
  6 28  1  0  0  0  0
  7  8  2  0  0  0  0
  7 29  1  0  0  0  0
  9 10  1  0  0  0  0
  9 30  1  0  0  0  0
 10 11  2  0  0  0  0
 10 12  1  0  0  0  0
 12 20  1  0  0  0  0
 12 13  1  0  0  0  0
 12 31  1  0  0  0  0
 13 14  1  0  0  0  0
 13 32  1  0  0  0  0
 13 33  1  0  0  0  0
 14 15  1  0  0  0  0
 14 34  1  0  0  0  0
 14 35  1  0  0  0  0
 15 16  1  0  0  0  0
 15 19  1  0  0  0  0
 16 17  1  0  0  0  0
 16 18  2  0  0  0  0
 17 36  1  0  0  0  0
 17 37  1  0  0  0  0
 19 20  1  0  0  0  0
 19 38  1  0  0  0  0
 19 39  1  0  0  0  0
 20 40  1  0  0  0  0
 20 41  1  0  0  0  0
M  END
> <s_m_source_file>
AV-unprocessed.smi

> <i_m_source_file_index>
1460

> <i_lp_mmshare_version>
43012

> <i_f3d_flags>
0

> <s_epik_input>
bjFbY0hdW2NIXVtjSF1uMVtDSDJdW0NAQEhdKFtDSDNdKVtOSF1DKD1PKVtDSF0yW0NIMl1bQ0gyXU4oQyg9TylbTkgyXSlbQ0gyXVtDSDJdMg==

> <s_epik_cmdline>
J2VwaWtfcHl0aG9uJywgJy1waCcsICc3LjAnLCAnLXRuJywgJzgnLCAnLW1hJywgJzIwMCcsICctbWV0YWxfYmluZGluZycsICctaW1hZScsICc8aW5maWxlLm1hZT4nLCAnLW9tYWUnLCAnPG91dGZpbGUubWFlPic=

> <r_lp_tautomer_probability>
1

> <r_epik_Ionization_Penalty>
0.000387527

> <r_epik_Ionization_Penalty_Charging>
0

> <r_epik_Ionization_Penalty_Neutral>
0.000387527

> <r_epik_State_Penalty>
-0

> <r_epik_Charging_Adjusted_Penalty>
0

> <i_epik_Tot_Q>
0

> <i_epik_Tot_abs_Q>
0

> <r_epik_Metal_State_Penalty>
-0

> <b_epik_Metal_Only>
0

> <s_lp_Force_Field>
OPLS_2005

> <r_lp_Energy>
25.9922

> <b_lp_Chiralities_Consistent>
1

> <s_lp_Variant>
AV-unprocessed.smi:1460-2

> <Gold.Version>
5.8.1

> <Gold.Id.Protein>
6NUR|6NUR_protein|mol2

> <Gold.PLP.Fitness>
42.1081

> <Gold.PLP.PLP>
-30.8756

> <Gold.PLP.part.hbond>
-3.3356

> <Gold.PLP.part.metal>
0.0000

> <Gold.PLP.part.buried>
-0.6111

> <Gold.PLP.part.nonpolar>
-26.5893

> <Gold.PLP.part.repulsive>
0.5158

> <Gold.PLP.ligand.clash>
0.0000

> <Gold.PLP.ligand.torsion>
1.3505

> <Gold.PLP.Chemscore.Hbond>
3.0000

> <Gold.PLP.Chemscore.CHOScore>
1.6231

> <Gold.PLP.Chemscore.Metal>
0.0000

> <Gold.Chemscore.Hbonds>
donor molecule, donor type, donor heavy atom, donor atom, acceptor molecule, acceptor atom, score
      L1  H     9    30       P1  7948  1.00
      L1  H    17    36       P1 10952  0.98
      L1  H    17    37       P1 10186  1.00
      L1  C     5    27       P1 10175  0.68
      L1  C     7    29       P1  8028  1.00

> <Gold.PLP.Chemscore.Internal.Correction>
0.0641

> <Gold.Rescore>
     Score         DG    S(hbond)    S(metal)    S(lipo)     H(rot)  DE(clash)    DE(int)     intcor
     14.54     -16.99       2.85        0.00      56.86       1.82       1.38       1.07       ----

> <Gold.Chemscore.Fitness>
14.5415

> <Gold.Chemscore.DG>
-16.9927

> <Gold.Chemscore.ZeroCoef>
-5.4800

> <Gold.Chemscore.Hbond>
2.8507

> <Gold.Chemscore.Metal>
0.0000

> <Gold.Chemscore.Lipo>
56.8558

> <Gold.Chemscore.Internal_Hbond>
0.0000

> <Gold.Chemscore.DEClash>
1.3772

> <Gold.Chemscore.DEInternal>
1.0739

> <Gold.Chemscore.Rot>
1.8206

> <Gold.Chemscore.Internal.Correction>
   9.000000E+99

> <Gold.Chemscore.Hbonds>
donor molecule, donor type, donor heavy atom, donor atom, acceptor molecule, acceptor atom, score
      L1  H     9    30       P1  7948  0.95
      L1  H    17    36       P1 10952  0.47
      L1  H    17    37       P1 10186  0.96

> <Gold.Chemscore.Hbond.Weighted>
-9.5212

> <Gold.Chemscore.Metal.Weighted>
-0.0000

> <Gold.Chemscore.Lipo.Weighted>
-6.6521

> <Gold.Chemscore.Internal_Hbond.Weighted>
0.0000

> <Gold.Chemscore.DEClash.Weighted>
1.3772

> <Gold.Chemscore.DEInternal.Weighted>
1.0739

> <Gold.Chemscore.Rot.Weighted>
4.6607

> <Gold.Chemscore.Internal.Correction.Weighted>
   9.000000E+99

> <Gold.Protein.RotatedTorsions>
[ 6907 6896 6895 6894 ] final  125.39 input  -60.11 | X-H torsion
[ 7974 7965 7964 7962 ] final  -83.64 input  175.53 | X-H torsion
[ 8008 7997 7996 7995 ] final  104.25 input   59.86 | X-H torsion
[ 10167 10162 10161 10158 ] final -105.71 input  -65.29 | X-H torsion
[ 10718 10713 10712 10709 ] final  -37.62 input   66.30 | X-H torsion
[ 10763 10752 10751 10750 ] final -158.25 input  -60.55 | X-H torsion
[ 11005 11000 10999 10996 ] final -171.70 input  -57.11 | X-H torsion

> <Gold.Protein.ActiveResidues>
 VAL166  LYS551  ARG553  GLY616  TRP617  ASP618  TYR619  PRO620  LYS621  CYS622 
 ASP623  PHE694  ASN695  SER759  ASP760  ASP761  ALA762  ILE779  LEU786  VAL792 
 PHE793  MET794  SER795  GLU796  ALA797  LYS798  CYS799  TRP800  GLU811  SER814 

> <Gold.Protein.RotatedAtoms>
  152.3996  133.6797  159.6304 H   0  0  0  0  0  0  0  0  0  0  0  0  # atno 6907 bound_to 6896
  150.7889  133.8815  159.3296 H   0  0  0  0  0  0  0  0  0  0  0  0  # atno 6908 bound_to 6896
  151.6583  135.0994  160.0226 H   0  0  0  0  0  0  0  0  0  0  0  0  # atno 6909 bound_to 6896
  145.5172  140.9535  143.1675 H   0  0  0  0  0  0  0  0  0  0  0  0  # atno 7974 bound_to 7965
  156.1556  140.3151  155.8721 H   0  0  0  0  0  0  0  0  0  0  0  0  # atno 8008 bound_to 7997
  155.3884  140.0492  157.3058 H   0  0  0  0  0  0  0  0  0  0  0  0  # atno 8009 bound_to 7997
  154.5098  140.2160  155.9189 H   0  0  0  0  0  0  0  0  0  0  0  0  # atno 8010 bound_to 7997
  140.1956  143.3858  152.1171 H   0  0  0  0  0  0  0  0  0  0  0  0  # atno 10167 bound_to 10162
  156.3131  130.4255  149.8031 H   0  0  0  0  0  0  0  0  0  0  0  0  # atno 10718 bound_to 10713
  154.7571  135.3108  154.8448 H   0  0  0  0  0  0  0  0  0  0  0  0  # atno 10763 bound_to 10752
  153.9219  135.6794  153.4751 H   0  0  0  0  0  0  0  0  0  0  0  0  # atno 10764 bound_to 10752
  153.1169  135.4840  154.9061 H   0  0  0  0  0  0  0  0  0  0  0  0  # atno 10765 bound_to 10752
  140.5053  134.5854  157.5001 H   0  0  0  0  0  0  0  0  0  0  0  0  # atno 11005 bound_to 11000
  144.7695  139.6767  143.7200 LP  0  0  0  0  0  0  0  0  0  0  0  0  # atno 17320 bound_to 7965
  146.2129  139.5498  142.9669 LP  0  0  0  0  0  0  0  0  0  0  0  0  # atno 17321 bound_to 7965
  139.5238  144.7076  151.5307 LP  0  0  0  0  0  0  0  0  0  0  0  0  # atno 17342 bound_to 10162
  140.6426  143.8859  150.6706 LP  0  0  0  0  0  0  0  0  0  0  0  0  # atno 17343 bound_to 10162
  156.5367  130.8282  151.3255 LP  0  0  0  0  0  0  0  0  0  0  0  0  # atno 17370 bound_to 10713
  157.7395  130.9833  150.2320 LP  0  0  0  0  0  0  0  0  0  0  0  0  # atno 17371 bound_to 10713
  139.9690  134.7325  156.0080 LP  0  0  0  0  0  0  0  0  0  0  0  0  # atno 17394 bound_to 11000
  141.1414  133.6564  156.3741 LP  0  0  0  0  0  0  0  0  0  0  0  0  # atno 17395 bound_to 11000

$$$$
