AV-unprocessed.smi:249|AV-procd|sdf|1920|dock3
  -GOLD-   2262021 23D 1   1.00000     0.00000
 Structure written by MMmdl.
 64 67  0  0  0  0  0  0  0  0  2 V2000
  141.7213  134.5757  153.1795 C   0  0  0  0  0  0  0  0  0  0  0  0
  143.1709  134.6481  152.6754 C   0  0  0  0  0  0  0  0  0  0  0  0
  144.1643  134.1620  153.6781 N   0  3  2  0  0  0  0  0  0  0  0  0
  144.1770  134.9417  154.9485 C   0  0  0  0  0  0  0  0  0  0  0  0
  144.8294  136.3264  154.7696 C   0  0  0  0  0  0  0  0  0  0  0  0
  146.2534  136.1918  154.1951 C   0  0  2  0  0  0  0  0  0  0  0  0
  146.9091  137.4911  154.0092 N   0  0  0  0  0  0  0  0  0  0  0  0
  146.3563  138.4598  153.0632 C   0  0  0  0  0  0  0  0  0  0  0  0
  147.5144  137.9985  155.1139 C   0  0  0  0  0  0  0  0  0  0  0  0
  147.7406  137.1940  156.1867 N   0  0  0  0  0  0  0  0  0  0  0  0
  148.3519  137.6742  157.2735 C   0  0  0  0  0  0  0  0  0  0  0  0
  148.8083  138.9079  157.4969 N   0  0  0  0  0  0  0  0  0  0  0  0
  148.5738  139.7231  156.4296 C   0  0  0  0  0  0  0  0  0  0  0  0
  147.9430  139.3528  155.2086 C   0  0  0  0  0  0  0  0  0  0  0  0
  147.8814  140.4494  154.3562 N   0  0  0  0  0  0  0  0  0  0  0  0
  148.4494  141.4108  155.0319 C   0  0  0  0  0  0  0  0  0  0  0  0
  148.8767  141.0669  156.2947 N   0  0  0  0  0  0  0  0  0  0  0  0
  149.5384  141.9349  157.2529 C   0  0  0  0  0  0  0  0  0  0  0  0
  151.0076  141.5495  157.5701 C   0  0  1  0  0  0  0  0  0  0  0  0
  151.6580  140.9388  156.3071 C   0  0  0  0  0  0  0  0  0  0  0  0
  152.6087  139.9462  156.6372 O   0  0  0  0  0  0  0  0  0  0  0  0
  151.8580  142.7012  158.1822 C   0  0  2  0  0  0  0  0  0  0  0  0
  151.5525  143.0092  159.6400 C   0  0  0  0  0  0  0  0  0  0  0  0
  152.1491  144.3988  159.8077 C   0  0  0  0  0  0  0  0  0  0  0  0
  151.8605  145.0562  158.5838 O   0  0  0  0  0  0  0  0  0  0  0  0
  151.6548  144.0910  157.5561 C   0  0  0  0  0  0  0  0  0  0  0  0
  146.2372  135.3453  152.9071 C   0  0  0  0  0  0  0  0  0  0  0  0
  145.5564  133.9843  153.1611 C   0  0  2  0  0  0  0  0  0  0  0  0
  145.6492  133.0403  151.9486 C   0  0  0  0  0  0  0  0  0  0  0  0
  141.0256  134.7953  152.3692 H   0  0  0  0  0  0  0  0  0  0  0  0
  141.5222  135.2974  153.9710 H   0  0  0  0  0  0  0  0  0  0  0  0
  141.4827  133.5807  153.5564 H   0  0  0  0  0  0  0  0  0  0  0  0
  143.2144  134.0284  151.7822 H   0  0  0  0  0  0  0  0  0  0  0  0
  143.4052  135.6619  152.3517 H   0  0  0  0  0  0  0  0  0  0  0  0
  143.1759  135.0430  155.3640 H   0  0  0  0  0  0  0  0  0  0  0  0
  144.7404  134.3750  155.6912 H   0  0  0  0  0  0  0  0  0  0  0  0
  144.2097  136.9470  154.1226 H   0  0  0  0  0  0  0  0  0  0  0  0
  144.8656  136.8358  155.7332 H   0  0  0  0  0  0  0  0  0  0  0  0
  146.8246  135.6189  154.9251 H   0  0  0  0  0  0  0  0  0  0  0  0
  147.0500  139.2876  152.9093 H   0  0  0  0  0  0  0  0  0  0  0  0
  145.4136  138.8691  153.4270 H   0  0  0  0  0  0  0  0  0  0  0  0
  146.1785  138.0062  152.0894 H   0  0  0  0  0  0  0  0  0  0  0  0
  148.4957  136.9693  158.0790 H   0  0  0  0  0  0  0  0  0  0  0  0
  148.5597  142.4078  154.6307 H   0  0  0  0  0  0  0  0  0  0  0  0
  149.4980  142.9471  156.8488 H   0  0  0  0  0  0  0  0  0  0  0  0
  148.9482  141.9494  158.1701 H   0  0  0  0  0  0  0  0  0  0  0  0
  150.9841  140.7440  158.3045 H   0  0  0  0  0  0  0  0  0  0  0  0
  150.9070  140.5026  155.6487 H   0  0  0  0  0  0  0  0  0  0  0  0
  152.1548  141.7149  155.7240 H   0  0  0  0  0  0  0  0  0  0  0  0
  152.2016  139.3223  157.2191 H   0  0  0  0  0  0  0  0  0  0  0  0
  152.9160  142.4435  158.1097 H   0  0  0  0  0  0  0  0  0  0  0  0
  150.4749  143.0440  159.8073 H   0  0  0  0  0  0  0  0  0  0  0  0
  151.9849  142.2867  160.3329 H   0  0  0  0  0  0  0  0  0  0  0  0
  151.7353  144.9374  160.6605 H   0  0  0  0  0  0  0  0  0  0  0  0
  153.2312  144.3391  159.9317 H   0  0  0  0  0  0  0  0  0  0  0  0
  152.3441  144.2728  156.7325 H   0  0  0  0  0  0  0  0  0  0  0  0
  150.6382  144.2134  157.1813 H   0  0  0  0  0  0  0  0  0  0  0  0
  145.7222  135.8662  152.1006 H   0  0  0  0  0  0  0  0  0  0  0  0
  147.2615  135.1871  152.5665 H   0  0  0  0  0  0  0  0  0  0  0  0
  146.1105  133.4887  153.9600 H   0  0  0  0  0  0  0  0  0  0  0  0
  146.6881  132.7751  151.7504 H   0  0  0  0  0  0  0  0  0  0  0  0
  145.2618  133.4968  151.0379 H   0  0  0  0  0  0  0  0  0  0  0  0
  145.1040  132.1128  152.1255 H   0  0  0  0  0  0  0  0  0  0  0  0
  143.8504  133.2348  153.9275 H   0  0  0  0  0  0  0  0  0  0  0  0
  1  2  1  0  0  0  0
  1 30  1  0  0  0  0
  1 31  1  0  0  0  0
  1 32  1  0  0  0  0
  2  3  1  0  0  0  0
  2 33  1  0  0  0  0
  2 34  1  0  0  0  0
  3 28  1  0  0  0  0
  3  4  1  0  0  0  0
  3 64  1  0  0  0  0
  4  5  1  0  0  0  0
  4 35  1  0  0  0  0
  4 36  1  0  0  0  0
  5  6  1  0  0  0  0
  5 37  1  0  0  0  0
  5 38  1  0  0  0  0
  6  7  1  0  0  0  0
  6 27  1  0  0  0  0
  6 39  1  0  0  0  0
  7  8  1  0  0  0  0
  7  9  1  0  0  0  0
  8 40  1  0  0  0  0
  8 41  1  0  0  0  0
  8 42  1  0  0  0  0
  9 14  1  0  0  0  0
  9 10  2  0  0  0  0
 10 11  1  0  0  0  0
 11 12  2  0  0  0  0
 11 43  1  0  0  0  0
 12 13  1  0  0  0  0
 13 17  1  0  0  0  0
 13 14  2  0  0  0  0
 14 15  1  0  0  0  0
 15 16  2  0  0  0  0
 16 17  1  0  0  0  0
 16 44  1  0  0  0  0
 17 18  1  0  0  0  0
 18 19  1  0  0  0  0
 18 45  1  0  0  0  0
 18 46  1  0  0  0  0
 19 20  1  0  0  0  0
 19 22  1  0  0  0  0
 19 47  1  0  0  0  0
 20 21  1  0  0  0  0
 20 48  1  0  0  0  0
 20 49  1  0  0  0  0
 21 50  1  0  0  0  0
 22 26  1  0  0  0  0
 22 23  1  0  0  0  0
 22 51  1  0  0  0  0
 23 24  1  0  0  0  0
 23 52  1  0  0  0  0
 23 53  1  0  0  0  0
 24 25  1  0  0  0  0
 24 54  1  0  0  0  0
 24 55  1  0  0  0  0
 25 26  1  0  0  0  0
 26 56  1  0  0  0  0
 26 57  1  0  0  0  0
 27 28  1  0  0  0  0
 27 58  1  0  0  0  0
 27 59  1  0  0  0  0
 28 29  1  0  0  0  0
 28 60  1  0  0  0  0
 29 61  1  0  0  0  0
 29 62  1  0  0  0  0
 29 63  1  0  0  0  0
M  CHG  1   3   1
M  END
> <s_m_source_file>
AV-unprocessed.smi

> <i_m_source_file_index>
249

> <i_lp_mmshare_version>
43012

> <i_f3d_flags>
0

> <s_epik_input>
W0NIM11bQ0gyXU4xW0NIMl1bQ0gyXVtDQEhdKFtDSDJdW0NASF0xW0NIM10pTihbQ0gzXSljKG5bY0hdbjIpYyhjMjMpbltjSF1uM1tDSDJdW0NASF0oW0NIMl1bT0hdKVtDQEBIXTRbQ0gyXVtDSDJdT1tDSDJdNA==

> <s_epik_cmdline>
J2VwaWtfcHl0aG9uJywgJy1waCcsICc3LjAnLCAnLXRuJywgJzgnLCAnLW1hJywgJzIwMCcsICctbWV0YWxfYmluZGluZycsICctaW1hZScsICc8aW5maWxlLm1hZT4nLCAnLW9tYWUnLCAnPG91dGZpbGUubWFlPic=

> <r_lp_tautomer_probability>
1

> <r_epik_Ionization_Penalty>
0.00294688

> <r_epik_Ionization_Penalty_Charging>
0.00169971

> <r_epik_Ionization_Penalty_Neutral>
0.00124717

> <r_epik_State_Penalty>
-0

> <r_epik_Charging_Adjusted_Penalty>
0.00169971

> <i_epik_Tot_Q>
1

> <i_epik_Tot_abs_Q>
1

> <r_epik_Metal_State_Penalty>
-0

> <b_epik_Metal_Only>
0

> <s_lp_Force_Field>
OPLS_2005

> <r_lp_Energy>
55.0731

> <b_lp_Chiralities_Consistent>
1

> <s_lp_Variant>
AV-unprocessed.smi:249-23

> <Gold.Version>
5.8.1

> <Gold.Id.Protein>
6NUR|6NUR_protein|mol2

> <Gold.PLP.Fitness>
46.7509

> <Gold.PLP.PLP>
-36.4633

> <Gold.PLP.part.hbond>
-2.0000

> <Gold.PLP.part.metal>
0.0000

> <Gold.PLP.part.buried>
-7.4448

> <Gold.PLP.part.nonpolar>
-28.1776

> <Gold.PLP.part.repulsive>
0.1894

> <Gold.PLP.ligand.clash>
0.0000

> <Gold.PLP.ligand.torsion>
1.4906

> <Gold.PLP.Chemscore.Hbond>
3.0000

> <Gold.PLP.Chemscore.CHOScore>
0.9997

> <Gold.PLP.Chemscore.Metal>
0.0000

> <Gold.Chemscore.Hbonds>
donor molecule, donor type, donor heavy atom, donor atom, acceptor molecule, acceptor atom, score
      L1  H     3    64       P1 10957  1.79
      P1  H  7997  8010       L1    21  1.00
      L1  C    16    44       P1  8028  1.00

> <Gold.PLP.Chemscore.Internal.Correction>
1.2698

> <Gold.Rescore>
     Score         DG    S(hbond)    S(metal)    S(lipo)     H(rot)  DE(clash)    DE(int)     intcor
     13.47     -16.29       1.98        0.00      93.78       2.65       0.17       2.65       ----

> <Gold.Chemscore.Fitness>
13.4667

> <Gold.Chemscore.DG>
-16.2917

> <Gold.Chemscore.ZeroCoef>
-5.4800

> <Gold.Chemscore.Hbond>
1.9843

> <Gold.Chemscore.Metal>
0.0000

> <Gold.Chemscore.Lipo>
93.7781

> <Gold.Chemscore.Internal_Hbond>
0.0000

> <Gold.Chemscore.DEClash>
0.1720

> <Gold.Chemscore.DEInternal>
2.6531

> <Gold.Chemscore.Rot>
2.6515

> <Gold.Chemscore.Internal.Correction>
   9.000000E+99

> <Gold.Chemscore.Hbonds>
donor molecule, donor type, donor heavy atom, donor atom, acceptor molecule, acceptor atom, score
      L1  H     3    64       P1 10957  0.86
      P1  H  7997  8010       L1    21  0.99

> <Gold.Chemscore.Hbond.Weighted>
-6.6277

> <Gold.Chemscore.Metal.Weighted>
-0.0000

> <Gold.Chemscore.Lipo.Weighted>
-10.9720

> <Gold.Chemscore.Internal_Hbond.Weighted>
0.0000

> <Gold.Chemscore.DEClash.Weighted>
0.1720

> <Gold.Chemscore.DEInternal.Weighted>
2.6531

> <Gold.Chemscore.Rot.Weighted>
6.7880

> <Gold.Chemscore.Internal.Correction.Weighted>
   9.000000E+99

> <Gold.Protein.RotatedTorsions>
[ 6907 6896 6895 6894 ] final   44.49 input  -60.11 | X-H torsion
[ 7974 7965 7964 7962 ] final   69.30 input  175.53 | X-H torsion
[ 8008 7997 7996 7995 ] final   74.98 input   59.86 | X-H torsion
[ 10167 10162 10161 10158 ] final   50.37 input  -65.29 | X-H torsion
[ 10718 10713 10712 10709 ] final   43.41 input   66.30 | X-H torsion
[ 10763 10752 10751 10750 ] final  -37.74 input  -60.55 | X-H torsion
[ 11005 11000 10999 10996 ] final  134.46 input  -57.11 | X-H torsion

> <Gold.Protein.ActiveResidues>
 VAL166  LYS551  ARG553  GLY616  TRP617  ASP618  TYR619  PRO620  LYS621  CYS622 
 ASP623  PHE694  ASN695  SER759  ASP760  ASP761  ALA762  ILE779  LEU786  VAL792 
 PHE793  MET794  SER795  GLU796  ALA797  LYS798  CYS799  TRP800  GLU811  SER814 

> <Gold.Protein.RotatedAtoms>
  152.2332  134.8302  160.0470 H   0  0  0  0  0  0  0  0  0  0  0  0  # atno 6907 bound_to 6896
  151.9043  133.3540  159.3850 H   0  0  0  0  0  0  0  0  0  0  0  0  # atno 6908 bound_to 6896
  150.7031  134.4722  159.5475 H   0  0  0  0  0  0  0  0  0  0  0  0  # atno 6909 bound_to 6896
  145.7921  139.2939  143.1204 H   0  0  0  0  0  0  0  0  0  0  0  0  # atno 7974 bound_to 7965
  155.8063  140.3474  155.5431 H   0  0  0  0  0  0  0  0  0  0  0  0  # atno 8008 bound_to 7997
  155.8487  140.0953  157.1709 H   0  0  0  0  0  0  0  0  0  0  0  0  # atno 8009 bound_to 7997
  154.4007  140.1380  156.3805 H   0  0  0  0  0  0  0  0  0  0  0  0  # atno 8010 bound_to 7997
  140.2731  144.3243  150.6284 H   0  0  0  0  0  0  0  0  0  0  0  0  # atno 10167 bound_to 10162
  157.4155  130.7939  149.7469 H   0  0  0  0  0  0  0  0  0  0  0  0  # atno 10718 bound_to 10713
  153.9012  135.6802  153.4755 H   0  0  0  0  0  0  0  0  0  0  0  0  # atno 10763 bound_to 10752
  153.1128  135.4775  154.9062 H   0  0  0  0  0  0  0  0  0  0  0  0  # atno 10764 bound_to 10752
  154.7574  135.3201  154.8398 H   0  0  0  0  0  0  0  0  0  0  0  0  # atno 10765 bound_to 10752
  139.9916  134.9513  156.9870 H   0  0  0  0  0  0  0  0  0  0  0  0  # atno 11005 bound_to 11000
  145.9966  140.8557  143.0039 LP  0  0  0  0  0  0  0  0  0  0  0  0  # atno 17320 bound_to 7965
  144.6780  140.2292  143.7357 LP  0  0  0  0  0  0  0  0  0  0  0  0  # atno 17321 bound_to 7965
  140.5873  143.2169  151.7318 LP  0  0  0  0  0  0  0  0  0  0  0  0  # atno 17342 bound_to 10162
  139.4983  144.3991  152.0200 LP  0  0  0  0  0  0  0  0  0  0  0  0  # atno 17343 bound_to 10162
  155.9864  130.3975  150.3215 LP  0  0  0  0  0  0  0  0  0  0  0  0  # atno 17370 bound_to 10713
  157.1357  131.0283  151.2949 LP  0  0  0  0  0  0  0  0  0  0  0  0  # atno 17371 bound_to 10713
  140.4897  134.1206  155.7230 LP  0  0  0  0  0  0  0  0  0  0  0  0  # atno 17394 bound_to 11000
  141.1571  133.8863  157.1949 LP  0  0  0  0  0  0  0  0  0  0  0  0  # atno 17395 bound_to 11000

$$$$
