AV-unprocessed.smi:2914|AV-procd|sdf|11186|dock2
  -GOLD-   2272016 73D 1   1.00000     0.00000
 Structure written by MMmdl.
 32 34  0  0  0  0  0  0  0  0  1 V2000
  152.6897  139.3467  157.0360 O   0  0  0  0  0  0  0  0  0  0  0  0
  151.6978  140.0522  156.8504 C   0  0  0  0  0  0  0  0  0  0  0  0
  151.3516  141.1199  157.5910 N   0  0  0  0  0  0  0  0  0  0  0  0
  151.9910  141.6545  158.6653 C   0  0  0  0  0  0  0  0  0  0  0  0
  152.5868  141.0140  159.7176 C   0  0  0  0  0  0  0  0  0  0  0  0
  153.0808  142.0976  160.4984 C   0  0  0  0  0  0  0  0  0  0  0  0
  152.8106  143.2847  159.9707 N   0  0  0  0  0  0  0  0  0  0  0  0
  152.1315  143.0156  158.8338 N   0  0  0  0  0  0  0  0  0  0  0  0
  151.6792  144.1054  157.9874 C   0  0  0  0  0  0  0  0  0  0  0  0
  150.8396  145.1030  158.7612 C   0  0  0  0  0  0  0  0  0  0  0  0
  151.2812  145.5931  160.1204 C   0  0  0  0  0  0  0  0  0  0  0  0
  150.0817  144.6841  159.9990 C   0  0  0  0  0  0  0  0  0  0  0  0
  150.8135  139.8431  155.8654 N   0  0  0  0  0  0  0  0  0  0  0  0
  150.8803  138.7925  154.9014 C   0  0  0  0  0  0  0  0  0  0  0  0
  151.4687  137.4698  155.3430 C   0  0  0  0  0  0  0  0  0  0  0  0
  152.2510  138.3655  154.4226 C   0  0  0  0  0  0  0  0  0  0  0  0
  150.5061  141.5966  157.3139 H   0  0  0  0  0  0  0  0  0  0  0  0
  152.6690  139.9558  159.9137 H   0  0  0  0  0  0  0  0  0  0  0  0
  153.6268  142.0579  161.4293 H   0  0  0  0  0  0  0  0  0  0  0  0
  152.5458  144.6119  157.5617 H   0  0  0  0  0  0  0  0  0  0  0  0
  151.1032  143.6992  157.1542 H   0  0  0  0  0  0  0  0  0  0  0  0
  150.3502  145.8430  158.1308 H   0  0  0  0  0  0  0  0  0  0  0  0
  152.1923  145.1704  160.5391 H   0  0  0  0  0  0  0  0  0  0  0  0
  151.0992  146.6386  160.3598 H   0  0  0  0  0  0  0  0  0  0  0  0
  149.0992  145.1234  160.1585 H   0  0  0  0  0  0  0  0  0  0  0  0
  150.1948  143.6579  160.3429 H   0  0  0  0  0  0  0  0  0  0  0  0
  150.0295  140.4747  155.7908 H   0  0  0  0  0  0  0  0  0  0  0  0
  150.0792  138.7368  154.1654 H   0  0  0  0  0  0  0  0  0  0  0  0
  151.8131  137.3832  156.3720 H   0  0  0  0  0  0  0  0  0  0  0  0
  151.0411  136.5639  154.9176 H   0  0  0  0  0  0  0  0  0  0  0  0
  152.3454  138.0582  153.3829 H   0  0  0  0  0  0  0  0  0  0  0  0
  153.1182  138.8764  154.8371 H   0  0  0  0  0  0  0  0  0  0  0  0
  1  2  2  0  0  0  0
  2  3  1  0  0  0  0
  2 13  1  0  0  0  0
  3  4  1  0  0  0  0
  3 17  1  0  0  0  0
  4  8  1  0  0  0  0
  4  5  2  0  0  0  0
  5  6  1  0  0  0  0
  5 18  1  0  0  0  0
  6  7  2  0  0  0  0
  6 19  1  0  0  0  0
  7  8  1  0  0  0  0
  8  9  1  0  0  0  0
  9 10  1  0  0  0  0
  9 20  1  0  0  0  0
  9 21  1  0  0  0  0
 10 12  1  0  0  0  0
 10 11  1  0  0  0  0
 10 22  1  0  0  0  0
 11 12  1  0  0  0  0
 11 23  1  0  0  0  0
 11 24  1  0  0  0  0
 12 25  1  0  0  0  0
 12 26  1  0  0  0  0
 13 14  1  0  0  0  0
 13 27  1  0  0  0  0
 14 16  1  0  0  0  0
 14 15  1  0  0  0  0
 14 28  1  0  0  0  0
 15 16  1  0  0  0  0
 15 29  1  0  0  0  0
 15 30  1  0  0  0  0
 16 31  1  0  0  0  0
 16 32  1  0  0  0  0
M  END
> <s_m_source_file>
AV-unprocessed.smi

> <i_m_source_file_index>
2914

> <i_lp_mmshare_version>
43012

> <i_f3d_flags>
0

> <s_epik_input>
W0NIMl0xW0NIMl1bQ0hdMVtOSF1DKD1PKVtOSF1jMltjSF1bY0hdbm4yW0NIMl1bQ0hdM1tDSDJdW0NIMl0z

> <s_epik_cmdline>
J2VwaWtfcHl0aG9uJywgJy1waCcsICc3LjAnLCAnLXRuJywgJzgnLCAnLW1hJywgJzIwMCcsICctbWV0YWxfYmluZGluZycsICctaW1hZScsICc8aW5maWxlLm1hZT4nLCAnLW9tYWUnLCAnPG91dGZpbGUubWFlPic=

> <r_lp_tautomer_probability>
1

> <r_epik_Ionization_Penalty>
4.83987e-05

> <r_epik_Ionization_Penalty_Charging>
0

> <r_epik_Ionization_Penalty_Neutral>
4.83987e-05

> <r_epik_State_Penalty>
-0

> <r_epik_Charging_Adjusted_Penalty>
0

> <i_epik_Tot_Q>
0

> <i_epik_Tot_abs_Q>
0

> <r_epik_Metal_State_Penalty>
-0

> <b_epik_Metal_Only>
0

> <s_lp_Force_Field>
OPLS_2005

> <r_lp_Energy>
29.2759

> <b_lp_Chiralities_Consistent>
1

> <s_lp_Variant>
AV-unprocessed.smi:2914-1

> <Gold.Version>
5.8.1

> <Gold.Id.Protein>
6NUR|6NUR_protein|mol2

> <Gold.PLP.Fitness>
43.3433

> <Gold.PLP.PLP>
-41.7263

> <Gold.PLP.part.hbond>
-1.0000

> <Gold.PLP.part.metal>
0.0000

> <Gold.PLP.part.buried>
-6.3968

> <Gold.PLP.part.nonpolar>
-34.0946

> <Gold.PLP.part.repulsive>
0.2021

> <Gold.PLP.ligand.clash>
0.0000

> <Gold.PLP.ligand.torsion>
1.0003

> <Gold.PLP.Chemscore.Hbond>
1.0000

> <Gold.PLP.Chemscore.CHOScore>
0.0000

> <Gold.PLP.Chemscore.Metal>
0.0000

> <Gold.Chemscore.Hbonds>
donor molecule, donor type, donor heavy atom, donor atom, acceptor molecule, acceptor atom, score
      P1  H  7997  8009       L1     1  0.96

> <Gold.PLP.Chemscore.Internal.Correction>
0.6177

> <Gold.Rescore>
     Score         DG    S(hbond)    S(metal)    S(lipo)     H(rot)  DE(clash)    DE(int)     intcor
     10.69     -15.55       0.96        0.00      89.24       1.39       0.02       4.84       ----

> <Gold.Chemscore.Fitness>
10.6949

> <Gold.Chemscore.DG>
-15.5536

> <Gold.Chemscore.ZeroCoef>
-5.4800

> <Gold.Chemscore.Hbond>
0.9576

> <Gold.Chemscore.Metal>
0.0000

> <Gold.Chemscore.Lipo>
89.2385

> <Gold.Chemscore.Internal_Hbond>
0.0000

> <Gold.Chemscore.DEClash>
0.0189

> <Gold.Chemscore.DEInternal>
4.8398

> <Gold.Chemscore.Rot>
1.3929

> <Gold.Chemscore.Internal.Correction>
   9.000000E+99

> <Gold.Chemscore.Hbonds>
donor molecule, donor type, donor heavy atom, donor atom, acceptor molecule, acceptor atom, score
      P1  H  7997  8009       L1     1  0.89

> <Gold.Chemscore.Hbond.Weighted>
-3.1984

> <Gold.Chemscore.Metal.Weighted>
-0.0000

> <Gold.Chemscore.Lipo.Weighted>
-10.4409

> <Gold.Chemscore.Internal_Hbond.Weighted>
0.0000

> <Gold.Chemscore.DEClash.Weighted>
0.0189

> <Gold.Chemscore.DEInternal.Weighted>
4.8398

> <Gold.Chemscore.Rot.Weighted>
3.5657

> <Gold.Chemscore.Internal.Correction.Weighted>
   9.000000E+99

> <Gold.Protein.RotatedTorsions>
[ 6907 6896 6895 6894 ] final   26.65 input  -60.11 | X-H torsion
[ 7974 7965 7964 7962 ] final  -97.32 input  175.53 | X-H torsion
[ 8008 7997 7996 7995 ] final  157.38 input   59.86 | X-H torsion
[ 10167 10162 10161 10158 ] final  -50.55 input  -65.29 | X-H torsion
[ 10718 10713 10712 10709 ] final  128.75 input   66.30 | X-H torsion
[ 10763 10752 10751 10750 ] final  113.02 input  -60.55 | X-H torsion
[ 11005 11000 10999 10996 ] final  -92.21 input  -57.11 | X-H torsion

> <Gold.Protein.ActiveResidues>
 VAL166  LYS551  ARG553  GLY616  TRP617  ASP618  TYR619  PRO620  LYS621  CYS622 
 ASP623  PHE694  ASN695  SER759  ASP760  ASP761  ALA762  ILE779  LEU786  VAL792 
 PHE793  MET794  SER795  GLU796  ALA797  LYS798  CYS799  TRP800  GLU811  SER814 

> <Gold.Protein.RotatedAtoms>
  151.9905  134.9981  160.0561 H   0  0  0  0  0  0  0  0  0  0  0  0  # atno 6907 bound_to 6896
  152.1612  133.4578  159.4870 H   0  0  0  0  0  0  0  0  0  0  0  0  # atno 6908 bound_to 6896
  150.6888  134.1986  159.4356 H   0  0  0  0  0  0  0  0  0  0  0  0  # atno 6909 bound_to 6896
  145.3353  140.9449  143.2639 H   0  0  0  0  0  0  0  0  0  0  0  0  # atno 7974 bound_to 7965
  156.2367  140.1887  156.7100 H   0  0  0  0  0  0  0  0  0  0  0  0  # atno 8008 bound_to 7997
  154.6119  140.0620  156.9532 H   0  0  0  0  0  0  0  0  0  0  0  0  # atno 8009 bound_to 7997
  155.2002  140.3291  155.4347 H   0  0  0  0  0  0  0  0  0  0  0  0  # atno 8010 bound_to 7997
  140.6632  143.2653  151.4375 H   0  0  0  0  0  0  0  0  0  0  0  0  # atno 10167 bound_to 10162
  157.5216  131.1098  150.9144 H   0  0  0  0  0  0  0  0  0  0  0  0  # atno 10718 bound_to 10713
  153.4864  135.3668  155.2469 H   0  0  0  0  0  0  0  0  0  0  0  0  # atno 10763 bound_to 10752
  154.8753  135.3966  154.3640 H   0  0  0  0  0  0  0  0  0  0  0  0  # atno 10764 bound_to 10752
  153.4252  135.7081  153.6332 H   0  0  0  0  0  0  0  0  0  0  0  0  # atno 10765 bound_to 10752
  141.1527  133.7806  156.9988 H   0  0  0  0  0  0  0  0  0  0  0  0  # atno 11005 bound_to 11000
  144.8832  139.4875  143.6713 LP  0  0  0  0  0  0  0  0  0  0  0  0  # atno 17320 bound_to 7965
  146.3029  139.7486  142.9078 LP  0  0  0  0  0  0  0  0  0  0  0  0  # atno 17321 bound_to 7965
  139.5872  144.1577  152.2044 LP  0  0  0  0  0  0  0  0  0  0  0  0  # atno 17342 bound_to 10162
  140.0921  144.5612  150.7047 LP  0  0  0  0  0  0  0  0  0  0  0  0  # atno 17343 bound_to 10162
  156.9753  130.5506  149.5293 LP  0  0  0  0  0  0  0  0  0  0  0  0  # atno 17370 bound_to 10713
  156.0358  130.5445  150.8649 LP  0  0  0  0  0  0  0  0  0  0  0  0  # atno 17371 bound_to 10713
  140.0953  134.9568  157.1840 LP  0  0  0  0  0  0  0  0  0  0  0  0  # atno 17394 bound_to 11000
  140.3390  134.2725  155.7215 LP  0  0  0  0  0  0  0  0  0  0  0  0  # atno 17395 bound_to 11000

$$$$
