AV-unprocessed.smi:2655|AV-procd|sdf|10300|dock6
  -GOLD-   2272014313D 1   1.00000     0.00000
 Structure written by MMmdl.
 34 35  0  0  0  0  0  0  0  0  1 V2000
  149.2572  141.6102  154.7790 C   0  0  0  0  0  0  0  0  0  0  0  0
  149.6159  140.1534  154.7098 C   0  0  0  0  0  0  0  0  0  0  0  0
  150.8972  139.8125  154.6130 N   0  0  0  0  0  0  0  0  0  0  0  0
  150.8842  138.4667  154.5832 N   0  0  0  0  0  0  0  0  0  0  0  0
  149.6085  137.9714  154.6619 C   0  0  0  0  0  0  0  0  0  0  0  0
  149.3772  136.6313  154.6554 O   0  0  0  0  0  0  0  0  0  0  0  0
  148.7414  139.0220  154.7432 C   0  0  0  0  0  0  0  0  0  0  0  0
  147.2406  138.9986  154.8505 C   0  0  0  0  0  0  0  0  0  0  0  0
  146.5804  138.9259  153.4642 C   0  0  0  0  0  0  0  0  0  0  0  0
  146.8354  137.6469  152.8115 N   0  0  0  0  0  0  0  0  0  0  0  0
  145.8990  136.7288  152.5308 C   0  0  0  0  0  0  0  0  0  0  0  0
  144.7066  136.8703  152.8035 O   0  0  0  0  0  0  0  0  0  0  0  0
  146.4330  135.6540  151.9251 N   0  0  0  0  0  0  0  0  0  0  0  0
  145.7590  134.4849  151.4881 C   0  0  0  0  0  0  0  0  0  0  0  0
  144.8431  134.5329  150.4035 C   0  0  0  0  0  0  0  0  0  0  0  0
  144.4248  133.2363  150.2963 C   0  0  0  0  0  0  0  0  0  0  0  0
  143.4715  132.5496  149.3795 C   0  0  0  0  0  0  0  0  0  0  0  0
  145.0314  132.4633  151.2374 O   0  0  0  0  0  0  0  0  0  0  0  0
  145.8861  133.2697  151.9984 N   0  0  0  0  0  0  0  0  0  0  0  0
  148.1966  141.7699  154.5859 H   0  0  0  0  0  0  0  0  0  0  0  0
  149.8156  142.1907  154.0441 H   0  0  0  0  0  0  0  0  0  0  0  0
  149.4788  142.0191  155.7651 H   0  0  0  0  0  0  0  0  0  0  0  0
  151.7307  137.9202  154.5128 H   0  0  0  0  0  0  0  0  0  0  0  0
  146.8853  139.8849  155.3777 H   0  0  0  0  0  0  0  0  0  0  0  0
  146.9130  138.1507  155.4527 H   0  0  0  0  0  0  0  0  0  0  0  0
  145.5053  139.0968  153.5437 H   0  0  0  0  0  0  0  0  0  0  0  0
  146.9730  139.7157  152.8231 H   0  0  0  0  0  0  0  0  0  0  0  0
  147.7916  137.4498  152.5544 H   0  0  0  0  0  0  0  0  0  0  0  0
  147.4290  135.6718  151.7633 H   0  0  0  0  0  0  0  0  0  0  0  0
  144.5421  135.3764  149.8002 H   0  0  0  0  0  0  0  0  0  0  0  0
  143.1590  133.2129  148.5727 H   0  0  0  0  0  0  0  0  0  0  0  0
  142.5803  132.2297  149.9197 H   0  0  0  0  0  0  0  0  0  0  0  0
  143.9316  131.6682  148.9325 H   0  0  0  0  0  0  0  0  0  0  0  0
  149.2092  136.3713  153.7625 H   0  0  0  0  0  0  0  0  0  0  0  0
  1 20  1  0  0  0  0
  1 21  1  0  0  0  0
  1 22  1  0  0  0  0
  1  2  1  0  0  0  0
  2  7  1  0  0  0  0
  2  3  2  0  0  0  0
  3  4  1  0  0  0  0
  4 23  1  0  0  0  0
  4  5  1  0  0  0  0
  5  7  2  0  0  0  0
  5  6  1  0  0  0  0
  6 34  1  0  0  0  0
  7  8  1  0  0  0  0
  8  9  1  0  0  0  0
  8 24  1  0  0  0  0
  8 25  1  0  0  0  0
  9 10  1  0  0  0  0
  9 26  1  0  0  0  0
  9 27  1  0  0  0  0
 10 11  1  0  0  0  0
 10 28  1  0  0  0  0
 11 12  2  0  0  0  0
 11 13  1  0  0  0  0
 13 14  1  0  0  0  0
 13 29  1  0  0  0  0
 14 19  2  0  0  0  0
 14 15  1  0  0  0  0
 15 16  2  0  0  0  0
 15 30  1  0  0  0  0
 16 17  1  0  0  0  0
 16 18  1  0  0  0  0
 17 31  1  0  0  0  0
 17 32  1  0  0  0  0
 17 33  1  0  0  0  0
 18 19  1  0  0  0  0
M  END
> <s_m_source_file>
AV-unprocessed.smi

> <i_m_source_file_index>
2655

> <i_lp_mmshare_version>
43012

> <i_f3d_flags>
0

> <s_epik_input>
W0NIM11DMT1OW05IXUMoPU8pW0NASF0xW0NIMl1bQ0gyXVtOSF1DKD1PKVtOSF1jMltjSF1jKFtDSDNdKW9uMg==

> <s_epik_cmdline>
J2VwaWtfcHl0aG9uJywgJy1waCcsICc3LjAnLCAnLXRuJywgJzgnLCAnLW1hJywgJzIwMCcsICctbWV0YWxfYmluZGluZycsICctaW1hZScsICc8aW5maWxlLm1hZT4nLCAnLW9tYWUnLCAnPG91dGZpbGUubWFlPic=

> <r_lp_tautomer_probability>
0.0227396

> <r_epik_Ionization_Penalty>
3.51829

> <r_epik_Ionization_Penalty_Charging>
0

> <r_epik_Ionization_Penalty_Neutral>
3.51829

> <r_epik_State_Penalty>
1.61027

> <r_epik_Charging_Adjusted_Penalty>
1.61027

> <i_epik_Tot_Q>
0

> <i_epik_Tot_abs_Q>
0

> <r_epik_Metal_State_Penalty>
3.01397

> <b_epik_Metal_Only>
0

> <s_lp_Force_Field>
OPLS_2005

> <r_lp_Energy>
-1.25166

> <b_lp_Chiralities_Consistent>
1

> <s_lp_Variant>
AV-unprocessed.smi:2655-3

> <Gold.Version>
5.8.1

> <Gold.Id.Protein>
6NUR|6NUR_protein|mol2

> <Gold.PLP.Fitness>
36.8887

> <Gold.PLP.PLP>
-27.1717

> <Gold.PLP.part.hbond>
-4.0000

> <Gold.PLP.part.metal>
0.0000

> <Gold.PLP.part.buried>
-3.6616

> <Gold.PLP.part.nonpolar>
-20.6718

> <Gold.PLP.part.repulsive>
0.6590

> <Gold.PLP.ligand.clash>
0.0000

> <Gold.PLP.ligand.torsion>
1.0396

> <Gold.PLP.Chemscore.Hbond>
3.9280

> <Gold.PLP.Chemscore.CHOScore>
0.0000

> <Gold.PLP.Chemscore.Metal>
0.0000

> <Gold.Chemscore.Hbonds>
donor molecule, donor type, donor heavy atom, donor atom, acceptor molecule, acceptor atom, score
      L1  H     6    34       P1  7948  1.00
      L1  H    10    28       P1  7948  0.93
      L1  H    13    29       P1  7948  1.00
      P1  H  7989  7998       L1     3  1.00

> <Gold.PLP.Chemscore.Internal.Correction>
0.0122

> <Gold.Rescore>
     Score         DG    S(hbond)    S(metal)    S(lipo)     H(rot)  DE(clash)    DE(int)     intcor
     17.13     -18.17       3.88        0.00      53.01       2.53       0.02       1.02       ----

> <Gold.Chemscore.Fitness>
17.1349

> <Gold.Chemscore.DG>
-18.1716

> <Gold.Chemscore.ZeroCoef>
-5.4800

> <Gold.Chemscore.Hbond>
3.8836

> <Gold.Chemscore.Metal>
0.0000

> <Gold.Chemscore.Lipo>
53.0085

> <Gold.Chemscore.Internal_Hbond>
0.0000

> <Gold.Chemscore.DEClash>
0.0178

> <Gold.Chemscore.DEInternal>
1.0189

> <Gold.Chemscore.Rot>
2.5318

> <Gold.Chemscore.Internal.Correction>
   9.000000E+99

> <Gold.Chemscore.Hbonds>
donor molecule, donor type, donor heavy atom, donor atom, acceptor molecule, acceptor atom, score
      L1  H     6    34       P1  7948  0.94
      L1  H    10    28       P1  7948  0.91
      L1  H    13    29       P1  7948  0.98
      P1  H  7989  7998       L1     3  0.65

> <Gold.Chemscore.Hbond.Weighted>
-12.9711

> <Gold.Chemscore.Metal.Weighted>
-0.0000

> <Gold.Chemscore.Lipo.Weighted>
-6.2020

> <Gold.Chemscore.Internal_Hbond.Weighted>
0.0000

> <Gold.Chemscore.DEClash.Weighted>
0.0178

> <Gold.Chemscore.DEInternal.Weighted>
1.0189

> <Gold.Chemscore.Rot.Weighted>
6.4815

> <Gold.Chemscore.Internal.Correction.Weighted>
   9.000000E+99

> <Gold.Protein.RotatedTorsions>
[ 6907 6896 6895 6894 ] final -102.37 input  -60.11 | X-H torsion
[ 7974 7965 7964 7962 ] final   -0.60 input  175.53 | X-H torsion
[ 8008 7997 7996 7995 ] final -127.99 input   59.86 | X-H torsion
[ 10167 10162 10161 10158 ] final  -78.68 input  -65.29 | X-H torsion
[ 10718 10713 10712 10709 ] final  -65.21 input   66.30 | X-H torsion
[ 10763 10752 10751 10750 ] final  -94.52 input  -60.55 | X-H torsion
[ 11005 11000 10999 10996 ] final  -26.41 input  -57.11 | X-H torsion

> <Gold.Protein.ActiveResidues>
 VAL166  LYS551  ARG553  GLY616  TRP617  ASP618  TYR619  PRO620  LYS621  CYS622 
 ASP623  PHE694  ASN695  SER759  ASP760  ASP761  ALA762  ILE779  LEU786  VAL792 
 PHE793  MET794  SER795  GLU796  ALA797  LYS798  CYS799  TRP800  GLU811  SER814 

> <Gold.Protein.RotatedAtoms>
  150.7193  134.0591  159.3824 H   0  0  0  0  0  0  0  0  0  0  0  0  # atno 6907 bound_to 6896
  151.8570  135.0535  160.0474 H   0  0  0  0  0  0  0  0  0  0  0  0  # atno 6908 bound_to 6896
  152.2746  133.5378  159.5497 H   0  0  0  0  0  0  0  0  0  0  0  0  # atno 6909 bound_to 6896
  146.2425  140.1295  142.8338 H   0  0  0  0  0  0  0  0  0  0  0  0  # atno 7974 bound_to 7965
  155.2553  140.0434  157.2991 H   0  0  0  0  0  0  0  0  0  0  0  0  # atno 8008 bound_to 7997
  154.5743  140.2383  155.8114 H   0  0  0  0  0  0  0  0  0  0  0  0  # atno 8009 bound_to 7997
  156.2146  140.2988  155.9819 H   0  0  0  0  0  0  0  0  0  0  0  0  # atno 8010 bound_to 7997
  140.4661  143.2440  151.8276 H   0  0  0  0  0  0  0  0  0  0  0  0  # atno 10167 bound_to 10162
  156.0683  130.4244  150.1532 H   0  0  0  0  0  0  0  0  0  0  0  0  # atno 10718 bound_to 10713
  154.7062  135.5154  153.8599 H   0  0  0  0  0  0  0  0  0  0  0  0  # atno 10763 bound_to 10752
  153.0743  135.6611  154.0188 H   0  0  0  0  0  0  0  0  0  0  0  0  # atno 10764 bound_to 10752
  154.0038  135.3008  155.3379 H   0  0  0  0  0  0  0  0  0  0  0  0  # atno 10765 bound_to 10752
  140.9027  133.7513  156.0565 H   0  0  0  0  0  0  0  0  0  0  0  0  # atno 11005 bound_to 11000
  145.0338  140.8892  143.5093 LP  0  0  0  0  0  0  0  0  0  0  0  0  # atno 17320 bound_to 7965
  145.1363  139.2600  143.5513 LP  0  0  0  0  0  0  0  0  0  0  0  0  # atno 17321 bound_to 7965
  139.4812  144.4949  151.9137 LP  0  0  0  0  0  0  0  0  0  0  0  0  # atno 17342 bound_to 10162
  140.4034  144.2463  150.5892 LP  0  0  0  0  0  0  0  0  0  0  0  0  # atno 17343 bound_to 10162
  156.9588  130.9798  151.3483 LP  0  0  0  0  0  0  0  0  0  0  0  0  # atno 17370 bound_to 10713
  157.5738  130.8329  149.8427 LP  0  0  0  0  0  0  0  0  0  0  0  0  # atno 17371 bound_to 10713
  140.8210  134.3289  157.5381 LP  0  0  0  0  0  0  0  0  0  0  0  0  # atno 17394 bound_to 11000
  139.8744  134.9309  156.3514 LP  0  0  0  0  0  0  0  0  0  0  0  0  # atno 17395 bound_to 11000

$$$$
