AV-unprocessed.smi:2457|AV-procd|sdf|9706|dock7
  -GOLD-   2272013343D 1   1.00000     0.00000
 Structure written by MMmdl.
 40 41  0  0  0  0  0  0  0  0  1 V2000
  152.7859  138.9789  154.9596 C   0  0  0  0  0  0  0  0  0  0  0  0
  151.3188  138.6970  154.8797 C   0  0  0  0  0  0  0  0  0  0  0  0
  150.6437  137.6574  155.4691 C   0  0  0  0  0  0  0  0  0  0  0  0
  148.9391  137.7056  155.1136 S   0  0  0  0  0  0  0  0  0  0  0  0
  149.2100  139.1598  154.1585 C   0  0  0  0  0  0  0  0  0  0  0  0
  148.1079  139.8986  153.4614 C   0  0  2  0  0  0  0  0  0  0  0  0
  147.9444  141.3302  153.9914 C   0  0  0  0  0  0  0  0  0  0  0  0
  146.7768  139.1141  153.4260 C   0  0  0  0  0  0  0  0  0  0  0  0
  146.8970  137.8169  152.7654 N   0  0  0  0  0  0  0  0  0  0  0  0
  145.8660  137.0508  152.3849 C   0  0  0  0  0  0  0  0  0  0  0  0
  144.6852  137.3340  152.5868 O   0  0  0  0  0  0  0  0  0  0  0  0
  146.2762  135.9519  151.7371 N   0  0  0  0  0  0  0  0  0  0  0  0
  145.3972  134.9473  151.1463 C   0  0  1  0  0  0  0  0  0  0  0  0
  146.2294  133.7620  150.6138 C   0  0  0  0  0  0  0  0  0  0  0  0
  145.3627  132.6945  149.9267 C   0  0  0  0  0  0  0  0  0  0  0  0
  144.3294  132.0781  150.8800 C   0  0  0  0  0  0  0  0  0  0  0  0
  143.1671  133.3307  151.4873 S   0  0  0  0  0  0  0  0  0  0  0  0
  144.3650  134.4959  152.1937 C   0  0  0  0  0  0  0  0  0  0  0  0
  150.4895  139.5461  154.1422 N   0  0  0  0  0  0  0  0  0  0  0  0
  153.3088  138.2142  155.5344 H   0  0  0  0  0  0  0  0  0  0  0  0
  152.9763  139.9395  155.4388 H   0  0  0  0  0  0  0  0  0  0  0  0
  153.2358  139.0088  153.9668 H   0  0  0  0  0  0  0  0  0  0  0  0
  151.0439  136.8681  156.0879 H   0  0  0  0  0  0  0  0  0  0  0  0
  148.4319  140.0058  152.4256 H   0  0  0  0  0  0  0  0  0  0  0  0
  148.8778  141.8877  153.9090 H   0  0  0  0  0  0  0  0  0  0  0  0
  147.6449  141.3333  155.0398 H   0  0  0  0  0  0  0  0  0  0  0  0
  147.1850  141.8724  153.4275 H   0  0  0  0  0  0  0  0  0  0  0  0
  146.4391  138.9256  154.4455 H   0  0  0  0  0  0  0  0  0  0  0  0
  145.9952  139.7057  152.9466 H   0  0  0  0  0  0  0  0  0  0  0  0
  147.8315  137.4995  152.5531 H   0  0  0  0  0  0  0  0  0  0  0  0
  147.2691  135.8106  151.6222 H   0  0  0  0  0  0  0  0  0  0  0  0
  144.8556  135.4021  150.3146 H   0  0  0  0  0  0  0  0  0  0  0  0
  146.9700  134.1238  149.8993 H   0  0  0  0  0  0  0  0  0  0  0  0
  146.7925  133.3067  151.4296 H   0  0  0  0  0  0  0  0  0  0  0  0
  144.8557  133.1294  149.0643 H   0  0  0  0  0  0  0  0  0  0  0  0
  146.0067  131.9059  149.5365 H   0  0  0  0  0  0  0  0  0  0  0  0
  143.7654  131.2966  150.3704 H   0  0  0  0  0  0  0  0  0  0  0  0
  144.8268  131.6112  151.7307 H   0  0  0  0  0  0  0  0  0  0  0  0
  144.8601  134.0223  153.0424 H   0  0  0  0  0  0  0  0  0  0  0  0
  143.8167  135.3550  152.5815 H   0  0  0  0  0  0  0  0  0  0  0  0
  1  2  1  0  0  0  0
  1 20  1  0  0  0  0
  1 21  1  0  0  0  0
  1 22  1  0  0  0  0
  2 19  1  0  0  0  0
  2  3  2  0  0  0  0
  3  4  1  0  0  0  0
  3 23  1  0  0  0  0
  4  5  1  0  0  0  0
  5  6  1  0  0  0  0
  5 19  2  0  0  0  0
  6  7  1  0  0  0  0
  6  8  1  0  0  0  0
  6 24  1  0  0  0  0
  7 25  1  0  0  0  0
  7 26  1  0  0  0  0
  7 27  1  0  0  0  0
  8  9  1  0  0  0  0
  8 28  1  0  0  0  0
  8 29  1  0  0  0  0
  9 10  1  0  0  0  0
  9 30  1  0  0  0  0
 10 11  2  0  0  0  0
 10 12  1  0  0  0  0
 12 13  1  0  0  0  0
 12 31  1  0  0  0  0
 13 18  1  0  0  0  0
 13 14  1  0  0  0  0
 13 32  1  0  0  0  0
 14 15  1  0  0  0  0
 14 33  1  0  0  0  0
 14 34  1  0  0  0  0
 15 16  1  0  0  0  0
 15 35  1  0  0  0  0
 15 36  1  0  0  0  0
 16 17  1  0  0  0  0
 16 37  1  0  0  0  0
 16 38  1  0  0  0  0
 17 18  1  0  0  0  0
 18 39  1  0  0  0  0
 18 40  1  0  0  0  0
M  END
> <s_m_source_file>
AV-unprocessed.smi

> <i_m_source_file_index>
2457

> <i_lp_mmshare_version>
43012

> <i_f3d_flags>
0

> <s_epik_input>
W0NIM11jMVtjSF1zYyhuMSlbQ0BIXShbQ0gzXSlbQ0gyXVtOSF1DKD1PKVtOSF1bQ0BASF0yW0NIMl1bQ0gyXVtDSDJdU1tDSDJdMg==

> <s_epik_cmdline>
J2VwaWtfcHl0aG9uJywgJy1waCcsICc3LjAnLCAnLXRuJywgJzgnLCAnLW1hJywgJzIwMCcsICctbWV0YWxfYmluZGluZycsICctaW1hZScsICc8aW5maWxlLm1hZT4nLCAnLW9tYWUnLCAnPG91dGZpbGUubWFlPic=

> <r_epik_Ionization_Penalty>
0.00154805

> <r_epik_Ionization_Penalty_Charging>
0

> <r_epik_Ionization_Penalty_Neutral>
0.00154805

> <r_epik_State_Penalty>
0.00100357

> <r_epik_Charging_Adjusted_Penalty>
0.00100357

> <i_epik_Tot_Q>
0

> <i_epik_Tot_abs_Q>
0

> <r_epik_Metal_State_Penalty>
-0

> <b_epik_Metal_Only>
0

> <s_lp_Force_Field>
OPLS_2005

> <r_lp_Energy>
-7.39809

> <b_lp_Chiralities_Consistent>
1

> <s_lp_Variant>
AV-unprocessed.smi:2457-3

> <Gold.Version>
5.8.1

> <Gold.Id.Protein>
6NUR|6NUR_protein|mol2

> <Gold.PLP.Fitness>
43.7531

> <Gold.PLP.PLP>
-35.1349

> <Gold.PLP.part.hbond>
-3.0000

> <Gold.PLP.part.metal>
0.0000

> <Gold.PLP.part.buried>
-0.8579

> <Gold.PLP.part.nonpolar>
-31.2478

> <Gold.PLP.part.repulsive>
0.6566

> <Gold.PLP.ligand.clash>
0.0000

> <Gold.PLP.ligand.torsion>
0.2516

> <Gold.PLP.Chemscore.Hbond>
3.0000

> <Gold.PLP.Chemscore.CHOScore>
0.0000

> <Gold.PLP.Chemscore.Metal>
0.0000

> <Gold.Chemscore.Hbonds>
donor molecule, donor type, donor heavy atom, donor atom, acceptor molecule, acceptor atom, score
      L1  H     9    30       P1  7948  1.00
      L1  H    12    31       P1  7948  1.00
      P1  H  7989  7998       L1    19  1.00

> <Gold.PLP.Chemscore.Internal.Correction>
0.1214

> <Gold.Rescore>
     Score         DG    S(hbond)    S(metal)    S(lipo)     H(rot)  DE(clash)    DE(int)     intcor
     19.25     -21.29       2.81        0.00      86.97       1.46       0.79       1.26       ----

> <Gold.Chemscore.Fitness>
19.2475

> <Gold.Chemscore.DG>
-21.2924

> <Gold.Chemscore.ZeroCoef>
-5.4800

> <Gold.Chemscore.Hbond>
2.8081

> <Gold.Chemscore.Metal>
0.0000

> <Gold.Chemscore.Lipo>
86.9651

> <Gold.Chemscore.Internal_Hbond>
0.0000

> <Gold.Chemscore.DEClash>
0.7872

> <Gold.Chemscore.DEInternal>
1.2578

> <Gold.Chemscore.Rot>
1.4616

> <Gold.Chemscore.Internal.Correction>
   9.000000E+99

> <Gold.Chemscore.Hbonds>
donor molecule, donor type, donor heavy atom, donor atom, acceptor molecule, acceptor atom, score
      L1  H     9    30       P1  7948  0.94
      L1  H    12    31       P1  7948  0.98
      P1  H  7989  7998       L1    19  0.50

> <Gold.Chemscore.Hbond.Weighted>
-9.3791

> <Gold.Chemscore.Metal.Weighted>
-0.0000

> <Gold.Chemscore.Lipo.Weighted>
-10.1749

> <Gold.Chemscore.Internal_Hbond.Weighted>
0.0000

> <Gold.Chemscore.DEClash.Weighted>
0.7872

> <Gold.Chemscore.DEInternal.Weighted>
1.2578

> <Gold.Chemscore.Rot.Weighted>
3.7416

> <Gold.Chemscore.Internal.Correction.Weighted>
   9.000000E+99

> <Gold.Protein.RotatedTorsions>
[ 6907 6896 6895 6894 ] final  -59.18 input  -60.11 | X-H torsion
[ 7974 7965 7964 7962 ] final  162.09 input  175.53 | X-H torsion
[ 8008 7997 7996 7995 ] final -110.00 input   59.86 | X-H torsion
[ 10167 10162 10161 10158 ] final   70.92 input  -65.29 | X-H torsion
[ 10718 10713 10712 10709 ] final   89.44 input   66.30 | X-H torsion
[ 10763 10752 10751 10750 ] final  148.25 input  -60.55 | X-H torsion
[ 11005 11000 10999 10996 ] final -107.25 input  -57.11 | X-H torsion

> <Gold.Protein.ActiveResidues>
 VAL166  LYS551  ARG553  GLY616  TRP617  ASP618  TYR619  PRO620  LYS621  CYS622 
 ASP623  PHE694  ASN695  SER759  ASP760  ASP761  ALA762  ILE779  LEU786  VAL792 
 PHE793  MET794  SER795  GLU796  ALA797  LYS798  CYS799  TRP800  GLU811  SER814 

> <Gold.Protein.RotatedAtoms>
  150.7950  134.7002  159.6545 H   0  0  0  0  0  0  0  0  0  0  0  0  # atno 6907 bound_to 6896
  152.4061  134.6202  160.0058 H   0  0  0  0  0  0  0  0  0  0  0  0  # atno 6908 bound_to 6896
  151.6459  133.3286  159.3177 H   0  0  0  0  0  0  0  0  0  0  0  0  # atno 6909 bound_to 6896
  144.7653  139.7991  143.6317 H   0  0  0  0  0  0  0  0  0  0  0  0  # atno 7974 bound_to 7965
  154.9679  140.0398  157.2221 H   0  0  0  0  0  0  0  0  0  0  0  0  # atno 8008 bound_to 7997
  154.7828  140.2822  155.6028 H   0  0  0  0  0  0  0  0  0  0  0  0  # atno 8009 bound_to 7997
  156.2938  140.2588  156.2657 H   0  0  0  0  0  0  0  0  0  0  0  0  # atno 8010 bound_to 7997
  140.0517  144.5306  150.7358 H   0  0  0  0  0  0  0  0  0  0  0  0  # atno 10167 bound_to 10162
  157.6955  131.0333  150.3426 H   0  0  0  0  0  0  0  0  0  0  0  0  # atno 10718 bound_to 10713
  154.0516  135.2881  155.3339 H   0  0  0  0  0  0  0  0  0  0  0  0  # atno 10763 bound_to 10752
  154.6865  135.5243  153.8337 H   0  0  0  0  0  0  0  0  0  0  0  0  # atno 10764 bound_to 10752
  153.0558  135.6595  154.0712 H   0  0  0  0  0  0  0  0  0  0  0  0  # atno 10765 bound_to 10752
  141.0963  133.8964  157.1953 H   0  0  0  0  0  0  0  0  0  0  0  0  # atno 11005 bound_to 11000
  146.1755  139.4924  142.9900 LP  0  0  0  0  0  0  0  0  0  0  0  0  # atno 17320 bound_to 7965
  145.6489  141.0268  143.1771 LP  0  0  0  0  0  0  0  0  0  0  0  0  # atno 17321 bound_to 7965
  140.7214  143.2592  151.4267 LP  0  0  0  0  0  0  0  0  0  0  0  0  # atno 17342 bound_to 10162
  139.5949  144.1419  152.2132 LP  0  0  0  0  0  0  0  0  0  0  0  0  # atno 17343 bound_to 10162
  156.3884  130.3893  149.7048 LP  0  0  0  0  0  0  0  0  0  0  0  0  # atno 17370 bound_to 10713
  156.4406  130.7859  151.2880 LP  0  0  0  0  0  0  0  0  0  0  0  0  # atno 17371 bound_to 10713
  139.9801  135.0101  156.9729 LP  0  0  0  0  0  0  0  0  0  0  0  0  # atno 17394 bound_to 11000
  140.5131  134.0982  155.7274 LP  0  0  0  0  0  0  0  0  0  0  0  0  # atno 17395 bound_to 11000

$$$$
