#       Name:                AV-unprocessed.smi:1809
#       Creating user name   scv26
#       Creation time:       Fri Mar 27 08:58:02 2020


#       File generated by GOLD software.
#

@<TRIPOS>MOLECULE
AV-unprocessed.smi:1809
    46    48     1
SMALL
NO_CHARGES


@<TRIPOS>ATOM
      1 ****        -8.2585   1.8618   0.4666 C.3            1 S1                 0.0000
      2 ****        -6.8978   1.6299  -0.0950 C.2            1 S1                 0.0000
      3 ****        -6.6853   1.3622  -1.3858 N.2            1 S1                 0.0000
      4 ****        -5.3384   1.1840  -1.6677 N.2            1 S1                 0.0000
      5 ****        -4.5542   1.3090  -0.5876 C.2            1 S1                 0.0000
      6 ****        -3.2187   1.1765  -0.6464 N.pl3          1 S1                -1.0000
      7 ****        -2.6416   0.0004  -0.3125 C.2            1 S1                 0.0000
      8 ****        -3.2229  -1.0252   0.0491 O.2            1 S1                 0.0000
      9 ****        -1.3059   0.0135  -0.4004 N.am           1 S1                 0.0000
     10 ****        -0.4346  -1.1123  -0.0920 C.3            1 S1                 0.0000
     11 ****         1.0379  -0.6812  -0.1232 C.3            1 S1                 0.0000
     12 ****         1.9873  -1.8765   0.0888 C.3            1 S1                 0.0000
     13 ****         3.4006  -1.4490   0.2112 N.4            1 S1                 1.0000
     14 ****         4.1155  -1.1639  -1.0520 C.3            1 S1                 0.0000
     15 ****         5.1742  -0.1010  -0.7170 C.3            1 S1                 0.0000
     16 ****         5.0332   0.1605   0.7868 C.3            1 S1                 0.0000
     17 ****         3.6150  -0.3051   1.1208 C.3            1 S1                 0.0000
     18 ****         2.5638   0.8028   0.8876 C.3            1 S1                 0.0000
     19 ****         1.2556   0.2523   0.9293 O.3            1 S1                 0.0000
     20 ****        -5.4442   1.6845   0.8877 S.3            1 S1                 0.0000
     21 ****        -8.7920   0.9152   0.5528 H              1 S1                 0.0000
     22 ****        -8.8258   2.5284  -0.1836 H              1 S1                 0.0000
     23 ****        -8.1885   2.3159   1.4552 H              1 S1                 0.0000
     24 ****        -0.8661   0.8721  -0.6972 H              1 S1                 0.0000
     25 ****        -0.6864  -1.5223   0.8876 H              1 S1                 0.0000
     26 ****        -0.6103  -1.8996  -0.8266 H              1 S1                 0.0000
     27 ****         1.2437  -0.2079  -1.0851 H              1 S1                 0.0000
     28 ****         1.7169  -2.3914   1.0115 H              1 S1                 0.0000
     29 ****         1.8875  -2.6057  -0.7163 H              1 S1                 0.0000
     30 ****         4.5642  -2.0787  -1.4400 H              1 S1                 0.0000
     31 ****         3.4324  -0.7818  -1.8115 H              1 S1                 0.0000
     32 ****         6.1819  -0.4288  -0.9748 H              1 S1                 0.0000
     33 ****         4.9729   0.8120  -1.2788 H              1 S1                 0.0000
     34 ****         5.7537  -0.4531   1.3293 H              1 S1                 0.0000
     35 ****         5.2190   1.2008   1.0569 H              1 S1                 0.0000
     36 ****         3.5486  -0.6484   2.1540 H              1 S1                 0.0000
     37 ****         2.6493   1.5662   1.6612 H              1 S1                 0.0000
     38 ****         2.7180   1.3084  -0.0671 H              1 S1                 0.0000
     39 ****         3.9013  -2.2236   0.6229 H              1 S1                 0.0000
     40 ****        -7.4121   1.2976  -2.0696 LP             1 S1                 0.0000
     41 ****        -4.9886   0.9829  -2.5827 LP             1 S1                 0.0000
     42 ****        -2.6518   1.9473  -0.9369 LP             1 S1                 0.0000
     43 ****        -4.2205  -1.0368   0.1176 LP             1 S1                 0.0000
     44 ****        -2.6968  -1.8453   0.2739 LP             1 S1                 0.0000
     45 ****         1.1285  -0.2130   1.8054 LP             1 S1                 0.0000
     46 ****         0.5900   0.9940   0.8462 LP             1 S1                 0.0000
@<TRIPOS>BOND
    1    1    2 1     
    2    1   21 1     
    3    1   22 1     
    4    1   23 1     
    5    2   20 1     
    6    2    3 2     
    7    3    4 1     
    8    4    5 2     
    9    5    6 1     
   10    5   20 1     
   11    6    7 1     
   12    7    8 2     
   13    7    9 am    
   14    9   10 1     
   15    9   24 1     
   16   10   11 1     
   17   10   25 1     
   18   10   26 1     
   19   11   19 1     
   20   11   12 1     
   21   11   27 1     
   22   12   13 1     
   23   12   28 1     
   24   12   29 1     
   25   13   17 1     
   26   13   14 1     
   27   13   39 1     
   28   14   15 1     
   29   14   30 1     
   30   14   31 1     
   31   15   16 1     
   32   15   32 1     
   33   15   33 1     
   34   16   17 1     
   35   16   34 1     
   36   16   35 1     
   37   17   18 1     
   38   17   36 1     
   39   18   19 1     
   40   18   37 1     
   41   18   38 1     
   42    3   40 1     
   43    4   41 1     
   44    6   42 1     
   45    8   43 1     
   46    8   44 1     
   47   19   45 1     
   48   19   46 1     
@<TRIPOS>SUBSTRUCTURE
      1 S1             1
@<TRIPOS>SET
LONE_PAIRS      STATIC     ATOMS    <user>   **** ""
7 40 41 42 43 44 45 46
DONOR_HYDROGENS      STATIC     ATOMS    <user>   **** ""
2 24 39
ATOM$BLUE        STATIC     ATOMS    COLORGROUP SYSTEM
7 40 41 42 43 44 45 46
ATOM$RED        STATIC     ATOMS    COLORGROUP SYSTEM
2 24 39
