AV-unprocessed.smi:1809|AV-procd|sdf|7317|dock5
  -GOLD-   22720 8573D 1   1.00000     0.00000
 Structure written by MMmdl.
 39 41  0  0  0  0  0  0  0  0  1 V2000
  158.3279  136.9395  154.4848 C   0  0  0  0  0  0  0  0  0  0  0  0
  157.2322  137.0771  155.4860 C   0  0  0  0  0  0  0  0  0  0  0  0
  156.1082  136.3519  155.4330 N   0  0  0  0  0  0  0  0  0  0  0  0
  155.2360  136.6570  156.4686 N   0  0  0  0  0  0  0  0  0  0  0  0
  155.7291  137.6080  157.2739 C   0  0  0  0  0  0  0  0  0  0  0  0
  155.0458  138.1117  158.4121 N   0  0  0  0  0  0  0  0  0  0  0  0
  155.3234  139.2137  159.1307 C   0  0  0  0  0  0  0  0  0  0  0  0
  156.2492  139.9943  158.9079 O   0  0  0  0  0  0  0  0  0  0  0  0
  154.4517  139.3666  160.1380 N   0  0  0  0  0  0  0  0  0  0  0  0
  154.4712  140.4560  161.1085 C   0  0  0  0  0  0  0  0  0  0  0  0
  153.3058  141.4355  160.8910 C   0  0  2  0  0  0  0  0  0  0  0  0
  153.4517  142.2031  159.5568 C   0  0  0  0  0  0  0  0  0  0  0  0
  152.4066  143.2017  159.4407 N   0  0  0  0  0  0  0  0  0  0  0  0
  152.4520  144.0622  158.2814 C   0  0  0  0  0  0  0  0  0  0  0  0
  151.5239  145.2355  158.6425 C   0  0  0  0  0  0  0  0  0  0  0  0
  151.4287  145.1917  160.1840 C   0  0  0  0  0  0  0  0  0  0  0  0
  152.4461  144.1110  160.5537 C   0  0  1  0  0  0  0  0  0  0  0  0
  152.2414  143.3582  161.8755 C   0  0  0  0  0  0  0  0  0  0  0  0
  153.2677  142.3686  161.9789 O   0  0  0  0  0  0  0  0  0  0  0  0
  157.3148  138.2139  156.8264 S   0  0  0  0  0  0  0  0  0  0  0  0
  158.3257  135.9390  154.0512 H   0  0  0  0  0  0  0  0  0  0  0  0
  159.2942  137.1109  154.9592 H   0  0  0  0  0  0  0  0  0  0  0  0
  158.1949  137.6689  153.6858 H   0  0  0  0  0  0  0  0  0  0  0  0
  154.2493  137.5700  158.7129 H   0  0  0  0  0  0  0  0  0  0  0  0
  153.7236  138.6762  160.2468 H   0  0  0  0  0  0  0  0  0  0  0  0
  154.4647  140.0716  162.1301 H   0  0  0  0  0  0  0  0  0  0  0  0
  155.4180  140.9827  160.9865 H   0  0  0  0  0  0  0  0  0  0  0  0
  152.3671  140.8782  160.8787 H   0  0  0  0  0  0  0  0  0  0  0  0
  154.4307  142.6826  159.5119 H   0  0  0  0  0  0  0  0  0  0  0  0
  153.3982  141.5110  158.7158 H   0  0  0  0  0  0  0  0  0  0  0  0
  153.4677  144.4284  158.1238 H   0  0  0  0  0  0  0  0  0  0  0  0
  152.1367  143.5384  157.3787 H   0  0  0  0  0  0  0  0  0  0  0  0
  151.9315  146.1813  158.2844 H   0  0  0  0  0  0  0  0  0  0  0  0
  150.5369  145.1055  158.1972 H   0  0  0  0  0  0  0  0  0  0  0  0
  151.6597  146.1507  160.6485 H   0  0  0  0  0  0  0  0  0  0  0  0
  150.4235  144.8985  160.4903 H   0  0  0  0  0  0  0  0  0  0  0  0
  153.4303  144.5839  160.5871 H   0  0  0  0  0  0  0  0  0  0  0  0
  152.3096  144.0400  162.7233 H   0  0  0  0  0  0  0  0  0  0  0  0
  151.2597  142.8838  161.9135 H   0  0  0  0  0  0  0  0  0  0  0  0
  1  2  1  0  0  0  0
  1 21  1  0  0  0  0
  1 22  1  0  0  0  0
  1 23  1  0  0  0  0
  2 20  1  0  0  0  0
  2  3  2  0  0  0  0
  3  4  1  0  0  0  0
  4  5  2  0  0  0  0
  5  6  1  0  0  0  0
  5 20  1  0  0  0  0
  6  7  1  0  0  0  0
  6 24  1  0  0  0  0
  7  8  2  0  0  0  0
  7  9  1  0  0  0  0
  9 10  1  0  0  0  0
  9 25  1  0  0  0  0
 10 11  1  0  0  0  0
 10 26  1  0  0  0  0
 10 27  1  0  0  0  0
 11 19  1  0  0  0  0
 11 12  1  0  0  0  0
 11 28  1  0  0  0  0
 12 13  1  0  0  0  0
 12 29  1  0  0  0  0
 12 30  1  0  0  0  0
 13 17  1  0  0  0  0
 13 14  1  0  0  0  0
 14 15  1  0  0  0  0
 14 31  1  0  0  0  0
 14 32  1  0  0  0  0
 15 16  1  0  0  0  0
 15 33  1  0  0  0  0
 15 34  1  0  0  0  0
 16 17  1  0  0  0  0
 16 35  1  0  0  0  0
 16 36  1  0  0  0  0
 17 18  1  0  0  0  0
 17 37  1  0  0  0  0
 18 19  1  0  0  0  0
 18 38  1  0  0  0  0
 18 39  1  0  0  0  0
M  END
> <s_m_source_file>
AV-unprocessed.smi

> <i_m_source_file_index>
1809

> <i_lp_mmshare_version>
43012

> <i_f3d_flags>
0

> <s_epik_input>
W0NIM11jMW5uYyhzMSlbTkhdQyg9TylbTkhdW0NIMl1bQ0BIXShbQ0gyXTIpT1tDSDJdW0NAQEhdKE4yMylbQ0gyXVtDSDJdW0NIMl0z

> <s_epik_cmdline>
J2VwaWtfcHl0aG9uJywgJy1waCcsICc3LjAnLCAnLXRuJywgJzgnLCAnLW1hJywgJzIwMCcsICctbWV0YWxfYmluZGluZycsICctaW1hZScsICc8aW5maWxlLm1hZT4nLCAnLW9tYWUnLCAnPG91dGZpbGUubWFlPic=

> <r_lp_tautomer_probability>
1

> <r_epik_Ionization_Penalty>
1.05954

> <r_epik_Ionization_Penalty_Charging>
0

> <r_epik_Ionization_Penalty_Neutral>
1.05954

> <r_epik_State_Penalty>
1.4238

> <r_epik_Charging_Adjusted_Penalty>
1.4238

> <i_epik_Tot_Q>
0

> <i_epik_Tot_abs_Q>
0

> <r_epik_Metal_State_Penalty>
1.7901

> <b_epik_Metal_Only>
0

> <s_lp_Force_Field>
OPLS_2005

> <r_lp_Energy>
46.8482

> <b_lp_Chiralities_Consistent>
1

> <s_lp_Variant>
AV-unprocessed.smi:1809-9

> <Gold.Version>
5.8.1

> <Gold.Id.Protein>
6NUR|6NUR_protein|mol2

> <Gold.PLP.Fitness>
44.1601

> <Gold.PLP.PLP>
-38.4123

> <Gold.PLP.part.hbond>
-2.8883

> <Gold.PLP.part.metal>
0.0000

> <Gold.PLP.part.buried>
-5.4815

> <Gold.PLP.part.nonpolar>
-30.4231

> <Gold.PLP.part.repulsive>
0.1856

> <Gold.PLP.ligand.clash>
0.0000

> <Gold.PLP.ligand.torsion>
0.1267

> <Gold.PLP.Chemscore.Hbond>
2.0000

> <Gold.PLP.Chemscore.CHOScore>
0.0000

> <Gold.PLP.Chemscore.Metal>
0.0000

> <Gold.Chemscore.Hbonds>
donor molecule, donor type, donor heavy atom, donor atom, acceptor molecule, acceptor atom, score
      P1  H  7997  8009       L1     8  0.55
      P1  H 10752 10763       L1     3  0.20

> <Gold.PLP.Chemscore.Internal.Correction>
0.0012

> <Gold.Rescore>
     Score         DG    S(hbond)    S(metal)    S(lipo)     H(rot)  DE(clash)    DE(int)     intcor
     18.54     -20.19       1.72        0.00     105.55       1.32       0.23       1.42       ----

> <Gold.Chemscore.Fitness>
18.5448

> <Gold.Chemscore.DG>
-20.1927

> <Gold.Chemscore.ZeroCoef>
-5.4800

> <Gold.Chemscore.Hbond>
1.7190

> <Gold.Chemscore.Metal>
0.0000

> <Gold.Chemscore.Lipo>
105.5512

> <Gold.Chemscore.Internal_Hbond>
0.0000

> <Gold.Chemscore.DEClash>
0.2261

> <Gold.Chemscore.DEInternal>
1.4218

> <Gold.Chemscore.Rot>
1.3196

> <Gold.Chemscore.Internal.Correction>
   9.000000E+99

> <Gold.Chemscore.Hbonds>
donor molecule, donor type, donor heavy atom, donor atom, acceptor molecule, acceptor atom, score
      P1  H  7997  8009       L1     8  0.03

> <Gold.Chemscore.Hbond.Weighted>
-5.7415

> <Gold.Chemscore.Metal.Weighted>
-0.0000

> <Gold.Chemscore.Lipo.Weighted>
-12.3495

> <Gold.Chemscore.Internal_Hbond.Weighted>
0.0000

> <Gold.Chemscore.DEClash.Weighted>
0.2261

> <Gold.Chemscore.DEInternal.Weighted>
1.4218

> <Gold.Chemscore.Rot.Weighted>
3.3783

> <Gold.Chemscore.Internal.Correction.Weighted>
   9.000000E+99

> <Gold.Protein.RotatedTorsions>
[ 6907 6896 6895 6894 ] final  -93.05 input  -60.11 | X-H torsion
[ 7974 7965 7964 7962 ] final   11.79 input  175.53 | X-H torsion
[ 8008 7997 7996 7995 ] final   78.78 input   59.86 | X-H torsion
[ 10167 10162 10161 10158 ] final   16.54 input  -65.29 | X-H torsion
[ 10718 10713 10712 10709 ] final  -90.52 input   66.30 | X-H torsion
[ 10763 10752 10751 10750 ] final -159.02 input  -60.55 | X-H torsion
[ 11005 11000 10999 10996 ] final  -40.01 input  -57.11 | X-H torsion

> <Gold.Protein.ActiveResidues>
 VAL166  LYS551  ARG553  GLY616  TRP617  ASP618  TYR619  PRO620  LYS621  CYS622 
 ASP623  PHE694  ASN695  SER759  ASP760  ASP761  ALA762  ILE779  LEU786  VAL792 
 PHE793  MET794  SER795  GLU796  ALA797  LYS798  CYS799  TRP800  GLU811  SER814 

> <Gold.Protein.RotatedAtoms>
  150.6916  134.2028  159.4328 H   0  0  0  0  0  0  0  0  0  0  0  0  # atno 6907 bound_to 6896
  151.9993  134.9934  160.0574 H   0  0  0  0  0  0  0  0  0  0  0  0  # atno 6908 bound_to 6896
  152.1594  133.4537  159.4890 H   0  0  0  0  0  0  0  0  0  0  0  0  # atno 6909 bound_to 6896
  146.2364  139.9433  142.8480 H   0  0  0  0  0  0  0  0  0  0  0  0  # atno 7974 bound_to 7965
  155.8605  140.3454  155.5753 H   0  0  0  0  0  0  0  0  0  0  0  0  # atno 8008 bound_to 7997
  155.7938  140.0875  157.2014 H   0  0  0  0  0  0  0  0  0  0  0  0  # atno 8009 bound_to 7997
  154.4011  140.1478  156.3181 H   0  0  0  0  0  0  0  0  0  0  0  0  # atno 8010 bound_to 7997
  140.5790  143.9018  150.6773 H   0  0  0  0  0  0  0  0  0  0  0  0  # atno 10167 bound_to 10162
  155.9988  130.4913  150.5335 H   0  0  0  0  0  0  0  0  0  0  0  0  # atno 10718 bound_to 10713
  154.7509  135.3092  154.8560 H   0  0  0  0  0  0  0  0  0  0  0  0  # atno 10763 bound_to 10752
  153.9347  135.6781  153.4749 H   0  0  0  0  0  0  0  0  0  0  0  0  # atno 10764 bound_to 10752
  153.1105  135.4869  154.8954 H   0  0  0  0  0  0  0  0  0  0  0  0  # atno 10765 bound_to 10752
  141.0144  133.6892  156.2264 H   0  0  0  0  0  0  0  0  0  0  0  0  # atno 11005 bound_to 11000
  145.1931  140.9821  143.4199 LP  0  0  0  0  0  0  0  0  0  0  0  0  # atno 17320 bound_to 7965
  144.9839  139.3755  143.6248 LP  0  0  0  0  0  0  0  0  0  0  0  0  # atno 17321 bound_to 7965
  140.2512  143.3592  152.1404 LP  0  0  0  0  0  0  0  0  0  0  0  0  # atno 17342 bound_to 10162
  139.5159  144.6969  151.5604 LP  0  0  0  0  0  0  0  0  0  0  0  0  # atno 17343 bound_to 10162
  157.3281  131.0694  151.1881 LP  0  0  0  0  0  0  0  0  0  0  0  0  # atno 17370 bound_to 10713
  157.2772  130.6732  149.6048 LP  0  0  0  0  0  0  0  0  0  0  0  0  # atno 17371 bound_to 10713
  140.6680  134.4898  157.5586 LP  0  0  0  0  0  0  0  0  0  0  0  0  # atno 17394 bound_to 11000
  139.9108  134.8349  156.1535 LP  0  0  0  0  0  0  0  0  0  0  0  0  # atno 17395 bound_to 11000

$$$$
