AV-unprocessed.smi:2846|AV-procd|sdf|10952|dock1
  -GOLD-   2272015403D 1   1.00000     0.00000
 Structure written by MMmdl.
 49 51  0  0  0  0  0  0  0  0  2 V2000
  151.9333  138.8331  159.1035 O   0  0  0  0  0  0  0  0  0  0  0  0
  151.8289  140.0253  158.8141 C   0  0  0  0  0  0  0  0  0  0  0  0
  152.8643  141.0423  159.3003 C   0  0  0  0  0  0  0  0  0  0  0  0
  152.4423  142.5022  159.2642 C   0  0  0  0  0  0  0  0  0  0  0  0
  152.2614  143.1674  158.1065 C   0  0  0  0  0  0  0  0  0  0  0  0
  151.8292  144.6202  158.0176 C   0  0  0  0  0  0  0  0  0  0  0  0
  151.2810  145.1491  159.3537 C   0  0  0  0  0  0  0  0  0  0  0  0
  152.1601  144.7034  160.5290 C   0  0  0  0  0  0  0  0  0  0  0  0
  152.2446  143.1689  160.6201 C   0  0  0  0  0  0  0  0  0  0  0  0
  150.8308  140.5163  158.0640 N   0  0  0  0  0  0  0  0  0  0  0  0
  149.7343  139.7352  157.4935 C   0  0  0  0  0  0  0  0  0  0  0  0
  149.8234  139.5791  155.9488 C   0  0  0  0  0  0  0  0  0  0  0  0
  148.4978  140.0116  155.3020 C   0  0  0  0  0  0  0  0  0  0  0  0
  148.3214  139.9121  153.9003 C   0  0  0  0  0  0  0  0  0  0  0  0
  147.0950  140.2946  153.3202 C   0  0  0  0  0  0  0  0  0  0  0  0
  146.0924  140.7452  154.1035 N   0  3  0  0  0  0  0  0  0  0  0  0
  146.2049  140.8467  155.4446 C   0  0  0  0  0  0  0  0  0  0  0  0
  147.4085  140.4791  156.0793 C   0  0  0  0  0  0  0  0  0  0  0  0
  151.0490  140.3192  155.3654 C   0  0  0  0  0  0  0  0  0  0  0  0
  152.2618  139.4256  155.6380 C   0  0  0  0  0  0  0  0  0  0  0  0
  151.7112  137.9989  155.7325 C   0  0  0  0  0  0  0  0  0  0  0  0
  150.1881  138.1216  155.5940 C   0  0  0  0  0  0  0  0  0  0  0  0
  153.1132  140.7826  160.3302 H   0  0  0  0  0  0  0  0  0  0  0  0
  153.7865  140.9260  158.7294 H   0  0  0  0  0  0  0  0  0  0  0  0
  152.4373  142.6651  157.1665 H   0  0  0  0  0  0  0  0  0  0  0  0
  152.6915  145.2092  157.7037 H   0  0  0  0  0  0  0  0  0  0  0  0
  151.0730  144.7243  157.2391 H   0  0  0  0  0  0  0  0  0  0  0  0
  151.2091  146.2366  159.3232 H   0  0  0  0  0  0  0  0  0  0  0  0
  150.2670  144.7764  159.5046 H   0  0  0  0  0  0  0  0  0  0  0  0
  153.1622  145.1148  160.4010 H   0  0  0  0  0  0  0  0  0  0  0  0
  151.7773  145.1107  161.4652 H   0  0  0  0  0  0  0  0  0  0  0  0
  151.3307  142.7700  161.0613 H   0  0  0  0  0  0  0  0  0  0  0  0
  153.0632  142.8910  161.2851 H   0  0  0  0  0  0  0  0  0  0  0  0
  150.8244  141.5094  157.8815 H   0  0  0  0  0  0  0  0  0  0  0  0
  149.6564  138.7650  157.9862 H   0  0  0  0  0  0  0  0  0  0  0  0
  148.8143  140.2624  157.7486 H   0  0  0  0  0  0  0  0  0  0  0  0
  149.1145  139.5426  153.2673 H   0  0  0  0  0  0  0  0  0  0  0  0
  146.8865  140.2500  152.2613 H   0  0  0  0  0  0  0  0  0  0  0  0
  145.3332  141.2128  155.9671 H   0  0  0  0  0  0  0  0  0  0  0  0
  147.4785  140.5544  157.1543 H   0  0  0  0  0  0  0  0  0  0  0  0
  150.9423  140.4012  154.2823 H   0  0  0  0  0  0  0  0  0  0  0  0
  151.1808  141.3318  155.7452 H   0  0  0  0  0  0  0  0  0  0  0  0
  153.0186  139.5246  154.8593 H   0  0  0  0  0  0  0  0  0  0  0  0
  152.7283  139.7059  156.5834 H   0  0  0  0  0  0  0  0  0  0  0  0
  152.1267  137.3517  154.9592 H   0  0  0  0  0  0  0  0  0  0  0  0
  151.9730  137.5629  156.6973 H   0  0  0  0  0  0  0  0  0  0  0  0
  149.6559  137.3827  156.1941 H   0  0  0  0  0  0  0  0  0  0  0  0
  149.9321  137.9279  154.5508 H   0  0  0  0  0  0  0  0  0  0  0  0
  145.2120  141.0156  153.6642 H   0  0  0  0  0  0  0  0  0  0  0  0
  1  2  2  0  0  0  0
  2  3  1  0  0  0  0
  2 10  1  0  0  0  0
  3  4  1  0  0  0  0
  3 23  1  0  0  0  0
  3 24  1  0  0  0  0
  4  9  1  0  0  0  0
  4  5  2  0  0  0  0
  5  6  1  0  0  0  0
  5 25  1  0  0  0  0
  6  7  1  0  0  0  0
  6 26  1  0  0  0  0
  6 27  1  0  0  0  0
  7  8  1  0  0  0  0
  7 28  1  0  0  0  0
  7 29  1  0  0  0  0
  8  9  1  0  0  0  0
  8 30  1  0  0  0  0
  8 31  1  0  0  0  0
  9 32  1  0  0  0  0
  9 33  1  0  0  0  0
 10 11  1  0  0  0  0
 10 34  1  0  0  0  0
 11 12  1  0  0  0  0
 11 35  1  0  0  0  0
 11 36  1  0  0  0  0
 12 22  1  0  0  0  0
 12 13  1  0  0  0  0
 12 19  1  0  0  0  0
 13 18  1  0  0  0  0
 13 14  2  0  0  0  0
 14 15  1  0  0  0  0
 14 37  1  0  0  0  0
 15 16  2  0  0  0  0
 15 38  1  0  0  0  0
 16 17  1  0  0  0  0
 16 49  1  0  0  0  0
 17 18  2  0  0  0  0
 17 39  1  0  0  0  0
 18 40  1  0  0  0  0
 19 20  1  0  0  0  0
 19 41  1  0  0  0  0
 19 42  1  0  0  0  0
 20 21  1  0  0  0  0
 20 43  1  0  0  0  0
 20 44  1  0  0  0  0
 21 22  1  0  0  0  0
 21 45  1  0  0  0  0
 21 46  1  0  0  0  0
 22 47  1  0  0  0  0
 22 48  1  0  0  0  0
M  CHG  1  16   1
M  END
> <s_m_source_file>
AV-unprocessed.smi

> <i_m_source_file_index>
2846

> <i_lp_mmshare_version>
43012

> <i_f3d_flags>
0

> <s_epik_input>
W0NIMl0xW0NIMl1bQ0gyXVtDSDJdW0NIXT1DMVtDSDJdQyg9TylbTkhdW0NIMl1DMihbQ0gyXVtDSDJdW0NIMl1bQ0gyXTIpYzNbY0hdW2NIXW5bY0hdW2NIXTM=

> <s_epik_cmdline>
J2VwaWtfcHl0aG9uJywgJy1waCcsICc3LjAnLCAnLXRuJywgJzgnLCAnLW1hJywgJzIwMCcsICctbWV0YWxfYmluZGluZycsICctaW1hZScsICc8aW5maWxlLm1hZT4nLCAnLW9tYWUnLCAnPG91dGZpbGUubWFlPic=

> <r_epik_Ionization_Penalty>
1.37043

> <r_epik_Ionization_Penalty_Charging>
1.37043

> <r_epik_Ionization_Penalty_Neutral>
1.66368e-08

> <r_epik_State_Penalty>
1.45009

> <r_epik_Charging_Adjusted_Penalty>
2.82052

> <i_epik_Tot_Q>
1

> <i_epik_Tot_abs_Q>
1

> <r_epik_Metal_State_Penalty>
1.50668

> <b_epik_Metal_Only>
0

> <s_lp_Force_Field>
OPLS_2005

> <r_lp_Energy>
37.4584

> <b_lp_Chiralities_Consistent>
1

> <s_lp_Variant>
AV-unprocessed.smi:2846-2

> <Gold.Version>
5.8.1

> <Gold.Id.Protein>
6NUR|6NUR_protein|mol2

> <Gold.PLP.Fitness>
42.2143

> <Gold.PLP.PLP>
-40.3842

> <Gold.PLP.part.hbond>
-1.0000

> <Gold.PLP.part.metal>
0.0000

> <Gold.PLP.part.buried>
-2.1520

> <Gold.PLP.part.nonpolar>
-37.7401

> <Gold.PLP.part.repulsive>
0.1159

> <Gold.PLP.ligand.clash>
1.2802

> <Gold.PLP.ligand.torsion>
1.4950

> <Gold.PLP.Chemscore.Hbond>
1.9520

> <Gold.PLP.Chemscore.CHOScore>
0.0000

> <Gold.PLP.Chemscore.Metal>
0.0000

> <Gold.Chemscore.Hbonds>
donor molecule, donor type, donor heavy atom, donor atom, acceptor molecule, acceptor atom, score
      L1  H    16    49       P1 10175  1.92

> <Gold.PLP.Chemscore.Internal.Correction>
0.2444

> <Gold.Rescore>
     Score         DG    S(hbond)    S(metal)    S(lipo)     H(rot)  DE(clash)    DE(int)     intcor
     15.80     -20.34       0.98        0.00     131.06       1.46       0.93       3.61       ----

> <Gold.Chemscore.Fitness>
15.8041

> <Gold.Chemscore.DG>
-20.3380

> <Gold.Chemscore.ZeroCoef>
-5.4800

> <Gold.Chemscore.Hbond>
0.9783

> <Gold.Chemscore.Metal>
0.0000

> <Gold.Chemscore.Lipo>
131.0647

> <Gold.Chemscore.Internal_Hbond>
0.0000

> <Gold.Chemscore.DEClash>
0.9258

> <Gold.Chemscore.DEInternal>
3.6081

> <Gold.Chemscore.Rot>
1.4625

> <Gold.Chemscore.Internal.Correction>
   9.000000E+99

> <Gold.Chemscore.Hbonds>
donor molecule, donor type, donor heavy atom, donor atom, acceptor molecule, acceptor atom, score
      L1  H    16    49       P1 10175  0.62

> <Gold.Chemscore.Hbond.Weighted>
-3.2675

> <Gold.Chemscore.Metal.Weighted>
-0.0000

> <Gold.Chemscore.Lipo.Weighted>
-15.3346

> <Gold.Chemscore.Internal_Hbond.Weighted>
0.0000

> <Gold.Chemscore.DEClash.Weighted>
0.9258

> <Gold.Chemscore.DEInternal.Weighted>
3.6081

> <Gold.Chemscore.Rot.Weighted>
3.7441

> <Gold.Chemscore.Internal.Correction.Weighted>
   9.000000E+99

> <Gold.Protein.RotatedTorsions>
[ 6907 6896 6895 6894 ] final  -11.95 input  -60.11 | X-H torsion
[ 7974 7965 7964 7962 ] final  -81.45 input  175.53 | X-H torsion
[ 8008 7997 7996 7995 ] final   47.23 input   59.86 | X-H torsion
[ 10167 10162 10161 10158 ] final   46.88 input  -65.29 | X-H torsion
[ 10718 10713 10712 10709 ] final  168.24 input   66.30 | X-H torsion
[ 10763 10752 10751 10750 ] final  -26.40 input  -60.55 | X-H torsion
[ 11005 11000 10999 10996 ] final   32.96 input  -57.11 | X-H torsion

> <Gold.Protein.ActiveResidues>
 VAL166  LYS551  ARG553  GLY616  TRP617  ASP618  TYR619  PRO620  LYS621  CYS622 
 ASP623  PHE694  ASN695  SER759  ASP760  ASP761  ALA762  ILE779  LEU786  VAL792 
 PHE793  MET794  SER795  GLU796  ALA797  LYS798  CYS799  TRP800  GLU811  SER814 

> <Gold.Protein.RotatedAtoms>
  151.3781  135.0935  159.9487 H   0  0  0  0  0  0  0  0  0  0  0  0  # atno 6907 bound_to 6896
  152.5116  133.9098  159.7493 H   0  0  0  0  0  0  0  0  0  0  0  0  # atno 6908 bound_to 6896
  150.9526  133.6477  159.2798 H   0  0  0  0  0  0  0  0  0  0  0  0  # atno 6909 bound_to 6896
  145.5465  140.9502  143.1523 H   0  0  0  0  0  0  0  0  0  0  0  0  # atno 7974 bound_to 7965
  155.3656  140.3421  155.4242 H   0  0  0  0  0  0  0  0  0  0  0  0  # atno 8008 bound_to 7997
  156.1690  140.1625  156.8515 H   0  0  0  0  0  0  0  0  0  0  0  0  # atno 8009 bound_to 7997
  154.5214  140.0766  156.8161 H   0  0  0  0  0  0  0  0  0  0  0  0  # atno 8010 bound_to 7997
  140.3094  144.2839  150.6203 H   0  0  0  0  0  0  0  0  0  0  0  0  # atno 10167 bound_to 10162
  157.0400  131.0284  151.2716 H   0  0  0  0  0  0  0  0  0  0  0  0  # atno 10718 bound_to 10713
  153.7154  135.6948  153.5026 H   0  0  0  0  0  0  0  0  0  0  0  0  # atno 10763 bound_to 10752
  153.2242  135.4359  155.0522 H   0  0  0  0  0  0  0  0  0  0  0  0  # atno 10764 bound_to 10752
  154.8301  135.3468  154.6689 H   0  0  0  0  0  0  0  0  0  0  0  0  # atno 10765 bound_to 10752
  140.2681  134.3114  155.7836 H   0  0  0  0  0  0  0  0  0  0  0  0  # atno 11005 bound_to 11000
  144.7551  139.7095  143.7257 LP  0  0  0  0  0  0  0  0  0  0  0  0  # atno 17320 bound_to 7965
  146.1946  139.5205  142.9783 LP  0  0  0  0  0  0  0  0  0  0  0  0  # atno 17321 bound_to 7965
  140.5581  143.2196  151.7812 LP  0  0  0  0  0  0  0  0  0  0  0  0  # atno 17342 bound_to 10162
  139.4897  144.4385  151.9791 LP  0  0  0  0  0  0  0  0  0  0  0  0  # atno 17343 bound_to 10162
  157.5112  130.7939  149.7707 LP  0  0  0  0  0  0  0  0  0  0  0  0  # atno 17370 bound_to 10713
  156.0041  130.3864  150.2495 LP  0  0  0  0  0  0  0  0  0  0  0  0  # atno 17371 bound_to 10713
  141.2181  133.7450  156.9291 LP  0  0  0  0  0  0  0  0  0  0  0  0  # atno 17394 bound_to 11000
  140.1400  134.9300  157.2453 LP  0  0  0  0  0  0  0  0  0  0  0  0  # atno 17395 bound_to 11000

$$$$
