AV-unprocessed.smi:2599|AV-procd|sdf|10180|dock4
  -GOLD-   2272014193D 1   1.00000     0.00000
 Structure written by MMmdl.
 40 41  0  0  0  0  0  0  0  0  1 V2000
  141.5387  144.1870  161.0458 C   0  0  0  0  0  0  0  0  0  0  0  0
  142.6733  143.8716  161.8453 O   0  0  0  0  0  0  0  0  0  0  0  0
  143.9263  144.0256  161.2887 C   0  0  0  0  0  0  0  0  0  0  0  0
  145.0578  143.6951  162.0537 C   0  0  0  0  0  0  0  0  0  0  0  0
  146.3196  143.8687  161.4608 C   0  0  0  0  0  0  0  0  0  0  0  0
  146.3744  144.3533  160.1309 C   0  0  0  0  0  0  0  0  0  0  0  0
  147.6191  144.5859  159.4883 N   0  0  0  0  0  0  0  0  0  0  0  0
  148.8587  144.4152  159.9795 C   0  0  0  0  0  0  0  0  0  0  0  0
  149.1236  143.9761  161.0988 O   0  0  0  0  0  0  0  0  0  0  0  0
  149.7874  144.7756  159.0810 N   0  0  0  0  0  0  0  0  0  0  0  0
  151.2366  144.7444  159.2815 C   0  0  1  0  0  0  0  0  0  0  0  0
  151.5999  145.8097  160.3304 C   0  0  0  0  0  0  0  0  0  0  0  0
  151.6947  143.3136  159.6701 C   0  0  0  0  0  0  0  0  0  0  0  0
  153.2205  143.2131  159.8718 C   0  0  0  0  0  0  0  0  0  0  0  0
  153.6519  141.7684  160.1728 C   0  0  0  0  0  0  0  0  0  0  0  0
  153.2266  140.9039  159.1270 O   0  0  0  0  0  0  0  0  0  0  0  0
  151.8117  140.8634  158.9920 C   0  0  0  0  0  0  0  0  0  0  0  0
  151.2791  142.2569  158.6234 C   0  0  0  0  0  0  0  0  0  0  0  0
  145.2374  144.6643  159.4636 N   0  0  0  0  0  0  0  0  0  0  0  0
  144.0341  144.4994  160.0221 N   0  0  0  0  0  0  0  0  0  0  0  0
  140.6308  144.0281  161.6274 H   0  0  0  0  0  0  0  0  0  0  0  0
  141.4828  143.5474  160.1638 H   0  0  0  0  0  0  0  0  0  0  0  0
  141.5503  145.2316  160.7310 H   0  0  0  0  0  0  0  0  0  0  0  0
  144.9617  143.3284  163.0647 H   0  0  0  0  0  0  0  0  0  0  0  0
  147.2077  143.6467  162.0323 H   0  0  0  0  0  0  0  0  0  0  0  0
  147.5586  144.8457  158.5148 H   0  0  0  0  0  0  0  0  0  0  0  0
  149.4670  145.1165  158.1866 H   0  0  0  0  0  0  0  0  0  0  0  0
  151.7426  145.0139  158.3528 H   0  0  0  0  0  0  0  0  0  0  0  0
  152.6784  145.9293  160.4285 H   0  0  0  0  0  0  0  0  0  0  0  0
  151.1989  145.5560  161.3121 H   0  0  0  0  0  0  0  0  0  0  0  0
  151.1998  146.7849  160.0506 H   0  0  0  0  0  0  0  0  0  0  0  0
  151.2159  143.0497  160.6147 H   0  0  0  0  0  0  0  0  0  0  0  0
  153.7360  143.5653  158.9773 H   0  0  0  0  0  0  0  0  0  0  0  0
  153.5451  143.8524  160.6922 H   0  0  0  0  0  0  0  0  0  0  0  0
  154.7376  141.7119  160.2538 H   0  0  0  0  0  0  0  0  0  0  0  0
  153.2443  141.4312  161.1271 H   0  0  0  0  0  0  0  0  0  0  0  0
  151.5540  140.1467  158.2122 H   0  0  0  0  0  0  0  0  0  0  0  0
  151.3565  140.5038  159.9161 H   0  0  0  0  0  0  0  0  0  0  0  0
  150.1941  142.2059  158.5308 H   0  0  0  0  0  0  0  0  0  0  0  0
  151.6609  142.5415  157.6419 H   0  0  0  0  0  0  0  0  0  0  0  0
  1  2  1  0  0  0  0
  1 21  1  0  0  0  0
  1 22  1  0  0  0  0
  1 23  1  0  0  0  0
  2  3  1  0  0  0  0
  3 20  1  0  0  0  0
  3  4  2  0  0  0  0
  4  5  1  0  0  0  0
  4 24  1  0  0  0  0
  5  6  2  0  0  0  0
  5 25  1  0  0  0  0
  6  7  1  0  0  0  0
  6 19  1  0  0  0  0
  7  8  1  0  0  0  0
  7 26  1  0  0  0  0
  8  9  2  0  0  0  0
  8 10  1  0  0  0  0
 10 11  1  0  0  0  0
 10 27  1  0  0  0  0
 11 12  1  0  0  0  0
 11 13  1  0  0  0  0
 11 28  1  0  0  0  0
 12 29  1  0  0  0  0
 12 30  1  0  0  0  0
 12 31  1  0  0  0  0
 13 18  1  0  0  0  0
 13 14  1  0  0  0  0
 13 32  1  0  0  0  0
 14 15  1  0  0  0  0
 14 33  1  0  0  0  0
 14 34  1  0  0  0  0
 15 16  1  0  0  0  0
 15 35  1  0  0  0  0
 15 36  1  0  0  0  0
 16 17  1  0  0  0  0
 17 18  1  0  0  0  0
 17 37  1  0  0  0  0
 17 38  1  0  0  0  0
 18 39  1  0  0  0  0
 18 40  1  0  0  0  0
 19 20  2  0  0  0  0
M  END
> <s_m_source_file>
AV-unprocessed.smi

> <i_m_source_file_index>
2599

> <i_lp_mmshare_version>
43012

> <i_f3d_flags>
0

> <s_epik_input>
W0NIM11PYzFbY0hdW2NIXWMobm4xKVtOSF1DKD1PKVtOSF1bQ0BIXShbQ0gzXSlbQ0hdMltDSDJdW0NIMl1PW0NIMl1bQ0gyXTI=

> <s_epik_cmdline>
J2VwaWtfcHl0aG9uJywgJy1waCcsICc3LjAnLCAnLXRuJywgJzgnLCAnLW1hJywgJzIwMCcsICctbWV0YWxfYmluZGluZycsICctaW1hZScsICc8aW5maWxlLm1hZT4nLCAnLW9tYWUnLCAnPG91dGZpbGUubWFlPic=

> <r_lp_tautomer_probability>
1

> <r_epik_Ionization_Penalty>
0.00150063

> <r_epik_Ionization_Penalty_Charging>
0

> <r_epik_Ionization_Penalty_Neutral>
0.00150063

> <r_epik_State_Penalty>
-0

> <r_epik_Charging_Adjusted_Penalty>
0

> <i_epik_Tot_Q>
0

> <i_epik_Tot_abs_Q>
0

> <r_epik_Metal_State_Penalty>
-0

> <b_epik_Metal_Only>
0

> <s_lp_Force_Field>
OPLS_2005

> <r_lp_Energy>
19.9533

> <b_lp_Chiralities_Consistent>
1

> <s_lp_Variant>
AV-unprocessed.smi:2599-2

> <Gold.Version>
5.8.1

> <Gold.Id.Protein>
6NUR|6NUR_protein|mol2

> <Gold.PLP.Fitness>
44.8475

> <Gold.PLP.PLP>
-37.7293

> <Gold.PLP.part.hbond>
-2.9511

> <Gold.PLP.part.metal>
0.0000

> <Gold.PLP.part.buried>
-6.1102

> <Gold.PLP.part.nonpolar>
-31.9295

> <Gold.PLP.part.repulsive>
0.7582

> <Gold.PLP.ligand.clash>
0.0000

> <Gold.PLP.ligand.torsion>
0.0425

> <Gold.PLP.Chemscore.Hbond>
2.3920

> <Gold.PLP.Chemscore.CHOScore>
0.0000

> <Gold.PLP.Chemscore.Metal>
0.0000

> <Gold.Chemscore.Hbonds>
donor molecule, donor type, donor heavy atom, donor atom, acceptor molecule, acceptor atom, score
      L1  H     7    26       P1  8029  1.00
      L1  H    10    27       P1  8029  0.86
      P1  H  6933  6944       L1     9  0.53

> <Gold.PLP.Chemscore.Internal.Correction>
0.0272

> <Gold.Rescore>
     Score         DG    S(hbond)    S(metal)    S(lipo)     H(rot)  DE(clash)    DE(int)     intcor
     16.86     -19.27       2.08        0.00      92.55       1.55       0.23       2.19       ----

> <Gold.Chemscore.Fitness>
16.8617

> <Gold.Chemscore.DG>
-19.2749

> <Gold.Chemscore.ZeroCoef>
-5.4800

> <Gold.Chemscore.Hbond>
2.0756

> <Gold.Chemscore.Metal>
0.0000

> <Gold.Chemscore.Lipo>
92.5491

> <Gold.Chemscore.Internal_Hbond>
0.0000

> <Gold.Chemscore.DEClash>
0.2259

> <Gold.Chemscore.DEInternal>
2.1873

> <Gold.Chemscore.Rot>
1.5492

> <Gold.Chemscore.Internal.Correction>
   9.000000E+99

> <Gold.Chemscore.Hbonds>
donor molecule, donor type, donor heavy atom, donor atom, acceptor molecule, acceptor atom, score
      L1  H     7    26       P1  8029  0.94
      L1  H    10    27       P1  8029  0.33
      P1  H  6933  6944       L1     9  0.49

> <Gold.Chemscore.Hbond.Weighted>
-6.9325

> <Gold.Chemscore.Metal.Weighted>
-0.0000

> <Gold.Chemscore.Lipo.Weighted>
-10.8282

> <Gold.Chemscore.Internal_Hbond.Weighted>
0.0000

> <Gold.Chemscore.DEClash.Weighted>
0.2259

> <Gold.Chemscore.DEInternal.Weighted>
2.1873

> <Gold.Chemscore.Rot.Weighted>
3.9659

> <Gold.Chemscore.Internal.Correction.Weighted>
   9.000000E+99

> <Gold.Protein.RotatedTorsions>
[ 6907 6896 6895 6894 ] final  166.83 input  -60.11 | X-H torsion
[ 7974 7965 7964 7962 ] final -163.19 input  175.53 | X-H torsion
[ 8008 7997 7996 7995 ] final   89.37 input   59.86 | X-H torsion
[ 10167 10162 10161 10158 ] final   66.65 input  -65.29 | X-H torsion
[ 10718 10713 10712 10709 ] final   56.18 input   66.30 | X-H torsion
[ 10763 10752 10751 10750 ] final  -21.65 input  -60.55 | X-H torsion
[ 11005 11000 10999 10996 ] final   56.47 input  -57.11 | X-H torsion

> <Gold.Protein.ActiveResidues>
 VAL166  LYS551  ARG553  GLY616  TRP617  ASP618  TYR619  PRO620  LYS621  CYS622 
 ASP623  PHE694  ASN695  SER759  ASP760  ASP761  ALA762  ILE779  LEU786  VAL792 
 PHE793  MET794  SER795  GLU796  ALA797  LYS798  CYS799  TRP800  GLU811  SER814 

> <Gold.Protein.RotatedAtoms>
  151.8727  133.3479  159.3739 H   0  0  0  0  0  0  0  0  0  0  0  0  # atno 6907 bound_to 6896
  150.7148  134.5096  159.5610 H   0  0  0  0  0  0  0  0  0  0  0  0  # atno 6908 bound_to 6896
  152.2632  134.8012  160.0478 H   0  0  0  0  0  0  0  0  0  0  0  0  # atno 6909 bound_to 6896
  144.7333  140.3143  143.6182 H   0  0  0  0  0  0  0  0  0  0  0  0  # atno 7974 bound_to 7965
  155.9992  140.3361  155.6828 H   0  0  0  0  0  0  0  0  0  0  0  0  # atno 8008 bound_to 7997
  155.6314  140.0685  157.2665 H   0  0  0  0  0  0  0  0  0  0  0  0  # atno 8009 bound_to 7997
  154.4244  140.1759  156.1464 H   0  0  0  0  0  0  0  0  0  0  0  0  # atno 8010 bound_to 7997
  140.0981  144.4928  150.7055 H   0  0  0  0  0  0  0  0  0  0  0  0  # atno 10167 bound_to 10162
  157.5409  130.8696  149.8820 H   0  0  0  0  0  0  0  0  0  0  0  0  # atno 10718 bound_to 10713
  153.6394  135.6985  153.5247 H   0  0  0  0  0  0  0  0  0  0  0  0  # atno 10763 bound_to 10752
  153.2794  135.4190  155.1064 H   0  0  0  0  0  0  0  0  0  0  0  0  # atno 10764 bound_to 10752
  154.8503  135.3598  154.5938 H   0  0  0  0  0  0  0  0  0  0  0  0  # atno 10765 bound_to 10752
  140.0527  134.5714  155.9245 H   0  0  0  0  0  0  0  0  0  0  0  0  # atno 11005 bound_to 11000
  145.7633  139.1832  143.2254 LP  0  0  0  0  0  0  0  0  0  0  0  0  # atno 17320 bound_to 7965
  146.0969  140.7590  142.9568 LP  0  0  0  0  0  0  0  0  0  0  0  0  # atno 17321 bound_to 7965
  140.6992  143.2424  151.4912 LP  0  0  0  0  0  0  0  0  0  0  0  0  # atno 17342 bound_to 10162
  139.5686  144.1981  152.1803 LP  0  0  0  0  0  0  0  0  0  0  0  0  # atno 17343 bound_to 10162
  156.0496  130.3720  150.1234 LP  0  0  0  0  0  0  0  0  0  0  0  0  # atno 17370 bound_to 10713
  156.9413  130.9745  151.3515 LP  0  0  0  0  0  0  0  0  0  0  0  0  # atno 17371 bound_to 10713
  141.1938  133.6580  156.5563 LP  0  0  0  0  0  0  0  0  0  0  0  0  # atno 17394 bound_to 11000
  140.3892  134.7455  157.4711 LP  0  0  0  0  0  0  0  0  0  0  0  0  # atno 17395 bound_to 11000

$$$$
