AV-unprocessed.smi:1403|AV-procd|sdf|5700|dock1
  -GOLD-   22720 5333D 1   1.00000     0.00000
 Structure written by MMmdl.
 36 37  0  0  0  0  0  0  0  0  1 V2000
  150.9239  134.4462  156.4171 C   0  0  0  0  0  0  0  0  0  0  0  0
  149.7301  134.7082  155.4863 C   0  0  1  0  0  0  0  0  0  0  0  0
  149.9988  135.9202  154.7164 N   0  0  0  0  0  0  0  0  0  0  0  0
  150.3190  137.1189  155.2276 C   0  0  0  0  0  0  0  0  0  0  0  0
  150.4645  137.3236  156.4336 O   0  0  0  0  0  0  0  0  0  0  0  0
  150.5173  138.2520  154.2105 C   0  0  0  0  0  0  0  0  0  0  0  0
  149.4825  139.2926  154.3010 N   0  0  0  0  0  0  0  0  0  0  0  0
  148.1843  139.0275  153.8887 C   0  0  0  0  0  0  0  0  0  0  0  0
  147.1871  139.9425  153.9309 C   0  0  0  0  0  0  0  0  0  0  0  0
  147.4419  141.2906  154.4271 C   0  0  0  0  0  0  0  0  0  0  0  0
  146.6053  142.1875  154.5052 O   0  0  0  0  0  0  0  0  0  0  0  0
  148.7602  141.5192  154.8306 N   0  0  0  0  0  0  0  0  0  0  0  0
  149.7929  140.5811  154.7887 C   0  0  0  0  0  0  0  0  0  0  0  0
  150.9231  140.8884  155.1662 O   0  0  0  0  0  0  0  0  0  0  0  0
  149.4646  133.5312  154.5249 C   0  0  1  0  0  0  0  0  0  0  0  0
  149.2946  132.1712  155.2050 C   0  0  0  0  0  0  0  0  0  0  0  0
  148.4323  131.3825  154.2308 C   0  0  0  0  0  0  0  0  0  0  0  0
  147.8950  132.4408  153.2645 C   0  0  0  0  0  0  0  0  0  0  0  0
  148.2145  133.6843  153.8697 O   0  0  0  0  0  0  0  0  0  0  0  0
  148.9850  142.4398  155.1787 H   0  0  0  0  0  0  0  0  0  0  0  0
  150.7497  133.5776  157.0524 H   0  0  0  0  0  0  0  0  0  0  0  0
  151.1004  135.2974  157.0752 H   0  0  0  0  0  0  0  0  0  0  0  0
  151.8383  134.2672  155.8507 H   0  0  0  0  0  0  0  0  0  0  0  0
  148.8492  134.8568  156.1135 H   0  0  0  0  0  0  0  0  0  0  0  0
  149.9070  135.8471  153.7139 H   0  0  0  0  0  0  0  0  0  0  0  0
  151.5062  138.6833  154.3728 H   0  0  0  0  0  0  0  0  0  0  0  0
  150.5448  137.8408  153.1992 H   0  0  0  0  0  0  0  0  0  0  0  0
  147.9504  138.0431  153.5095 H   0  0  0  0  0  0  0  0  0  0  0  0
  146.1956  139.6758  153.5942 H   0  0  0  0  0  0  0  0  0  0  0  0
  150.2513  133.4710  153.7700 H   0  0  0  0  0  0  0  0  0  0  0  0
  150.2479  131.6846  155.4129 H   0  0  0  0  0  0  0  0  0  0  0  0
  148.7624  132.2852  156.1506 H   0  0  0  0  0  0  0  0  0  0  0  0
  149.0138  130.6314  153.6955 H   0  0  0  0  0  0  0  0  0  0  0  0
  147.6245  130.8715  154.7556 H   0  0  0  0  0  0  0  0  0  0  0  0
  148.3998  132.3724  152.2998 H   0  0  0  0  0  0  0  0  0  0  0  0
  146.8220  132.3493  153.0953 H   0  0  0  0  0  0  0  0  0  0  0  0
  1  2  1  0  0  0  0
  1 21  1  0  0  0  0
  1 22  1  0  0  0  0
  1 23  1  0  0  0  0
  2  3  1  0  0  0  0
  2 15  1  0  0  0  0
  2 24  1  0  0  0  0
  3  4  1  0  0  0  0
  3 25  1  0  0  0  0
  4  5  2  0  0  0  0
  4  6  1  0  0  0  0
  6  7  1  0  0  0  0
  6 26  1  0  0  0  0
  6 27  1  0  0  0  0
  7 13  1  0  0  0  0
  7  8  1  0  0  0  0
  8  9  2  0  0  0  0
  8 28  1  0  0  0  0
  9 10  1  0  0  0  0
  9 29  1  0  0  0  0
 10 11  2  0  0  0  0
 10 12  1  0  0  0  0
 12 20  1  0  0  0  0
 12 13  1  0  0  0  0
 13 14  2  0  0  0  0
 15 19  1  0  0  0  0
 15 16  1  0  0  0  0
 15 30  1  0  0  0  0
 16 17  1  0  0  0  0
 16 31  1  0  0  0  0
 16 32  1  0  0  0  0
 17 18  1  0  0  0  0
 17 33  1  0  0  0  0
 17 34  1  0  0  0  0
 18 19  1  0  0  0  0
 18 35  1  0  0  0  0
 18 36  1  0  0  0  0
M  END
> <s_m_source_file>
AV-unprocessed.smi

> <i_m_source_file_index>
1403

> <i_lp_mmshare_version>
43012

> <i_f3d_flags>
0

> <s_epik_input>
TzFbQ0gyXVtDSDJdW0NIMl1bQ0BIXTFbQ0BIXShbQ0gzXSlbTkhdQyg9TylbQ0gyXW4yW2NIXVtjSF1jKD1PKVtuSF1jMj1P

> <s_epik_cmdline>
J2VwaWtfcHl0aG9uJywgJy1waCcsICc3LjAnLCAnLXRuJywgJzgnLCAnLW1hJywgJzIwMCcsICctbWV0YWxfYmluZGluZycsICctaW1hZScsICc8aW5maWxlLm1hZT4nLCAnLW9tYWUnLCAnPG91dGZpbGUubWFlPic=

> <r_lp_tautomer_probability>
0.999537

> <r_epik_Ionization_Penalty>
0.00331407

> <r_epik_Ionization_Penalty_Charging>
0.00331405

> <r_epik_Ionization_Penalty_Neutral>
2.30132e-08

> <r_epik_State_Penalty>
0.00234266

> <r_epik_Charging_Adjusted_Penalty>
0.00565671

> <i_epik_Tot_Q>
0

> <i_epik_Tot_abs_Q>
0

> <r_epik_Metal_State_Penalty>
0.365604

> <b_epik_Metal_Only>
0

> <s_lp_Force_Field>
OPLS_2005

> <r_lp_Energy>
17.8488

> <b_lp_Chiralities_Consistent>
1

> <s_lp_Variant>
AV-unprocessed.smi:1403-4

> <Gold.Version>
5.8.1

> <Gold.Id.Protein>
6NUR|6NUR_protein|mol2

> <Gold.PLP.Fitness>
36.3601

> <Gold.PLP.PLP>
-29.9649

> <Gold.PLP.part.hbond>
-2.0246

> <Gold.PLP.part.metal>
0.0000

> <Gold.PLP.part.buried>
-2.7748

> <Gold.PLP.part.nonpolar>
-26.2835

> <Gold.PLP.part.repulsive>
0.6708

> <Gold.PLP.ligand.clash>
0.0000

> <Gold.PLP.ligand.torsion>
0.2587

> <Gold.PLP.Chemscore.Hbond>
1.2883

> <Gold.PLP.Chemscore.CHOScore>
0.9944

> <Gold.PLP.Chemscore.Metal>
0.0000

> <Gold.Chemscore.Hbonds>
donor molecule, donor type, donor heavy atom, donor atom, acceptor molecule, acceptor atom, score
      L1  H     3    25       P1  7948  0.63
      L1  H    12    20       P1  8028  0.26
      P1  H  7989  7998       L1    14  0.58
      L1  C     8    28       P1  7948  0.73

> <Gold.PLP.Chemscore.Internal.Correction>
0.0645

> <Gold.Rescore>
     Score         DG    S(hbond)    S(metal)    S(lipo)     H(rot)  DE(clash)    DE(int)     intcor
     12.05     -13.38       2.54        0.00      39.53       2.04       0.01       1.32       ----

> <Gold.Chemscore.Fitness>
12.0451

> <Gold.Chemscore.DG>
-13.3801

> <Gold.Chemscore.ZeroCoef>
-5.4800

> <Gold.Chemscore.Hbond>
2.5439

> <Gold.Chemscore.Metal>
0.0000

> <Gold.Chemscore.Lipo>
39.5275

> <Gold.Chemscore.Internal_Hbond>
0.0000

> <Gold.Chemscore.DEClash>
0.0126

> <Gold.Chemscore.DEInternal>
1.3224

> <Gold.Chemscore.Rot>
2.0395

> <Gold.Chemscore.Internal.Correction>
   9.000000E+99

> <Gold.Chemscore.Hbonds>
donor molecule, donor type, donor heavy atom, donor atom, acceptor molecule, acceptor atom, score
      L1  H     3    25       P1  7948  0.06
      L1  H    12    20       P1  8028  0.27
      P1  H  7989  7998       L1    14  0.07

> <Gold.Chemscore.Hbond.Weighted>
-8.4965

> <Gold.Chemscore.Metal.Weighted>
-0.0000

> <Gold.Chemscore.Lipo.Weighted>
-4.6247

> <Gold.Chemscore.Internal_Hbond.Weighted>
0.0000

> <Gold.Chemscore.DEClash.Weighted>
0.0126

> <Gold.Chemscore.DEInternal.Weighted>
1.3224

> <Gold.Chemscore.Rot.Weighted>
5.2211

> <Gold.Chemscore.Internal.Correction.Weighted>
   9.000000E+99

> <Gold.Protein.RotatedTorsions>
[ 6907 6896 6895 6894 ] final   10.21 input  -60.11 | X-H torsion
[ 7974 7965 7964 7962 ] final   21.24 input  175.53 | X-H torsion
[ 8008 7997 7996 7995 ] final  119.61 input   59.86 | X-H torsion
[ 10167 10162 10161 10158 ] final   27.14 input  -65.29 | X-H torsion
[ 10718 10713 10712 10709 ] final -161.05 input   66.30 | X-H torsion
[ 10763 10752 10751 10750 ] final  -69.71 input  -60.55 | X-H torsion
[ 11005 11000 10999 10996 ] final  -46.58 input  -57.11 | X-H torsion

> <Gold.Protein.ActiveResidues>
 VAL166  LYS551  ARG553  GLY616  TRP617  ASP618  TYR619  PRO620  LYS621  CYS622 
 ASP623  PHE694  ASN695  SER759  ASP760  ASP761  ALA762  ILE779  LEU786  VAL792 
 PHE793  MET794  SER795  GLU796  ALA797  LYS798  CYS799  TRP800  GLU811  SER814 

> <Gold.Protein.RotatedAtoms>
  151.7346  135.0867  160.0305 H   0  0  0  0  0  0  0  0  0  0  0  0  # atno 6907 bound_to 6896
  152.3519  133.6185  159.5959 H   0  0  0  0  0  0  0  0  0  0  0  0  # atno 6908 bound_to 6896
  150.7545  133.9477  159.3517 H   0  0  0  0  0  0  0  0  0  0  0  0  # atno 6909 bound_to 6896
  146.2079  139.8055  142.8711 H   0  0  0  0  0  0  0  0  0  0  0  0  # atno 7974 bound_to 7965
  156.2604  140.2849  156.1019 H   0  0  0  0  0  0  0  0  0  0  0  0  # atno 8008 bound_to 7997
  155.1351  140.0394  157.2802 H   0  0  0  0  0  0  0  0  0  0  0  0  # atno 8009 bound_to 7997
  154.6571  140.2558  155.7156 H   0  0  0  0  0  0  0  0  0  0  0  0  # atno 8010 bound_to 7997
  140.4963  144.0386  150.6315 H   0  0  0  0  0  0  0  0  0  0  0  0  # atno 10167 bound_to 10162
  156.5907  130.8769  151.2889 H   0  0  0  0  0  0  0  0  0  0  0  0  # atno 10718 bound_to 10713
  154.4073  135.6017  153.5932 H   0  0  0  0  0  0  0  0  0  0  0  0  # atno 10763 bound_to 10752
  152.9789  135.5921  154.4112 H   0  0  0  0  0  0  0  0  0  0  0  0  # atno 10764 bound_to 10752
  154.3919  135.2842  155.2128 H   0  0  0  0  0  0  0  0  0  0  0  0  # atno 10765 bound_to 10752
  141.0587  133.6716  156.3174 H   0  0  0  0  0  0  0  0  0  0  0  0  # atno 11005 bound_to 11000
  145.3251  141.0253  143.3478 LP  0  0  0  0  0  0  0  0  0  0  0  0  # atno 17320 bound_to 7965
  144.8838  139.4867  143.6710 LP  0  0  0  0  0  0  0  0  0  0  0  0  # atno 17321 bound_to 7965
  140.3670  143.2876  152.0321 LP  0  0  0  0  0  0  0  0  0  0  0  0  # atno 17342 bound_to 10162
  139.4862  144.6260  151.7164 LP  0  0  0  0  0  0  0  0  0  0  0  0  # atno 17343 bound_to 10162
  157.7304  130.9685  150.1832 LP  0  0  0  0  0  0  0  0  0  0  0  0  # atno 17370 bound_to 10713
  156.2552  130.3705  149.8189 LP  0  0  0  0  0  0  0  0  0  0  0  0  # atno 17371 bound_to 10713
  140.5911  134.5649  157.5500 LP  0  0  0  0  0  0  0  0  0  0  0  0  # atno 17394 bound_to 11000
  139.9413  134.7781  156.0671 LP  0  0  0  0  0  0  0  0  0  0  0  0  # atno 17395 bound_to 11000

$$$$
