AV-unprocessed.smi:2059|AV-procd|sdf|8351|dock10
  -GOLD-   2272011 23D 1   1.00000     0.00000
 Structure written by MMmdl.
 29 30  0  0  0  0  0  0  0  0  2 V2000
  146.1884  138.4810  152.6072 C   0  0  0  0  0  0  0  0  0  0  0  0
  147.1962  139.2297  153.4105 C   0  0  0  0  0  0  0  0  0  0  0  0
  147.4637  140.5614  153.5537 C   0  0  0  0  0  0  0  0  0  0  0  0
  148.5493  140.5784  154.4710 C   0  0  0  0  0  0  0  0  0  0  0  0
  149.1769  141.6772  154.9262 N   0  5  0  0  0  0  0  0  0  0  0  0
  150.2848  141.6211  155.7123 C   0  0  0  0  0  0  0  0  0  0  0  0
  151.1235  140.7243  155.6333 O   0  0  0  0  0  0  0  0  0  0  0  0
  150.4624  142.5997  156.6209 N   0  0  0  0  0  0  0  0  0  0  0  0
  151.5840  142.7238  157.5461 C   0  0  1  0  0  0  0  0  0  0  0  0
  151.8089  144.1955  157.9390 C   0  0  0  0  0  0  0  0  0  0  0  0
  152.7360  144.2421  159.1594 C   0  0  0  0  0  0  0  0  0  0  0  0
  152.3881  142.7192  160.1183 S   0  0  0  0  0  0  0  0  0  0  0  0
  153.6397  141.9644  160.2835 O   0  0  0  0  0  0  0  0  0  0  0  0
  151.5459  143.0497  161.2780 O   0  0  0  0  0  0  0  0  0  0  0  0
  151.3540  141.9187  158.8354 C   0  0  0  0  0  0  0  0  0  0  0  0
  148.9169  139.3633  154.8423 N   0  0  0  0  0  0  0  0  0  0  0  0
  148.0500  138.4927  154.1709 O   0  0  0  0  0  0  0  0  0  0  0  0
  146.4241  138.5387  151.5446 H   0  0  0  0  0  0  0  0  0  0  0  0
  145.1912  138.8953  152.7556 H   0  0  0  0  0  0  0  0  0  0  0  0
  146.1619  137.4287  152.8909 H   0  0  0  0  0  0  0  0  0  0  0  0
  146.9632  141.3923  153.0797 H   0  0  0  0  0  0  0  0  0  0  0  0
  149.7551  143.3188  156.6673 H   0  0  0  0  0  0  0  0  0  0  0  0
  152.4951  142.3636  157.0646 H   0  0  0  0  0  0  0  0  0  0  0  0
  152.2079  144.7808  157.1099 H   0  0  0  0  0  0  0  0  0  0  0  0
  150.8523  144.6432  158.2126 H   0  0  0  0  0  0  0  0  0  0  0  0
  153.7809  144.2122  158.8506 H   0  0  0  0  0  0  0  0  0  0  0  0
  152.5800  145.1246  159.7797 H   0  0  0  0  0  0  0  0  0  0  0  0
  150.3141  141.9800  159.1582 H   0  0  0  0  0  0  0  0  0  0  0  0
  151.6250  140.8678  158.7336 H   0  0  0  0  0  0  0  0  0  0  0  0
  1  2  1  0  0  0  0
  1 18  1  0  0  0  0
  1 19  1  0  0  0  0
  1 20  1  0  0  0  0
  2 17  1  0  0  0  0
  2  3  2  0  0  0  0
  3  4  1  0  0  0  0
  3 21  1  0  0  0  0
  4  5  1  0  0  0  0
  4 16  2  0  0  0  0
  5  6  1  0  0  0  0
  6  7  2  0  0  0  0
  6  8  1  0  0  0  0
  8  9  1  0  0  0  0
  8 22  1  0  0  0  0
  9 15  1  0  0  0  0
  9 10  1  0  0  0  0
  9 23  1  0  0  0  0
 10 11  1  0  0  0  0
 10 24  1  0  0  0  0
 10 25  1  0  0  0  0
 11 12  1  0  0  0  0
 11 26  1  0  0  0  0
 11 27  1  0  0  0  0
 12 13  2  0  0  0  0
 12 14  2  0  0  0  0
 12 15  1  0  0  0  0
 15 28  1  0  0  0  0
 15 29  1  0  0  0  0
 16 17  1  0  0  0  0
M  CHG  1   5  -1
M  END
> <s_m_source_file>
AV-unprocessed.smi

> <i_m_source_file_index>
2059

> <i_lp_mmshare_version>
43012

> <i_f3d_flags>
0

> <s_epik_input>
W0NIM11jMVtjSF1jKG5vMSlbTkhdQyg9TylbTkhdW0NAQEhdKFtDSDJdMilbQ0gyXVtDSDJdUzIoPU8pPU8=

> <s_epik_cmdline>
J2VwaWtfcHl0aG9uJywgJy1waCcsICc3LjAnLCAnLXRuJywgJzgnLCAnLW1hJywgJzIwMCcsICctbWV0YWxfYmluZGluZycsICctaW1hZScsICc8aW5maWxlLm1hZT4nLCAnLW9tYWUnLCAnPG91dGZpbGUubWFlPic=

> <r_lp_tautomer_probability>
1

> <r_epik_Ionization_Penalty>
6.15571

> <r_epik_Ionization_Penalty_Charging>
6.1556

> <r_epik_Ionization_Penalty_Neutral>
0.000110918

> <r_epik_State_Penalty>
6.15558

> <r_epik_Charging_Adjusted_Penalty>
12.3112

> <i_epik_Tot_Q>
-1

> <i_epik_Tot_abs_Q>
1

> <r_epik_Metal_State_Penalty>
2.1059

> <b_epik_Metal_Only>
1

> <s_lp_Force_Field>
OPLS_2005

> <r_lp_Energy>
-1.66836

> <b_lp_Chiralities_Consistent>
1

> <s_lp_Variant>
AV-unprocessed.smi:2059-4

> <Gold.Version>
5.8.1

> <Gold.Id.Protein>
6NUR|6NUR_protein|mol2

> <Gold.PLP.Fitness>
38.3781

> <Gold.PLP.PLP>
-33.5654

> <Gold.PLP.part.hbond>
-3.1340

> <Gold.PLP.part.metal>
0.0000

> <Gold.PLP.part.buried>
-3.4305

> <Gold.PLP.part.nonpolar>
-27.1940

> <Gold.PLP.part.repulsive>
0.7328

> <Gold.PLP.ligand.clash>
0.0000

> <Gold.PLP.ligand.torsion>
0.5774

> <Gold.PLP.Chemscore.Hbond>
1.9884

> <Gold.PLP.Chemscore.CHOScore>
0.0000

> <Gold.PLP.Chemscore.Metal>
0.0000

> <Gold.Chemscore.Hbonds>
donor molecule, donor type, donor heavy atom, donor atom, acceptor molecule, acceptor atom, score
      L1  H     8    22       P1  8028  0.88
      P1  H  6933  6945       L1    14  0.26
      P1  H  7989  7998       L1     7  0.48

> <Gold.PLP.Chemscore.Internal.Correction>
0.0025

> <Gold.Rescore>
     Score         DG    S(hbond)    S(metal)    S(lipo)     H(rot)  DE(clash)    DE(int)     intcor
     13.16     -16.04       1.62        0.00      65.88       1.00       0.77       2.11       ----

> <Gold.Chemscore.Fitness>
13.1637

> <Gold.Chemscore.DG>
-16.0380

> <Gold.Chemscore.ZeroCoef>
-5.4800

> <Gold.Chemscore.Hbond>
1.6198

> <Gold.Chemscore.Metal>
0.0000

> <Gold.Chemscore.Lipo>
65.8806

> <Gold.Chemscore.Internal_Hbond>
0.0000

> <Gold.Chemscore.DEClash>
0.7693

> <Gold.Chemscore.DEInternal>
2.1051

> <Gold.Chemscore.Rot>
1.0000

> <Gold.Chemscore.Internal.Correction>
   9.000000E+99

> <Gold.Chemscore.Hbonds>
donor molecule, donor type, donor heavy atom, donor atom, acceptor molecule, acceptor atom, score
      L1  H     8    22       P1  8028  0.86
      P1  H  6933  6945       L1    14  0.25
      P1  H  7989  7998       L1     7  0.12

> <Gold.Chemscore.Hbond.Weighted>
-5.4100

> <Gold.Chemscore.Metal.Weighted>
-0.0000

> <Gold.Chemscore.Lipo.Weighted>
-7.7080

> <Gold.Chemscore.Internal_Hbond.Weighted>
0.0000

> <Gold.Chemscore.DEClash.Weighted>
0.7693

> <Gold.Chemscore.DEInternal.Weighted>
2.1051

> <Gold.Chemscore.Rot.Weighted>
2.5600

> <Gold.Chemscore.Internal.Correction.Weighted>
   9.000000E+99

> <Gold.Protein.RotatedTorsions>
[ 6907 6896 6895 6894 ] final  115.11 input  -60.11 | X-H torsion
[ 7974 7965 7964 7962 ] final -138.38 input  175.53 | X-H torsion
[ 8008 7997 7996 7995 ] final -140.61 input   59.86 | X-H torsion
[ 10167 10162 10161 10158 ] final   82.36 input  -65.29 | X-H torsion
[ 10718 10713 10712 10709 ] final  -35.03 input   66.30 | X-H torsion
[ 10763 10752 10751 10750 ] final -155.60 input  -60.55 | X-H torsion
[ 11005 11000 10999 10996 ] final   -0.67 input  -57.11 | X-H torsion

> <Gold.Protein.ActiveResidues>
 VAL166  LYS551  ARG553  GLY616  TRP617  ASP618  TYR619  PRO620  LYS621  CYS622 
 ASP623  PHE694  ASN695  SER759  ASP760  ASP761  ALA762  ILE779  LEU786  VAL792 
 PHE793  MET794  SER795  GLU796  ALA797  LYS798  CYS799  TRP800  GLU811  SER814 

> <Gold.Protein.RotatedAtoms>
  152.4762  133.8143  159.7019 H   0  0  0  0  0  0  0  0  0  0  0  0  # atno 6907 bound_to 6896
  150.8780  133.7402  159.2947 H   0  0  0  0  0  0  0  0  0  0  0  0  # atno 6908 bound_to 6896
  151.4915  135.1061  159.9857 H   0  0  0  0  0  0  0  0  0  0  0  0  # atno 6909 bound_to 6896
  144.8763  140.6442  143.5235 H   0  0  0  0  0  0  0  0  0  0  0  0  # atno 7974 bound_to 7965
  155.4642  140.0548  157.2987 H   0  0  0  0  0  0  0  0  0  0  0  0  # atno 8008 bound_to 7997
  154.4725  140.2046  155.9914 H   0  0  0  0  0  0  0  0  0  0  0  0  # atno 8009 bound_to 7997
  156.1078  140.3209  155.8035 H   0  0  0  0  0  0  0  0  0  0  0  0  # atno 8010 bound_to 7997
  139.9296  144.6160  150.8358 H   0  0  0  0  0  0  0  0  0  0  0  0  # atno 10167 bound_to 10162
  156.3435  130.4297  149.7767 H   0  0  0  0  0  0  0  0  0  0  0  0  # atno 10718 bound_to 10713
  154.7775  135.3164  154.8060 H   0  0  0  0  0  0  0  0  0  0  0  0  # atno 10763 bound_to 10752
  153.8780  135.6838  153.4773 H   0  0  0  0  0  0  0  0  0  0  0  0  # atno 10764 bound_to 10752
  153.1403  135.4742  154.9421 H   0  0  0  0  0  0  0  0  0  0  0  0  # atno 10765 bound_to 10752
  140.6389  133.9508  155.8315 H   0  0  0  0  0  0  0  0  0  0  0  0  # atno 11005 bound_to 11000
  145.4037  139.1593  143.4164 LP  0  0  0  0  0  0  0  0  0  0  0  0  # atno 17320 bound_to 7965
  146.2965  140.4135  142.8720 LP  0  0  0  0  0  0  0  0  0  0  0  0  # atno 17321 bound_to 7965
  140.7641  143.3239  151.2559 LP  0  0  0  0  0  0  0  0  0  0  0  0  # atno 17342 bound_to 10162
  139.6793  143.9882  152.2799 LP  0  0  0  0  0  0  0  0  0  0  0  0  # atno 17343 bound_to 10162
  156.4994  130.8122  151.3126 LP  0  0  0  0  0  0  0  0  0  0  0  0  # atno 17370 bound_to 10713
  157.7450  130.9949  150.2726 LP  0  0  0  0  0  0  0  0  0  0  0  0  # atno 17371 bound_to 10713
  141.0621  134.0330  157.3644 LP  0  0  0  0  0  0  0  0  0  0  0  0  # atno 17394 bound_to 11000
  139.9088  135.0186  156.7601 LP  0  0  0  0  0  0  0  0  0  0  0  0  # atno 17395 bound_to 11000

$$$$
