#       Name:                AV-unprocessed.smi:72
#       Creating user name   scv26
#       Creation time:       Thu Mar 26 17:06:51 2020


#       File generated by GOLD software.
#

@<TRIPOS>MOLECULE
AV-unprocessed.smi:72
    41    42     1
SMALL
NO_CHARGES


@<TRIPOS>ATOM
      1 ****        -4.1225   2.5049   2.1256 N.2            1 S1                 0.0000
      2 ****        -3.1383   2.0914   1.4545 C.2            1 S1                 0.0000
      3 ****        -1.8504   1.9206   2.0897 N.2            1 S1                 0.0000
      4 ****        -0.8743   1.4642   1.3666 C.2            1 S1                 0.0000
      5 ****        -1.0540   1.1058  -0.0364 N.am           1 S1                 0.0000
      6 ****         0.0834   0.5810  -0.9018 C.3            1 S1                 0.0000
      7 ****         1.2823   0.5769  -0.1823 O.3            1 S1                 0.0000
      8 ****         1.5113  -0.7241   0.3379 C.3            1 S1                 0.0000
      9 ****         2.9794  -0.8939   0.7685 C.3            1 S1                 0.0000
     10 ****         3.8548  -0.9916  -0.3361 O.3            1 S1                 0.0000
     11 ****         0.9864  -1.6644  -0.7492 C.3            1 S1                 0.0000
     12 ****         0.5327  -2.8726  -0.1719 O.3            1 S1                 0.0000
     13 ****        -0.1807  -0.8791  -1.3473 C.3            1 S1                 0.0000
     14 ****        -0.1766  -0.9991  -2.7552 O.3            1 S1                 0.0000
     15 ****        -2.3187   1.3358  -0.6439 C.2            1 S1                 0.0000
     16 ****        -2.4389   1.0886  -1.8442 O.2            1 S1                 0.0000
     17 ****        -3.3377   1.8193   0.1198 N.pl3          1 S1                -1.0000
     18 ****         0.1578   1.2974  -1.7220 H              1 S1                 0.0000
     19 ****         0.8850  -0.8243   1.2261 H              1 S1                 0.0000
     20 ****         1.7462  -1.8647  -1.5053 H              1 S1                 0.0000
     21 ****        -1.1369  -1.2247  -0.9510 H              1 S1                 0.0000
     22 ****        -4.9645   2.5864   1.5748 H              1 S1                 0.0000
     23 ****         0.1294   1.3279   1.7679 H              1 S1                 0.0000
     24 ****         3.2882  -0.0656   1.4066 H              1 S1                 0.0000
     25 ****         3.0838  -1.8056   1.3571 H              1 S1                 0.0000
     26 ****         4.7347  -1.1088  -0.0125 H              1 S1                 0.0000
     27 ****         0.1487  -3.4008  -0.8551 H              1 S1                 0.0000
     28 ****        -0.8858  -0.4753  -3.0970 H              1 S1                 0.0000
     29 ****        -4.0740   2.7281   3.0991 LP             1 S1                 0.0000
     30 ****        -1.7164   2.1468   3.0545 LP             1 S1                 0.0000
     31 ****         1.2226   1.2322   0.5706 LP             1 S1                 0.0000
     32 ****         2.0363   0.8324  -0.7875 LP             1 S1                 0.0000
     33 ****         3.8047  -0.1547  -0.8812 LP             1 S1                 0.0000
     34 ****         3.5969  -1.7743  -0.9026 LP             1 S1                 0.0000
     35 ****        -0.1524  -2.6762   0.5295 LP             1 S1                 0.0000
     36 ****         1.3020  -3.3603   0.2409 LP             1 S1                 0.0000
     37 ****        -0.3068  -1.9562  -3.0142 LP             1 S1                 0.0000
     38 ****         0.6942  -0.6705  -3.1208 LP             1 S1                 0.0000
     39 ****        -1.6596   0.7366  -2.3627 LP             1 S1                 0.0000
     40 ****        -3.3158   1.2398  -2.3005 LP             1 S1                 0.0000
     41 ****        -4.2355   1.9774  -0.2913 LP             1 S1                 0.0000
@<TRIPOS>BOND
    1    1    2 2     
    2    1   22 1     
    3    2   17 1     
    4    2    3 1     
    5    3    4 2     
    6    4    5 1     
    7    4   23 1     
    8    5    6 1     
    9    5   15 am    
   10    6   18 1     
   11    6   13 1     
   12    6    7 1     
   13    7    8 1     
   14    8   19 1     
   15    8    9 1     
   16    8   11 1     
   17    9   10 1     
   18    9   24 1     
   19    9   25 1     
   20   10   26 1     
   21   11   20 1     
   22   11   12 1     
   23   11   13 1     
   24   12   27 1     
   25   13   21 1     
   26   13   14 1     
   27   14   28 1     
   28   15   16 2     
   29   15   17 1     
   30    1   29 1     
   31    3   30 1     
   32    7   31 1     
   33    7   32 1     
   34   10   33 1     
   35   10   34 1     
   36   12   35 1     
   37   12   36 1     
   38   14   37 1     
   39   14   38 1     
   40   16   39 1     
   41   16   40 1     
   42   17   41 1     
@<TRIPOS>SUBSTRUCTURE
      1 S1             1
@<TRIPOS>SET
LONE_PAIRS      STATIC     ATOMS    <user>   **** ""
13 29 30 31 32 33 34 35 36 37 38 39 40 41
DONOR_HYDROGENS      STATIC     ATOMS    <user>   **** ""
4 22 26 27 28
ATOM$BLUE        STATIC     ATOMS    COLORGROUP SYSTEM
13 29 30 31 32 33 34 35 36 37 38 39 40 41
ATOM$RED        STATIC     ATOMS    COLORGROUP SYSTEM
4 22 26 27 28
