AV-unprocessed.smi:672|AV-procd|sdf|3296|dock2
  -GOLD-   22720 0253D 1   1.00000     0.00000
 Structure written by MMmdl.
 35 36  0  0  0  0  0  0  0  0  2 V2000
  144.8654  137.4913  161.7811 C   0  0  0  0  0  0  0  0  0  0  0  0
  145.2877  136.4268  160.7627 C   0  0  0  0  0  0  0  0  0  0  0  0
  146.6388  136.6896  160.1865 C   0  0  0  0  0  0  0  0  0  0  0  0
  146.9103  137.7587  159.4333 N   0  0  0  0  0  0  0  0  0  0  0  0
  148.2251  137.7666  158.9912 N   0  0  0  0  0  0  0  0  0  0  0  0
  148.9212  136.6939  159.3940 C   0  0  0  0  0  0  0  0  0  0  0  0
  150.2116  136.5083  159.0715 N   0  5  0  0  0  0  0  0  0  0  0  0
  150.8275  137.3714  158.2320 C   0  0  0  0  0  0  0  0  0  0  0  0
  151.1685  137.1426  157.0691 O   0  0  0  0  0  0  0  0  0  0  0  0
  151.0714  138.5723  158.7760 N   0  0  0  0  0  0  0  0  0  0  0  0
  151.7317  139.6960  158.1144 C   0  0  1  0  0  0  0  0  0  0  0  0
  150.7157  140.5272  157.3065 C   0  0  0  0  0  0  0  0  0  0  0  0
  150.9104  141.9817  157.7420 C   0  0  0  0  0  0  0  0  0  0  0  0
  151.4311  141.8834  159.1737 C   0  0  2  0  0  0  0  0  0  0  0  0
  152.2625  143.4023  159.7209 S   0  0  0  0  0  0  0  0  0  0  0  0
  152.4122  143.0629  161.4952 C   0  0  0  0  0  0  0  0  0  0  0  0
  152.3580  140.6664  159.1356 C   0  0  0  0  0  0  0  0  0  0  0  0
  147.9848  135.5812  160.3910 S   0  0  0  0  0  0  0  0  0  0  0  0
  143.8749  137.2750  162.1815 H   0  0  0  0  0  0  0  0  0  0  0  0
  144.8315  138.4802  161.3231 H   0  0  0  0  0  0  0  0  0  0  0  0
  145.5626  137.5339  162.6184 H   0  0  0  0  0  0  0  0  0  0  0  0
  145.2893  135.4423  161.2317 H   0  0  0  0  0  0  0  0  0  0  0  0
  144.5633  136.3840  159.9489 H   0  0  0  0  0  0  0  0  0  0  0  0
  150.7745  138.7156  159.7301 H   0  0  0  0  0  0  0  0  0  0  0  0
  152.5068  139.3150  157.4466 H   0  0  0  0  0  0  0  0  0  0  0  0
  150.8505  140.4062  156.2313 H   0  0  0  0  0  0  0  0  0  0  0  0
  149.6944  140.2195  157.5370 H   0  0  0  0  0  0  0  0  0  0  0  0
  151.6594  142.4543  157.1047 H   0  0  0  0  0  0  0  0  0  0  0  0
  149.9933  142.5668  157.6678 H   0  0  0  0  0  0  0  0  0  0  0  0
  150.5924  141.6781  159.8406 H   0  0  0  0  0  0  0  0  0  0  0  0
  152.8707  143.9123  162.0015 H   0  0  0  0  0  0  0  0  0  0  0  0
  153.0338  142.1844  161.6680 H   0  0  0  0  0  0  0  0  0  0  0  0
  151.4301  142.8874  161.9344 H   0  0  0  0  0  0  0  0  0  0  0  0
  152.4981  140.2257  160.1235 H   0  0  0  0  0  0  0  0  0  0  0  0
  153.3438  140.9670  158.7780 H   0  0  0  0  0  0  0  0  0  0  0  0
  1  2  1  0  0  0  0
  1 19  1  0  0  0  0
  1 20  1  0  0  0  0
  1 21  1  0  0  0  0
  2  3  1  0  0  0  0
  2 22  1  0  0  0  0
  2 23  1  0  0  0  0
  3 18  1  0  0  0  0
  3  4  2  0  0  0  0
  4  5  1  0  0  0  0
  5  6  2  0  0  0  0
  6  7  1  0  0  0  0
  6 18  1  0  0  0  0
  7  8  1  0  0  0  0
  8  9  2  0  0  0  0
  8 10  1  0  0  0  0
 10 11  1  0  0  0  0
 10 24  1  0  0  0  0
 11 17  1  0  0  0  0
 11 12  1  0  0  0  0
 11 25  1  0  0  0  0
 12 13  1  0  0  0  0
 12 26  1  0  0  0  0
 12 27  1  0  0  0  0
 13 14  1  0  0  0  0
 13 28  1  0  0  0  0
 13 29  1  0  0  0  0
 14 15  1  0  0  0  0
 14 17  1  0  0  0  0
 14 30  1  0  0  0  0
 15 16  1  0  0  0  0
 16 31  1  0  0  0  0
 16 32  1  0  0  0  0
 16 33  1  0  0  0  0
 17 34  1  0  0  0  0
 17 35  1  0  0  0  0
M  CHG  1   7  -1
M  END
> <s_m_source_file>
AV-unprocessed.smi

> <i_m_source_file_index>
672

> <i_lp_mmshare_version>
43012

> <i_f3d_flags>
0

> <s_epik_input>
W0NIM11bQ0gyXWMxbm5jKHMxKVtOSF1DKD1PKVtOSF1bQ0BASF0yW0NIMl1bQ0gyXVtDQEhdKFtDSDJdMilTW0NIM10=

> <s_epik_cmdline>
J2VwaWtfcHl0aG9uJywgJy1waCcsICc3LjAnLCAnLXRuJywgJzgnLCAnLW1hJywgJzIwMCcsICctbWV0YWxfYmluZGluZycsICctaW1hZScsICc8aW5maWxlLm1hZT4nLCAnLW9tYWUnLCAnPG91dGZpbGUubWFlPic=

> <r_lp_tautomer_probability>
1

> <r_epik_Ionization_Penalty>
4.49964

> <r_epik_Ionization_Penalty_Charging>
4.32991

> <r_epik_Ionization_Penalty_Neutral>
0.169727

> <r_epik_State_Penalty>
4.32952

> <r_epik_Charging_Adjusted_Penalty>
8.65943

> <i_epik_Tot_Q>
-1

> <i_epik_Tot_abs_Q>
1

> <r_epik_Metal_State_Penalty>
0.740482

> <b_epik_Metal_Only>
1

> <s_lp_Force_Field>
OPLS_2005

> <r_lp_Energy>
9.75318

> <b_lp_Chiralities_Consistent>
1

> <s_lp_Variant>
AV-unprocessed.smi:672-8

> <Gold.Version>
5.8.1

> <Gold.Id.Protein>
6NUR|6NUR_protein|mol2

> <Gold.PLP.Fitness>
37.2476

> <Gold.PLP.PLP>
-30.7546

> <Gold.PLP.part.hbond>
-3.3710

> <Gold.PLP.part.metal>
0.0000

> <Gold.PLP.part.buried>
-5.0832

> <Gold.PLP.part.nonpolar>
-22.5531

> <Gold.PLP.part.repulsive>
0.1332

> <Gold.PLP.ligand.clash>
0.0000

> <Gold.PLP.ligand.torsion>
1.1194

> <Gold.PLP.Chemscore.Hbond>
2.8800

> <Gold.PLP.Chemscore.CHOScore>
0.0000

> <Gold.PLP.Chemscore.Metal>
0.0000

> <Gold.Chemscore.Hbonds>
donor molecule, donor type, donor heavy atom, donor atom, acceptor molecule, acceptor atom, score
      P1  H  6896  6909       L1     7  2.00
      P1  H  6934  6947       L1     4  0.56

> <Gold.PLP.Chemscore.Internal.Correction>
0.0917

> <Gold.Rescore>
     Score         DG    S(hbond)    S(metal)    S(lipo)     H(rot)  DE(clash)    DE(int)     intcor
     13.92     -15.13       1.26        0.00      75.83       1.34       0.00       1.21       ----

> <Gold.Chemscore.Fitness>
13.9247

> <Gold.Chemscore.DG>
-15.1337

> <Gold.Chemscore.ZeroCoef>
-5.4800

> <Gold.Chemscore.Hbond>
1.2620

> <Gold.Chemscore.Metal>
0.0000

> <Gold.Chemscore.Lipo>
75.8263

> <Gold.Chemscore.Internal_Hbond>
0.0000

> <Gold.Chemscore.DEClash>
0.0000

> <Gold.Chemscore.DEInternal>
1.2090

> <Gold.Chemscore.Rot>
1.3410

> <Gold.Chemscore.Internal.Correction>
   9.000000E+99

> <Gold.Chemscore.Hbonds>
donor molecule, donor type, donor heavy atom, donor atom, acceptor molecule, acceptor atom, score
      P1  H  6896  6909       L1     7  0.77
      P1  H  6934  6947       L1     4  0.02

> <Gold.Chemscore.Hbond.Weighted>
-4.2150

> <Gold.Chemscore.Metal.Weighted>
-0.0000

> <Gold.Chemscore.Lipo.Weighted>
-8.8717

> <Gold.Chemscore.Internal_Hbond.Weighted>
0.0000

> <Gold.Chemscore.DEClash.Weighted>
0.0000

> <Gold.Chemscore.DEInternal.Weighted>
1.2090

> <Gold.Chemscore.Rot.Weighted>
3.4329

> <Gold.Chemscore.Internal.Correction.Weighted>
   9.000000E+99

> <Gold.Protein.RotatedTorsions>
[ 6907 6896 6895 6894 ] final   67.78 input  -60.11 | X-H torsion
[ 7974 7965 7964 7962 ] final -158.32 input  175.53 | X-H torsion
[ 8008 7997 7996 7995 ] final  -64.50 input   59.86 | X-H torsion
[ 10167 10162 10161 10158 ] final  135.54 input  -65.29 | X-H torsion
[ 10718 10713 10712 10709 ] final   54.92 input   66.30 | X-H torsion
[ 10763 10752 10751 10750 ] final -151.35 input  -60.55 | X-H torsion
[ 11005 11000 10999 10996 ] final   91.36 input  -57.11 | X-H torsion

> <Gold.Protein.ActiveResidues>
 VAL166  LYS551  ARG553  GLY616  TRP617  ASP618  TYR619  PRO620  LYS621  CYS622 
 ASP623  PHE694  ASN695  SER759  ASP760  ASP761  ALA762  ILE779  LEU786  VAL792 
 PHE793  MET794  SER795  GLU796  ALA797  LYS798  CYS799  TRP800  GLU811  SER814 

> <Gold.Protein.RotatedAtoms>
  152.4575  134.5258  159.9795 H   0  0  0  0  0  0  0  0  0  0  0  0  # atno 6907 bound_to 6896
  151.5315  133.3442  159.2927 H   0  0  0  0  0  0  0  0  0  0  0  0  # atno 6908 bound_to 6896
  150.8525  134.7885  159.7083 H   0  0  0  0  0  0  0  0  0  0  0  0  # atno 6909 bound_to 6896
  144.7510  140.3844  143.6048 H   0  0  0  0  0  0  0  0  0  0  0  0  # atno 7974 bound_to 7965
  154.4616  140.0952  156.6907 H   0  0  0  0  0  0  0  0  0  0  0  0  # atno 8008 bound_to 7997
  155.4979  140.3472  155.4347 H   0  0  0  0  0  0  0  0  0  0  0  0  # atno 8009 bound_to 7997
  156.0880  140.1390  156.9617 H   0  0  0  0  0  0  0  0  0  0  0  0  # atno 8010 bound_to 7997
  139.5213  144.6512  151.5297 H   0  0  0  0  0  0  0  0  0  0  0  0  # atno 10167 bound_to 10162
  157.5300  130.8623  149.8674 H   0  0  0  0  0  0  0  0  0  0  0  0  # atno 10718 bound_to 10713
  154.8063  135.3262  154.7423 H   0  0  0  0  0  0  0  0  0  0  0  0  # atno 10763 bound_to 10752
  153.8080  135.6898  153.4849 H   0  0  0  0  0  0  0  0  0  0  0  0  # atno 10764 bound_to 10752
  153.1810  135.4586  154.9973 H   0  0  0  0  0  0  0  0  0  0  0  0  # atno 10765 bound_to 10752
  139.8840  134.8669  156.3417 H   0  0  0  0  0  0  0  0  0  0  0  0  # atno 11005 bound_to 11000
  145.6943  139.1646  143.2629 LP  0  0  0  0  0  0  0  0  0  0  0  0  # atno 17320 bound_to 7965
  146.1461  140.6991  142.9344 LP  0  0  0  0  0  0  0  0  0  0  0  0  # atno 17321 bound_to 7965
  140.6317  143.9063  150.6611 LP  0  0  0  0  0  0  0  0  0  0  0  0  # atno 17342 bound_to 10162
  140.2369  143.3693  152.1519 LP  0  0  0  0  0  0  0  0  0  0  0  0  # atno 17343 bound_to 10162
  156.0415  130.3738  150.1423 LP  0  0  0  0  0  0  0  0  0  0  0  0  # atno 17370 bound_to 10713
  156.9608  130.9804  151.3479 LP  0  0  0  0  0  0  0  0  0  0  0  0  # atno 17371 bound_to 10713
  140.9654  133.7361  156.0460 LP  0  0  0  0  0  0  0  0  0  0  0  0  # atno 17394 bound_to 11000
  140.7937  134.3588  157.5458 LP  0  0  0  0  0  0  0  0  0  0  0  0  # atno 17395 bound_to 11000

$$$$
