AV-unprocessed.smi:686|AV-procd|sdf|3341|dock7
  -GOLD-   22720 0313D 1   1.00000     0.00000
 Structure written by MMmdl.
 41 42  0  0  0  0  0  0  0  0  2 V2000
  149.4604  132.1938  154.3627 C   0  0  0  0  0  0  0  0  0  0  0  0
  148.1477  132.8848  153.9596 C   0  0  2  0  0  0  0  0  0  0  0  0
  147.9190  133.0106  152.4512 C   0  0  0  0  0  0  0  0  0  0  0  0
  146.9676  134.1354  152.2669 N   0  3  1  0  0  0  0  0  0  0  0  0
  145.6879  133.8253  151.5695 C   0  0  0  0  0  0  0  0  0  0  0  0
  145.8448  132.8471  150.3855 C   0  0  0  0  0  0  0  0  0  0  0  0
  144.9739  135.1177  151.1427 C   0  0  0  0  0  0  0  0  0  0  0  0
  146.8244  134.8464  153.5629 C   0  0  0  0  0  0  0  0  0  0  0  0
  147.9329  134.3124  154.4768 C   0  0  2  0  0  0  0  0  0  0  0  0
  149.1408  135.1367  154.3436 N   0  0  0  0  0  0  0  0  0  0  0  0
  149.8544  135.9063  155.7141 S   0  0  0  0  0  0  0  0  0  0  0  0
  148.9934  135.6192  156.8714 O   0  0  0  0  0  0  0  0  0  0  0  0
  151.2738  135.5206  155.7282 O   0  0  0  0  0  0  0  0  0  0  0  0
  149.7044  137.7035  155.2973 C   0  0  0  0  0  0  0  0  0  0  0  0
  151.0620  138.3384  155.1973 C   0  0  0  0  0  0  0  0  0  0  0  0
  152.0823  138.0957  154.2362 C   0  0  0  0  0  0  0  0  0  0  0  0
  153.0847  138.9406  154.6173 C   0  0  0  0  0  0  0  0  0  0  0  0
  152.7188  139.6475  155.7161 O   0  0  0  0  0  0  0  0  0  0  0  0
  151.4244  139.2576  156.0777 N   0  0  0  0  0  0  0  0  0  0  0  0
  150.3337  132.7215  153.9784 H   0  0  0  0  0  0  0  0  0  0  0  0
  149.4965  131.1753  153.9759 H   0  0  0  0  0  0  0  0  0  0  0  0
  149.5542  132.1370  155.4472 H   0  0  0  0  0  0  0  0  0  0  0  0
  147.3302  132.2805  154.3565 H   0  0  0  0  0  0  0  0  0  0  0  0
  148.8500  133.2885  151.9555 H   0  0  0  0  0  0  0  0  0  0  0  0
  147.5941  132.0707  152.0061 H   0  0  0  0  0  0  0  0  0  0  0  0
  145.0440  133.3449  152.3081 H   0  0  0  0  0  0  0  0  0  0  0  0
  144.8682  132.5834  149.9784 H   0  0  0  0  0  0  0  0  0  0  0  0
  146.3273  131.9156  150.6791 H   0  0  0  0  0  0  0  0  0  0  0  0
  146.4230  133.2754  149.5673 H   0  0  0  0  0  0  0  0  0  0  0  0
  143.9951  134.8993  150.7144 H   0  0  0  0  0  0  0  0  0  0  0  0
  145.5437  135.6668  150.3926 H   0  0  0  0  0  0  0  0  0  0  0  0
  144.8172  135.7808  151.9941 H   0  0  0  0  0  0  0  0  0  0  0  0
  146.8696  135.9274  153.4248 H   0  0  0  0  0  0  0  0  0  0  0  0
  145.8582  134.6265  154.0166 H   0  0  0  0  0  0  0  0  0  0  0  0
  147.6145  134.3110  155.5201 H   0  0  0  0  0  0  0  0  0  0  0  0
  149.2432  135.6478  153.4670 H   0  0  0  0  0  0  0  0  0  0  0  0
  149.1615  137.8067  154.3587 H   0  0  0  0  0  0  0  0  0  0  0  0
  149.1024  138.1818  156.0709 H   0  0  0  0  0  0  0  0  0  0  0  0
  152.0810  137.4103  153.4020 H   0  0  0  0  0  0  0  0  0  0  0  0
  154.0707  139.1461  154.2274 H   0  0  0  0  0  0  0  0  0  0  0  0
  147.4490  134.7853  151.6619 H   0  0  0  0  0  0  0  0  0  0  0  0
  1  2  1  0  0  0  0
  1 20  1  0  0  0  0
  1 21  1  0  0  0  0
  1 22  1  0  0  0  0
  2  9  1  0  0  0  0
  2  3  1  0  0  0  0
  2 23  1  0  0  0  0
  3  4  1  0  0  0  0
  3 24  1  0  0  0  0
  3 25  1  0  0  0  0
  4  5  1  0  0  0  0
  4  8  1  0  0  0  0
  4 41  1  0  0  0  0
  5  6  1  0  0  0  0
  5  7  1  0  0  0  0
  5 26  1  0  0  0  0
  6 27  1  0  0  0  0
  6 28  1  0  0  0  0
  6 29  1  0  0  0  0
  7 30  1  0  0  0  0
  7 31  1  0  0  0  0
  7 32  1  0  0  0  0
  8  9  1  0  0  0  0
  8 33  1  0  0  0  0
  8 34  1  0  0  0  0
  9 10  1  0  0  0  0
  9 35  1  0  0  0  0
 10 11  1  0  0  0  0
 10 36  1  0  0  0  0
 11 12  2  0  0  0  0
 11 13  2  0  0  0  0
 11 14  1  0  0  0  0
 14 15  1  0  0  0  0
 14 37  1  0  0  0  0
 14 38  1  0  0  0  0
 15 19  2  0  0  0  0
 15 16  1  0  0  0  0
 16 17  2  0  0  0  0
 16 39  1  0  0  0  0
 17 18  1  0  0  0  0
 17 40  1  0  0  0  0
 18 19  1  0  0  0  0
M  CHG  1   4   1
M  END
> <s_m_source_file>
AV-unprocessed.smi

> <i_m_source_file_index>
686

> <i_lp_mmshare_version>
43012

> <i_f3d_flags>
0

> <s_epik_input>
W0NIM11bQ0BASF0xW0NIMl1OKFtDSF0oW0NIM10pW0NIM10pW0NIMl1bQ0BIXTFbTkhdUyg9TykoPU8pW0NIMl1jMltjSF1bY0hdb24y

> <s_epik_cmdline>
J2VwaWtfcHl0aG9uJywgJy1waCcsICc3LjAnLCAnLXRuJywgJzgnLCAnLW1hJywgJzIwMCcsICctbWV0YWxfYmluZGluZycsICctaW1hZScsICc8aW5maWxlLm1hZT4nLCAnLW9tYWUnLCAnPG91dGZpbGUubWFlPic=

> <r_epik_Ionization_Penalty>
0.00200818

> <r_epik_Ionization_Penalty_Charging>
0.000701289

> <r_epik_Ionization_Penalty_Neutral>
0.00130689

> <r_epik_State_Penalty>
0.00131314

> <r_epik_Charging_Adjusted_Penalty>
0.00201443

> <i_epik_Tot_Q>
1

> <i_epik_Tot_abs_Q>
1

> <r_epik_Metal_State_Penalty>
0.310831

> <b_epik_Metal_Only>
0

> <s_lp_Force_Field>
OPLS_2005

> <r_lp_Energy>
24.0056

> <b_lp_Chiralities_Consistent>
1

> <s_lp_Variant>
AV-unprocessed.smi:686-5

> <Gold.Version>
5.8.1

> <Gold.Id.Protein>
6NUR|6NUR_protein|mol2

> <Gold.PLP.Fitness>
44.4195

> <Gold.PLP.PLP>
-31.0739

> <Gold.PLP.part.hbond>
-4.0000

> <Gold.PLP.part.metal>
0.0000

> <Gold.PLP.part.buried>
-2.8147

> <Gold.PLP.part.nonpolar>
-24.6390

> <Gold.PLP.part.repulsive>
0.0895

> <Gold.PLP.ligand.clash>
0.0000

> <Gold.PLP.ligand.torsion>
0.8201

> <Gold.PLP.Chemscore.Hbond>
4.6000

> <Gold.PLP.Chemscore.CHOScore>
0.0000

> <Gold.PLP.Chemscore.Metal>
0.0000

> <Gold.Chemscore.Hbonds>
donor molecule, donor type, donor heavy atom, donor atom, acceptor molecule, acceptor atom, score
      L1  H     4    41       P1  7948  1.50
      L1  H    10    36       P1  7948  1.00
      P1  H  7997  8008       L1    18  0.96
      P1  H 10752 10764       L1    13  1.00

> <Gold.PLP.Chemscore.Internal.Correction>
1.1859

> <Gold.Rescore>
     Score         DG    S(hbond)    S(metal)    S(lipo)     H(rot)  DE(clash)    DE(int)     intcor
     17.54     -19.13       3.01        0.00      67.09       1.66       0.21       1.38       ----

> <Gold.Chemscore.Fitness>
17.5368

> <Gold.Chemscore.DG>
-19.1270

> <Gold.Chemscore.ZeroCoef>
-5.4800

> <Gold.Chemscore.Hbond>
3.0057

> <Gold.Chemscore.Metal>
0.0000

> <Gold.Chemscore.Lipo>
67.0890

> <Gold.Chemscore.Internal_Hbond>
0.0000

> <Gold.Chemscore.DEClash>
0.2055

> <Gold.Chemscore.DEInternal>
1.3848

> <Gold.Chemscore.Rot>
1.6567

> <Gold.Chemscore.Internal.Correction>
   9.000000E+99

> <Gold.Chemscore.Hbonds>
donor molecule, donor type, donor heavy atom, donor atom, acceptor molecule, acceptor atom, score
      L1  H     4    41       P1  7948  0.38
      L1  H    10    36       P1  7948  0.50
      P1  H  7997  8008       L1    18  0.37
      P1  H 10752 10764       L1    13  0.98

> <Gold.Chemscore.Hbond.Weighted>
-10.0389

> <Gold.Chemscore.Metal.Weighted>
-0.0000

> <Gold.Chemscore.Lipo.Weighted>
-7.8494

> <Gold.Chemscore.Internal_Hbond.Weighted>
0.0000

> <Gold.Chemscore.DEClash.Weighted>
0.2055

> <Gold.Chemscore.DEInternal.Weighted>
1.3848

> <Gold.Chemscore.Rot.Weighted>
4.2413

> <Gold.Chemscore.Internal.Correction.Weighted>
   9.000000E+99

> <Gold.Protein.RotatedTorsions>
[ 6907 6896 6895 6894 ] final -164.98 input  -60.11 | X-H torsion
[ 7974 7965 7964 7962 ] final   58.63 input  175.53 | X-H torsion
[ 8008 7997 7996 7995 ] final  -54.02 input   59.86 | X-H torsion
[ 10167 10162 10161 10158 ] final   25.61 input  -65.29 | X-H torsion
[ 10718 10713 10712 10709 ] final  -52.25 input   66.30 | X-H torsion
[ 10763 10752 10751 10750 ] final  -36.64 input  -60.55 | X-H torsion
[ 11005 11000 10999 10996 ] final   41.89 input  -57.11 | X-H torsion

> <Gold.Protein.ActiveResidues>
 VAL166  LYS551  ARG553  GLY616  TRP617  ASP618  TYR619  PRO620  LYS621  CYS622 
 ASP623  PHE694  ASN695  SER759  ASP760  ASP761  ALA762  ILE779  LEU786  VAL792 
 PHE793  MET794  SER795  GLU796  ALA797  LYS798  CYS799  TRP800  GLU811  SER814 

> <Gold.Protein.RotatedAtoms>
  151.4204  133.3700  159.2755 H   0  0  0  0  0  0  0  0  0  0  0  0  # atno 6907 bound_to 6896
  150.9297  134.8714  159.7554 H   0  0  0  0  0  0  0  0  0  0  0  0  # atno 6908 bound_to 6896
  152.5022  134.4148  159.9513 H   0  0  0  0  0  0  0  0  0  0  0  0  # atno 6909 bound_to 6896
  145.9161  139.3692  143.0506 H   0  0  0  0  0  0  0  0  0  0  0  0  # atno 7974 bound_to 7965
  154.4150  140.1186  156.5249 H   0  0  0  0  0  0  0  0  0  0  0  0  # atno 8008 bound_to 7997
  155.6665  140.3496  155.4783 H   0  0  0  0  0  0  0  0  0  0  0  0  # atno 8009 bound_to 7997
  155.9669  140.1134  157.0836 H   0  0  0  0  0  0  0  0  0  0  0  0  # atno 8010 bound_to 7997
  140.5092  144.0189  150.6365 H   0  0  0  0  0  0  0  0  0  0  0  0  # atno 10167 bound_to 10162
  156.1638  130.4149  149.9752 H   0  0  0  0  0  0  0  0  0  0  0  0  # atno 10718 bound_to 10713
  153.8831  135.6819  153.4765 H   0  0  0  0  0  0  0  0  0  0  0  0  # atno 10763 bound_to 10752
  153.1223  135.4734  154.9213 H   0  0  0  0  0  0  0  0  0  0  0  0  # atno 10764 bound_to 10752
  154.7659  135.3224  154.8239 H   0  0  0  0  0  0  0  0  0  0  0  0  # atno 10765 bound_to 10752
  140.1791  134.4126  155.8210 H   0  0  0  0  0  0  0  0  0  0  0  0  # atno 11005 bound_to 11000
  145.8610  140.9475  143.0700 LP  0  0  0  0  0  0  0  0  0  0  0  0  # atno 17320 bound_to 7965
  144.6748  140.0530  143.7478 LP  0  0  0  0  0  0  0  0  0  0  0  0  # atno 17321 bound_to 7965
  140.3506  143.2965  152.0491 LP  0  0  0  0  0  0  0  0  0  0  0  0  # atno 17342 bound_to 10162
  139.4891  144.6376  151.6943 LP  0  0  0  0  0  0  0  0  0  0  0  0  # atno 17343 bound_to 10162
  156.7574  130.9138  151.3640 LP  0  0  0  0  0  0  0  0  0  0  0  0  # atno 17370 bound_to 10713
  157.6752  130.9088  150.0134 LP  0  0  0  0  0  0  0  0  0  0  0  0  # atno 17371 bound_to 10713
  141.2222  133.6992  156.7899 LP  0  0  0  0  0  0  0  0  0  0  0  0  # atno 17394 bound_to 11000
  140.2288  134.8702  157.3454 LP  0  0  0  0  0  0  0  0  0  0  0  0  # atno 17395 bound_to 11000

$$$$
