AV-unprocessed.smi:1999|AV-procd|sdf|8098|dock1
  -GOLD-   2272010313D 1   1.00000     0.00000
 Structure written by MMmdl.
 38 39  0  0  0  0  0  0  0  0  3 V2000
  148.9839  141.0284  154.9267 C   0  0  0  0  0  0  0  0  0  0  0  0
  149.8568  139.8249  154.8227 C   0  0  0  0  0  0  0  0  0  0  0  0
  151.1899  139.8954  154.7888 N   0  0  0  0  0  0  0  0  0  0  0  0
  151.7772  138.6429  154.6897 N   0  0  0  0  0  0  0  0  0  0  0  0
  150.8825  137.6457  154.6380 C   0  0  0  0  0  0  0  0  0  0  0  0
  151.2480  136.3572  154.5368 N   0  5  0  0  0  0  0  0  0  0  0  0
  150.5066  135.4000  155.1355 C   0  0  0  0  0  0  0  0  0  0  0  0
  150.6669  134.9615  156.2765 O   0  0  0  0  0  0  0  0  0  0  0  0
  149.4957  134.9490  154.3773 N   0  0  0  0  0  0  0  0  0  0  0  0
  148.4560  133.9997  154.7795 C   0  0  2  0  0  0  0  0  0  0  0  0
  149.1146  132.7580  155.3951 C   0  0  0  0  0  0  0  0  0  0  0  0
  147.5599  133.6279  153.5759 C   0  0  0  0  0  0  0  0  0  0  0  0
  146.8784  134.8072  152.9848 N   0  3  0  0  0  0  0  0  0  0  0  0
  146.0827  134.4889  151.7775 C   0  0  0  0  0  0  0  0  0  0  0  0
  145.5079  135.7814  151.1728 C   0  0  0  0  0  0  0  0  0  0  0  0
  144.7273  136.4624  152.1489 O   0  0  0  0  0  0  0  0  0  0  0  0
  145.4992  136.8358  153.2848 C   0  0  0  0  0  0  0  0  0  0  0  0
  146.0632  135.5734  153.9568 C   0  0  0  0  0  0  0  0  0  0  0  0
  149.2101  138.1955  154.7291 S   0  0  0  0  0  0  0  0  0  0  0  0
  148.5681  141.2712  153.9489 H   0  0  0  0  0  0  0  0  0  0  0  0
  149.5534  141.8849  155.2889 H   0  0  0  0  0  0  0  0  0  0  0  0
  148.1641  140.8375  155.6195 H   0  0  0  0  0  0  0  0  0  0  0  0
  149.4184  135.3337  153.4466 H   0  0  0  0  0  0  0  0  0  0  0  0
  147.8370  134.4469  155.5584 H   0  0  0  0  0  0  0  0  0  0  0  0
  148.3639  132.0409  155.7285 H   0  0  0  0  0  0  0  0  0  0  0  0
  149.7213  133.0249  156.2611 H   0  0  0  0  0  0  0  0  0  0  0  0
  149.7624  132.2530  154.6777 H   0  0  0  0  0  0  0  0  0  0  0  0
  148.1929  133.1679  152.8154 H   0  0  0  0  0  0  0  0  0  0  0  0
  146.8235  132.8728  153.8548 H   0  0  0  0  0  0  0  0  0  0  0  0
  146.7111  133.9892  151.0391 H   0  0  0  0  0  0  0  0  0  0  0  0
  145.2774  133.8002  152.0378 H   0  0  0  0  0  0  0  0  0  0  0  0
  146.3075  136.4313  150.8127 H   0  0  0  0  0  0  0  0  0  0  0  0
  144.8768  135.5478  150.3152 H   0  0  0  0  0  0  0  0  0  0  0  0
  146.3029  137.5127  152.9896 H   0  0  0  0  0  0  0  0  0  0  0  0
  144.8628  137.3807  153.9821 H   0  0  0  0  0  0  0  0  0  0  0  0
  145.2486  134.9498  154.3280 H   0  0  0  0  0  0  0  0  0  0  0  0
  146.6662  135.8569  154.8191 H   0  0  0  0  0  0  0  0  0  0  0  0
  147.6175  135.4239  152.6751 H   0  0  0  0  0  0  0  0  0  0  0  0
  1  2  1  0  0  0  0
  1 20  1  0  0  0  0
  1 21  1  0  0  0  0
  1 22  1  0  0  0  0
  2 19  1  0  0  0  0
  2  3  2  0  0  0  0
  3  4  1  0  0  0  0
  4  5  2  0  0  0  0
  5  6  1  0  0  0  0
  5 19  1  0  0  0  0
  6  7  1  0  0  0  0
  7  8  2  0  0  0  0
  7  9  1  0  0  0  0
  9 10  1  0  0  0  0
  9 23  1  0  0  0  0
 10 11  1  0  0  0  0
 10 12  1  0  0  0  0
 10 24  1  0  0  0  0
 11 25  1  0  0  0  0
 11 26  1  0  0  0  0
 11 27  1  0  0  0  0
 12 13  1  0  0  0  0
 12 28  1  0  0  0  0
 12 29  1  0  0  0  0
 13 18  1  0  0  0  0
 13 14  1  0  0  0  0
 13 38  1  0  0  0  0
 14 15  1  0  0  0  0
 14 30  1  0  0  0  0
 14 31  1  0  0  0  0
 15 16  1  0  0  0  0
 15 32  1  0  0  0  0
 15 33  1  0  0  0  0
 16 17  1  0  0  0  0
 17 18  1  0  0  0  0
 17 34  1  0  0  0  0
 17 35  1  0  0  0  0
 18 36  1  0  0  0  0
 18 37  1  0  0  0  0
M  CHG  1   6  -1
M  CHG  1  13   1
M  END
> <s_m_source_file>
AV-unprocessed.smi

> <i_m_source_file_index>
1999

> <i_lp_mmshare_version>
43012

> <i_f3d_flags>
0

> <s_epik_input>
W0NIM11jMW5uYyhzMSlbTkhdQyg9TylbTkhdW0NASF0oW0NIM10pW0NIMl1OMltDSDJdW0NIMl1PW0NIMl1bQ0gyXTI=

> <s_epik_cmdline>
J2VwaWtfcHl0aG9uJywgJy1waCcsICc3LjAnLCAnLXRuJywgJzgnLCAnLW1hJywgJzIwMCcsICctbWV0YWxfYmluZGluZycsICctaW1hZScsICc8aW5maWxlLm1hZT4nLCAnLW9tYWUnLCAnPG91dGZpbGUubWFlPic=

> <r_lp_tautomer_probability>
1

> <r_epik_Ionization_Penalty>
3.39984

> <r_epik_Ionization_Penalty_Charging>
3.28696

> <r_epik_Ionization_Penalty_Neutral>
0.11288

> <r_epik_State_Penalty>
3.47917

> <r_epik_Charging_Adjusted_Penalty>
6.76613

> <i_epik_Tot_Q>
0

> <i_epik_Tot_abs_Q>
2

> <r_epik_Metal_State_Penalty>
1.13142

> <b_epik_Metal_Only>
1

> <s_lp_Force_Field>
OPLS_2005

> <r_lp_Energy>
12.288

> <b_lp_Chiralities_Consistent>
1

> <s_lp_Variant>
AV-unprocessed.smi:1999-7

> <Gold.Version>
5.8.1

> <Gold.Id.Protein>
6NUR|6NUR_protein|mol2

> <Gold.PLP.Fitness>
42.7278

> <Gold.PLP.PLP>
-27.3968

> <Gold.PLP.part.hbond>
-4.0000

> <Gold.PLP.part.metal>
0.0000

> <Gold.PLP.part.buried>
-6.5063

> <Gold.PLP.part.nonpolar>
-20.0279

> <Gold.PLP.part.repulsive>
1.0821

> <Gold.PLP.ligand.clash>
0.0000

> <Gold.PLP.ligand.torsion>
1.0384

> <Gold.PLP.Chemscore.Hbond>
5.7000

> <Gold.PLP.Chemscore.CHOScore>
0.0000

> <Gold.PLP.Chemscore.Metal>
0.0000

> <Gold.Chemscore.Hbonds>
donor molecule, donor type, donor heavy atom, donor atom, acceptor molecule, acceptor atom, score
      L1  H     9    23       P1  7948  0.80
      L1  H    13    38       P1  7948  2.00
      P1  H  7989  7998       L1     3  1.00
      P1  H 10752 10764       L1     6  2.00

> <Gold.PLP.Chemscore.Internal.Correction>
0.3078

> <Gold.Rescore>
     Score         DG    S(hbond)    S(metal)    S(lipo)     H(rot)  DE(clash)    DE(int)     intcor
     14.33     -16.59       2.87        0.00      48.04       1.60       0.11       2.14       ----

> <Gold.Chemscore.Fitness>
14.3301

> <Gold.Chemscore.DG>
-16.5855

> <Gold.Chemscore.ZeroCoef>
-5.4800

> <Gold.Chemscore.Hbond>
2.8712

> <Gold.Chemscore.Metal>
0.0000

> <Gold.Chemscore.Lipo>
48.0423

> <Gold.Chemscore.Internal_Hbond>
0.0000

> <Gold.Chemscore.DEClash>
0.1117

> <Gold.Chemscore.DEInternal>
2.1437

> <Gold.Chemscore.Rot>
1.6036

> <Gold.Chemscore.Internal.Correction>
   9.000000E+99

> <Gold.Chemscore.Hbonds>
donor molecule, donor type, donor heavy atom, donor atom, acceptor molecule, acceptor atom, score
      L1  H     9    23       P1  7948  0.12
      L1  H    13    38       P1  7948  1.00
      P1  H  7989  7998       L1     3  0.55
      P1  H 10752 10764       L1     6  0.45

> <Gold.Chemscore.Hbond.Weighted>
-9.5899

> <Gold.Chemscore.Metal.Weighted>
-0.0000

> <Gold.Chemscore.Lipo.Weighted>
-5.6210

> <Gold.Chemscore.Internal_Hbond.Weighted>
0.0000

> <Gold.Chemscore.DEClash.Weighted>
0.1117

> <Gold.Chemscore.DEInternal.Weighted>
2.1437

> <Gold.Chemscore.Rot.Weighted>
4.1053

> <Gold.Chemscore.Internal.Correction.Weighted>
   9.000000E+99

> <Gold.Protein.RotatedTorsions>
[ 6907 6896 6895 6894 ] final  -52.73 input  -60.11 | X-H torsion
[ 7974 7965 7964 7962 ] final  178.89 input  175.53 | X-H torsion
[ 8008 7997 7996 7995 ] final  178.72 input   59.86 | X-H torsion
[ 10167 10162 10161 10158 ] final -109.81 input  -65.29 | X-H torsion
[ 10718 10713 10712 10709 ] final   23.91 input   66.30 | X-H torsion
[ 10763 10752 10751 10750 ] final  -67.73 input  -60.55 | X-H torsion
[ 11005 11000 10999 10996 ] final  -43.33 input  -57.11 | X-H torsion

> <Gold.Protein.ActiveResidues>
 VAL166  LYS551  ARG553  GLY616  TRP617  ASP618  TYR619  PRO620  LYS621  CYS622 
 ASP623  PHE694  ASN695  SER759  ASP760  ASP761  ALA762  ILE779  LEU786  VAL792 
 PHE793  MET794  SER795  GLU796  ALA797  LYS798  CYS799  TRP800  GLU811  SER814 

> <Gold.Protein.RotatedAtoms>
  150.8491  134.7809  159.6993 H   0  0  0  0  0  0  0  0  0  0  0  0  # atno 6907 bound_to 6896
  152.4560  134.5287  159.9814 H   0  0  0  0  0  0  0  0  0  0  0  0  # atno 6908 bound_to 6896
  151.5412  133.3394  159.2971 H   0  0  0  0  0  0  0  0  0  0  0  0  # atno 6909 bound_to 6896
  144.7151  140.0466  143.6436 H   0  0  0  0  0  0  0  0  0  0  0  0  # atno 7974 bound_to 7965
  156.0515  140.1326  157.0044 H   0  0  0  0  0  0  0  0  0  0  0  0  # atno 8008 bound_to 7997
  154.4437  140.1010  156.6454 H   0  0  0  0  0  0  0  0  0  0  0  0  # atno 8009 bound_to 7997
  155.5516  140.3463  155.4472 H   0  0  0  0  0  0  0  0  0  0  0  0  # atno 8010 bound_to 7997
  140.1513  143.4197  152.1493 H   0  0  0  0  0  0  0  0  0  0  0  0  # atno 10167 bound_to 10162
  157.1726  130.6766  149.6083 H   0  0  0  0  0  0  0  0  0  0  0  0  # atno 10718 bound_to 10713
  154.3787  135.6079  153.5779 H   0  0  0  0  0  0  0  0  0  0  0  0  # atno 10763 bound_to 10752
  152.9788  135.5855  154.4435 H   0  0  0  0  0  0  0  0  0  0  0  0  # atno 10764 bound_to 10752
  154.4201  135.2845  155.1959 H   0  0  0  0  0  0  0  0  0  0  0  0  # atno 10765 bound_to 10752
  141.0376  133.6793  156.2718 H   0  0  0  0  0  0  0  0  0  0  0  0  # atno 11005 bound_to 11000
  145.9979  139.3067  143.0945 LP  0  0  0  0  0  0  0  0  0  0  0  0  # atno 17320 bound_to 7965
  145.8827  140.9352  143.0593 LP  0  0  0  0  0  0  0  0  0  0  0  0  # atno 17321 bound_to 7965
  139.5424  144.7269  151.4690 LP  0  0  0  0  0  0  0  0  0  0  0  0  # atno 17342 bound_to 10162
  140.6701  143.8313  150.6988 LP  0  0  0  0  0  0  0  0  0  0  0  0  # atno 17343 bound_to 10162
  155.9736  130.4674  150.6323 LP  0  0  0  0  0  0  0  0  0  0  0  0  # atno 17370 bound_to 10713
  157.4029  131.0812  151.1292 LP  0  0  0  0  0  0  0  0  0  0  0  0  # atno 17371 bound_to 10713
  140.6293  134.5280  157.5557 LP  0  0  0  0  0  0  0  0  0  0  0  0  # atno 17394 bound_to 11000
  139.9252  134.8070  156.1090 LP  0  0  0  0  0  0  0  0  0  0  0  0  # atno 17395 bound_to 11000

$$$$
