AV-unprocessed.smi:2405|AV-procd|sdf|9513|dock9
  -GOLD-   2272013143D 1   1.00000     0.00000
 Structure written by MMmdl.
 36 37  0  0  0  0  0  0  0  0  2 V2000
  153.0687  141.7970  161.6698 C   0  0  0  0  0  0  0  0  0  0  0  0
  152.3917  143.1468  161.4094 C   0  0  0  0  0  0  0  0  0  0  0  0
  151.8861  143.2745  160.0114 C   0  0  0  0  0  0  0  0  0  0  0  0
  150.9234  142.5012  159.5028 N   0  0  0  0  0  0  0  0  0  0  0  0
  150.6420  142.7985  158.1650 C   0  0  0  0  0  0  0  0  0  0  0  0
  149.5744  142.0374  157.4349 C   0  0  0  0  0  0  0  0  0  0  0  0
  150.2020  141.1698  156.3438 C   0  0  0  0  0  0  0  0  0  0  0  0
  150.6009  141.6855  155.2993 O   0  0  0  0  0  0  0  0  0  0  0  0
  150.2837  139.8554  156.5993 N   0  0  0  0  0  0  0  0  0  0  0  0
  150.8479  138.8544  155.6986 C   0  0  1  0  0  0  0  0  0  0  0  0
  152.2778  139.2285  155.2533 C   0  0  0  0  0  0  0  0  0  0  0  0
  153.1658  138.0338  155.6217 C   0  0  0  0  0  0  0  0  0  0  0  0
  152.4497  137.3377  156.7913 C   0  0  1  0  0  0  0  0  0  0  0  0
  152.7445  137.9756  158.1664 C   0  0  0  0  0  0  0  0  0  0  0  0
  152.1445  137.4884  159.1498 O   0  0  0  0  0  0  0  0  0  0  0  0
  153.5585  138.9237  158.2299 O   0  5  0  0  0  0  0  0  0  0  0  0
  150.9669  137.4962  156.4155 C   0  0  0  0  0  0  0  0  0  0  0  0
  151.4300  143.8028  157.6586 C   0  0  0  0  0  0  0  0  0  0  0  0
  152.5468  144.4159  158.8465 S   0  0  0  0  0  0  0  0  0  0  0  0
  153.4316  141.7361  162.6960 H   0  0  0  0  0  0  0  0  0  0  0  0
  153.9205  141.6493  161.0054 H   0  0  0  0  0  0  0  0  0  0  0  0
  152.3732  140.9720  161.5123 H   0  0  0  0  0  0  0  0  0  0  0  0
  151.5587  143.2850  162.0998 H   0  0  0  0  0  0  0  0  0  0  0  0
  153.0944  143.9580  161.6014 H   0  0  0  0  0  0  0  0  0  0  0  0
  149.0202  141.3985  158.1235 H   0  0  0  0  0  0  0  0  0  0  0  0
  148.8438  142.7154  156.9906 H   0  0  0  0  0  0  0  0  0  0  0  0
  149.9384  139.5213  157.4879 H   0  0  0  0  0  0  0  0  0  0  0  0
  150.1942  138.7421  154.8317 H   0  0  0  0  0  0  0  0  0  0  0  0
  152.3267  139.4500  154.1869 H   0  0  0  0  0  0  0  0  0  0  0  0
  152.6306  140.1166  155.7799 H   0  0  0  0  0  0  0  0  0  0  0  0
  153.2120  137.3456  154.7768 H   0  0  0  0  0  0  0  0  0  0  0  0
  154.1933  138.3283  155.8383 H   0  0  0  0  0  0  0  0  0  0  0  0
  152.7297  136.2853  156.8472 H   0  0  0  0  0  0  0  0  0  0  0  0
  150.2849  137.4036  157.2627 H   0  0  0  0  0  0  0  0  0  0  0  0
  150.6964  136.7003  155.7205 H   0  0  0  0  0  0  0  0  0  0  0  0
  151.4187  144.2179  156.6616 H   0  0  0  0  0  0  0  0  0  0  0  0
  1  2  1  0  0  0  0
  1 20  1  0  0  0  0
  1 21  1  0  0  0  0
  1 22  1  0  0  0  0
  2  3  1  0  0  0  0
  2 23  1  0  0  0  0
  2 24  1  0  0  0  0
  3 19  1  0  0  0  0
  3  4  2  0  0  0  0
  4  5  1  0  0  0  0
  5  6  1  0  0  0  0
  5 18  2  0  0  0  0
  6  7  1  0  0  0  0
  6 25  1  0  0  0  0
  6 26  1  0  0  0  0
  7  8  2  0  0  0  0
  7  9  1  0  0  0  0
  9 10  1  0  0  0  0
  9 27  1  0  0  0  0
 10 17  1  0  0  0  0
 10 11  1  0  0  0  0
 10 28  1  0  0  0  0
 11 12  1  0  0  0  0
 11 29  1  0  0  0  0
 11 30  1  0  0  0  0
 12 13  1  0  0  0  0
 12 31  1  0  0  0  0
 12 32  1  0  0  0  0
 13 14  1  0  0  0  0
 13 17  1  0  0  0  0
 13 33  1  0  0  0  0
 14 15  2  0  0  0  0
 14 16  1  0  0  0  0
 17 34  1  0  0  0  0
 17 35  1  0  0  0  0
 18 19  1  0  0  0  0
 18 36  1  0  0  0  0
M  CHG  1  16  -1
M  END
> <s_m_source_file>
AV-unprocessed.smi

> <i_m_source_file_index>
2405

> <i_lp_mmshare_version>
43012

> <i_f3d_flags>
0

> <s_epik_input>
W0NIM11bQ0gyXWMxbmMoW2NIXXMxKVtDSDJdQyg9TylbTkhdW0NAQEhdMltDSDJdW0NIMl1bQ0BIXShbQ0gyXTIpQyg9TylbT0hd

> <s_epik_cmdline>
J2VwaWtfcHl0aG9uJywgJy1waCcsICc3LjAnLCAnLXRuJywgJzgnLCAnLW1hJywgJzIwMCcsICctbWV0YWxfYmluZGluZycsICctaW1hZScsICc8aW5maWxlLm1hZT4nLCAnLW9tYWUnLCAnPG91dGZpbGUubWFlPic=

> <r_epik_Ionization_Penalty>
0.000544611

> <r_epik_Ionization_Penalty_Charging>
0.000481685

> <r_epik_Ionization_Penalty_Neutral>
6.29266e-05

> <r_epik_State_Penalty>
0.00029893

> <r_epik_Charging_Adjusted_Penalty>
0.000780614

> <i_epik_Tot_Q>
-1

> <i_epik_Tot_abs_Q>
1

> <r_epik_Metal_State_Penalty>
-0

> <b_epik_Metal_Only>
0

> <s_lp_Force_Field>
OPLS_2005

> <r_lp_Energy>
7.49368

> <b_lp_Chiralities_Consistent>
1

> <s_lp_Variant>
AV-unprocessed.smi:2405-2

> <Gold.Version>
5.8.1

> <Gold.Id.Protein>
6NUR|6NUR_protein|mol2

> <Gold.PLP.Fitness>
42.2852

> <Gold.PLP.PLP>
-34.1276

> <Gold.PLP.part.hbond>
-2.7577

> <Gold.PLP.part.metal>
0.0000

> <Gold.PLP.part.buried>
-0.4912

> <Gold.PLP.part.nonpolar>
-31.3744

> <Gold.PLP.part.repulsive>
0.1488

> <Gold.PLP.ligand.clash>
0.0000

> <Gold.PLP.ligand.torsion>
0.3540

> <Gold.PLP.Chemscore.Hbond>
2.1365

> <Gold.PLP.Chemscore.CHOScore>
0.8031

> <Gold.PLP.Chemscore.Metal>
0.0000

> <Gold.Chemscore.Hbonds>
donor molecule, donor type, donor heavy atom, donor atom, acceptor molecule, acceptor atom, score
      P1  H  7989  7998       L1     8  0.21
      P1  H  7997  8008       L1    16  2.00
      L1  C    18    36       P1  8028  0.33

> <Gold.PLP.Chemscore.Internal.Correction>
0.0467

> <Gold.Rescore>
     Score         DG    S(hbond)    S(metal)    S(lipo)     H(rot)  DE(clash)    DE(int)     intcor
     15.02     -17.39       1.55        0.00     102.61       2.06       0.50       1.87       ----

> <Gold.Chemscore.Fitness>
15.0228

> <Gold.Chemscore.DG>
-17.3907

> <Gold.Chemscore.ZeroCoef>
-5.4800

> <Gold.Chemscore.Hbond>
1.5531

> <Gold.Chemscore.Metal>
0.0000

> <Gold.Chemscore.Lipo>
102.6127

> <Gold.Chemscore.Internal_Hbond>
0.0000

> <Gold.Chemscore.DEClash>
0.4990

> <Gold.Chemscore.DEInternal>
1.8689

> <Gold.Chemscore.Rot>
2.0635

> <Gold.Chemscore.Internal.Correction>
   9.000000E+99

> <Gold.Chemscore.Hbonds>
donor molecule, donor type, donor heavy atom, donor atom, acceptor molecule, acceptor atom, score
      P1  H  7989  7998       L1     8  0.21
      P1  H  7997  8008       L1    16  0.92

> <Gold.Chemscore.Hbond.Weighted>
-5.1875

> <Gold.Chemscore.Metal.Weighted>
-0.0000

> <Gold.Chemscore.Lipo.Weighted>
-12.0057

> <Gold.Chemscore.Internal_Hbond.Weighted>
0.0000

> <Gold.Chemscore.DEClash.Weighted>
0.4990

> <Gold.Chemscore.DEInternal.Weighted>
1.8689

> <Gold.Chemscore.Rot.Weighted>
5.2825

> <Gold.Chemscore.Internal.Correction.Weighted>
   9.000000E+99

> <Gold.Protein.RotatedTorsions>
[ 6907 6896 6895 6894 ] final -158.21 input  -60.11 | X-H torsion
[ 7974 7965 7964 7962 ] final  -66.51 input  175.53 | X-H torsion
[ 8008 7997 7996 7995 ] final -111.35 input   59.86 | X-H torsion
[ 10167 10162 10161 10158 ] final   85.83 input  -65.29 | X-H torsion
[ 10718 10713 10712 10709 ] final   28.89 input   66.30 | X-H torsion
[ 10763 10752 10751 10750 ] final   94.68 input  -60.55 | X-H torsion
[ 11005 11000 10999 10996 ] final -160.15 input  -57.11 | X-H torsion

> <Gold.Protein.ActiveResidues>
 VAL166  LYS551  ARG553  GLY616  TRP617  ASP618  TYR619  PRO620  LYS621  CYS622 
 ASP623  PHE694  ASN695  SER759  ASP760  ASP761  ALA762  ILE779  LEU786  VAL792 
 PHE793  MET794  SER795  GLU796  ALA797  LYS798  CYS799  TRP800  GLU811  SER814 

> <Gold.Protein.RotatedAtoms>
  151.3146  133.4066  159.2649 H   0  0  0  0  0  0  0  0  0  0  0  0  # atno 6907 bound_to 6896
  151.0085  134.9379  159.8004 H   0  0  0  0  0  0  0  0  0  0  0  0  # atno 6908 bound_to 6896
  152.5294  134.3111  159.9166 H   0  0  0  0  0  0  0  0  0  0  0  0  # atno 6909 bound_to 6896
  145.7408  140.8954  143.0531 H   0  0  0  0  0  0  0  0  0  0  0  0  # atno 7974 bound_to 7965
  154.9885  140.0395  157.2309 H   0  0  0  0  0  0  0  0  0  0  0  0  # atno 8008 bound_to 7997
  154.7649  140.2791  155.6161 H   0  0  0  0  0  0  0  0  0  0  0  0  # atno 8009 bound_to 7997
  156.2911  140.2621  156.2437 H   0  0  0  0  0  0  0  0  0  0  0  0  # atno 8010 bound_to 7997
  139.8938  144.6370  150.8710 H   0  0  0  0  0  0  0  0  0  0  0  0  # atno 10167 bound_to 10162
  157.2393  130.7061  149.6351 H   0  0  0  0  0  0  0  0  0  0  0  0  # atno 10718 bound_to 10713
  153.2445  135.4281  155.0732 H   0  0  0  0  0  0  0  0  0  0  0  0  # atno 10763 bound_to 10752
  154.8355  135.3410  154.6602 H   0  0  0  0  0  0  0  0  0  0  0  0  # atno 10764 bound_to 10752
  153.7025  135.7027  153.5116 H   0  0  0  0  0  0  0  0  0  0  0  0  # atno 10765 bound_to 10752
  140.6347  134.4614  157.5231 H   0  0  0  0  0  0  0  0  0  0  0  0  # atno 11005 bound_to 11000
  144.6871  139.9458  143.7476 LP  0  0  0  0  0  0  0  0  0  0  0  0  # atno 17320 bound_to 7965
  146.0449  139.3456  143.0674 LP  0  0  0  0  0  0  0  0  0  0  0  0  # atno 17321 bound_to 7965
  140.7721  143.3490  151.2053 LP  0  0  0  0  0  0  0  0  0  0  0  0  # atno 17342 bound_to 10162
  139.7086  143.9414  152.2938 LP  0  0  0  0  0  0  0  0  0  0  0  0  # atno 17343 bound_to 10162
  155.9671  130.4463  150.5536 LP  0  0  0  0  0  0  0  0  0  0  0  0  # atno 17370 bound_to 10713
  157.3395  131.0714  151.1799 LP  0  0  0  0  0  0  0  0  0  0  0  0  # atno 17371 bound_to 10713
  139.9103  134.8360  156.1554 LP  0  0  0  0  0  0  0  0  0  0  0  0  # atno 17394 bound_to 11000
  141.0650  133.6823  156.2027 LP  0  0  0  0  0  0  0  0  0  0  0  0  # atno 17395 bound_to 11000

$$$$
