AV-unprocessed.smi:1225|AV-procd|sdf|5136|dock7
  -GOLD-   22720 4203D 1   1.00000     0.00000
 Structure written by MMmdl.
 48 50  0  0  0  0  0  0  0  0  1 V2000
  143.2203  145.9702  154.0274 C   0  0  0  0  0  0  0  0  0  0  0  0
  143.8132  144.6949  154.5208 C   0  0  0  0  0  0  0  0  0  0  0  0
  143.3667  144.0400  155.5951 N   0  0  0  0  0  0  0  0  0  0  0  0
  144.0898  142.8715  155.8448 C   0  0  0  0  0  0  0  0  0  0  0  0
  145.0992  142.6398  154.9429 C   0  0  0  0  0  0  0  0  0  0  0  0
  146.0550  141.4908  154.9228 C   0  0  0  0  0  0  0  0  0  0  0  0
  146.8716  141.3932  156.1367 N   0  0  0  0  0  0  0  0  0  0  0  0
  146.0810  140.8391  157.2327 C   0  0  0  0  0  0  0  0  0  0  0  0
  148.0850  140.5960  155.9233 C   0  0  0  0  0  0  0  0  0  0  0  0
  149.3167  141.3644  155.3895 C   0  0  2  0  0  0  0  0  0  0  0  0
  148.9454  142.0696  154.2209 O   0  0  0  0  0  0  0  0  0  0  0  0
  150.5860  140.5279  155.1329 C   0  0  0  0  0  0  0  0  0  0  0  0
  151.4105  140.3943  156.3201 N   0  0  0  0  0  0  0  0  0  0  0  0
  152.2305  139.3716  156.6301 C   0  0  0  0  0  0  0  0  0  0  0  0
  152.8966  139.4523  157.7784 N   0  0  0  0  0  0  0  0  0  0  0  0
  152.4529  140.6668  158.2733 C   0  0  0  0  0  0  0  0  0  0  0  0
  152.7765  141.3426  159.4701 C   0  0  0  0  0  0  0  0  0  0  0  0
  152.1914  142.5917  159.7781 C   0  0  0  0  0  0  0  0  0  0  0  0
  152.5646  143.2808  161.0788 C   0  0  0  0  0  0  0  0  0  0  0  0
  151.2677  143.1846  158.8800 C   0  0  0  0  0  0  0  0  0  0  0  0
  150.6256  144.5249  159.1906 C   0  0  0  0  0  0  0  0  0  0  0  0
  150.9349  142.5237  157.6790 C   0  0  0  0  0  0  0  0  0  0  0  0
  151.5221  141.2807  157.3851 C   0  0  0  0  0  0  0  0  0  0  0  0
  145.1728  143.8990  153.7379 S   0  0  0  0  0  0  0  0  0  0  0  0
  142.6229  146.4428  154.8077 H   0  0  0  0  0  0  0  0  0  0  0  0
  142.5808  145.7738  153.1667 H   0  0  0  0  0  0  0  0  0  0  0  0
  144.0104  146.6591  153.7284 H   0  0  0  0  0  0  0  0  0  0  0  0
  143.8172  142.2570  156.6902 H   0  0  0  0  0  0  0  0  0  0  0  0
  145.5089  140.5586  154.7717 H   0  0  0  0  0  0  0  0  0  0  0  0
  146.6835  141.5968  154.0424 H   0  0  0  0  0  0  0  0  0  0  0  0
  146.6667  140.8039  158.1519 H   0  0  0  0  0  0  0  0  0  0  0  0
  145.7454  139.8266  157.0048 H   0  0  0  0  0  0  0  0  0  0  0  0
  145.2021  141.4513  157.4360 H   0  0  0  0  0  0  0  0  0  0  0  0
  148.3903  140.1346  156.8642 H   0  0  0  0  0  0  0  0  0  0  0  0
  147.8600  139.7579  155.2619 H   0  0  0  0  0  0  0  0  0  0  0  0
  149.5615  142.1236  156.1332 H   0  0  0  0  0  0  0  0  0  0  0  0
  148.7624  142.9659  154.4577 H   0  0  0  0  0  0  0  0  0  0  0  0
  150.3178  139.5266  154.7947 H   0  0  0  0  0  0  0  0  0  0  0  0
  151.1938  140.9822  154.3492 H   0  0  0  0  0  0  0  0  0  0  0  0
  152.3470  138.5212  155.9739 H   0  0  0  0  0  0  0  0  0  0  0  0
  153.4802  140.8905  160.1537 H   0  0  0  0  0  0  0  0  0  0  0  0
  151.6841  143.4077  161.7091 H   0  0  0  0  0  0  0  0  0  0  0  0
  152.9952  144.2629  160.8825 H   0  0  0  0  0  0  0  0  0  0  0  0
  153.2973  142.7009  161.6408 H   0  0  0  0  0  0  0  0  0  0  0  0
  149.9397  144.8306  158.3998 H   0  0  0  0  0  0  0  0  0  0  0  0
  151.3866  145.2990  159.2911 H   0  0  0  0  0  0  0  0  0  0  0  0
  150.0603  144.4707  160.1211 H   0  0  0  0  0  0  0  0  0  0  0  0
  150.2336  142.9635  156.9853 H   0  0  0  0  0  0  0  0  0  0  0  0
  1  2  1  0  0  0  0
  1 25  1  0  0  0  0
  1 26  1  0  0  0  0
  1 27  1  0  0  0  0
  2 24  1  0  0  0  0
  2  3  2  0  0  0  0
  3  4  1  0  0  0  0
  4  5  2  0  0  0  0
  4 28  1  0  0  0  0
  5  6  1  0  0  0  0
  5 24  1  0  0  0  0
  6  7  1  0  0  0  0
  6 29  1  0  0  0  0
  6 30  1  0  0  0  0
  7  8  1  0  0  0  0
  7  9  1  0  0  0  0
  8 31  1  0  0  0  0
  8 32  1  0  0  0  0
  8 33  1  0  0  0  0
  9 10  1  0  0  0  0
  9 34  1  0  0  0  0
  9 35  1  0  0  0  0
 10 11  1  0  0  0  0
 10 12  1  0  0  0  0
 10 36  1  0  0  0  0
 11 37  1  0  0  0  0
 12 13  1  0  0  0  0
 12 38  1  0  0  0  0
 12 39  1  0  0  0  0
 13 23  1  0  0  0  0
 13 14  1  0  0  0  0
 14 15  2  0  0  0  0
 14 40  1  0  0  0  0
 15 16  1  0  0  0  0
 16 23  2  0  0  0  0
 16 17  1  0  0  0  0
 17 18  2  0  0  0  0
 17 41  1  0  0  0  0
 18 19  1  0  0  0  0
 18 20  1  0  0  0  0
 19 42  1  0  0  0  0
 19 43  1  0  0  0  0
 19 44  1  0  0  0  0
 20 21  1  0  0  0  0
 20 22  2  0  0  0  0
 21 45  1  0  0  0  0
 21 46  1  0  0  0  0
 21 47  1  0  0  0  0
 22 23  1  0  0  0  0
 22 48  1  0  0  0  0
M  END
> <s_m_source_file>
AV-unprocessed.smi

> <i_m_source_file_index>
1225

> <i_lp_mmshare_version>
43012

> <i_f3d_flags>
0

> <s_epik_input>
W0NIM11jMW5bY0hdYyhzMSlbQ0gyXU4oW0NIM10pW0NIMl1bQ0BIXShbT0hdKVtDSDJdbihbY0hdbjIpYyhjMjMpW2NIXWMoW0NIM10pYyhbY0hdMylbQ0gzXQ==

> <s_epik_cmdline>
J2VwaWtfcHl0aG9uJywgJy1waCcsICc3LjAnLCAnLXRuJywgJzgnLCAnLW1hJywgJzIwMCcsICctbWV0YWxfYmluZGluZycsICctaW1hZScsICc8aW5maWxlLm1hZT4nLCAnLW9tYWUnLCAnPG91dGZpbGUubWFlPic=

> <r_epik_Ionization_Penalty>
0.12717

> <r_epik_Ionization_Penalty_Charging>
0

> <r_epik_Ionization_Penalty_Neutral>
0.12717

> <r_epik_State_Penalty>
0.11216

> <r_epik_Charging_Adjusted_Penalty>
0.11216

> <i_epik_Tot_Q>
0

> <i_epik_Tot_abs_Q>
0

> <r_epik_Metal_State_Penalty>
0.099641

> <b_epik_Metal_Only>
0

> <s_lp_Force_Field>
OPLS_2005

> <r_lp_Energy>
23.0021

> <b_lp_Chiralities_Consistent>
1

> <s_lp_Variant>
AV-unprocessed.smi:1225-1

> <Gold.Version>
5.8.1

> <Gold.Id.Protein>
6NUR|6NUR_protein|mol2

> <Gold.PLP.Fitness>
49.4265

> <Gold.PLP.PLP>
-44.9902

> <Gold.PLP.part.hbond>
-3.0000

> <Gold.PLP.part.metal>
0.0000

> <Gold.PLP.part.buried>
-3.1272

> <Gold.PLP.part.nonpolar>
-37.6877

> <Gold.PLP.part.repulsive>
0.1361

> <Gold.PLP.ligand.clash>
0.0000

> <Gold.PLP.ligand.torsion>
1.2618

> <Gold.PLP.Chemscore.Hbond>
2.2527

> <Gold.PLP.Chemscore.CHOScore>
0.0000

> <Gold.PLP.Chemscore.Metal>
0.0000

> <Gold.Chemscore.Hbonds>
donor molecule, donor type, donor heavy atom, donor atom, acceptor molecule, acceptor atom, score
      L1  H    11    37       P1  8028  0.81
      P1  H  7997  8010       L1    15  0.62
      P1  H  8011  8017       L1    11  0.27

> <Gold.PLP.Chemscore.Internal.Correction>
0.2017

> <Gold.Rescore>
     Score         DG    S(hbond)    S(metal)    S(lipo)     H(rot)  DE(clash)    DE(int)     intcor
     15.12     -18.12       1.05        0.00     128.19       2.28       1.02       1.98       ----

> <Gold.Chemscore.Fitness>
15.1240

> <Gold.Chemscore.DG>
-18.1248

> <Gold.Chemscore.ZeroCoef>
-5.4800

> <Gold.Chemscore.Hbond>
1.0463

> <Gold.Chemscore.Metal>
0.0000

> <Gold.Chemscore.Lipo>
128.1913

> <Gold.Chemscore.Internal_Hbond>
0.0000

> <Gold.Chemscore.DEClash>
1.0248

> <Gold.Chemscore.DEInternal>
1.9761

> <Gold.Chemscore.Rot>
2.2844

> <Gold.Chemscore.Internal.Correction>
   9.000000E+99

> <Gold.Chemscore.Hbonds>
donor molecule, donor type, donor heavy atom, donor atom, acceptor molecule, acceptor atom, score
      L1  H    11    37       P1  8028  0.80
      P1  H  7997  8010       L1    15  0.01
      P1  H  8011  8017       L1    11  0.05

> <Gold.Chemscore.Hbond.Weighted>
-3.4945

> <Gold.Chemscore.Metal.Weighted>
-0.0000

> <Gold.Chemscore.Lipo.Weighted>
-14.9984

> <Gold.Chemscore.Internal_Hbond.Weighted>
0.0000

> <Gold.Chemscore.DEClash.Weighted>
1.0248

> <Gold.Chemscore.DEInternal.Weighted>
1.9761

> <Gold.Chemscore.Rot.Weighted>
5.8480

> <Gold.Chemscore.Internal.Correction.Weighted>
   9.000000E+99

> <Gold.Protein.RotatedTorsions>
[ 6907 6896 6895 6894 ] final  -53.27 input  -60.11 | X-H torsion
[ 7974 7965 7964 7962 ] final  118.47 input  175.53 | X-H torsion
[ 8008 7997 7996 7995 ] final   41.68 input   59.86 | X-H torsion
[ 10167 10162 10161 10158 ] final  100.46 input  -65.29 | X-H torsion
[ 10718 10713 10712 10709 ] final -167.53 input   66.30 | X-H torsion
[ 10763 10752 10751 10750 ] final  140.06 input  -60.55 | X-H torsion
[ 11005 11000 10999 10996 ] final  132.14 input  -57.11 | X-H torsion

> <Gold.Protein.ActiveResidues>
 VAL166  LYS551  ARG553  GLY616  TRP617  ASP618  TYR619  PRO620  LYS621  CYS622 
 ASP623  PHE694  ASN695  SER759  ASP760  ASP761  ALA762  ILE779  LEU786  VAL792 
 PHE793  MET794  SER795  GLU796  ALA797  LYS798  CYS799  TRP800  GLU811  SER814 

> <Gold.Protein.RotatedAtoms>
  150.8442  134.7745  159.6956 H   0  0  0  0  0  0  0  0  0  0  0  0  # atno 6907 bound_to 6896
  152.4522  134.5365  159.9836 H   0  0  0  0  0  0  0  0  0  0  0  0  # atno 6908 bound_to 6896
  151.5499  133.3381  159.2987 H   0  0  0  0  0  0  0  0  0  0  0  0  # atno 6909 bound_to 6896
  145.1548  139.3189  143.4548 H   0  0  0  0  0  0  0  0  0  0  0  0  # atno 7974 bound_to 7965
  155.2737  140.3367  155.4263 H   0  0  0  0  0  0  0  0  0  0  0  0  # atno 8008 bound_to 7997
  156.2121  140.1774  156.7713 H   0  0  0  0  0  0  0  0  0  0  0  0  # atno 8009 bound_to 7997
  154.5701  140.0671  156.8936 H   0  0  0  0  0  0  0  0  0  0  0  0  # atno 8010 bound_to 7997
  139.7525  144.6979  151.0411 H   0  0  0  0  0  0  0  0  0  0  0  0  # atno 10167 bound_to 10162
  156.6838  130.9132  151.3060 H   0  0  0  0  0  0  0  0  0  0  0  0  # atno 10718 bound_to 10713
  153.9164  135.3005  155.3448 H   0  0  0  0  0  0  0  0  0  0  0  0  # atno 10763 bound_to 10752
  154.7598  135.4940  153.9445 H   0  0  0  0  0  0  0  0  0  0  0  0  # atno 10764 bound_to 10752
  153.1165  135.6772  153.9511 H   0  0  0  0  0  0  0  0  0  0  0  0  # atno 10765 bound_to 10752
  139.9772  134.9559  156.9540 H   0  0  0  0  0  0  0  0  0  0  0  0  # atno 11005 bound_to 11000
  146.3490  140.1636  142.8590 LP  0  0  0  0  0  0  0  0  0  0  0  0  # atno 17320 bound_to 7965
  145.0393  140.8932  143.5062 LP  0  0  0  0  0  0  0  0  0  0  0  0  # atno 17321 bound_to 7965
  140.7799  143.4792  151.0041 LP  0  0  0  0  0  0  0  0  0  0  0  0  # atno 17342 bound_to 10162
  139.8480  143.7476  152.3179 LP  0  0  0  0  0  0  0  0  0  0  0  0  # atno 17343 bound_to 10162
  157.7034  130.9358  150.0855 LP  0  0  0  0  0  0  0  0  0  0  0  0  # atno 17370 bound_to 10713
  156.1848  130.3652  149.8987 LP  0  0  0  0  0  0  0  0  0  0  0  0  # atno 17371 bound_to 10713
  140.5170  134.0945  155.7283 LP  0  0  0  0  0  0  0  0  0  0  0  0  # atno 17394 bound_to 11000
  141.1448  133.9074  157.2241 LP  0  0  0  0  0  0  0  0  0  0  0  0  # atno 17395 bound_to 11000

$$$$
