#       Name:                AV-unprocessed.smi:3195
#       Creating user name   scv26
#       Creation time:       Fri Mar 27 18:05:22 2020


#       File generated by GOLD software.
#

@<TRIPOS>MOLECULE
AV-unprocessed.smi:3195
    34    35     1
SMALL
NO_CHARGES


@<TRIPOS>ATOM
      1 ****         1.0587  -2.6672   0.9103 C.3            1 S1                 0.0000
      2 ****         0.1442  -1.4812   1.2595 C.3            1 S1                 0.0000
      3 ****         0.5834  -0.2163   0.4803 C.2            1 S1                 0.0000
      4 ****         1.3292   0.5952   1.0364 O.2            1 S1                 0.0000
      5 ****         0.0622  -0.1821  -0.8127 N.2            1 S1                 0.0000
      6 ****         0.2523   0.8054  -1.6450 C.2            1 S1                 0.0000
      7 ****         0.9998   1.9523  -1.3255 N.pl3          1 S1                 0.0000
      8 ****         1.1929   2.9946  -2.2070 C.2            1 S1                 0.0000
      9 ****         0.6740   2.9742  -3.4357 C.2            1 S1                 0.0000
     10 ****        -0.1097   1.8269  -3.8450 C.2            1 S1                 0.0000
     11 ****        -0.3403   0.7402  -2.9931 C.2            1 S1                 0.0000
     12 ****        -1.0262  -0.2305  -3.3896 O.co2          1 S1                -1.0000
     13 ****         0.0214  -1.2561   2.7755 C.3            1 S1                 0.0000
     14 ****        -1.3208  -0.5602   2.9278 C.3            1 S1                 0.0000
     15 ****        -2.1098  -1.0296   1.7022 C.3            1 S1                 0.0000
     16 ****        -1.2036  -1.8190   0.9326 O.3            1 S1                 0.0000
     17 ****         2.0857  -2.4807   1.2260 H              1 S1                 0.0000
     18 ****         1.0691  -2.8608  -0.1631 H              1 S1                 0.0000
     19 ****         0.7225  -3.5810   1.4010 H              1 S1                 0.0000
     20 ****         1.7880   3.8095  -1.8224 H              1 S1                 0.0000
     21 ****         0.8346   3.7990  -4.1139 H              1 S1                 0.0000
     22 ****        -0.5255   1.8215  -4.8423 H              1 S1                 0.0000
     23 ****         1.4291   2.0507  -0.4175 H              1 S1                 0.0000
     24 ****        -0.0124  -2.2167   3.2913 H              1 S1                 0.0000
     25 ****         0.8430  -0.6874   3.2123 H              1 S1                 0.0000
     26 ****        -1.8125  -0.8168   3.8666 H              1 S1                 0.0000
     27 ****        -1.1942   0.5226   2.8990 H              1 S1                 0.0000
     28 ****        -2.9786  -1.6274   1.9784 H              1 S1                 0.0000
     29 ****        -2.4566  -0.1796   1.1131 H              1 S1                 0.0000
     30 ****         1.6385   0.4298   1.9729 LP             1 S1                 0.0000
     31 ****         1.6240   1.4179   0.5504 LP             1 S1                 0.0000
     32 ****        -0.4885  -0.9582  -1.1198 LP             1 S1                 0.0000
     33 ****        -1.3588  -2.7869   1.1301 LP             1 S1                 0.0000
     34 ****        -1.3604  -1.6480  -0.0401 LP             1 S1                 0.0000
@<TRIPOS>BOND
    1    1    2 1     
    2    1   17 1     
    3    1   18 1     
    4    1   19 1     
    5    2   16 1     
    6    2    3 1     
    7    2   13 1     
    8    3    4 2     
    9    3    5 1     
   10    5    6 2     
   11    6   11 1     
   12    6    7 1     
   13    7   23 1     
   14    7    8 1     
   15    8   20 1     
   16    8    9 2     
   17    9   21 1     
   18    9   10 1     
   19   10   11 2     
   20   10   22 1     
   21   11   12 ar    
   22   13   14 1     
   23   13   24 1     
   24   13   25 1     
   25   14   15 1     
   26   14   26 1     
   27   14   27 1     
   28   15   16 1     
   29   15   28 1     
   30   15   29 1     
   31    4   30 1     
   32    4   31 1     
   33    5   32 1     
   34   16   33 1     
   35   16   34 1     
@<TRIPOS>SUBSTRUCTURE
      1 S1             1
@<TRIPOS>SET
LONE_PAIRS      STATIC     ATOMS    <user>   **** ""
6 30 31 32 12 33 34
DONOR_HYDROGENS      STATIC     ATOMS    <user>   **** ""
1 23
ATOM$BLUE        STATIC     ATOMS    COLORGROUP SYSTEM
6 30 31 32 12 33 34
ATOM$RED        STATIC     ATOMS    COLORGROUP SYSTEM
1 23
