AV-unprocessed.smi:2567|AV-procd|sdf|10082|dock10
  -GOLD-   2272014113D 1   1.00000     0.00000
 Structure written by MMmdl.
 33 34  0  0  0  0  0  0  0  0  1 V2000
  152.1268  145.4291  159.0337 C   0  0  0  0  0  0  0  0  0  0  0  0
  151.4085  144.2577  159.7400 C   0  0  0  0  0  0  0  0  0  0  0  0
  152.0478  144.1249  161.1397 C   0  0  0  0  0  0  0  0  0  0  0  0
  149.9094  144.5756  159.8844 C   0  0  0  0  0  0  0  0  0  0  0  0
  151.5815  142.9746  158.9605 C   0  0  0  0  0  0  0  0  0  0  0  0
  152.2324  141.9294  159.4777 N   0  0  0  0  0  0  0  0  0  0  0  0
  152.2833  141.0734  158.4364 N   0  0  0  0  0  0  0  0  0  0  0  0
  151.7319  141.6469  157.3668 C   0  0  0  0  0  0  0  0  0  0  0  0
  151.6691  140.9601  156.0389 C   0  0  2  0  0  0  0  0  0  0  0  0
  150.2261  140.8338  155.5124 C   0  0  0  0  0  0  0  0  0  0  0  0
  150.2080  140.0791  154.2604 N   0  0  0  0  0  0  0  0  0  0  0  0
  150.8508  138.7756  154.4211 C   0  0  0  0  0  0  0  0  0  0  0  0
  152.2747  138.9455  154.9807 C   0  0  0  0  0  0  0  0  0  0  0  0
  152.2227  139.6580  156.2121 O   0  0  0  0  0  0  0  0  0  0  0  0
  151.2963  142.8759  157.6235 N   0  0  0  0  0  0  0  0  0  0  0  0
  152.7072  140.1584  158.4935 H   0  0  0  0  0  0  0  0  0  0  0  0
  152.0408  146.3516  159.6091 H   0  0  0  0  0  0  0  0  0  0  0  0
  151.7045  145.6290  158.0484 H   0  0  0  0  0  0  0  0  0  0  0  0
  153.1900  145.2230  158.9022 H   0  0  0  0  0  0  0  0  0  0  0  0
  153.1076  143.8765  161.0712 H   0  0  0  0  0  0  0  0  0  0  0  0
  151.5647  143.3476  161.7329 H   0  0  0  0  0  0  0  0  0  0  0  0
  151.9645  145.0541  161.7045 H   0  0  0  0  0  0  0  0  0  0  0  0
  149.7509  145.4948  160.4493 H   0  0  0  0  0  0  0  0  0  0  0  0
  149.3834  143.7742  160.4045 H   0  0  0  0  0  0  0  0  0  0  0  0
  149.4352  144.7019  158.9103 H   0  0  0  0  0  0  0  0  0  0  0  0
  152.2806  141.5222  155.3301 H   0  0  0  0  0  0  0  0  0  0  0  0
  149.6054  140.3310  156.2549 H   0  0  0  0  0  0  0  0  0  0  0  0
  149.7937  141.8230  155.3595 H   0  0  0  0  0  0  0  0  0  0  0  0
  149.2484  139.9488  153.9564 H   0  0  0  0  0  0  0  0  0  0  0  0
  150.2639  138.1536  155.0978 H   0  0  0  0  0  0  0  0  0  0  0  0
  150.8837  138.2536  153.4646 H   0  0  0  0  0  0  0  0  0  0  0  0
  152.7266  137.9694  155.1572 H   0  0  0  0  0  0  0  0  0  0  0  0
  152.9152  139.4686  154.2686 H   0  0  0  0  0  0  0  0  0  0  0  0
  1  2  1  0  0  0  0
  1 17  1  0  0  0  0
  1 18  1  0  0  0  0
  1 19  1  0  0  0  0
  2  3  1  0  0  0  0
  2  4  1  0  0  0  0
  2  5  1  0  0  0  0
  3 20  1  0  0  0  0
  3 21  1  0  0  0  0
  3 22  1  0  0  0  0
  4 23  1  0  0  0  0
  4 24  1  0  0  0  0
  4 25  1  0  0  0  0
  5 15  1  0  0  0  0
  5  6  2  0  0  0  0
  6  7  1  0  0  0  0
  7 16  1  0  0  0  0
  7  8  1  0  0  0  0
  8  9  1  0  0  0  0
  8 15  2  0  0  0  0
  9 14  1  0  0  0  0
  9 10  1  0  0  0  0
  9 26  1  0  0  0  0
 10 11  1  0  0  0  0
 10 27  1  0  0  0  0
 10 28  1  0  0  0  0
 11 12  1  0  0  0  0
 11 29  1  0  0  0  0
 12 13  1  0  0  0  0
 12 30  1  0  0  0  0
 12 31  1  0  0  0  0
 13 14  1  0  0  0  0
 13 32  1  0  0  0  0
 13 33  1  0  0  0  0
M  END
> <s_m_source_file>
AV-unprocessed.smi

> <i_m_source_file_index>
2567

> <i_lp_mmshare_version>
43012

> <i_f3d_flags>
0

> <s_epik_input>
W0NIM11DKFtDSDNdKShbQ0gzXSljMW5bbkhdYyhuMSlbQ0BASF0yW0NIMl1bTkhdW0NIMl1bQ0gyXU8y

> <s_epik_cmdline>
J2VwaWtfcHl0aG9uJywgJy1waCcsICc3LjAnLCAnLXRuJywgJzgnLCAnLW1hJywgJzIwMCcsICctbWV0YWxfYmluZGluZycsICctaW1hZScsICc8aW5maWxlLm1hZT4nLCAnLW9tYWUnLCAnPG91dGZpbGUubWFlPic=

> <r_epik_Ionization_Penalty>
0.981987

> <r_epik_Ionization_Penalty_Charging>
0

> <r_epik_Ionization_Penalty_Neutral>
0.981987

> <r_epik_State_Penalty>
2.09479

> <r_epik_Charging_Adjusted_Penalty>
2.09479

> <i_epik_Tot_Q>
0

> <i_epik_Tot_abs_Q>
0

> <r_epik_Metal_State_Penalty>
2.40362

> <b_epik_Metal_Only>
0

> <s_lp_Force_Field>
OPLS_2005

> <r_lp_Energy>
12.9727

> <b_lp_Chiralities_Consistent>
1

> <s_lp_Variant>
AV-unprocessed.smi:2567-7

> <Gold.Version>
5.8.1

> <Gold.Id.Protein>
6NUR|6NUR_protein|mol2

> <Gold.PLP.Fitness>
35.4374

> <Gold.PLP.PLP>
-32.0892

> <Gold.PLP.part.hbond>
-1.7395

> <Gold.PLP.part.metal>
0.0000

> <Gold.PLP.part.buried>
-7.0410

> <Gold.PLP.part.nonpolar>
-23.0980

> <Gold.PLP.part.repulsive>
0.1957

> <Gold.PLP.ligand.clash>
0.0000

> <Gold.PLP.ligand.torsion>
0.1424

> <Gold.PLP.Chemscore.Hbond>
1.1431

> <Gold.PLP.Chemscore.CHOScore>
0.0000

> <Gold.PLP.Chemscore.Metal>
0.0000

> <Gold.Chemscore.Hbonds>
donor molecule, donor type, donor heavy atom, donor atom, acceptor molecule, acceptor atom, score
      P1  H  7989  7998       L1    11  0.72
      P1  H  7997  8009       L1    14  0.62

> <Gold.PLP.Chemscore.Internal.Correction>
0.2037

> <Gold.Rescore>
     Score         DG    S(hbond)    S(metal)    S(lipo)     H(rot)  DE(clash)    DE(int)     intcor
     11.02     -11.15       0.00        0.00      75.68       1.25       0.03       0.11       ----

> <Gold.Chemscore.Fitness>
11.0158

> <Gold.Chemscore.DG>
-11.1473

> <Gold.Chemscore.ZeroCoef>
-5.4800

> <Gold.Chemscore.Hbond>
0.0001

> <Gold.Chemscore.Metal>
0.0000

> <Gold.Chemscore.Lipo>
75.6763

> <Gold.Chemscore.Internal_Hbond>
0.0000

> <Gold.Chemscore.DEClash>
0.0254

> <Gold.Chemscore.DEInternal>
0.1061

> <Gold.Chemscore.Rot>
1.2450

> <Gold.Chemscore.Internal.Correction>
   9.000000E+99

> <Gold.Chemscore.Hbonds>
donor molecule, donor type, donor heavy atom, donor atom, acceptor molecule, acceptor atom, score
      P1  H  7989  7998       L1    11  0.02
      P1  H  7997  8009       L1    14  0.04

> <Gold.Chemscore.Hbond.Weighted>
-0.0004

> <Gold.Chemscore.Metal.Weighted>
-0.0000

> <Gold.Chemscore.Lipo.Weighted>
-8.8541

> <Gold.Chemscore.Internal_Hbond.Weighted>
0.0000

> <Gold.Chemscore.DEClash.Weighted>
0.0254

> <Gold.Chemscore.DEInternal.Weighted>
0.1061

> <Gold.Chemscore.Rot.Weighted>
3.1872

> <Gold.Chemscore.Internal.Correction.Weighted>
   9.000000E+99

> <Gold.Protein.RotatedTorsions>
[ 6907 6896 6895 6894 ] final   -2.20 input  -60.11 | X-H torsion
[ 7974 7965 7964 7962 ] final  -44.63 input  175.53 | X-H torsion
[ 8008 7997 7996 7995 ] final -168.24 input   59.86 | X-H torsion
[ 10167 10162 10161 10158 ] final  -42.78 input  -65.29 | X-H torsion
[ 10718 10713 10712 10709 ] final  156.34 input   66.30 | X-H torsion
[ 10763 10752 10751 10750 ] final  155.12 input  -60.55 | X-H torsion
[ 11005 11000 10999 10996 ] final  153.22 input  -57.11 | X-H torsion

> <Gold.Protein.ActiveResidues>
 VAL166  LYS551  ARG553  GLY616  TRP617  ASP618  TYR619  PRO620  LYS621  CYS622 
 ASP623  PHE694  ASN695  SER759  ASP760  ASP761  ALA762  ILE779  LEU786  VAL792 
 PHE793  MET794  SER795  GLU796  ALA797  LYS798  CYS799  TRP800  GLU811  SER814 

> <Gold.Protein.RotatedAtoms>
  151.5338  135.1068  159.9909 H   0  0  0  0  0  0  0  0  0  0  0  0  # atno 6907 bound_to 6896
  152.4566  133.7732  159.6821 H   0  0  0  0  0  0  0  0  0  0  0  0  # atno 6908 bound_to 6896
  150.8512  133.7718  159.3049 H   0  0  0  0  0  0  0  0  0  0  0  0  # atno 6909 bound_to 6896
  145.9901  140.7189  142.9321 H   0  0  0  0  0  0  0  0  0  0  0  0  # atno 7974 bound_to 7965
  155.8887  140.1021  157.1434 H   0  0  0  0  0  0  0  0  0  0  0  0  # atno 8008 bound_to 7997
  154.4012  140.1315  156.4352 H   0  0  0  0  0  0  0  0  0  0  0  0  # atno 8009 bound_to 7997
  155.7558  140.3464  155.5175 H   0  0  0  0  0  0  0  0  0  0  0  0  # atno 8010 bound_to 7997
  140.6957  143.3019  151.3257 H   0  0  0  0  0  0  0  0  0  0  0  0  # atno 10167 bound_to 10162
  157.2063  131.0687  151.1996 H   0  0  0  0  0  0  0  0  0  0  0  0  # atno 10718 bound_to 10713
  154.1632  135.2808  155.3102 H   0  0  0  0  0  0  0  0  0  0  0  0  # atno 10763 bound_to 10752
  154.6131  135.5492  153.7497 H   0  0  0  0  0  0  0  0  0  0  0  0  # atno 10764 bound_to 10752
  153.0186  135.6420  154.1774 H   0  0  0  0  0  0  0  0  0  0  0  0  # atno 10765 bound_to 10752
  140.1379  134.8759  157.2291 H   0  0  0  0  0  0  0  0  0  0  0  0  # atno 11005 bound_to 11000
  144.6886  140.3056  143.7256 LP  0  0  0  0  0  0  0  0  0  0  0  0  # atno 17320 bound_to 7965
  145.7642  139.1835  143.2249 LP  0  0  0  0  0  0  0  0  0  0  0  0  # atno 17321 bound_to 7965
  139.6410  144.0539  152.2554 LP  0  0  0  0  0  0  0  0  0  0  0  0  # atno 17342 bound_to 10162
  140.0045  144.6269  150.7701 LP  0  0  0  0  0  0  0  0  0  0  0  0  # atno 17343 bound_to 10162
  157.3717  130.7184  149.6569 LP  0  0  0  0  0  0  0  0  0  0  0  0  # atno 17370 bound_to 10713
  155.9695  130.4197  150.4387 LP  0  0  0  0  0  0  0  0  0  0  0  0  # atno 17371 bound_to 10713
  140.2760  134.3405  155.7358 LP  0  0  0  0  0  0  0  0  0  0  0  0  # atno 17394 bound_to 11000
  141.2181  133.7450  156.9293 LP  0  0  0  0  0  0  0  0  0  0  0  0  # atno 17395 bound_to 11000

$$$$
