AV-unprocessed.smi:2236|AV-procd|sdf|9045|dock2
  -GOLD-   2272012253D 1   1.00000     0.00000
 Structure written by MMmdl.
 37 38  0  0  0  0  0  0  0  0  1 V2000
  146.4084  142.1418  154.2652 C   0  0  0  0  0  0  0  0  0  0  0  0
  147.5047  141.9395  155.1450 O   0  0  0  0  0  0  0  0  0  0  0  0
  148.4109  140.9420  154.8418 C   0  0  0  0  0  0  0  0  0  0  0  0
  148.0828  139.7871  154.0870 C   0  0  0  0  0  0  0  0  0  0  0  0
  149.0747  138.8251  153.8289 C   0  0  0  0  0  0  0  0  0  0  0  0
  150.3665  139.0503  154.3365 C   0  0  0  0  0  0  0  0  0  0  0  0
  151.4844  138.0582  154.0939 C   0  0  0  0  0  0  0  0  0  0  0  0
  150.6905  140.1443  155.0545 N   0  0  0  0  0  0  0  0  0  0  0  0
  149.7431  141.0805  155.3107 C   0  0  0  0  0  0  0  0  0  0  0  0
  150.0080  142.2620  156.0571 N   0  0  0  0  0  0  0  0  0  0  0  0
  150.9577  142.4692  156.9857 C   0  0  0  0  0  0  0  0  0  0  0  0
  151.7674  141.6276  157.3766 O   0  0  0  0  0  0  0  0  0  0  0  0
  150.9171  143.7302  157.4456 N   0  0  0  0  0  0  0  0  0  0  0  0
  151.8035  144.3166  158.4538 C   0  0  0  0  0  0  0  0  0  0  0  0
  153.0294  144.9378  157.7764 C   0  0  0  0  0  0  0  0  0  0  0  0
  151.0300  145.1509  159.4978 C   0  0  0  0  0  0  0  0  0  0  0  0
  151.8616  144.4649  160.5843 C   0  0  0  0  0  0  0  0  0  0  0  0
  152.0481  143.3110  159.5948 C   0  0  0  0  0  0  0  0  0  0  0  0
  145.7899  142.9559  154.6430 H   0  0  0  0  0  0  0  0  0  0  0  0
  145.7787  141.2535  154.2001 H   0  0  0  0  0  0  0  0  0  0  0  0
  146.7455  142.4209  153.2661 H   0  0  0  0  0  0  0  0  0  0  0  0
  147.0898  139.6186  153.6994 H   0  0  0  0  0  0  0  0  0  0  0  0
  148.8463  137.9393  153.2548 H   0  0  0  0  0  0  0  0  0  0  0  0
  151.1024  137.1297  153.6688 H   0  0  0  0  0  0  0  0  0  0  0  0
  151.9932  137.8189  155.0282 H   0  0  0  0  0  0  0  0  0  0  0  0
  152.2155  138.4759  153.4013 H   0  0  0  0  0  0  0  0  0  0  0  0
  149.4081  143.0457  155.8449 H   0  0  0  0  0  0  0  0  0  0  0  0
  150.2137  144.3440  157.0613 H   0  0  0  0  0  0  0  0  0  0  0  0
  153.7510  145.2999  158.5088 H   0  0  0  0  0  0  0  0  0  0  0  0
  152.7573  145.7868  157.1492 H   0  0  0  0  0  0  0  0  0  0  0  0
  153.5456  144.2134  157.1459 H   0  0  0  0  0  0  0  0  0  0  0  0
  151.1807  146.2283  159.4249 H   0  0  0  0  0  0  0  0  0  0  0  0
  149.9694  144.9004  159.5672 H   0  0  0  0  0  0  0  0  0  0  0  0
  152.7903  144.9915  160.8097 H   0  0  0  0  0  0  0  0  0  0  0  0
  151.3090  144.2080  161.4884 H   0  0  0  0  0  0  0  0  0  0  0  0
  151.2681  142.5527  159.6902 H   0  0  0  0  0  0  0  0  0  0  0  0
  153.0423  142.8633  159.6062 H   0  0  0  0  0  0  0  0  0  0  0  0
  1  2  1  0  0  0  0
  1 19  1  0  0  0  0
  1 20  1  0  0  0  0
  1 21  1  0  0  0  0
  2  3  1  0  0  0  0
  3  9  1  0  0  0  0
  3  4  2  0  0  0  0
  4  5  1  0  0  0  0
  4 22  1  0  0  0  0
  5  6  2  0  0  0  0
  5 23  1  0  0  0  0
  6  7  1  0  0  0  0
  6  8  1  0  0  0  0
  7 24  1  0  0  0  0
  7 25  1  0  0  0  0
  7 26  1  0  0  0  0
  8  9  2  0  0  0  0
  9 10  1  0  0  0  0
 10 11  1  0  0  0  0
 10 27  1  0  0  0  0
 11 12  2  0  0  0  0
 11 13  1  0  0  0  0
 13 14  1  0  0  0  0
 13 28  1  0  0  0  0
 14 18  1  0  0  0  0
 14 15  1  0  0  0  0
 14 16  1  0  0  0  0
 15 29  1  0  0  0  0
 15 30  1  0  0  0  0
 15 31  1  0  0  0  0
 16 17  1  0  0  0  0
 16 32  1  0  0  0  0
 16 33  1  0  0  0  0
 17 18  1  0  0  0  0
 17 34  1  0  0  0  0
 17 35  1  0  0  0  0
 18 36  1  0  0  0  0
 18 37  1  0  0  0  0
M  END
> <s_m_source_file>
AV-unprocessed.smi

> <i_m_source_file_index>
2236

> <i_lp_mmshare_version>
43012

> <i_f3d_flags>
0

> <s_epik_input>
W0NIM11PYzFbY0hdW2NIXWMoW0NIM10pbmMxW05IXUMoPU8pW05IXUMyKFtDSDNdKVtDSDJdW0NIMl1bQ0gyXTI=

> <s_epik_cmdline>
J2VwaWtfcHl0aG9uJywgJy1waCcsICc3LjAnLCAnLXRuJywgJzgnLCAnLW1hJywgJzIwMCcsICctbWV0YWxfYmluZGluZycsICctaW1hZScsICc8aW5maWxlLm1hZT4nLCAnLW9tYWUnLCAnPG91dGZpbGUubWFlPic=

> <r_lp_tautomer_probability>
1

> <r_epik_Ionization_Penalty>
6.75542e-05

> <r_epik_Ionization_Penalty_Charging>
0

> <r_epik_Ionization_Penalty_Neutral>
6.75542e-05

> <r_epik_State_Penalty>
-0

> <r_epik_Charging_Adjusted_Penalty>
0

> <i_epik_Tot_Q>
0

> <i_epik_Tot_abs_Q>
0

> <r_epik_Metal_State_Penalty>
-0

> <b_epik_Metal_Only>
0

> <s_lp_Force_Field>
OPLS_2005

> <r_lp_Energy>
20.3098

> <b_lp_Chiralities_Consistent>
1

> <s_lp_Variant>
AV-unprocessed.smi:2236-1

> <Gold.Version>
5.8.1

> <Gold.Id.Protein>
6NUR|6NUR_protein|mol2

> <Gold.PLP.Fitness>
47.7727

> <Gold.PLP.PLP>
-41.6579

> <Gold.PLP.part.hbond>
-3.0000

> <Gold.PLP.part.metal>
0.0000

> <Gold.PLP.part.buried>
-4.2720

> <Gold.PLP.part.nonpolar>
-35.3267

> <Gold.PLP.part.repulsive>
0.8911

> <Gold.PLP.ligand.clash>
0.0000

> <Gold.PLP.ligand.torsion>
0.9164

> <Gold.PLP.Chemscore.Hbond>
2.5500

> <Gold.PLP.Chemscore.CHOScore>
0.0000

> <Gold.PLP.Chemscore.Metal>
0.0000

> <Gold.Chemscore.Hbonds>
donor molecule, donor type, donor heavy atom, donor atom, acceptor molecule, acceptor atom, score
      L1  H    10    27       P1  8028  1.00
      L1  H    13    28       P1  8028  1.00
      P1  H  7989  7998       L1     8  0.50

> <Gold.PLP.Chemscore.Internal.Correction>
0.2975

> <Gold.Rescore>
     Score         DG    S(hbond)    S(metal)    S(lipo)     H(rot)  DE(clash)    DE(int)     intcor
     17.25     -20.45       1.86        0.00     101.42       1.21       0.04       3.15       ----

> <Gold.Chemscore.Fitness>
17.2542

> <Gold.Chemscore.DG>
-20.4452

> <Gold.Chemscore.ZeroCoef>
-5.4800

> <Gold.Chemscore.Hbond>
1.8555

> <Gold.Chemscore.Metal>
0.0000

> <Gold.Chemscore.Lipo>
101.4214

> <Gold.Chemscore.Internal_Hbond>
0.0000

> <Gold.Chemscore.DEClash>
0.0382

> <Gold.Chemscore.DEInternal>
3.1528

> <Gold.Chemscore.Rot>
1.2103

> <Gold.Chemscore.Internal.Correction>
   9.000000E+99

> <Gold.Chemscore.Hbonds>
donor molecule, donor type, donor heavy atom, donor atom, acceptor molecule, acceptor atom, score
      L1  H    10    27       P1  8028  0.99
      L1  H    13    28       P1  8028  0.78
      P1  H  7989  7998       L1     8  0.01

> <Gold.Chemscore.Hbond.Weighted>
-6.1974

> <Gold.Chemscore.Metal.Weighted>
-0.0000

> <Gold.Chemscore.Lipo.Weighted>
-11.8663

> <Gold.Chemscore.Internal_Hbond.Weighted>
0.0000

> <Gold.Chemscore.DEClash.Weighted>
0.0382

> <Gold.Chemscore.DEInternal.Weighted>
3.1528

> <Gold.Chemscore.Rot.Weighted>
3.0984

> <Gold.Chemscore.Internal.Correction.Weighted>
   9.000000E+99

> <Gold.Protein.RotatedTorsions>
[ 6907 6896 6895 6894 ] final  101.07 input  -60.11 | X-H torsion
[ 7974 7965 7964 7962 ] final -118.93 input  175.53 | X-H torsion
[ 8008 7997 7996 7995 ] final  136.01 input   59.86 | X-H torsion
[ 10167 10162 10161 10158 ] final  -79.42 input  -65.29 | X-H torsion
[ 10718 10713 10712 10709 ] final  169.81 input   66.30 | X-H torsion
[ 10763 10752 10751 10750 ] final  101.23 input  -60.55 | X-H torsion
[ 11005 11000 10999 10996 ] final  -84.85 input  -57.11 | X-H torsion

> <Gold.Protein.ActiveResidues>
 VAL166  LYS551  ARG553  GLY616  TRP617  ASP618  TYR619  PRO620  LYS621  CYS622 
 ASP623  PHE694  ASN695  SER759  ASP760  ASP761  ALA762  ILE779  LEU786  VAL792 
 PHE793  MET794  SER795  GLU796  ALA797  LYS798  CYS799  TRP800  GLU811  SER814 

> <Gold.Protein.RotatedAtoms>
  152.5358  134.0182  159.7969 H   0  0  0  0  0  0  0  0  0  0  0  0  # atno 6907 bound_to 6896
  151.0373  133.5730  159.2662 H   0  0  0  0  0  0  0  0  0  0  0  0  # atno 6908 bound_to 6896
  151.2712  135.0692  159.9188 H   0  0  0  0  0  0  0  0  0  0  0  0  # atno 6909 bound_to 6896
  145.0683  140.8340  143.4111 H   0  0  0  0  0  0  0  0  0  0  0  0  # atno 7974 bound_to 7965
  156.3004  140.2456  156.3676 H   0  0  0  0  0  0  0  0  0  0  0  0  # atno 8008 bound_to 7997
  154.8819  140.0412  157.1807 H   0  0  0  0  0  0  0  0  0  0  0  0  # atno 8009 bound_to 7997
  154.8687  140.2931  155.5498 H   0  0  0  0  0  0  0  0  0  0  0  0  # atno 8010 bound_to 7997
  140.4594  143.2458  151.8370 H   0  0  0  0  0  0  0  0  0  0  0  0  # atno 10167 bound_to 10162
  157.0172  131.0221  151.2785 H   0  0  0  0  0  0  0  0  0  0  0  0  # atno 10718 bound_to 10713
  153.3240  135.4051  155.1441 H   0  0  0  0  0  0  0  0  0  0  0  0  # atno 10763 bound_to 10752
  154.8607  135.3594  154.5558 H   0  0  0  0  0  0  0  0  0  0  0  0  # atno 10764 bound_to 10752
  153.5993  135.7071  153.5450 H   0  0  0  0  0  0  0  0  0  0  0  0  # atno 10765 bound_to 10752
  141.1647  133.7368  156.8929 H   0  0  0  0  0  0  0  0  0  0  0  0  # atno 11005 bound_to 11000
  145.1324  139.2623  143.5532 LP  0  0  0  0  0  0  0  0  0  0  0  0  # atno 17320 bound_to 7965
  146.3527  140.0978  142.8609 LP  0  0  0  0  0  0  0  0  0  0  0  0  # atno 17321 bound_to 7965
  139.4804  144.5025  151.9041 LP  0  0  0  0  0  0  0  0  0  0  0  0  # atno 17342 bound_to 10162
  140.4111  144.2368  150.5889 LP  0  0  0  0  0  0  0  0  0  0  0  0  # atno 17343 bound_to 10162
  157.5277  130.8038  149.7880 LP  0  0  0  0  0  0  0  0  0  0  0  0  # atno 17370 bound_to 10713
  156.0115  130.3831  150.2249 LP  0  0  0  0  0  0  0  0  0  0  0  0  # atno 17371 bound_to 10713
  140.1636  134.9149  157.2745 LP  0  0  0  0  0  0  0  0  0  0  0  0  # atno 17394 bound_to 11000
  140.2583  134.3601  155.7416 LP  0  0  0  0  0  0  0  0  0  0  0  0  # atno 17395 bound_to 11000

$$$$
