AV-unprocessed.smi:1535|AV-procd|sdf|6179|dock2
  -GOLD-   22720 6333D 1   1.00000     0.00000
 Structure written by MMmdl.
 47 48  0  0  0  0  0  0  0  0  2 V2000
  152.6155  143.5211  160.8544 C   0  0  0  0  0  0  0  0  0  0  0  0
  152.3067  142.6806  159.6279 C   0  0  0  0  0  0  0  0  0  0  0  0
  152.6833  141.3185  159.6162 C   0  0  0  0  0  0  0  0  0  0  0  0
  152.4128  140.5020  158.4965 C   0  0  0  0  0  0  0  0  0  0  0  0
  152.6856  139.1636  158.2720 N   0  0  0  0  0  0  0  0  0  0  0  0
  152.1926  138.9904  157.0492 C   0  0  0  0  0  0  0  0  0  0  0  0
  151.6339  140.0614  156.4527 N   0  0  0  0  0  0  0  0  0  0  0  0
  151.0412  140.1226  155.1287 C   0  0  0  0  0  0  0  0  0  0  0  0
  150.0984  138.9351  154.8568 C   0  0  1  0  0  0  0  0  0  0  0  0
  149.3325  139.2024  153.6972 O   0  0  0  0  0  0  0  0  0  0  0  0
  150.8727  137.6189  154.6471 C   0  0  0  0  0  0  0  0  0  0  0  0
  149.9794  136.4300  154.6675 N   0  3  2  0  0  0  0  0  0  0  0  0
  148.8348  136.5943  155.5972 C   0  0  0  0  0  0  0  0  0  0  0  0
  150.7230  135.1622  154.8951 C   0  0  0  0  0  0  0  0  0  0  0  0
  149.7957  133.9493  155.1073 C   0  0  2  0  0  0  0  0  0  0  0  0
  150.5613  132.7538  155.6885 C   0  0  0  0  0  0  0  0  0  0  0  0
  149.1140  133.5725  153.8581 C   0  0  0  0  0  0  0  0  0  0  0  0
  148.5788  133.2723  152.8780 N   0  0  0  0  0  0  0  0  0  0  0  0
  151.7529  141.0913  157.3787 C   0  0  0  0  0  0  0  0  0  0  0  0
  151.3736  142.4450  157.3778 C   0  0  0  0  0  0  0  0  0  0  0  0
  151.6480  143.2456  158.5063 C   0  0  0  0  0  0  0  0  0  0  0  0
  151.2297  144.7053  158.4986 C   0  0  0  0  0  0  0  0  0  0  0  0
  153.1595  142.9462  161.6043 H   0  0  0  0  0  0  0  0  0  0  0  0
  151.6936  143.8808  161.3116 H   0  0  0  0  0  0  0  0  0  0  0  0
  153.2280  144.3819  160.5854 H   0  0  0  0  0  0  0  0  0  0  0  0
  153.1843  140.8878  160.4706 H   0  0  0  0  0  0  0  0  0  0  0  0
  152.2460  138.0308  156.5560 H   0  0  0  0  0  0  0  0  0  0  0  0
  150.5097  141.0698  155.0245 H   0  0  0  0  0  0  0  0  0  0  0  0
  151.8500  140.1370  154.3971 H   0  0  0  0  0  0  0  0  0  0  0  0
  149.4126  138.8405  155.6983 H   0  0  0  0  0  0  0  0  0  0  0  0
  149.9126  139.4891  153.0080 H   0  0  0  0  0  0  0  0  0  0  0  0
  151.4005  137.6857  153.6946 H   0  0  0  0  0  0  0  0  0  0  0  0
  151.6447  137.5007  155.4094 H   0  0  0  0  0  0  0  0  0  0  0  0
  149.1739  136.6193  156.6334 H   0  0  0  0  0  0  0  0  0  0  0  0
  148.1193  135.7800  155.4937 H   0  0  0  0  0  0  0  0  0  0  0  0
  148.2877  137.5156  155.4017 H   0  0  0  0  0  0  0  0  0  0  0  0
  151.3507  134.9486  154.0286 H   0  0  0  0  0  0  0  0  0  0  0  0
  151.3987  135.2833  155.7431 H   0  0  0  0  0  0  0  0  0  0  0  0
  149.0105  134.2065  155.8171 H   0  0  0  0  0  0  0  0  0  0  0  0
  149.8933  131.9096  155.8615 H   0  0  0  0  0  0  0  0  0  0  0  0
  151.0251  133.0080  156.6418 H   0  0  0  0  0  0  0  0  0  0  0  0
  151.3484  132.4203  155.0113 H   0  0  0  0  0  0  0  0  0  0  0  0
  150.8740  142.8627  156.5165 H   0  0  0  0  0  0  0  0  0  0  0  0
  150.7053  144.9645  157.5784 H   0  0  0  0  0  0  0  0  0  0  0  0
  152.1028  145.3528  158.5807 H   0  0  0  0  0  0  0  0  0  0  0  0
  150.5617  144.9159  159.3342 H   0  0  0  0  0  0  0  0  0  0  0  0
  149.5984  136.3653  153.7336 H   0  0  0  0  0  0  0  0  0  0  0  0
  1  2  1  0  0  0  0
  1 23  1  0  0  0  0
  1 24  1  0  0  0  0
  1 25  1  0  0  0  0
  2 21  1  0  0  0  0
  2  3  2  0  0  0  0
  3  4  1  0  0  0  0
  3 26  1  0  0  0  0
  4 19  2  0  0  0  0
  4  5  1  0  0  0  0
  5  6  2  0  0  0  0
  6  7  1  0  0  0  0
  6 27  1  0  0  0  0
  7  8  1  0  0  0  0
  7 19  1  0  0  0  0
  8  9  1  0  0  0  0
  8 28  1  0  0  0  0
  8 29  1  0  0  0  0
  9 10  1  0  0  0  0
  9 11  1  0  0  0  0
  9 30  1  0  0  0  0
 10 31  1  0  0  0  0
 11 12  1  0  0  0  0
 11 32  1  0  0  0  0
 11 33  1  0  0  0  0
 12 13  1  0  0  0  0
 12 14  1  0  0  0  0
 12 47  1  0  0  0  0
 13 34  1  0  0  0  0
 13 35  1  0  0  0  0
 13 36  1  0  0  0  0
 14 15  1  0  0  0  0
 14 37  1  0  0  0  0
 14 38  1  0  0  0  0
 15 16  1  0  0  0  0
 15 17  1  0  0  0  0
 15 39  1  0  0  0  0
 16 40  1  0  0  0  0
 16 41  1  0  0  0  0
 16 42  1  0  0  0  0
 17 18  3  0  0  0  0
 19 20  1  0  0  0  0
 20 21  2  0  0  0  0
 20 43  1  0  0  0  0
 21 22  1  0  0  0  0
 22 44  1  0  0  0  0
 22 45  1  0  0  0  0
 22 46  1  0  0  0  0
M  CHG  1  12   1
M  END
> <s_m_source_file>
AV-unprocessed.smi

> <i_m_source_file_index>
1535

> <i_lp_mmshare_version>
43012

> <i_f3d_flags>
0

> <s_epik_input>
W0NIM11jKFtjSF0xKWMoW0NIM10pW2NIXWMoYzEyKW4oW2NIXW4yKVtDSDJdW0NASF0oW09IXSlbQ0gyXU4oW0NIM10pW0NIMl1bQ0BIXShbQ0gzXSlDI04=

> <s_epik_cmdline>
J2VwaWtfcHl0aG9uJywgJy1waCcsICc3LjAnLCAnLXRuJywgJzgnLCAnLW1hJywgJzIwMCcsICctbWV0YWxfYmluZGluZycsICctaW1hZScsICc8aW5maWxlLm1hZT4nLCAnLW9tYWUnLCAnPG91dGZpbGUubWFlPic=

> <r_epik_Ionization_Penalty>
2.21058

> <r_epik_Ionization_Penalty_Charging>
2.12381

> <r_epik_Ionization_Penalty_Neutral>
0.0867699

> <r_epik_State_Penalty>
2.36208

> <r_epik_Charging_Adjusted_Penalty>
4.48589

> <i_epik_Tot_Q>
1

> <i_epik_Tot_abs_Q>
1

> <r_epik_Metal_State_Penalty>
2.2818

> <b_epik_Metal_Only>
0

> <s_lp_Force_Field>
OPLS_2005

> <r_lp_Energy>
14.9944

> <b_lp_Chiralities_Consistent>
1

> <s_lp_Variant>
AV-unprocessed.smi:1535-10

> <Gold.Version>
5.8.1

> <Gold.Id.Protein>
6NUR|6NUR_protein|mol2

> <Gold.PLP.Fitness>
51.2009

> <Gold.PLP.PLP>
-43.9623

> <Gold.PLP.part.hbond>
-2.0000

> <Gold.PLP.part.metal>
0.0000

> <Gold.PLP.part.buried>
-4.1815

> <Gold.PLP.part.nonpolar>
-37.9807

> <Gold.PLP.part.repulsive>
0.5032

> <Gold.PLP.ligand.clash>
0.0000

> <Gold.PLP.ligand.torsion>
0.7018

> <Gold.PLP.Chemscore.Hbond>
2.7360

> <Gold.PLP.Chemscore.CHOScore>
0.0000

> <Gold.PLP.Chemscore.Metal>
0.0000

> <Gold.Chemscore.Hbonds>
donor molecule, donor type, donor heavy atom, donor atom, acceptor molecule, acceptor atom, score
      L1  H    10    31       P1  7957  0.67
      L1  H    12    47       P1  7948  2.00

> <Gold.PLP.Chemscore.Internal.Correction>
0.4342

> <Gold.Rescore>
     Score         DG    S(hbond)    S(metal)    S(lipo)     H(rot)  DE(clash)    DE(int)     intcor
     17.06     -18.29       1.88        0.00     112.76       2.60       0.37       0.86       ----

> <Gold.Chemscore.Fitness>
17.0592

> <Gold.Chemscore.DG>
-18.2922

> <Gold.Chemscore.ZeroCoef>
-5.4800

> <Gold.Chemscore.Hbond>
1.8812

> <Gold.Chemscore.Metal>
0.0000

> <Gold.Chemscore.Lipo>
112.7608

> <Gold.Chemscore.Internal_Hbond>
0.0000

> <Gold.Chemscore.DEClash>
0.3703

> <Gold.Chemscore.DEInternal>
0.8627

> <Gold.Chemscore.Rot>
2.6031

> <Gold.Chemscore.Internal.Correction>
   9.000000E+99

> <Gold.Chemscore.Hbonds>
donor molecule, donor type, donor heavy atom, donor atom, acceptor molecule, acceptor atom, score
      L1  H    10    31       P1  7957  0.65
      L1  H    12    47       P1  7948  0.60

> <Gold.Chemscore.Hbond.Weighted>
-6.2832

> <Gold.Chemscore.Metal.Weighted>
-0.0000

> <Gold.Chemscore.Lipo.Weighted>
-13.1930

> <Gold.Chemscore.Internal_Hbond.Weighted>
0.0000

> <Gold.Chemscore.DEClash.Weighted>
0.3703

> <Gold.Chemscore.DEInternal.Weighted>
0.8627

> <Gold.Chemscore.Rot.Weighted>
6.6640

> <Gold.Chemscore.Internal.Correction.Weighted>
   9.000000E+99

> <Gold.Protein.RotatedTorsions>
[ 6907 6896 6895 6894 ] final  152.99 input  -60.11 | X-H torsion
[ 7974 7965 7964 7962 ] final  -76.65 input  175.53 | X-H torsion
[ 8008 7997 7996 7995 ] final   74.02 input   59.86 | X-H torsion
[ 10167 10162 10161 10158 ] final   32.56 input  -65.29 | X-H torsion
[ 10718 10713 10712 10709 ] final   76.06 input   66.30 | X-H torsion
[ 10763 10752 10751 10750 ] final  169.24 input  -60.55 | X-H torsion
[ 11005 11000 10999 10996 ] final   31.32 input  -57.11 | X-H torsion

> <Gold.Protein.ActiveResidues>
 VAL166  LYS551  ARG553  GLY616  TRP617  ASP618  TYR619  PRO620  LYS621  CYS622 
 ASP623  PHE694  ASN695  SER759  ASP760  ASP761  ALA762  ILE779  LEU786  VAL792 
 PHE793  MET794  SER795  GLU796  ALA797  LYS798  CYS799  TRP800  GLU811  SER814 

> <Gold.Protein.RotatedAtoms>
  152.0790  133.4143  159.4492 H   0  0  0  0  0  0  0  0  0  0  0  0  # atno 6907 bound_to 6896
  150.6862  134.3005  159.4713 H   0  0  0  0  0  0  0  0  0  0  0  0  # atno 6908 bound_to 6896
  152.0844  134.9449  160.0623 H   0  0  0  0  0  0  0  0  0  0  0  0  # atno 6909 bound_to 6896
  145.6101  140.9388  143.1194 H   0  0  0  0  0  0  0  0  0  0  0  0  # atno 7974 bound_to 7965
  155.7922  140.3479  155.5355 H   0  0  0  0  0  0  0  0  0  0  0  0  # atno 8008 bound_to 7997
  155.8622  140.0973  157.1626 H   0  0  0  0  0  0  0  0  0  0  0  0  # atno 8009 bound_to 7997
  154.4012  140.1356  156.3963 H   0  0  0  0  0  0  0  0  0  0  0  0  # atno 8010 bound_to 7997
  140.4488  144.1080  150.6187 H   0  0  0  0  0  0  0  0  0  0  0  0  # atno 10167 bound_to 10162
  157.6659  130.9756  150.1443 H   0  0  0  0  0  0  0  0  0  0  0  0  # atno 10718 bound_to 10713
  154.3802  135.2753  155.2215 H   0  0  0  0  0  0  0  0  0  0  0  0  # atno 10763 bound_to 10752
  154.4325  135.5974  153.6081 H   0  0  0  0  0  0  0  0  0  0  0  0  # atno 10764 bound_to 10752
  152.9835  135.5999  154.4044 H   0  0  0  0  0  0  0  0  0  0  0  0  # atno 10765 bound_to 10752
  140.2851  134.2928  155.7790 H   0  0  0  0  0  0  0  0  0  0  0  0  # atno 11005 bound_to 11000
  144.7273  139.7834  143.7360 LP  0  0  0  0  0  0  0  0  0  0  0  0  # atno 17320 bound_to 7965
  146.1511  139.4594  143.0048 LP  0  0  0  0  0  0  0  0  0  0  0  0  # atno 17321 bound_to 7965
  140.4232  143.2602  151.9689 LP  0  0  0  0  0  0  0  0  0  0  0  0  # atno 17342 bound_to 10162
  139.4795  144.5812  151.7930 LP  0  0  0  0  0  0  0  0  0  0  0  0  # atno 17343 bound_to 10162
  156.2258  130.3678  149.8503 LP  0  0  0  0  0  0  0  0  0  0  0  0  # atno 17370 bound_to 10713
  156.6343  130.8678  151.3501 LP  0  0  0  0  0  0  0  0  0  0  0  0  # atno 17371 bound_to 10713
  141.2156  133.7550  156.9540 LP  0  0  0  0  0  0  0  0  0  0  0  0  # atno 17394 bound_to 11000
  140.1247  134.9394  157.2253 LP  0  0  0  0  0  0  0  0  0  0  0  0  # atno 17395 bound_to 11000

$$$$
