AV-unprocessed.smi:49|AV-procd|sdf|486|dock1
  -GOLD-   2262016343D 1   1.00000     0.00000
 Structure written by MMmdl.
 27 28  0  0  0  0  0  0  0  0  3 V2000
  151.0944  138.0084  154.3517 C   0  0  0  0  0  0  0  0  0  0  0  0
  152.4104  138.6991  154.7227 C   0  0  0  0  0  0  0  0  0  0  0  0
  152.2527  139.6252  155.9089 C   0  0  0  0  0  0  0  0  0  0  0  0
  151.4190  140.6577  155.9860 N   0  0  0  0  0  0  0  0  0  0  0  0
  151.5859  141.1722  157.2115 C   0  0  0  0  0  0  0  0  0  0  0  0
  150.8112  142.3597  157.7498 C   0  0  1  0  0  0  0  0  0  0  0  0
  151.1325  142.6444  159.2242 C   0  0  0  0  0  0  0  0  0  0  0  0
  152.1685  143.7632  159.1606 C   0  0  2  0  0  0  0  0  0  0  0  0
  152.1936  144.5339  160.3435 O   0  0  0  0  0  0  0  0  0  0  0  0
  151.7104  144.5749  157.9501 C   0  0  0  0  0  0  0  0  0  0  0  0
  151.1609  143.5872  157.0033 N   0  3  0  0  0  0  0  0  0  0  0  0
  152.4887  140.4604  157.9056 N   0  0  0  0  0  0  0  0  0  0  0  0
  152.8913  139.5116  157.0868 N   0  5  0  0  0  0  0  0  0  0  0  0
  149.7462  142.1578  157.6295 H   0  0  0  0  0  0  0  0  0  0  0  0
  153.1578  143.3420  158.9747 H   0  0  0  0  0  0  0  0  0  0  0  0
  151.2307  137.3456  153.4972 H   0  0  0  0  0  0  0  0  0  0  0  0
  150.3286  138.7389  154.0899 H   0  0  0  0  0  0  0  0  0  0  0  0
  150.7181  137.4102  155.1822 H   0  0  0  0  0  0  0  0  0  0  0  0
  153.1703  137.9529  154.9564 H   0  0  0  0  0  0  0  0  0  0  0  0
  152.7832  139.2726  153.8736 H   0  0  0  0  0  0  0  0  0  0  0  0
  150.2312  143.0143  159.7163 H   0  0  0  0  0  0  0  0  0  0  0  0
  151.4704  141.7664  159.7765 H   0  0  0  0  0  0  0  0  0  0  0  0
  151.9768  145.4278  160.1252 H   0  0  0  0  0  0  0  0  0  0  0  0
  150.9071  145.2583  158.2291 H   0  0  0  0  0  0  0  0  0  0  0  0
  152.5143  145.1605  157.5033 H   0  0  0  0  0  0  0  0  0  0  0  0
  151.8752  143.3417  156.3320 H   0  0  0  0  0  0  0  0  0  0  0  0
  150.3552  143.9597  156.5225 H   0  0  0  0  0  0  0  0  0  0  0  0
  1  2  1  0  0  0  0
  1 16  1  0  0  0  0
  1 17  1  0  0  0  0
  1 18  1  0  0  0  0
  2  3  1  0  0  0  0
  2 19  1  0  0  0  0
  2 20  1  0  0  0  0
  3 13  1  0  0  0  0
  3  4  2  0  0  0  0
  4  5  1  0  0  0  0
  5  6  1  0  0  0  0
  5 12  2  0  0  0  0
  6 14  1  0  0  0  0
  6 11  1  0  0  0  0
  6  7  1  0  0  0  0
  7  8  1  0  0  0  0
  7 21  1  0  0  0  0
  7 22  1  0  0  0  0
  8 15  1  0  0  0  0
  8  9  1  0  0  0  0
  8 10  1  0  0  0  0
  9 23  1  0  0  0  0
 10 11  1  0  0  0  0
 10 24  1  0  0  0  0
 10 25  1  0  0  0  0
 11 26  1  0  0  0  0
 11 27  1  0  0  0  0
 12 13  1  0  0  0  0
M  CHG  1  11   1
M  CHG  1  13  -1
M  END
> <s_m_source_file>
AV-unprocessed.smi

> <i_m_source_file_index>
49

> <i_lp_mmshare_version>
43012

> <i_f3d_flags>
0

> <s_epik_input>
W0NIM11bQ0gyXWMxbmMobltuSF0xKVtDQEBIXTJbQ0gyXVtDQEBIXShbT0hdKVtDSDJdW05IXTI=

> <s_epik_cmdline>
J2VwaWtfcHl0aG9uJywgJy1waCcsICc3LjAnLCAnLXRuJywgJzgnLCAnLW1hJywgJzIwMCcsICctbWV0YWxfYmluZGluZycsICctaW1hZScsICc8aW5maWxlLm1hZT4nLCAnLW9tYWUnLCAnPG91dGZpbGUubWFlPic=

> <r_lp_tautomer_probability>
0.948284

> <r_epik_Ionization_Penalty>
3.22013

> <r_epik_Ionization_Penalty_Charging>
3.22013

> <r_epik_Ionization_Penalty_Neutral>
3.9133e-08

> <r_epik_State_Penalty>
2.79459

> <r_epik_Charging_Adjusted_Penalty>
6.01472

> <i_epik_Tot_Q>
0

> <i_epik_Tot_abs_Q>
2

> <r_epik_Metal_State_Penalty>
0.589377

> <b_epik_Metal_Only>
1

> <s_lp_Force_Field>
OPLS_2005

> <r_lp_Energy>
10.3781

> <b_lp_Chiralities_Consistent>
1

> <s_lp_Variant>
AV-unprocessed.smi:49-24

> <Gold.Version>
5.8.1

> <Gold.Id.Protein>
6NUR|6NUR_protein|mol2

> <Gold.PLP.Fitness>
39.8174

> <Gold.PLP.PLP>
-27.8897

> <Gold.PLP.part.hbond>
-2.6605

> <Gold.PLP.part.metal>
0.0000

> <Gold.PLP.part.buried>
-4.6507

> <Gold.PLP.part.nonpolar>
-21.3475

> <Gold.PLP.part.repulsive>
0.0232

> <Gold.PLP.ligand.clash>
0.0000

> <Gold.PLP.ligand.torsion>
0.0436

> <Gold.PLP.Chemscore.Hbond>
4.0000

> <Gold.PLP.Chemscore.CHOScore>
0.0000

> <Gold.PLP.Chemscore.Metal>
0.0000

> <Gold.Chemscore.Hbonds>
donor molecule, donor type, donor heavy atom, donor atom, acceptor molecule, acceptor atom, score
      L1  H    11    27       P1  8028  2.00
      P1  H  7997  8009       L1    13  2.00

> <Gold.PLP.Chemscore.Internal.Correction>
0.0148

> <Gold.Rescore>
     Score         DG    S(hbond)    S(metal)    S(lipo)     H(rot)  DE(clash)    DE(int)     intcor
     12.19     -12.35       1.54        0.00      55.43       1.86       0.05       0.11       ----

> <Gold.Chemscore.Fitness>
12.1901

> <Gold.Chemscore.DG>
-12.3512

> <Gold.Chemscore.ZeroCoef>
-5.4800

> <Gold.Chemscore.Hbond>
1.5387

> <Gold.Chemscore.Metal>
0.0000

> <Gold.Chemscore.Lipo>
55.4283

> <Gold.Chemscore.Internal_Hbond>
0.0000

> <Gold.Chemscore.DEClash>
0.0499

> <Gold.Chemscore.DEInternal>
0.1112

> <Gold.Chemscore.Rot>
1.8567

> <Gold.Chemscore.Internal.Correction>
   9.000000E+99

> <Gold.Chemscore.Hbonds>
donor molecule, donor type, donor heavy atom, donor atom, acceptor molecule, acceptor atom, score
      L1  H    11    27       P1  8028  1.00
      P1  H  7997  8009       L1    13  0.08

> <Gold.Chemscore.Hbond.Weighted>
-5.1391

> <Gold.Chemscore.Metal.Weighted>
-0.0000

> <Gold.Chemscore.Lipo.Weighted>
-6.4851

> <Gold.Chemscore.Internal_Hbond.Weighted>
0.0000

> <Gold.Chemscore.DEClash.Weighted>
0.0499

> <Gold.Chemscore.DEInternal.Weighted>
0.1112

> <Gold.Chemscore.Rot.Weighted>
4.7531

> <Gold.Chemscore.Internal.Correction.Weighted>
   9.000000E+99

> <Gold.Protein.RotatedTorsions>
[ 6907 6896 6895 6894 ] final   19.41 input  -60.11 | X-H torsion
[ 7974 7965 7964 7962 ] final  -19.96 input  175.53 | X-H torsion
[ 8008 7997 7996 7995 ] final  179.64 input   59.86 | X-H torsion
[ 10167 10162 10161 10158 ] final   14.15 input  -65.29 | X-H torsion
[ 10718 10713 10712 10709 ] final  108.35 input   66.30 | X-H torsion
[ 10763 10752 10751 10750 ] final -141.41 input  -60.55 | X-H torsion
[ 11005 11000 10999 10996 ] final   59.74 input  -57.11 | X-H torsion

> <Gold.Protein.ActiveResidues>
 VAL166  LYS551  ARG553  GLY616  TRP617  ASP618  TYR619  PRO620  LYS621  CYS622 
 ASP623  PHE694  ASN695  SER759  ASP760  ASP761  ALA762  ILE779  LEU786  VAL792 
 PHE793  MET794  SER795  GLU796  ALA797  LYS798  CYS799  TRP800  GLU811  SER814 

> <Gold.Protein.RotatedAtoms>
  151.8805  135.0455  160.0488 H   0  0  0  0  0  0  0  0  0  0  0  0  # atno 6907 bound_to 6896
  152.2516  133.5216  159.5337 H   0  0  0  0  0  0  0  0  0  0  0  0  # atno 6908 bound_to 6896
  150.7086  134.0868  159.3960 H   0  0  0  0  0  0  0  0  0  0  0  0  # atno 6909 bound_to 6896
  146.1814  140.4135  142.8493 H   0  0  0  0  0  0  0  0  0  0  0  0  # atno 7974 bound_to 7965
  156.0411  140.1303  157.0155 H   0  0  0  0  0  0  0  0  0  0  0  0  # atno 8008 bound_to 7997
  154.4391  140.1030  156.6309 H   0  0  0  0  0  0  0  0  0  0  0  0  # atno 8009 bound_to 7997
  155.5665  140.3465  155.4506 H   0  0  0  0  0  0  0  0  0  0  0  0  # atno 8010 bound_to 7997
  140.5955  143.8710  150.6914 H   0  0  0  0  0  0  0  0  0  0  0  0  # atno 10167 bound_to 10162
  157.6590  131.0892  150.6292 H   0  0  0  0  0  0  0  0  0  0  0  0  # atno 10718 bound_to 10713
  154.8546  135.3525  154.5863 H   0  0  0  0  0  0  0  0  0  0  0  0  # atno 10763 bound_to 10752
  153.6473  135.6995  153.5225 H   0  0  0  0  0  0  0  0  0  0  0  0  # atno 10764 bound_to 10752
  153.2922  135.4231  155.1136 H   0  0  0  0  0  0  0  0  0  0  0  0  # atno 10765 bound_to 10752
  140.0282  134.6051  155.9543 H   0  0  0  0  0  0  0  0  0  0  0  0  # atno 11005 bound_to 11000
  144.8321  140.6724  143.6284 LP  0  0  0  0  0  0  0  0  0  0  0  0  # atno 17320 bound_to 7965
  145.4065  139.1588  143.4149 LP  0  0  0  0  0  0  0  0  0  0  0  0  # atno 17321 bound_to 7965
  140.2243  143.3784  152.1617 LP  0  0  0  0  0  0  0  0  0  0  0  0  # atno 17342 bound_to 10162
  139.5255  144.7097  151.5245 LP  0  0  0  0  0  0  0  0  0  0  0  0  # atno 17343 bound_to 10162
  156.6596  130.4508  149.5692 LP  0  0  0  0  0  0  0  0  0  0  0  0  # atno 17370 bound_to 10713
  156.2077  130.6659  151.1235 LP  0  0  0  0  0  0  0  0  0  0  0  0  # atno 17371 bound_to 10713
  141.1815  133.6547  156.5041 LP  0  0  0  0  0  0  0  0  0  0  0  0  # atno 17394 bound_to 11000
  140.4270  134.7136  157.4921 LP  0  0  0  0  0  0  0  0  0  0  0  0  # atno 17395 bound_to 11000

$$$$
