AV-unprocessed.smi:1424|AV-procd|sdf|5800|dock1
  -GOLD-   22720 5453D 1   1.00000     0.00000
 Structure written by MMmdl.
 45 47  0  0  0  0  0  0  0  0  1 V2000
  147.3096  137.5935  160.1179 O   0  0  0  0  0  0  0  0  0  0  0  0
  148.1499  136.7305  159.8656 C   0  0  0  0  0  0  0  0  0  0  0  0
  149.2469  136.9638  159.1333 N   0  0  0  0  0  0  0  0  0  0  0  0
  149.5741  138.2504  158.5322 C   0  0  0  0  0  0  0  0  0  0  0  0
  150.0052  138.0876  157.0645 C   0  0  1  0  0  0  0  0  0  0  0  0
  149.4720  139.2220  156.1678 C   0  0  0  0  0  0  0  0  0  0  0  0
  150.1624  139.1313  154.8039 C   0  0  0  0  0  0  0  0  0  0  0  0
  151.8637  138.5530  155.1542 S   0  0  0  0  0  0  0  0  0  0  0  0
  152.1522  137.3775  154.3187 O   0  0  0  0  0  0  0  0  0  0  0  0
  152.7767  139.7058  155.1809 O   0  0  0  0  0  0  0  0  0  0  0  0
  151.5315  138.0181  156.8770 C   0  0  0  0  0  0  0  0  0  0  0  0
  148.1098  135.4548  160.2863 N   0  0  0  0  0  0  0  0  0  0  0  0
  147.1247  134.8065  161.0868 C   0  0  0  0  0  0  0  0  0  0  0  0
  146.1022  135.5048  161.7752 C   0  0  0  0  0  0  0  0  0  0  0  0
  145.1599  134.7783  162.5255 C   0  0  0  0  0  0  0  0  0  0  0  0
  145.2660  133.3765  162.5562 C   0  0  0  0  0  0  0  0  0  0  0  0
  146.2241  132.6949  161.8962 N   0  0  0  0  0  0  0  0  0  0  0  0
  147.1348  133.3900  161.1716 C   0  0  0  0  0  0  0  0  0  0  0  0
  148.1215  132.6564  160.4887 N   0  0  0  0  0  0  0  0  0  0  0  0
  148.2168  131.2498  160.8405 C   0  0  0  0  0  0  0  0  0  0  0  0
  149.0786  130.6205  159.7445 C   0  0  0  0  0  0  0  0  0  0  0  0
  148.9194  131.5535  158.5375 C   0  0  0  0  0  0  0  0  0  0  0  0
  148.0422  132.7056  159.0380 C   0  0  0  0  0  0  0  0  0  0  0  0
  149.8940  136.2044  158.9789 H   0  0  0  0  0  0  0  0  0  0  0  0
  148.7018  138.9035  158.5907 H   0  0  0  0  0  0  0  0  0  0  0  0
  150.3686  138.7267  159.1089 H   0  0  0  0  0  0  0  0  0  0  0  0
  149.5855  137.1549  156.6838 H   0  0  0  0  0  0  0  0  0  0  0  0
  148.3869  139.1820  156.0670 H   0  0  0  0  0  0  0  0  0  0  0  0
  149.7150  140.1838  156.6218 H   0  0  0  0  0  0  0  0  0  0  0  0
  149.6759  138.3865  154.1738 H   0  0  0  0  0  0  0  0  0  0  0  0
  150.1864  140.0810  154.2697 H   0  0  0  0  0  0  0  0  0  0  0  0
  152.0419  138.7135  157.5444 H   0  0  0  0  0  0  0  0  0  0  0  0
  151.9360  137.0197  157.0432 H   0  0  0  0  0  0  0  0  0  0  0  0
  148.9173  134.8906  160.0646 H   0  0  0  0  0  0  0  0  0  0  0  0
  146.0107  136.5785  161.7323 H   0  0  0  0  0  0  0  0  0  0  0  0
  144.3705  135.2847  163.0609 H   0  0  0  0  0  0  0  0  0  0  0  0
  144.5594  132.7864  163.1206 H   0  0  0  0  0  0  0  0  0  0  0  0
  148.6622  131.1199  161.8273 H   0  0  0  0  0  0  0  0  0  0  0  0
  147.2289  130.7872  160.8519 H   0  0  0  0  0  0  0  0  0  0  0  0
  150.1233  130.5951  160.0568 H   0  0  0  0  0  0  0  0  0  0  0  0
  148.7719  129.5973  159.5261 H   0  0  0  0  0  0  0  0  0  0  0  0
  149.8950  131.9237  158.2203 H   0  0  0  0  0  0  0  0  0  0  0  0
  148.4622  131.0499  157.6853 H   0  0  0  0  0  0  0  0  0  0  0  0
  147.0128  132.5663  158.7049 H   0  0  0  0  0  0  0  0  0  0  0  0
  148.3903  133.6675  158.6604 H   0  0  0  0  0  0  0  0  0  0  0  0
  1  2  2  0  0  0  0
  2  3  1  0  0  0  0
  2 12  1  0  0  0  0
  3  4  1  0  0  0  0
  3 24  1  0  0  0  0
  4  5  1  0  0  0  0
  4 25  1  0  0  0  0
  4 26  1  0  0  0  0
  5 11  1  0  0  0  0
  5  6  1  0  0  0  0
  5 27  1  0  0  0  0
  6  7  1  0  0  0  0
  6 28  1  0  0  0  0
  6 29  1  0  0  0  0
  7  8  1  0  0  0  0
  7 30  1  0  0  0  0
  7 31  1  0  0  0  0
  8  9  2  0  0  0  0
  8 10  2  0  0  0  0
  8 11  1  0  0  0  0
 11 32  1  0  0  0  0
 11 33  1  0  0  0  0
 12 13  1  0  0  0  0
 12 34  1  0  0  0  0
 13 18  1  0  0  0  0
 13 14  2  0  0  0  0
 14 15  1  0  0  0  0
 14 35  1  0  0  0  0
 15 16  2  0  0  0  0
 15 36  1  0  0  0  0
 16 17  1  0  0  0  0
 16 37  1  0  0  0  0
 17 18  2  0  0  0  0
 18 19  1  0  0  0  0
 19 23  1  0  0  0  0
 19 20  1  0  0  0  0
 20 21  1  0  0  0  0
 20 38  1  0  0  0  0
 20 39  1  0  0  0  0
 21 22  1  0  0  0  0
 21 40  1  0  0  0  0
 21 41  1  0  0  0  0
 22 23  1  0  0  0  0
 22 42  1  0  0  0  0
 22 43  1  0  0  0  0
 23 44  1  0  0  0  0
 23 45  1  0  0  0  0
M  END
> <s_m_source_file>
AV-unprocessed.smi

> <i_m_source_file_index>
1424

> <i_lp_mmshare_version>
43012

> <i_f3d_flags>
0

> <s_epik_input>
Tz1TMSg9TylbQ0gyXVtDSDJdW0NASF0oW0NIMl0xKVtDSDJdW05IXUMoPU8pW05IXWMyW2NIXVtjSF1bY0hdbmMyTjNbQ0gyXVtDSDJdW0NIMl1bQ0gyXTM=

> <s_epik_cmdline>
J2VwaWtfcHl0aG9uJywgJy1waCcsICc3LjAnLCAnLXRuJywgJzgnLCAnLW1hJywgJzIwMCcsICctbWV0YWxfYmluZGluZycsICctaW1hZScsICc8aW5maWxlLm1hZT4nLCAnLW9tYWUnLCAnPG91dGZpbGUubWFlPic=

> <r_lp_tautomer_probability>
1

> <r_epik_Ionization_Penalty>
0.0965651

> <r_epik_Ionization_Penalty_Charging>
0

> <r_epik_Ionization_Penalty_Neutral>
0.0965651

> <r_epik_State_Penalty>
0.0861592

> <r_epik_Charging_Adjusted_Penalty>
0.0861592

> <i_epik_Tot_Q>
0

> <i_epik_Tot_abs_Q>
0

> <r_epik_Metal_State_Penalty>
0.0740444

> <b_epik_Metal_Only>
0

> <s_lp_Force_Field>
OPLS_2005

> <r_lp_Energy>
37.4342

> <b_lp_Chiralities_Consistent>
1

> <s_lp_Variant>
AV-unprocessed.smi:1424-2

> <Gold.Version>
5.8.1

> <Gold.Id.Protein>
6NUR|6NUR_protein|mol2

> <Gold.PLP.Fitness>
36.6232

> <Gold.PLP.PLP>
-28.3491

> <Gold.PLP.part.hbond>
-4.2769

> <Gold.PLP.part.metal>
0.0000

> <Gold.PLP.part.buried>
-6.0251

> <Gold.PLP.part.nonpolar>
-19.9655

> <Gold.PLP.part.repulsive>
0.5356

> <Gold.PLP.ligand.clash>
0.0000

> <Gold.PLP.ligand.torsion>
0.7987

> <Gold.PLP.Chemscore.Hbond>
3.2772

> <Gold.PLP.Chemscore.CHOScore>
0.0000

> <Gold.PLP.Chemscore.Metal>
0.0000

> <Gold.Chemscore.Hbonds>
donor molecule, donor type, donor heavy atom, donor atom, acceptor molecule, acceptor atom, score
      P1  H  6934  6947       L1     1  0.99
      P1  H  7989  7998       L1    10  0.12
      P1  H  7997  8010       L1    10  1.00
      P1  H 10752 10763       L1     9  0.85

> <Gold.PLP.Chemscore.Internal.Correction>
0.0398

> <Gold.Rescore>
     Score         DG    S(hbond)    S(metal)    S(lipo)     H(rot)  DE(clash)    DE(int)     intcor
     16.57     -18.54       2.90        0.00      60.93       1.47       0.02       1.94       ----

> <Gold.Chemscore.Fitness>
16.5691

> <Gold.Chemscore.DG>
-18.5364

> <Gold.Chemscore.ZeroCoef>
-5.4800

> <Gold.Chemscore.Hbond>
2.9048

> <Gold.Chemscore.Metal>
0.0000

> <Gold.Chemscore.Lipo>
60.9286

> <Gold.Chemscore.Internal_Hbond>
0.0000

> <Gold.Chemscore.DEClash>
0.0232

> <Gold.Chemscore.DEInternal>
1.9440

> <Gold.Chemscore.Rot>
1.4744

> <Gold.Chemscore.Internal.Correction>
   9.000000E+99

> <Gold.Chemscore.Hbonds>
donor molecule, donor type, donor heavy atom, donor atom, acceptor molecule, acceptor atom, score
      P1  H  6934  6947       L1     1  0.93
      P1  H  7989  7998       L1    10  0.01
      P1  H  7997  8010       L1    10  1.00
      P1  H 10752 10763       L1     9  0.83

> <Gold.Chemscore.Hbond.Weighted>
-9.7022

> <Gold.Chemscore.Metal.Weighted>
-0.0000

> <Gold.Chemscore.Lipo.Weighted>
-7.1286

> <Gold.Chemscore.Internal_Hbond.Weighted>
0.0000

> <Gold.Chemscore.DEClash.Weighted>
0.0232

> <Gold.Chemscore.DEInternal.Weighted>
1.9440

> <Gold.Chemscore.Rot.Weighted>
3.7744

> <Gold.Chemscore.Internal.Correction.Weighted>
   9.000000E+99

> <Gold.Protein.RotatedTorsions>
[ 6907 6896 6895 6894 ] final  169.21 input  -60.11 | X-H torsion
[ 7974 7965 7964 7962 ] final -136.95 input  175.53 | X-H torsion
[ 8008 7997 7996 7995 ] final  103.42 input   59.86 | X-H torsion
[ 10167 10162 10161 10158 ] final -122.81 input  -65.29 | X-H torsion
[ 10718 10713 10712 10709 ] final  121.73 input   66.30 | X-H torsion
[ 10763 10752 10751 10750 ] final   36.82 input  -60.55 | X-H torsion
[ 11005 11000 10999 10996 ] final   12.23 input  -57.11 | X-H torsion

> <Gold.Protein.ActiveResidues>
 VAL166  LYS551  ARG553  GLY616  TRP617  ASP618  TYR619  PRO620  LYS621  CYS622 
 ASP623  PHE694  ASN695  SER759  ASP760  ASP761  ALA762  ILE779  LEU786  VAL792 
 PHE793  MET794  SER795  GLU796  ALA797  LYS798  CYS799  TRP800  GLU811  SER814 

> <Gold.Protein.RotatedAtoms>
  151.8355  133.3415  159.3626 H   0  0  0  0  0  0  0  0  0  0  0  0  # atno 6907 bound_to 6896
  150.7251  134.5442  159.5771 H   0  0  0  0  0  0  0  0  0  0  0  0  # atno 6908 bound_to 6896
  152.2904  134.7729  160.0430 H   0  0  0  0  0  0  0  0  0  0  0  0  # atno 6909 bound_to 6896
  144.8884  140.6607  143.5161 H   0  0  0  0  0  0  0  0  0  0  0  0  # atno 7974 bound_to 7965
  156.1483  140.3165  155.8605 H   0  0  0  0  0  0  0  0  0  0  0  0  # atno 8008 bound_to 7997
  155.4022  140.0500  157.3053 H   0  0  0  0  0  0  0  0  0  0  0  0  # atno 8009 bound_to 7997
  154.5035  140.2138  155.9309 H   0  0  0  0  0  0  0  0  0  0  0  0  # atno 8010 bound_to 7997
  140.0103  143.5449  152.2266 H   0  0  0  0  0  0  0  0  0  0  0  0  # atno 10167 bound_to 10162
  157.5795  131.1076  150.8214 H   0  0  0  0  0  0  0  0  0  0  0  0  # atno 10718 bound_to 10713
  153.0061  135.6295  154.2046 H   0  0  0  0  0  0  0  0  0  0  0  0  # atno 10763 bound_to 10752
  154.1790  135.2814  155.3059 H   0  0  0  0  0  0  0  0  0  0  0  0  # atno 10764 bound_to 10752
  154.5849  135.5635  153.7281 H   0  0  0  0  0  0  0  0  0  0  0  0  # atno 10765 bound_to 10752
  140.4943  134.0809  155.7778 H   0  0  0  0  0  0  0  0  0  0  0  0  # atno 11005 bound_to 11000
  145.3828  139.1633  143.4271 LP  0  0  0  0  0  0  0  0  0  0  0  0  # atno 17320 bound_to 7965
  146.3038  140.3910  142.8694 LP  0  0  0  0  0  0  0  0  0  0  0  0  # atno 17321 bound_to 7965
  139.6210  144.7629  151.2741 LP  0  0  0  0  0  0  0  0  0  0  0  0  # atno 17342 bound_to 10162
  140.7384  143.6649  150.8132 LP  0  0  0  0  0  0  0  0  0  0  0  0  # atno 17343 bound_to 10162
  156.8664  130.5131  149.5300 LP  0  0  0  0  0  0  0  0  0  0  0  0  # atno 17370 bound_to 10713
  156.0841  130.5844  150.9616 LP  0  0  0  0  0  0  0  0  0  0  0  0  # atno 17371 bound_to 10713
  141.1468  133.9040  157.2195 LP  0  0  0  0  0  0  0  0  0  0  0  0  # atno 17394 bound_to 11000
  139.9751  135.0116  156.9610 LP  0  0  0  0  0  0  0  0  0  0  0  0  # atno 17395 bound_to 11000

$$$$
