#       Name:                AV-unprocessed.smi:152
#       Creating user name   scv26
#       Creation time:       Thu Mar 26 18:47:39 2020


#       File generated by GOLD software.
#

@<TRIPOS>MOLECULE
AV-unprocessed.smi:152
    66    69     1
SMALL
NO_CHARGES


@<TRIPOS>ATOM
      1 ****        -4.9022  -0.1449  -2.2039 C.3            1 S1                 0.0000
      2 ****        -3.4613   0.3118  -1.9389 C.3            1 S1                 0.0000
      3 ****        -2.7279   0.5992  -3.1960 N.4            1 S1                 1.0000
      4 ****        -3.1953   1.8098  -3.9179 C.3            1 S1                 0.0000
      5 ****        -1.9582   2.6645  -4.2065 C.3            1 S1                 0.0000
      6 ****        -0.8058   1.6746  -4.1248 C.3            1 S1                 0.0000
      7 ****        -1.2595   0.7079  -3.0283 C.3            1 S1                 0.0000
      8 ****        -0.5706  -0.6725  -3.1133 C.3            1 S1                 0.0000
      9 ****         0.8726  -0.6231  -2.8823 N.3            1 S1                 0.0000
     10 ****         1.6417  -1.8022  -3.2555 C.3            1 S1                 0.0000
     11 ****         1.3294  -0.0569  -1.7393 C.ar           1 S1                 0.0000
     12 ****         2.4634   0.6817  -1.8329 N.ar           1 S1                 0.0000
     13 ****         2.9690   1.2780  -0.7494 C.ar           1 S1                 0.0000
     14 ****         2.5089   1.2615   0.5026 N.ar           1 S1                 0.0000
     15 ****         1.3791   0.5053   0.6069 C.ar           1 S1                 0.0000
     16 ****         0.7245  -0.1832  -0.4540 C.ar           1 S1                 0.0000
     17 ****        -0.3953  -0.8452   0.0375 N.2            1 S1                 0.0000
     18 ****        -0.4042  -0.5611   1.3108 C.2            1 S1                 0.0000
     19 ****         0.6301   0.2388   1.7398 N.pl3          1 S1                 0.0000
     20 ****         0.8636   0.7039   3.0984 C.3            1 S1                 0.0000
     21 ****         1.7938  -0.2139   3.9310 C.3            1 S1                 0.0000
     22 ****         3.0770  -0.1906   3.3310 O.3            1 S1                 0.0000
     23 ****         1.9214   0.3213   5.3715 C.3            1 S1                 0.0000
     24 ****         2.6957  -0.6455   6.2847 C.3            1 S1                 0.0000
     25 ****         2.0833  -1.9291   6.2621 O.3            1 S1                 0.0000
     26 ****         2.1116  -2.5286   4.9726 C.3            1 S1                 0.0000
     27 ****         1.3054  -1.6786   3.9742 C.3            1 S1                 0.0000
     28 ****        -5.4058  -0.3893  -1.2683 H              1 S1                 0.0000
     29 ****        -4.9235  -1.0349  -2.8334 H              1 S1                 0.0000
     30 ****        -5.4888   0.6297  -2.6981 H              1 S1                 0.0000
     31 ****        -3.4496   1.1894  -1.2908 H              1 S1                 0.0000
     32 ****        -2.9452  -0.4811  -1.3970 H              1 S1                 0.0000
     33 ****        -3.6666   1.4912  -4.8481 H              1 S1                 0.0000
     34 ****        -3.9343   2.3812  -3.3544 H              1 S1                 0.0000
     35 ****        -2.0114   3.1751  -5.1686 H              1 S1                 0.0000
     36 ****        -1.8444   3.4232  -3.4308 H              1 S1                 0.0000
     37 ****        -0.7022   1.1518  -5.0767 H              1 S1                 0.0000
     38 ****         0.1475   2.1537  -3.8983 H              1 S1                 0.0000
     39 ****        -1.0728   1.1808  -2.0629 H              1 S1                 0.0000
     40 ****        -1.0212  -1.3751  -2.4131 H              1 S1                 0.0000
     41 ****        -0.7457  -1.0951  -4.1032 H              1 S1                 0.0000
     42 ****         1.5924  -2.5588  -2.4710 H              1 S1                 0.0000
     43 ****         2.6892  -1.5486  -3.4230 H              1 S1                 0.0000
     44 ****         1.2564  -2.2414  -4.1758 H              1 S1                 0.0000
     45 ****         3.8721   1.8491  -0.9073 H              1 S1                 0.0000
     46 ****        -1.1660  -0.9362   1.9790 H              1 S1                 0.0000
     47 ****         1.2709   1.7148   3.0504 H              1 S1                 0.0000
     48 ****        -0.1062   0.7921   3.5899 H              1 S1                 0.0000
     49 ****         3.6588  -0.7319   3.8424 H              1 S1                 0.0000
     50 ****         2.3974   1.3028   5.3751 H              1 S1                 0.0000
     51 ****         0.9251   0.4646   5.7916 H              1 S1                 0.0000
     52 ****         3.7415  -0.7219   5.9832 H              1 S1                 0.0000
     53 ****         2.6910  -0.2734   7.3094 H              1 S1                 0.0000
     54 ****         3.1433  -2.6526   4.6402 H              1 S1                 0.0000
     55 ****         1.6821  -3.5282   5.0417 H              1 S1                 0.0000
     56 ****         0.2557  -1.6984   4.2696 H              1 S1                 0.0000
     57 ****         1.3549  -2.1351   2.9848 H              1 S1                 0.0000
     58 ****        -2.8825  -0.1805  -3.8191 H              1 S1                 0.0000
     59 ****         1.0698   0.0669  -3.5786 LP             1 S1                 0.0000
     60 ****         2.9224   0.7802  -2.7158 LP             1 S1                 0.0000
     61 ****         2.9379   1.7424   1.2673 LP             1 S1                 0.0000
     62 ****        -1.0459  -1.4105  -0.4697 LP             1 S1                 0.0000
     63 ****         3.4218   0.7478   3.3095 LP             1 S1                 0.0000
     64 ****         3.0191  -0.5460   2.3981 LP             1 S1                 0.0000
     65 ****         1.1303  -1.8339   6.5498 LP             1 S1                 0.0000
     66 ****         2.5668  -2.5255   6.9028 LP             1 S1                 0.0000
@<TRIPOS>BOND
    1    1    2 1     
    2    1   28 1     
    3    1   29 1     
    4    1   30 1     
    5    2    3 1     
    6    2   31 1     
    7    2   32 1     
    8    3    7 1     
    9    3    4 1     
   10    3   58 1     
   11    4    5 1     
   12    4   33 1     
   13    4   34 1     
   14    5    6 1     
   15    5   35 1     
   16    5   36 1     
   17    6    7 1     
   18    6   37 1     
   19    6   38 1     
   20    7    8 1     
   21    7   39 1     
   22    8    9 1     
   23    8   40 1     
   24    8   41 1     
   25    9   10 1     
   26    9   11 1     
   27   10   42 1     
   28   10   43 1     
   29   10   44 1     
   30   11   16 ar    
   31   11   12 ar    
   32   12   13 ar    
   33   13   14 ar    
   34   13   45 1     
   35   14   15 ar    
   36   15   19 1     
   37   15   16 ar    
   38   16   17 1     
   39   17   18 2     
   40   18   19 1     
   41   18   46 1     
   42   19   20 1     
   43   20   21 1     
   44   20   47 1     
   45   20   48 1     
   46   21   27 1     
   47   21   22 1     
   48   21   23 1     
   49   22   49 1     
   50   23   24 1     
   51   23   50 1     
   52   23   51 1     
   53   24   25 1     
   54   24   52 1     
   55   24   53 1     
   56   25   26 1     
   57   26   27 1     
   58   26   54 1     
   59   26   55 1     
   60   27   56 1     
   61   27   57 1     
   62    9   59 1     
   63   12   60 1     
   64   14   61 1     
   65   17   62 1     
   66   22   63 1     
   67   22   64 1     
   68   25   65 1     
   69   25   66 1     
@<TRIPOS>SUBSTRUCTURE
      1 S1             1
@<TRIPOS>SET
LONE_PAIRS      STATIC     ATOMS    <user>   **** ""
8 59 60 61 62 63 64 65 66
DONOR_HYDROGENS      STATIC     ATOMS    <user>   **** ""
2 58 49
ATOM$BLUE        STATIC     ATOMS    COLORGROUP SYSTEM
8 59 60 61 62 63 64 65 66
ATOM$RED        STATIC     ATOMS    COLORGROUP SYSTEM
2 58 49
