AV-unprocessed.smi:1401|AV-procd|sdf|5693|dock3
  -GOLD-   22720 5323D 1   1.00000     0.00000
 Structure written by MMmdl.
 48 50  0  0  0  0  0  0  0  0  1 V2000
  155.4494  140.3194  162.5449 C   0  0  0  0  0  0  0  0  0  0  0  0
  155.1350  139.0168  161.8598 C   0  0  0  0  0  0  0  0  0  0  0  0
  154.1301  139.0165  161.0468 N   0  0  0  0  0  0  0  0  0  0  0  0
  153.7528  137.8725  160.3710 N   0  0  0  0  0  0  0  0  0  0  0  0
  152.5611  138.0359  159.5266 C   0  0  0  0  0  0  0  0  0  0  0  0
  152.7152  139.2005  158.5406 C   0  0  0  0  0  0  0  0  0  0  0  0
  153.7471  139.3176  157.8791 O   0  0  0  0  0  0  0  0  0  0  0  0
  151.6816  140.0535  158.4620 N   0  0  0  0  0  0  0  0  0  0  0  0
  151.6294  141.2638  157.6440 C   0  0  1  0  0  0  0  0  0  0  0  0
  150.5467  141.0698  156.5697 C   0  0  0  0  0  0  0  0  0  0  0  0
  151.3580  142.5089  158.5291 C   0  0  2  0  0  0  0  0  0  0  0  0
  151.3271  143.8336  157.7273 C   0  0  0  0  0  0  0  0  0  0  0  0
  152.3439  144.7226  158.4653 C   0  0  1  0  0  0  0  0  0  0  0  0
  151.7790  145.1185  159.8412 C   0  0  0  0  0  0  0  0  0  0  0  0
  151.8680  143.8009  160.6324 C   0  0  0  0  0  0  0  0  0  0  0  0
  152.4438  142.8186  159.5947 C   0  0  2  0  0  0  0  0  0  0  0  0
  153.4203  143.7123  158.8390 C   0  0  0  0  0  0  0  0  0  0  0  0
  154.3901  136.6692  160.4640 C   0  0  0  0  0  0  0  0  0  0  0  0
  154.0300  135.6774  159.8275 O   0  0  0  0  0  0  0  0  0  0  0  0
  155.5250  136.6763  161.3889 C   0  0  0  0  0  0  0  0  0  0  0  0
  156.2107  135.4321  161.5264 C   0  0  0  0  0  0  0  0  0  0  0  0
  156.7545  134.4178  161.6521 N   0  0  0  0  0  0  0  0  0  0  0  0
  155.8956  137.7890  162.0707 C   0  0  0  0  0  0  0  0  0  0  0  0
  157.0652  137.8470  163.0436 C   0  0  0  0  0  0  0  0  0  0  0  0
  156.4798  140.6195  162.3538 H   0  0  0  0  0  0  0  0  0  0  0  0
  155.3165  140.2299  163.6233 H   0  0  0  0  0  0  0  0  0  0  0  0
  154.8023  141.1272  162.1995 H   0  0  0  0  0  0  0  0  0  0  0  0
  152.3729  137.1278  158.9512 H   0  0  0  0  0  0  0  0  0  0  0  0
  151.6757  138.1772  160.1498 H   0  0  0  0  0  0  0  0  0  0  0  0
  150.8785  139.8701  159.0461 H   0  0  0  0  0  0  0  0  0  0  0  0
  152.5810  141.3993  157.1276 H   0  0  0  0  0  0  0  0  0  0  0  0
  150.4960  141.9205  155.8903 H   0  0  0  0  0  0  0  0  0  0  0  0
  149.5604  140.9456  157.0180 H   0  0  0  0  0  0  0  0  0  0  0  0
  150.7500  140.1859  155.9642 H   0  0  0  0  0  0  0  0  0  0  0  0
  150.4001  142.3602  159.0307 H   0  0  0  0  0  0  0  0  0  0  0  0
  151.6514  143.6865  156.6965 H   0  0  0  0  0  0  0  0  0  0  0  0
  150.3312  144.2774  157.6985 H   0  0  0  0  0  0  0  0  0  0  0  0
  152.6929  145.5700  157.8746 H   0  0  0  0  0  0  0  0  0  0  0  0
  152.3941  145.8885  160.3087 H   0  0  0  0  0  0  0  0  0  0  0  0
  150.7587  145.4978  159.7756 H   0  0  0  0  0  0  0  0  0  0  0  0
  152.5474  143.9090  161.4789 H   0  0  0  0  0  0  0  0  0  0  0  0
  150.9013  143.4797  161.0219 H   0  0  0  0  0  0  0  0  0  0  0  0
  152.8959  141.9458  160.0624 H   0  0  0  0  0  0  0  0  0  0  0  0
  153.8796  143.2253  157.9774 H   0  0  0  0  0  0  0  0  0  0  0  0
  154.2046  144.1297  159.4732 H   0  0  0  0  0  0  0  0  0  0  0  0
  157.5105  136.8671  163.2116 H   0  0  0  0  0  0  0  0  0  0  0  0
  156.7423  138.2259  164.0138 H   0  0  0  0  0  0  0  0  0  0  0  0
  157.8467  138.5036  162.6603 H   0  0  0  0  0  0  0  0  0  0  0  0
  1  2  1  0  0  0  0
  1 25  1  0  0  0  0
  1 26  1  0  0  0  0
  1 27  1  0  0  0  0
  2 23  1  0  0  0  0
  2  3  2  0  0  0  0
  3  4  1  0  0  0  0
  4  5  1  0  0  0  0
  4 18  1  0  0  0  0
  5  6  1  0  0  0  0
  5 28  1  0  0  0  0
  5 29  1  0  0  0  0
  6  7  2  0  0  0  0
  6  8  1  0  0  0  0
  8  9  1  0  0  0  0
  8 30  1  0  0  0  0
  9 10  1  0  0  0  0
  9 11  1  0  0  0  0
  9 31  1  0  0  0  0
 10 32  1  0  0  0  0
 10 33  1  0  0  0  0
 10 34  1  0  0  0  0
 11 16  1  0  0  0  0
 11 12  1  0  0  0  0
 11 35  1  0  0  0  0
 12 13  1  0  0  0  0
 12 36  1  0  0  0  0
 12 37  1  0  0  0  0
 13 17  1  0  0  0  0
 13 14  1  0  0  0  0
 13 38  1  0  0  0  0
 14 15  1  0  0  0  0
 14 39  1  0  0  0  0
 14 40  1  0  0  0  0
 15 16  1  0  0  0  0
 15 41  1  0  0  0  0
 15 42  1  0  0  0  0
 16 17  1  0  0  0  0
 16 43  1  0  0  0  0
 17 44  1  0  0  0  0
 17 45  1  0  0  0  0
 18 19  2  0  0  0  0
 18 20  1  0  0  0  0
 20 21  1  0  0  0  0
 20 23  2  0  0  0  0
 21 22  3  0  0  0  0
 23 24  1  0  0  0  0
 24 46  1  0  0  0  0
 24 47  1  0  0  0  0
 24 48  1  0  0  0  0
M  END
> <s_m_source_file>
AV-unprocessed.smi

> <i_m_source_file_index>
1401

> <i_lp_mmshare_version>
43012

> <i_f3d_flags>
0

> <s_epik_input>
TiNDYyhjMVtDSDNdKWMoPU8pbihuYzFbQ0gzXSlbQ0gyXUMoPU8pW05IXVtDQEhdKFtDSDNdKVtDQEhdKFtDSDJdW0NASF0yMylbQ0BIXShbQ0gyXTMpW0NIMl1bQ0gyXTI=

> <s_epik_cmdline>
J2VwaWtfcHl0aG9uJywgJy1waCcsICc3LjAnLCAnLXRuJywgJzgnLCAnLW1hJywgJzIwMCcsICctbWV0YWxfYmluZGluZycsICctaW1hZScsICc8aW5maWxlLm1hZT4nLCAnLW9tYWUnLCAnPG91dGZpbGUubWFlPic=

> <r_lp_tautomer_probability>
1

> <r_epik_Ionization_Penalty>
2.16501e-08

> <r_epik_Ionization_Penalty_Charging>
2.29436e-11

> <r_epik_Ionization_Penalty_Neutral>
2.16271e-08

> <r_epik_State_Penalty>
-0

> <r_epik_Charging_Adjusted_Penalty>
2.29436e-11

> <i_epik_Tot_Q>
0

> <i_epik_Tot_abs_Q>
0

> <r_epik_Metal_State_Penalty>
-0

> <b_epik_Metal_Only>
0

> <s_lp_Force_Field>
OPLS_2005

> <r_lp_Energy>
65.2014

> <b_lp_Chiralities_Consistent>
1

> <s_lp_Variant>
AV-unprocessed.smi:1401-6

> <Gold.Version>
5.8.1

> <Gold.Id.Protein>
6NUR|6NUR_protein|mol2

> <Gold.PLP.Fitness>
48.1541

> <Gold.PLP.PLP>
-42.5409

> <Gold.PLP.part.hbond>
-2.0000

> <Gold.PLP.part.metal>
0.0000

> <Gold.PLP.part.buried>
-4.0297

> <Gold.PLP.part.nonpolar>
-36.5239

> <Gold.PLP.part.repulsive>
0.1257

> <Gold.PLP.ligand.clash>
0.0000

> <Gold.PLP.ligand.torsion>
0.2044

> <Gold.PLP.Chemscore.Hbond>
2.0000

> <Gold.PLP.Chemscore.CHOScore>
0.0000

> <Gold.PLP.Chemscore.Metal>
0.0000

> <Gold.Chemscore.Hbonds>
donor molecule, donor type, donor heavy atom, donor atom, acceptor molecule, acceptor atom, score
      P1  H  6896  6907       L1    19  1.00
      P1  H  7997  8008       L1     7  0.78

> <Gold.PLP.Chemscore.Internal.Correction>
0.0219

> <Gold.Rescore>
     Score         DG    S(hbond)    S(metal)    S(lipo)     H(rot)  DE(clash)    DE(int)     intcor
     23.25     -23.44       1.99        0.00     132.46       1.63       0.08       0.11       ----

> <Gold.Chemscore.Fitness>
23.2522

> <Gold.Chemscore.DG>
-23.4422

> <Gold.Chemscore.ZeroCoef>
-5.4800

> <Gold.Chemscore.Hbond>
1.9857

> <Gold.Chemscore.Metal>
0.0000

> <Gold.Chemscore.Lipo>
132.4611

> <Gold.Chemscore.Internal_Hbond>
0.0000

> <Gold.Chemscore.DEClash>
0.0754

> <Gold.Chemscore.DEInternal>
0.1146

> <Gold.Chemscore.Rot>
1.6281

> <Gold.Chemscore.Internal.Correction>
   9.000000E+99

> <Gold.Chemscore.Hbonds>
donor molecule, donor type, donor heavy atom, donor atom, acceptor molecule, acceptor atom, score
      P1  H  6896  6907       L1    19  1.00
      P1  H  7997  8008       L1     7  0.76

> <Gold.Chemscore.Hbond.Weighted>
-6.6321

> <Gold.Chemscore.Metal.Weighted>
-0.0000

> <Gold.Chemscore.Lipo.Weighted>
-15.4979

> <Gold.Chemscore.Internal_Hbond.Weighted>
0.0000

> <Gold.Chemscore.DEClash.Weighted>
0.0754

> <Gold.Chemscore.DEInternal.Weighted>
0.1146

> <Gold.Chemscore.Rot.Weighted>
4.1678

> <Gold.Chemscore.Internal.Correction.Weighted>
   9.000000E+99

> <Gold.Protein.RotatedTorsions>
[ 6907 6896 6895 6894 ] final   70.53 input  -60.11 | X-H torsion
[ 7974 7965 7964 7962 ] final    4.79 input  175.53 | X-H torsion
[ 8008 7997 7996 7995 ] final -103.51 input   59.86 | X-H torsion
[ 10167 10162 10161 10158 ] final  -35.04 input  -65.29 | X-H torsion
[ 10718 10713 10712 10709 ] final  157.91 input   66.30 | X-H torsion
[ 10763 10752 10751 10750 ] final  117.91 input  -60.55 | X-H torsion
[ 11005 11000 10999 10996 ] final   70.97 input  -57.11 | X-H torsion

> <Gold.Protein.ActiveResidues>
 VAL166  LYS551  ARG553  GLY616  TRP617  ASP618  TYR619  PRO620  LYS621  CYS622 
 ASP623  PHE694  ASN695  SER759  ASP760  ASP761  ALA762  ILE779  LEU786  VAL792 
 PHE793  MET794  SER795  GLU796  ALA797  LYS798  CYS799  TRP800  GLU811  SER814 

> <Gold.Protein.RotatedAtoms>
  152.4755  134.4854  159.9678 H   0  0  0  0  0  0  0  0  0  0  0  0  # atno 6907 bound_to 6896
  151.4871  133.3527  159.2855 H   0  0  0  0  0  0  0  0  0  0  0  0  # atno 6908 bound_to 6896
  150.8791  134.8206  159.7273 H   0  0  0  0  0  0  0  0  0  0  0  0  # atno 6909 bound_to 6896
  146.2443  140.0481  142.8377 H   0  0  0  0  0  0  0  0  0  0  0  0  # atno 7974 bound_to 7965
  154.8719  140.0422  157.1730 H   0  0  0  0  0  0  0  0  0  0  0  0  # atno 8008 bound_to 7997
  154.8730  140.2961  155.5449 H   0  0  0  0  0  0  0  0  0  0  0  0  # atno 8009 bound_to 7997
  156.2999  140.2425  156.3721 H   0  0  0  0  0  0  0  0  0  0  0  0  # atno 8010 bound_to 7997
  140.7173  143.3505  151.2166 H   0  0  0  0  0  0  0  0  0  0  0  0  # atno 10167 bound_to 10162
  157.1850  131.0641  151.2111 H   0  0  0  0  0  0  0  0  0  0  0  0  # atno 10718 bound_to 10713
  153.5596  135.3523  155.2793 H   0  0  0  0  0  0  0  0  0  0  0  0  # atno 10763 bound_to 10752
  154.8696  135.4133  154.2846 H   0  0  0  0  0  0  0  0  0  0  0  0  # atno 10764 bound_to 10752
  153.3589  135.7059  153.6797 H   0  0  0  0  0  0  0  0  0  0  0  0  # atno 10765 bound_to 10752
  139.9569  134.7129  156.0734 H   0  0  0  0  0  0  0  0  0  0  0  0  # atno 11005 bound_to 11000
  145.1008  140.9345  143.4713 LP  0  0  0  0  0  0  0  0  0  0  0  0  # atno 17320 bound_to 7965
  145.0674  139.3058  143.5849 LP  0  0  0  0  0  0  0  0  0  0  0  0  # atno 17321 bound_to 7965
  139.7034  143.9495  152.2916 LP  0  0  0  0  0  0  0  0  0  0  0  0  # atno 17342 bound_to 10162
  139.9196  144.6808  150.8476 LP  0  0  0  0  0  0  0  0  0  0  0  0  # atno 17343 bound_to 10162
  157.3915  130.7285  149.6701 LP  0  0  0  0  0  0  0  0  0  0  0  0  # atno 17370 bound_to 10713
  155.9719  130.4145  150.4135 LP  0  0  0  0  0  0  0  0  0  0  0  0  # atno 17371 bound_to 10713
  141.1241  133.6604  156.3291 LP  0  0  0  0  0  0  0  0  0  0  0  0  # atno 17394 bound_to 11000
  140.5589  134.5953  157.5428 LP  0  0  0  0  0  0  0  0  0  0  0  0  # atno 17395 bound_to 11000

$$$$
