AV-unprocessed.smi:2663|AV-procd|sdf|10323|dock3
  -GOLD-   2272014343D 1   1.00000     0.00000
 Structure written by MMmdl.
 39 40  0  0  0  0  0  0  0  0  1 V2000
  145.8306  137.0026  154.0603 C   0  0  0  0  0  0  0  0  0  0  0  0
  145.2839  137.0508  152.6145 C   0  0  2  0  0  0  0  0  0  0  0  0
  146.2996  137.8262  151.7238 C   0  0  0  0  0  0  0  0  0  0  0  0
  146.0313  139.2153  151.6791 O   0  0  0  0  0  0  0  0  0  0  0  0
  144.0122  137.7920  152.6781 N   0  0  0  0  0  0  0  0  0  0  0  0
  142.8163  137.3695  153.1247 C   0  0  0  0  0  0  0  0  0  0  0  0
  142.6098  136.2458  153.5816 O   0  0  0  0  0  0  0  0  0  0  0  0
  141.8921  138.3362  153.0066 N   0  0  0  0  0  0  0  0  0  0  0  0
  140.5197  138.2786  153.3568 C   0  0  0  0  0  0  0  0  0  0  0  0
  139.8613  139.4335  153.5094 N   0  0  0  0  0  0  0  0  0  0  0  0
  138.5289  139.2324  153.8488 N   0  0  0  0  0  0  0  0  0  0  0  0
  138.2342  137.9320  153.9385 C   0  0  0  0  0  0  0  0  0  0  0  0
  139.5550  136.8222  153.6181 S   0  0  0  0  0  0  0  0  0  0  0  0
  145.0412  135.6019  152.0537 C   0  0  0  0  0  0  0  0  0  0  0  0
  146.1881  134.6001  152.3567 C   0  0  0  0  0  0  0  0  0  0  0  0
  145.8376  133.1750  151.8995 C   0  0  0  0  0  0  0  0  0  0  0  0
  145.4926  133.1383  150.4048 C   0  0  0  0  0  0  0  0  0  0  0  0
  144.3604  134.1222  150.0805 C   0  0  0  0  0  0  0  0  0  0  0  0
  144.7077  135.5477  150.5403 C   0  0  0  0  0  0  0  0  0  0  0  0
  146.8141  136.5359  154.1080 H   0  0  0  0  0  0  0  0  0  0  0  0
  145.1705  136.4548  154.7317 H   0  0  0  0  0  0  0  0  0  0  0  0
  145.9386  138.0044  154.4774 H   0  0  0  0  0  0  0  0  0  0  0  0
  147.3149  137.7110  152.1013 H   0  0  0  0  0  0  0  0  0  0  0  0
  146.3068  137.4437  150.7032 H   0  0  0  0  0  0  0  0  0  0  0  0
  145.3028  139.3615  151.0952 H   0  0  0  0  0  0  0  0  0  0  0  0
  144.0513  138.7367  152.3251 H   0  0  0  0  0  0  0  0  0  0  0  0
  142.2036  139.2140  152.6178 H   0  0  0  0  0  0  0  0  0  0  0  0
  137.2315  137.6242  154.1949 H   0  0  0  0  0  0  0  0  0  0  0  0
  144.1580  135.2129  152.5614 H   0  0  0  0  0  0  0  0  0  0  0  0
  147.1055  134.9127  151.8582 H   0  0  0  0  0  0  0  0  0  0  0  0
  146.4134  134.5697  153.4223 H   0  0  0  0  0  0  0  0  0  0  0  0
  146.6725  132.5041  152.1035 H   0  0  0  0  0  0  0  0  0  0  0  0
  144.9932  132.8024  152.4806 H   0  0  0  0  0  0  0  0  0  0  0  0
  146.3768  133.3903  149.8181 H   0  0  0  0  0  0  0  0  0  0  0  0
  145.2035  132.1284  150.1129 H   0  0  0  0  0  0  0  0  0  0  0  0
  144.1610  134.1167  149.0086 H   0  0  0  0  0  0  0  0  0  0  0  0
  143.4404  133.7954  150.5672 H   0  0  0  0  0  0  0  0  0  0  0  0
  143.8646  136.1942  150.3032 H   0  0  0  0  0  0  0  0  0  0  0  0
  145.5514  135.9096  149.9527 H   0  0  0  0  0  0  0  0  0  0  0  0
  1  2  1  0  0  0  0
  1 20  1  0  0  0  0
  1 21  1  0  0  0  0
  1 22  1  0  0  0  0
  2  3  1  0  0  0  0
  2  5  1  0  0  0  0
  2 14  1  0  0  0  0
  3  4  1  0  0  0  0
  3 23  1  0  0  0  0
  3 24  1  0  0  0  0
  4 25  1  0  0  0  0
  5  6  1  0  0  0  0
  5 26  1  0  0  0  0
  6  7  2  0  0  0  0
  6  8  1  0  0  0  0
  8  9  1  0  0  0  0
  8 27  1  0  0  0  0
  9 13  1  0  0  0  0
  9 10  2  0  0  0  0
 10 11  1  0  0  0  0
 11 12  2  0  0  0  0
 12 13  1  0  0  0  0
 12 28  1  0  0  0  0
 14 19  1  0  0  0  0
 14 15  1  0  0  0  0
 14 29  1  0  0  0  0
 15 16  1  0  0  0  0
 15 30  1  0  0  0  0
 15 31  1  0  0  0  0
 16 17  1  0  0  0  0
 16 32  1  0  0  0  0
 16 33  1  0  0  0  0
 17 18  1  0  0  0  0
 17 34  1  0  0  0  0
 17 35  1  0  0  0  0
 18 19  1  0  0  0  0
 18 36  1  0  0  0  0
 18 37  1  0  0  0  0
 19 38  1  0  0  0  0
 19 39  1  0  0  0  0
M  END
> <s_m_source_file>
AV-unprocessed.smi

> <i_m_source_file_index>
2663

> <i_lp_mmshare_version>
43012

> <i_f3d_flags>
0

> <s_epik_input>
W0NIMl0xW0NIMl1bQ0gyXVtDSDJdW0NIMl1bQ0hdMVtDQF0oW0NIM10pKFtDSDJdW09IXSlbTkhdQyg9TylbTkhdYzJubltjSF1zMg==

> <s_epik_cmdline>
J2VwaWtfcHl0aG9uJywgJy1waCcsICc3LjAnLCAnLXRuJywgJzgnLCAnLW1hJywgJzIwMCcsICctbWV0YWxfYmluZGluZycsICctaW1hZScsICc8aW5maWxlLm1hZT4nLCAnLW9tYWUnLCAnPG91dGZpbGUubWFlPic=

> <r_lp_tautomer_probability>
1

> <r_epik_Ionization_Penalty>
0.000410407

> <r_epik_Ionization_Penalty_Charging>
0

> <r_epik_Ionization_Penalty_Neutral>
0.000410407

> <r_epik_State_Penalty>
-0

> <r_epik_Charging_Adjusted_Penalty>
0

> <i_epik_Tot_Q>
0

> <i_epik_Tot_abs_Q>
0

> <r_epik_Metal_State_Penalty>
0.197604

> <b_epik_Metal_Only>
0

> <s_lp_Force_Field>
OPLS_2005

> <r_lp_Energy>
18.5807

> <b_lp_Chiralities_Consistent>
1

> <s_lp_Variant>
AV-unprocessed.smi:2663-2

> <Gold.Version>
5.8.1

> <Gold.Id.Protein>
6NUR|6NUR_protein|mol2

> <Gold.PLP.Fitness>
39.2184

> <Gold.PLP.PLP>
-32.8598

> <Gold.PLP.part.hbond>
-5.0000

> <Gold.PLP.part.metal>
0.0000

> <Gold.PLP.part.buried>
-3.4167

> <Gold.PLP.part.nonpolar>
-26.0804

> <Gold.PLP.part.repulsive>
1.7811

> <Gold.PLP.ligand.clash>
0.0000

> <Gold.PLP.ligand.torsion>
1.2793

> <Gold.PLP.Chemscore.Hbond>
2.9440

> <Gold.PLP.Chemscore.CHOScore>
0.0000

> <Gold.PLP.Chemscore.Metal>
0.0000

> <Gold.Chemscore.Hbonds>
donor molecule, donor type, donor heavy atom, donor atom, acceptor molecule, acceptor atom, score
      L1  H     4    25       P1 10171  0.96
      L1  H     5    26       P1 10175  1.00
      L1  H     8    27       P1 10175  0.94

> <Gold.PLP.Chemscore.Internal.Correction>
0.0852

> <Gold.Rescore>
     Score         DG    S(hbond)    S(metal)    S(lipo)     H(rot)  DE(clash)    DE(int)     intcor
     14.19     -17.25       2.81        0.00      68.62       2.21       0.57       2.49       ----

> <Gold.Chemscore.Fitness>
14.1864

> <Gold.Chemscore.DG>
-17.2469

> <Gold.Chemscore.ZeroCoef>
-5.4800

> <Gold.Chemscore.Hbond>
2.8148

> <Gold.Chemscore.Metal>
0.0000

> <Gold.Chemscore.Lipo>
68.6170

> <Gold.Chemscore.Internal_Hbond>
0.0000

> <Gold.Chemscore.DEClash>
0.5658

> <Gold.Chemscore.DEInternal>
2.4946

> <Gold.Chemscore.Rot>
2.2120

> <Gold.Chemscore.Internal.Correction>
   9.000000E+99

> <Gold.Chemscore.Hbonds>
donor molecule, donor type, donor heavy atom, donor atom, acceptor molecule, acceptor atom, score
      L1  H     4    25       P1 10171  0.86
      L1  H     5    26       P1 10175  0.95
      L1  H     8    27       P1 10175  0.79

> <Gold.Chemscore.Hbond.Weighted>
-9.4014

> <Gold.Chemscore.Metal.Weighted>
-0.0000

> <Gold.Chemscore.Lipo.Weighted>
-8.0282

> <Gold.Chemscore.Internal_Hbond.Weighted>
0.0000

> <Gold.Chemscore.DEClash.Weighted>
0.5658

> <Gold.Chemscore.DEInternal.Weighted>
2.4946

> <Gold.Chemscore.Rot.Weighted>
5.6627

> <Gold.Chemscore.Internal.Correction.Weighted>
   9.000000E+99

> <Gold.Protein.RotatedTorsions>
[ 6907 6896 6895 6894 ] final  -30.13 input  -60.11 | X-H torsion
[ 7974 7965 7964 7962 ] final  104.10 input  175.53 | X-H torsion
[ 8008 7997 7996 7995 ] final  -89.49 input   59.86 | X-H torsion
[ 10167 10162 10161 10158 ] final  -91.66 input  -65.29 | X-H torsion
[ 10718 10713 10712 10709 ] final -178.80 input   66.30 | X-H torsion
[ 10763 10752 10751 10750 ] final   64.01 input  -60.55 | X-H torsion
[ 11005 11000 10999 10996 ] final  -82.08 input  -57.11 | X-H torsion

> <Gold.Protein.ActiveResidues>
 VAL166  LYS551  ARG553  GLY616  TRP617  ASP618  TYR619  PRO620  LYS621  CYS622 
 ASP623  PHE694  ASN695  SER759  ASP760  ASP761  ALA762  ILE779  LEU786  VAL792 
 PHE793  MET794  SER795  GLU796  ALA797  LYS798  CYS799  TRP800  GLU811  SER814 

> <Gold.Protein.RotatedAtoms>
  151.1098  135.0020  159.8488 H   0  0  0  0  0  0  0  0  0  0  0  0  # atno 6907 bound_to 6896
  152.5442  134.1850  159.8661 H   0  0  0  0  0  0  0  0  0  0  0  0  # atno 6908 bound_to 6896
  151.1899  133.4629  159.2628 H   0  0  0  0  0  0  0  0  0  0  0  0  # atno 6909 bound_to 6896
  145.3373  139.2471  143.3628 H   0  0  0  0  0  0  0  0  0  0  0  0  # atno 7974 bound_to 7965
  154.6872  140.0541  157.0327 H   0  0  0  0  0  0  0  0  0  0  0  0  # atno 8008 bound_to 7997
  155.0867  140.3215  155.4566 H   0  0  0  0  0  0  0  0  0  0  0  0  # atno 8009 bound_to 7997
  156.2715  140.2055  156.5995 H   0  0  0  0  0  0  0  0  0  0  0  0  # atno 8010 bound_to 7997
  140.3426  143.2934  151.9817 H   0  0  0  0  0  0  0  0  0  0  0  0  # atno 10167 bound_to 10162
  156.8497  130.9714  151.3093 H   0  0  0  0  0  0  0  0  0  0  0  0  # atno 10718 bound_to 10713
  153.0039  135.5408  154.6442 H   0  0  0  0  0  0  0  0  0  0  0  0  # atno 10763 bound_to 10752
  154.5690  135.2840  155.0848 H   0  0  0  0  0  0  0  0  0  0  0  0  # atno 10764 bound_to 10752
  154.2021  135.6482  153.5143 H   0  0  0  0  0  0  0  0  0  0  0  0  # atno 10765 bound_to 10752
  141.1664  133.7227  156.8518 H   0  0  0  0  0  0  0  0  0  0  0  0  # atno 11005 bound_to 11000
  146.3022  140.3963  142.8700 LP  0  0  0  0  0  0  0  0  0  0  0  0  # atno 17320 bound_to 7965
  144.8818  140.7410  143.5982 LP  0  0  0  0  0  0  0  0  0  0  0  0  # atno 17321 bound_to 7965
  139.4838  144.6143  151.7375 LP  0  0  0  0  0  0  0  0  0  0  0  0  # atno 17342 bound_to 10162
  140.5294  144.0754  150.6048 LP  0  0  0  0  0  0  0  0  0  0  0  0  # atno 17343 bound_to 10162
  157.6310  130.8729  149.9274 LP  0  0  0  0  0  0  0  0  0  0  0  0  # atno 17370 bound_to 10713
  156.0835  130.3670  150.0533 LP  0  0  0  0  0  0  0  0  0  0  0  0  # atno 17371 bound_to 10713
  140.1910  134.8965  157.3060 LP  0  0  0  0  0  0  0  0  0  0  0  0  # atno 17394 bound_to 11000
  140.2290  134.3932  155.7530 LP  0  0  0  0  0  0  0  0  0  0  0  0  # atno 17395 bound_to 11000

$$$$
