AV-unprocessed.smi:3105|AV-procd|sdf|11822|dock10
  -GOLD-   2272017193D 1   1.00000     0.00000
 Structure written by MMmdl.
 34 34  0  0  0  0  0  0  0  0  2 V2000
  148.5871  141.8825  158.0414 C   0  0  0  0  0  0  0  0  0  0  0  0
  149.4328  141.2196  156.9381 C   0  0  1  0  0  0  0  0  0  0  0  0
  149.3347  142.0094  155.6884 N   0  3  0  0  0  0  0  0  0  0  0  0
  148.1048  141.7923  154.8951 C   0  0  0  0  0  0  0  0  0  0  0  0
  147.8266  140.2941  154.6614 C   0  0  0  0  0  0  0  0  0  0  0  0
  148.9500  139.5399  153.9353 C   0  0  0  0  0  0  0  0  0  0  0  0
  148.5763  138.5391  153.1353 N   0  0  0  0  0  0  0  0  0  0  0  0
  150.1314  139.8490  154.0830 O   0  0  0  0  0  0  0  0  0  0  0  0
  150.9234  141.0596  157.3439 C   0  0  1  0  0  0  0  0  0  0  0  0
  151.8211  140.5867  156.1852 C   0  0  0  0  0  0  0  0  0  0  0  0
  151.4627  142.2936  157.9064 N   0  0  0  0  0  0  0  0  0  0  0  0
  151.4586  143.5568  157.3509 C   0  0  0  0  0  0  0  0  0  0  0  0
  152.0698  144.3958  158.2378 C   0  0  0  0  0  0  0  0  0  0  0  0
  152.4111  143.5467  159.3268 C   0  0  0  0  0  0  0  0  0  0  0  0
  152.0441  142.2913  159.1276 N   0  0  0  0  0  0  0  0  0  0  0  0
  148.5623  141.2781  158.9476 H   0  0  0  0  0  0  0  0  0  0  0  0
  147.5514  142.0147  157.7284 H   0  0  0  0  0  0  0  0  0  0  0  0
  148.9800  142.8648  158.3061 H   0  0  0  0  0  0  0  0  0  0  0  0
  149.0271  140.2249  156.7463 H   0  0  0  0  0  0  0  0  0  0  0  0
  149.4382  142.9906  155.9025 H   0  0  0  0  0  0  0  0  0  0  0  0
  147.2551  142.2504  155.4038 H   0  0  0  0  0  0  0  0  0  0  0  0
  148.2039  142.2951  153.9332 H   0  0  0  0  0  0  0  0  0  0  0  0
  147.6663  139.8140  155.6278 H   0  0  0  0  0  0  0  0  0  0  0  0
  146.9001  140.1698  154.0996 H   0  0  0  0  0  0  0  0  0  0  0  0
  149.2699  138.0076  152.6286 H   0  0  0  0  0  0  0  0  0  0  0  0
  147.5960  138.3164  153.0360 H   0  0  0  0  0  0  0  0  0  0  0  0
  150.9798  140.3053  158.1306 H   0  0  0  0  0  0  0  0  0  0  0  0
  151.5530  139.5864  155.8470 H   0  0  0  0  0  0  0  0  0  0  0  0
  152.8665  140.5475  156.4933 H   0  0  0  0  0  0  0  0  0  0  0  0
  151.7547  141.2584  155.3286 H   0  0  0  0  0  0  0  0  0  0  0  0
  151.0284  143.7523  156.3796 H   0  0  0  0  0  0  0  0  0  0  0  0
  152.2439  145.4558  158.1272 H   0  0  0  0  0  0  0  0  0  0  0  0
  152.9105  143.8032  160.2494 H   0  0  0  0  0  0  0  0  0  0  0  0
  150.1061  141.7266  155.0996 H   0  0  0  0  0  0  0  0  0  0  0  0
  1  2  1  0  0  0  0
  1 16  1  0  0  0  0
  1 17  1  0  0  0  0
  1 18  1  0  0  0  0
  2  3  1  0  0  0  0
  2  9  1  0  0  0  0
  2 19  1  0  0  0  0
  3  4  1  0  0  0  0
  3 20  1  0  0  0  0
  3 34  1  0  0  0  0
  4  5  1  0  0  0  0
  4 21  1  0  0  0  0
  4 22  1  0  0  0  0
  5  6  1  0  0  0  0
  5 23  1  0  0  0  0
  5 24  1  0  0  0  0
  6  7  1  0  0  0  0
  6  8  2  0  0  0  0
  7 25  1  0  0  0  0
  7 26  1  0  0  0  0
  9 10  1  0  0  0  0
  9 11  1  0  0  0  0
  9 27  1  0  0  0  0
 10 28  1  0  0  0  0
 10 29  1  0  0  0  0
 10 30  1  0  0  0  0
 11 15  1  0  0  0  0
 11 12  1  0  0  0  0
 12 13  2  0  0  0  0
 12 31  1  0  0  0  0
 13 14  1  0  0  0  0
 13 32  1  0  0  0  0
 14 15  2  0  0  0  0
 14 33  1  0  0  0  0
M  CHG  1   3   1
M  END
> <s_m_source_file>
AV-unprocessed.smi

> <i_m_source_file_index>
3105

> <i_lp_mmshare_version>
43012

> <i_f3d_flags>
0

> <s_epik_input>
W05IMl1DKD1PKVtDSDJdW0NIMl1bTkhdW0NAQEhdKFtDSDNdKVtDQEhdKFtDSDNdKW4xW2NIXVtjSF1bY0hdbjE=

> <s_epik_cmdline>
J2VwaWtfcHl0aG9uJywgJy1waCcsICc3LjAnLCAnLXRuJywgJzgnLCAnLW1hJywgJzIwMCcsICctbWV0YWxfYmluZGluZycsICctaW1hZScsICc8aW5maWxlLm1hZT4nLCAnLW9tYWUnLCAnPG91dGZpbGUubWFlPic=

> <r_lp_tautomer_probability>
1

> <r_epik_Ionization_Penalty>
0.00475669

> <r_epik_Ionization_Penalty_Charging>
0.00474654

> <r_epik_Ionization_Penalty_Neutral>
1.01546e-05

> <r_epik_State_Penalty>
-0

> <r_epik_Charging_Adjusted_Penalty>
0.00474654

> <i_epik_Tot_Q>
1

> <i_epik_Tot_abs_Q>
1

> <r_epik_Metal_State_Penalty>
-0

> <b_epik_Metal_Only>
0

> <s_lp_Force_Field>
OPLS_2005

> <r_lp_Energy>
4.89455

> <b_lp_Chiralities_Consistent>
1

> <s_lp_Variant>
AV-unprocessed.smi:3105-4

> <Gold.Version>
5.8.1

> <Gold.Id.Protein>
6NUR|6NUR_protein|mol2

> <Gold.PLP.Fitness>
41.7188

> <Gold.PLP.PLP>
-29.6671

> <Gold.PLP.part.hbond>
-4.0000

> <Gold.PLP.part.metal>
0.0000

> <Gold.PLP.part.buried>
-2.8789

> <Gold.PLP.part.nonpolar>
-23.3097

> <Gold.PLP.part.repulsive>
1.0333

> <Gold.PLP.ligand.clash>
0.0000

> <Gold.PLP.ligand.torsion>
0.9074

> <Gold.PLP.Chemscore.Hbond>
3.5920

> <Gold.PLP.Chemscore.CHOScore>
0.9877

> <Gold.PLP.Chemscore.Metal>
0.0000

> <Gold.Chemscore.Hbonds>
donor molecule, donor type, donor heavy atom, donor atom, acceptor molecule, acceptor atom, score
      L1  H     3    20       P1  8028  1.95
      L1  H     7    25       P1  7948  0.51
      P1  H  7989  7998       L1     8  1.00
      L1  C    12    31       P1  8028  1.00

> <Gold.PLP.Chemscore.Internal.Correction>
0.1272

> <Gold.Rescore>
     Score         DG    S(hbond)    S(metal)    S(lipo)     H(rot)  DE(clash)    DE(int)     intcor
     11.04     -14.66       2.52        0.00      68.88       2.85       0.33       3.29       ----

> <Gold.Chemscore.Fitness>
11.0379

> <Gold.Chemscore.DG>
-14.6604

> <Gold.Chemscore.ZeroCoef>
-5.4800

> <Gold.Chemscore.Hbond>
2.5181

> <Gold.Chemscore.Metal>
0.0000

> <Gold.Chemscore.Lipo>
68.8826

> <Gold.Chemscore.Internal_Hbond>
0.0000

> <Gold.Chemscore.DEClash>
0.3309

> <Gold.Chemscore.DEInternal>
3.2917

> <Gold.Chemscore.Rot>
2.8473

> <Gold.Chemscore.Internal.Correction>
   9.000000E+99

> <Gold.Chemscore.Hbonds>
donor molecule, donor type, donor heavy atom, donor atom, acceptor molecule, acceptor atom, score
      L1  H     3    20       P1  8028  0.93
      L1  H     7    25       P1  7948  0.48
      P1  H  7989  7998       L1     8  0.95

> <Gold.Chemscore.Hbond.Weighted>
-8.4104

> <Gold.Chemscore.Metal.Weighted>
-0.0000

> <Gold.Chemscore.Lipo.Weighted>
-8.0593

> <Gold.Chemscore.Internal_Hbond.Weighted>
0.0000

> <Gold.Chemscore.DEClash.Weighted>
0.3309

> <Gold.Chemscore.DEInternal.Weighted>
3.2917

> <Gold.Chemscore.Rot.Weighted>
7.2892

> <Gold.Chemscore.Internal.Correction.Weighted>
   9.000000E+99

> <Gold.Protein.RotatedTorsions>
[ 6907 6896 6895 6894 ] final  175.16 input  -60.11 | X-H torsion
[ 7974 7965 7964 7962 ] final   59.89 input  175.53 | X-H torsion
[ 8008 7997 7996 7995 ] final   37.74 input   59.86 | X-H torsion
[ 10167 10162 10161 10158 ] final   18.08 input  -65.29 | X-H torsion
[ 10718 10713 10712 10709 ] final -130.03 input   66.30 | X-H torsion
[ 10763 10752 10751 10750 ] final  -72.82 input  -60.55 | X-H torsion
[ 11005 11000 10999 10996 ] final -132.71 input  -57.11 | X-H torsion

> <Gold.Protein.ActiveResidues>
 VAL166  LYS551  ARG553  GLY616  TRP617  ASP618  TYR619  PRO620  LYS621  CYS622 
 ASP623  PHE694  ASN695  SER759  ASP760  ASP761  ALA762  ILE779  LEU786  VAL792 
 PHE793  MET794  SER795  GLU796  ALA797  LYS798  CYS799  TRP800  GLU811  SER814 

> <Gold.Protein.RotatedAtoms>
  151.7406  133.3322  159.3364 H   0  0  0  0  0  0  0  0  0  0  0  0  # atno 6907 bound_to 6896
  150.7575  134.6281  159.6181 H   0  0  0  0  0  0  0  0  0  0  0  0  # atno 6908 bound_to 6896
  152.3533  134.6977  160.0281 H   0  0  0  0  0  0  0  0  0  0  0  0  # atno 6909 bound_to 6896
  145.9021  139.3589  143.0586 H   0  0  0  0  0  0  0  0  0  0  0  0  # atno 7974 bound_to 7965
  155.2088  140.3321  155.4332 H   0  0  0  0  0  0  0  0  0  0  0  0  # atno 8008 bound_to 7997
  156.2378  140.1881  156.7119 H   0  0  0  0  0  0  0  0  0  0  0  0  # atno 8009 bound_to 7997
  154.6092  140.0611  156.9457 H   0  0  0  0  0  0  0  0  0  0  0  0  # atno 8010 bound_to 7997
  140.5679  143.9216  150.6690 H   0  0  0  0  0  0  0  0  0  0  0  0  # atno 10167 bound_to 10162
  156.2105  130.6915  151.0644 H   0  0  0  0  0  0  0  0  0  0  0  0  # atno 10718 bound_to 10713
  154.4510  135.5917  153.6191 H   0  0  0  0  0  0  0  0  0  0  0  0  # atno 10763 bound_to 10752
  152.9813  135.6021  154.3605 H   0  0  0  0  0  0  0  0  0  0  0  0  # atno 10764 bound_to 10752
  154.3466  135.2841  155.2373 H   0  0  0  0  0  0  0  0  0  0  0  0  # atno 10765 bound_to 10752
  140.9146  134.1524  157.4363 H   0  0  0  0  0  0  0  0  0  0  0  0  # atno 11005 bound_to 11000
  145.8778  140.9381  143.0617 LP  0  0  0  0  0  0  0  0  0  0  0  0  # atno 17320 bound_to 7965
  144.6736  140.0740  143.7472 LP  0  0  0  0  0  0  0  0  0  0  0  0  # atno 17321 bound_to 7965
  140.2684  143.3474  152.1260 LP  0  0  0  0  0  0  0  0  0  0  0  0  # atno 17342 bound_to 10162
  139.5102  144.6881  151.5834 LP  0  0  0  0  0  0  0  0  0  0  0  0  # atno 17343 bound_to 10162
  157.7036  131.0766  150.6742 LP  0  0  0  0  0  0  0  0  0  0  0  0  # atno 17370 bound_to 10713
  156.6801  130.4565  149.5630 LP  0  0  0  0  0  0  0  0  0  0  0  0  # atno 17371 bound_to 10713
  139.8763  134.9948  156.5714 LP  0  0  0  0  0  0  0  0  0  0  0  0  # atno 17394 bound_to 11000
  140.8067  133.8462  155.8773 LP  0  0  0  0  0  0  0  0  0  0  0  0  # atno 17395 bound_to 11000

$$$$
