AV-unprocessed.smi:3300|AV-procd|sdf|12650|dock4
  -GOLD-   2272018583D 1   1.00000     0.00000
 Structure written by MMmdl.
 36 37  0  0  0  0  0  0  0  0  1 V2000
  151.8388  144.9925  159.9462 C   0  0  0  0  0  0  0  0  0  0  0  0
  151.9242  144.2688  158.5975 C   0  0  0  0  0  0  0  0  0  0  0  0
  152.1980  142.7849  158.7569 C   0  0  0  0  0  0  0  0  0  0  0  0
  153.2928  142.4437  159.4727 N   0  0  0  0  0  0  0  0  0  0  0  0
  153.5296  141.1387  159.6246 C   0  0  0  0  0  0  0  0  0  0  0  0
  152.7961  140.1324  159.1433 N   0  0  0  0  0  0  0  0  0  0  0  0
  151.6980  140.4560  158.4163 C   0  0  0  0  0  0  0  0  0  0  0  0
  150.8843  139.4257  157.9082 N   0  0  0  0  0  0  0  0  0  0  0  0
  150.7717  138.3626  158.9019 C   0  0  0  0  0  0  0  0  0  0  0  0
  149.7685  137.2963  158.4445 C   0  0  0  0  0  0  0  0  0  0  0  0
  150.1755  136.7967  157.1790 O   0  0  0  0  0  0  0  0  0  0  0  0
  150.1729  137.8163  156.1871 C   0  0  0  0  0  0  0  0  0  0  0  0
  151.1729  138.9417  156.5497 C   0  0  1  0  0  0  0  0  0  0  0  0
  151.1189  140.0805  155.4974 C   0  0  0  0  0  0  0  0  0  0  0  0
  149.7126  140.3396  154.9337 C   0  0  0  0  0  0  0  0  0  0  0  0
  149.8096  140.8110  153.6070 O   0  0  0  0  0  0  0  0  0  0  0  0
  151.3447  141.8074  158.2002 C   0  0  0  0  0  0  0  0  0  0  0  0
  150.2401  142.1480  157.4919 F   0  0  0  0  0  0  0  0  0  0  0  0
  151.6457  146.0559  159.8043 H   0  0  0  0  0  0  0  0  0  0  0  0
  152.7692  144.8951  160.5065 H   0  0  0  0  0  0  0  0  0  0  0  0
  151.0336  144.5863  160.5590 H   0  0  0  0  0  0  0  0  0  0  0  0
  150.9972  144.4124  158.0415 H   0  0  0  0  0  0  0  0  0  0  0  0
  152.7145  144.7128  157.9907 H   0  0  0  0  0  0  0  0  0  0  0  0
  154.4035  140.8688  160.1987 H   0  0  0  0  0  0  0  0  0  0  0  0
  151.7512  137.9074  159.0567 H   0  0  0  0  0  0  0  0  0  0  0  0
  150.4541  138.7733  159.8613 H   0  0  0  0  0  0  0  0  0  0  0  0
  149.7409  136.4741  159.1597 H   0  0  0  0  0  0  0  0  0  0  0  0
  148.7583  137.7052  158.3866 H   0  0  0  0  0  0  0  0  0  0  0  0
  150.4413  137.3507  155.2396 H   0  0  0  0  0  0  0  0  0  0  0  0
  149.1630  138.2131  156.0690 H   0  0  0  0  0  0  0  0  0  0  0  0
  152.1763  138.5132  156.5538 H   0  0  0  0  0  0  0  0  0  0  0  0
  151.5169  140.9994  155.9308 H   0  0  0  0  0  0  0  0  0  0  0  0
  151.7664  139.8487  154.6520 H   0  0  0  0  0  0  0  0  0  0  0  0
  149.1220  139.4232  154.9405 H   0  0  0  0  0  0  0  0  0  0  0  0
  149.1766  141.0824  155.5234 H   0  0  0  0  0  0  0  0  0  0  0  0
  149.5670  140.1108  153.0203 H   0  0  0  0  0  0  0  0  0  0  0  0
  1  2  1  0  0  0  0
  1 19  1  0  0  0  0
  1 20  1  0  0  0  0
  1 21  1  0  0  0  0
  2  3  1  0  0  0  0
  2 22  1  0  0  0  0
  2 23  1  0  0  0  0
  3 17  1  0  0  0  0
  3  4  2  0  0  0  0
  4  5  1  0  0  0  0
  5  6  2  0  0  0  0
  5 24  1  0  0  0  0
  6  7  1  0  0  0  0
  7  8  1  0  0  0  0
  7 17  2  0  0  0  0
  8 13  1  0  0  0  0
  8  9  1  0  0  0  0
  9 10  1  0  0  0  0
  9 25  1  0  0  0  0
  9 26  1  0  0  0  0
 10 11  1  0  0  0  0
 10 27  1  0  0  0  0
 10 28  1  0  0  0  0
 11 12  1  0  0  0  0
 12 13  1  0  0  0  0
 12 29  1  0  0  0  0
 12 30  1  0  0  0  0
 13 14  1  0  0  0  0
 13 31  1  0  0  0  0
 14 15  1  0  0  0  0
 14 32  1  0  0  0  0
 14 33  1  0  0  0  0
 15 16  1  0  0  0  0
 15 34  1  0  0  0  0
 15 35  1  0  0  0  0
 16 36  1  0  0  0  0
 17 18  1  0  0  0  0
M  END
> <s_m_source_file>
AV-unprocessed.smi

> <i_m_source_file_index>
3300

> <i_lp_mmshare_version>
43012

> <i_f3d_flags>
0

> <s_epik_input>
W0NIM11bQ0gyXWMxbltjSF1uYyhjMUYpTjJbQ0gyXVtDSDJdT1tDSDJdW0NASF0yW0NIMl1bQ0gyXVtPSF0=

> <s_epik_cmdline>
J2VwaWtfcHl0aG9uJywgJy1waCcsICc3LjAnLCAnLXRuJywgJzgnLCAnLW1hJywgJzIwMCcsICctbWV0YWxfYmluZGluZycsICctaW1hZScsICc8aW5maWxlLm1hZT4nLCAnLW9tYWUnLCAnPG91dGZpbGUubWFlPic=

> <r_lp_tautomer_probability>
1

> <r_epik_Ionization_Penalty>
2.51351e-05

> <r_epik_Ionization_Penalty_Charging>
0

> <r_epik_Ionization_Penalty_Neutral>
2.51351e-05

> <r_epik_State_Penalty>
-0

> <r_epik_Charging_Adjusted_Penalty>
0

> <i_epik_Tot_Q>
0

> <i_epik_Tot_abs_Q>
0

> <r_epik_Metal_State_Penalty>
-0

> <b_epik_Metal_Only>
0

> <s_lp_Force_Field>
OPLS_2005

> <r_lp_Energy>
16.6738

> <b_lp_Chiralities_Consistent>
1

> <s_lp_Variant>
AV-unprocessed.smi:3300-1

> <Gold.Version>
5.8.1

> <Gold.Id.Protein>
6NUR|6NUR_protein|mol2

> <Gold.PLP.Fitness>
37.5717

> <Gold.PLP.PLP>
-33.7609

> <Gold.PLP.part.hbond>
-2.7650

> <Gold.PLP.part.metal>
0.0000

> <Gold.PLP.part.buried>
-4.2525

> <Gold.PLP.part.nonpolar>
-26.9426

> <Gold.PLP.part.repulsive>
0.0000

> <Gold.PLP.ligand.clash>
0.0000

> <Gold.PLP.ligand.torsion>
1.1474

> <Gold.PLP.Chemscore.Hbond>
1.9833

> <Gold.PLP.Chemscore.CHOScore>
0.0000

> <Gold.PLP.Chemscore.Metal>
0.0000

> <Gold.Chemscore.Hbonds>
donor molecule, donor type, donor heavy atom, donor atom, acceptor molecule, acceptor atom, score
      L1  H    16    36       P1  7957  0.59
      P1  H  7989  7998       L1    16  0.38
      P1  H  8011  8017       L1    16  0.96

> <Gold.PLP.Chemscore.Internal.Correction>
0.1560

> <Gold.Rescore>
     Score         DG    S(hbond)    S(metal)    S(lipo)     H(rot)  DE(clash)    DE(int)     intcor
     10.60     -11.77       1.22        0.00      70.42       2.35       0.05       1.12       ----

> <Gold.Chemscore.Fitness>
10.6022

> <Gold.Chemscore.DG>
-11.7743

> <Gold.Chemscore.ZeroCoef>
-5.4800

> <Gold.Chemscore.Hbond>
1.2155

> <Gold.Chemscore.Metal>
0.0000

> <Gold.Chemscore.Lipo>
70.4232

> <Gold.Chemscore.Internal_Hbond>
0.0000

> <Gold.Chemscore.DEClash>
0.0485

> <Gold.Chemscore.DEInternal>
1.1236

> <Gold.Chemscore.Rot>
2.3458

> <Gold.Chemscore.Internal.Correction>
   9.000000E+99

> <Gold.Chemscore.Hbonds>
donor molecule, donor type, donor heavy atom, donor atom, acceptor molecule, acceptor atom, score
      L1  H    16    36       P1  7957  0.60
      P1  H  7989  7998       L1    16  0.05
      P1  H  8011  8017       L1    16  0.26

> <Gold.Chemscore.Hbond.Weighted>
-4.0599

> <Gold.Chemscore.Metal.Weighted>
-0.0000

> <Gold.Chemscore.Lipo.Weighted>
-8.2395

> <Gold.Chemscore.Internal_Hbond.Weighted>
0.0000

> <Gold.Chemscore.DEClash.Weighted>
0.0485

> <Gold.Chemscore.DEInternal.Weighted>
1.1236

> <Gold.Chemscore.Rot.Weighted>
6.0051

> <Gold.Chemscore.Internal.Correction.Weighted>
   9.000000E+99

> <Gold.Protein.RotatedTorsions>
[ 6907 6896 6895 6894 ] final -140.05 input  -60.11 | X-H torsion
[ 7974 7965 7964 7962 ] final  119.49 input  175.53 | X-H torsion
[ 8008 7997 7996 7995 ] final  110.43 input   59.86 | X-H torsion
[ 10167 10162 10161 10158 ] final  103.75 input  -65.29 | X-H torsion
[ 10718 10713 10712 10709 ] final  165.46 input   66.30 | X-H torsion
[ 10763 10752 10751 10750 ] final   31.38 input  -60.55 | X-H torsion
[ 11005 11000 10999 10996 ] final  -19.70 input  -57.11 | X-H torsion

> <Gold.Protein.ActiveResidues>
 VAL166  LYS551  ARG553  GLY616  TRP617  ASP618  TYR619  PRO620  LYS621  CYS622 
 ASP623  PHE694  ASN695  SER759  ASP760  ASP761  ALA762  ILE779  LEU786  VAL792 
 PHE793  MET794  SER795  GLU796  ALA797  LYS798  CYS799  TRP800  GLU811  SER814 

> <Gold.Protein.RotatedAtoms>
  151.0557  133.5586  159.2638 H   0  0  0  0  0  0  0  0  0  0  0  0  # atno 6907 bound_to 6896
  151.2580  135.0644  159.9097 H   0  0  0  0  0  0  0  0  0  0  0  0  # atno 6908 bound_to 6896
  152.5389  134.0307  159.8077 H   0  0  0  0  0  0  0  0  0  0  0  0  # atno 6909 bound_to 6896
  145.1425  139.3259  143.4608 H   0  0  0  0  0  0  0  0  0  0  0  0  # atno 7974 bound_to 7965
  156.2052  140.3039  155.9611 H   0  0  0  0  0  0  0  0  0  0  0  0  # atno 8008 bound_to 7997
  155.2858  140.0440  157.3036 H   0  0  0  0  0  0  0  0  0  0  0  0  # atno 8009 bound_to 7997
  154.5623  140.2324  155.8324 H   0  0  0  0  0  0  0  0  0  0  0  0  # atno 8010 bound_to 7997
  139.7236  144.7052  151.0833 H   0  0  0  0  0  0  0  0  0  0  0  0  # atno 10167 bound_to 10162
  157.0798  131.0389  151.2579 H   0  0  0  0  0  0  0  0  0  0  0  0  # atno 10718 bound_to 10713
  153.0319  135.6440  154.1190 H   0  0  0  0  0  0  0  0  0  0  0  0  # atno 10763 bound_to 10752
  154.0911  135.2866  155.3273 H   0  0  0  0  0  0  0  0  0  0  0  0  # atno 10764 bound_to 10752
  154.6464  135.5441  153.7913 H   0  0  0  0  0  0  0  0  0  0  0  0  # atno 10765 bound_to 10752
  140.8392  133.7939  155.9842 H   0  0  0  0  0  0  0  0  0  0  0  0  # atno 11005 bound_to 11000
  146.3503  140.1468  142.8593 LP  0  0  0  0  0  0  0  0  0  0  0  0  # atno 17320 bound_to 7965
  145.0517  140.9022  143.4991 LP  0  0  0  0  0  0  0  0  0  0  0  0  # atno 17321 bound_to 7965
  140.7758  143.5134  150.9625 LP  0  0  0  0  0  0  0  0  0  0  0  0  # atno 17342 bound_to 10162
  139.8821  143.7059  152.3155 LP  0  0  0  0  0  0  0  0  0  0  0  0  # atno 17343 bound_to 10162
  157.4809  130.7764  149.7413 LP  0  0  0  0  0  0  0  0  0  0  0  0  # atno 17370 bound_to 10713
  155.9927  130.3929  150.2933 LP  0  0  0  0  0  0  0  0  0  0  0  0  # atno 17371 bound_to 10713
  140.8914  134.2491  157.5092 LP  0  0  0  0  0  0  0  0  0  0  0  0  # atno 17394 bound_to 11000
  139.8703  134.9663  156.4558 LP  0  0  0  0  0  0  0  0  0  0  0  0  # atno 17395 bound_to 11000

$$$$
