AV-unprocessed.smi:1240|AV-procd|sdf|5199|dock7
  -GOLD-   22720 4283D 1   1.00000     0.00000
 Structure written by MMmdl.
 48 50  0  0  0  0  0  0  0  0  2 V2000
  144.4140  136.6734  151.8940 O   0  0  0  0  0  0  0  0  0  0  0  0
  145.6143  136.4125  151.9692 C   0  0  0  0  0  0  0  0  0  0  0  0
  146.5115  137.2304  152.5362 N   0  0  0  0  0  0  0  0  0  0  0  0
  146.1984  138.5037  153.1742 C   0  0  0  0  0  0  0  0  0  0  0  0
  146.6033  138.5326  154.6725 C   0  0  2  0  0  0  0  0  0  0  0  0
  145.6144  139.3284  155.5723 C   0  0  2  0  0  0  0  0  0  0  0  0
  145.9346  139.2632  157.0574 C   0  0  0  0  0  0  0  0  0  0  0  0
  144.6239  139.7131  157.6872 C   0  0  0  0  0  0  0  0  0  0  0  0
  143.6131  139.1652  156.8528 O   0  0  0  0  0  0  0  0  0  0  0  0
  144.1616  138.8295  155.5816 C   0  0  0  0  0  0  0  0  0  0  0  0
  147.9915  139.0520  154.8632 N   0  3  0  0  0  0  0  0  0  0  0  0
  149.0515  138.1680  154.3198 C   0  0  0  0  0  0  0  0  0  0  0  0
  150.4380  138.6867  154.7387 C   0  0  0  0  0  0  0  0  0  0  0  0
  150.5995  140.0324  154.3053 O   0  0  0  0  0  0  0  0  0  0  0  0
  149.6341  140.9021  154.8850 C   0  0  0  0  0  0  0  0  0  0  0  0
  148.2248  140.4618  154.4574 C   0  0  0  0  0  0  0  0  0  0  0  0
  146.2057  135.3015  151.4969 N   0  0  0  0  0  0  0  0  0  0  0  0
  145.6139  134.1630  150.8845 C   0  0  0  0  0  0  0  0  0  0  0  0
  146.4668  133.0998  150.5229 C   0  0  0  0  0  0  0  0  0  0  0  0
  145.9071  131.9501  149.9307 C   0  0  0  0  0  0  0  0  0  0  0  0
  144.5862  131.8050  149.6962 N   0  0  0  0  0  0  0  0  0  0  0  0
  143.7692  132.8179  150.0548 C   0  0  0  0  0  0  0  0  0  0  0  0
  144.2254  134.0102  150.6523 C   0  0  0  0  0  0  0  0  0  0  0  0
  147.4791  136.9421  152.5418 H   0  0  0  0  0  0  0  0  0  0  0  0
  146.7188  139.2814  152.6157 H   0  0  0  0  0  0  0  0  0  0  0  0
  145.1308  138.7069  153.0773 H   0  0  0  0  0  0  0  0  0  0  0  0
  146.6032  137.5043  155.0385 H   0  0  0  0  0  0  0  0  0  0  0  0
  145.6056  140.3771  155.2719 H   0  0  0  0  0  0  0  0  0  0  0  0
  146.1603  138.2386  157.3567 H   0  0  0  0  0  0  0  0  0  0  0  0
  146.7728  139.8977  157.3474 H   0  0  0  0  0  0  0  0  0  0  0  0
  144.5164  139.3810  158.7199 H   0  0  0  0  0  0  0  0  0  0  0  0
  144.5453  140.8008  157.6678 H   0  0  0  0  0  0  0  0  0  0  0  0
  143.5673  139.2730  154.7824 H   0  0  0  0  0  0  0  0  0  0  0  0
  144.1179  137.7450  155.4734 H   0  0  0  0  0  0  0  0  0  0  0  0
  148.9176  137.1508  154.6892 H   0  0  0  0  0  0  0  0  0  0  0  0
  148.9870  138.1269  153.2322 H   0  0  0  0  0  0  0  0  0  0  0  0
  150.5673  138.6236  155.8204 H   0  0  0  0  0  0  0  0  0  0  0  0
  151.2200  138.0747  154.2889 H   0  0  0  0  0  0  0  0  0  0  0  0
  149.7300  140.9010  155.9721 H   0  0  0  0  0  0  0  0  0  0  0  0
  149.8281  141.9207  154.5485 H   0  0  0  0  0  0  0  0  0  0  0  0
  148.1299  140.5665  153.3761 H   0  0  0  0  0  0  0  0  0  0  0  0
  147.4854  141.1197  154.9131 H   0  0  0  0  0  0  0  0  0  0  0  0
  147.2126  135.2753  151.5631 H   0  0  0  0  0  0  0  0  0  0  0  0
  147.5322  133.1602  150.6905 H   0  0  0  0  0  0  0  0  0  0  0  0
  146.5386  131.1236  149.6402 H   0  0  0  0  0  0  0  0  0  0  0  0
  142.7160  132.6714  149.8658 H   0  0  0  0  0  0  0  0  0  0  0  0
  143.5056  134.7651  150.9266 H   0  0  0  0  0  0  0  0  0  0  0  0
  148.1325  139.0341  155.8632 H   0  0  0  0  0  0  0  0  0  0  0  0
  1  2  2  0  0  0  0
  2  3  1  0  0  0  0
  2 17  1  0  0  0  0
  3  4  1  0  0  0  0
  3 24  1  0  0  0  0
  4  5  1  0  0  0  0
  4 25  1  0  0  0  0
  4 26  1  0  0  0  0
  5  6  1  0  0  0  0
  5 11  1  0  0  0  0
  5 27  1  0  0  0  0
  6 10  1  0  0  0  0
  6  7  1  0  0  0  0
  6 28  1  0  0  0  0
  7  8  1  0  0  0  0
  7 29  1  0  0  0  0
  7 30  1  0  0  0  0
  8  9  1  0  0  0  0
  8 31  1  0  0  0  0
  8 32  1  0  0  0  0
  9 10  1  0  0  0  0
 10 33  1  0  0  0  0
 10 34  1  0  0  0  0
 11 16  1  0  0  0  0
 11 12  1  0  0  0  0
 11 48  1  0  0  0  0
 12 13  1  0  0  0  0
 12 35  1  0  0  0  0
 12 36  1  0  0  0  0
 13 14  1  0  0  0  0
 13 37  1  0  0  0  0
 13 38  1  0  0  0  0
 14 15  1  0  0  0  0
 15 16  1  0  0  0  0
 15 39  1  0  0  0  0
 15 40  1  0  0  0  0
 16 41  1  0  0  0  0
 16 42  1  0  0  0  0
 17 18  1  0  0  0  0
 17 43  1  0  0  0  0
 18 23  1  0  0  0  0
 18 19  2  0  0  0  0
 19 20  1  0  0  0  0
 19 44  1  0  0  0  0
 20 21  2  0  0  0  0
 20 45  1  0  0  0  0
 21 22  1  0  0  0  0
 22 23  2  0  0  0  0
 22 46  1  0  0  0  0
 23 47  1  0  0  0  0
M  CHG  1  11   1
M  END
> <s_m_source_file>
AV-unprocessed.smi

> <i_m_source_file_index>
1240

> <i_lp_mmshare_version>
43012

> <i_f3d_flags>
0

> <s_epik_input>
W2NIXTFbY0hdbltjSF1bY0hdYzFbTkhdQyg9TylbTkhdW0NIMl1bQ0BIXShbQ0BASF0yW0NIMl1bQ0gyXU9bQ0gyXTIpTjNbQ0gyXVtDSDJdT1tDSDJdW0NIMl0z

> <s_epik_cmdline>
J2VwaWtfcHl0aG9uJywgJy1waCcsICc3LjAnLCAnLXRuJywgJzgnLCAnLW1hJywgJzIwMCcsICctbWV0YWxfYmluZGluZycsICctaW1hZScsICc8aW5maWxlLm1hZT4nLCAnLW9tYWUnLCAnPG91dGZpbGUubWFlPic=

> <r_epik_Ionization_Penalty>
1.08433

> <r_epik_Ionization_Penalty_Charging>
0.98326

> <r_epik_Ionization_Penalty_Neutral>
0.10107

> <r_epik_State_Penalty>
1.11265

> <r_epik_Charging_Adjusted_Penalty>
2.09591

> <i_epik_Tot_Q>
1

> <i_epik_Tot_abs_Q>
1

> <r_epik_Metal_State_Penalty>
1.10731

> <b_epik_Metal_Only>
0

> <s_lp_Force_Field>
OPLS_2005

> <r_lp_Energy>
43.6027

> <b_lp_Chiralities_Consistent>
1

> <s_lp_Variant>
AV-unprocessed.smi:1240-5

> <Gold.Version>
5.8.1

> <Gold.Id.Protein>
6NUR|6NUR_protein|mol2

> <Gold.PLP.Fitness>
44.3459

> <Gold.PLP.PLP>
-30.4103

> <Gold.PLP.part.hbond>
-3.9036

> <Gold.PLP.part.metal>
0.0000

> <Gold.PLP.part.buried>
-5.0160

> <Gold.PLP.part.nonpolar>
-24.1165

> <Gold.PLP.part.repulsive>
1.3009

> <Gold.PLP.ligand.clash>
0.0000

> <Gold.PLP.ligand.torsion>
0.5305

> <Gold.PLP.Chemscore.Hbond>
3.0967

> <Gold.PLP.Chemscore.CHOScore>
1.8206

> <Gold.PLP.Chemscore.Metal>
0.0000

> <Gold.Chemscore.Hbonds>
donor molecule, donor type, donor heavy atom, donor atom, acceptor molecule, acceptor atom, score
      L1  H     3    24       P1  7948  1.00
      L1  H    17    43       P1  7948  1.00
      P1  H  7989  7998       L1    14  1.00
      P1  H 10785 10796       L1    21  0.10
      L1  C    20    45       P1 10747  0.92
      L1  C    22    46       P1 10186  0.95

> <Gold.PLP.Chemscore.Internal.Correction>
0.2446

> <Gold.Rescore>
     Score         DG    S(hbond)    S(metal)    S(lipo)     H(rot)  DE(clash)    DE(int)     intcor
     17.62     -19.39       2.94        0.00      72.31       1.70       0.06       1.72       ----

> <Gold.Chemscore.Fitness>
17.6216

> <Gold.Chemscore.DG>
-19.3941

> <Gold.Chemscore.ZeroCoef>
-5.4800

> <Gold.Chemscore.Hbond>
2.9376

> <Gold.Chemscore.Metal>
0.0000

> <Gold.Chemscore.Lipo>
72.3065

> <Gold.Chemscore.Internal_Hbond>
0.0000

> <Gold.Chemscore.DEClash>
0.0565

> <Gold.Chemscore.DEInternal>
1.7161

> <Gold.Chemscore.Rot>
1.7021

> <Gold.Chemscore.Internal.Correction>
   9.000000E+99

> <Gold.Chemscore.Hbonds>
donor molecule, donor type, donor heavy atom, donor atom, acceptor molecule, acceptor atom, score
      L1  H     3    24       P1  7948  0.98
      L1  H    17    43       P1  7948  0.89
      P1  H  7989  7998       L1    14  0.67
      P1  H 10785 10796       L1    21  0.06

> <Gold.Chemscore.Hbond.Weighted>
-9.8117

> <Gold.Chemscore.Metal.Weighted>
-0.0000

> <Gold.Chemscore.Lipo.Weighted>
-8.4599

> <Gold.Chemscore.Internal_Hbond.Weighted>
0.0000

> <Gold.Chemscore.DEClash.Weighted>
0.0565

> <Gold.Chemscore.DEInternal.Weighted>
1.7161

> <Gold.Chemscore.Rot.Weighted>
4.3575

> <Gold.Chemscore.Internal.Correction.Weighted>
   9.000000E+99

> <Gold.Protein.RotatedTorsions>
[ 6907 6896 6895 6894 ] final  162.89 input  -60.11 | X-H torsion
[ 7974 7965 7964 7962 ] final -159.37 input  175.53 | X-H torsion
[ 8008 7997 7996 7995 ] final -141.99 input   59.86 | X-H torsion
[ 10167 10162 10161 10158 ] final -170.85 input  -65.29 | X-H torsion
[ 10718 10713 10712 10709 ] final  108.34 input   66.30 | X-H torsion
[ 10763 10752 10751 10750 ] final  158.40 input  -60.55 | X-H torsion
[ 11005 11000 10999 10996 ] final   56.09 input  -57.11 | X-H torsion

> <Gold.Protein.ActiveResidues>
 VAL166  LYS551  ARG553  GLY616  TRP617  ASP618  TYR619  PRO620  LYS621  CYS622 
 ASP623  PHE694  ASN695  SER759  ASP760  ASP761  ALA762  ILE779  LEU786  VAL792 
 PHE793  MET794  SER795  GLU796  ALA797  LYS798  CYS799  TRP800  GLU811  SER814 

> <Gold.Protein.RotatedAtoms>
  151.9335  133.3618  159.3939 H   0  0  0  0  0  0  0  0  0  0  0  0  # atno 6907 bound_to 6896
  150.7012  134.4512  159.5346 H   0  0  0  0  0  0  0  0  0  0  0  0  # atno 6908 bound_to 6896
  152.2157  134.8460  160.0543 H   0  0  0  0  0  0  0  0  0  0  0  0  # atno 6909 bound_to 6896
  144.7468  140.3694  143.6079 H   0  0  0  0  0  0  0  0  0  0  0  0  # atno 7974 bound_to 7965
  155.4868  140.0564  157.2959 H   0  0  0  0  0  0  0  0  0  0  0  0  # atno 8008 bound_to 7997
  154.4639  140.2009  156.0123 H   0  0  0  0  0  0  0  0  0  0  0  0  # atno 8009 bound_to 7997
  156.0939  140.3229  155.7856 H   0  0  0  0  0  0  0  0  0  0  0  0  # atno 8010 bound_to 7997
  139.5837  144.1366  152.1548 H   0  0  0  0  0  0  0  0  0  0  0  0  # atno 10167 bound_to 10162
  157.6590  131.0892  150.6291 H   0  0  0  0  0  0  0  0  0  0  0  0  # atno 10718 bound_to 10713
  154.2155  135.2784  155.2943 H   0  0  0  0  0  0  0  0  0  0  0  0  # atno 10763 bound_to 10752
  154.5744  135.5608  153.7129 H   0  0  0  0  0  0  0  0  0  0  0  0  # atno 10764 bound_to 10752
  153.0054  135.6329  154.2294 H   0  0  0  0  0  0  0  0  0  0  0  0  # atno 10765 bound_to 10752
  140.0556  134.5675  155.9212 H   0  0  0  0  0  0  0  0  0  0  0  0  # atno 11005 bound_to 11000
  145.7093  139.1681  143.2548 LP  0  0  0  0  0  0  0  0  0  0  0  0  # atno 17320 bound_to 7965
  146.1358  140.7124  142.9390 LP  0  0  0  0  0  0  0  0  0  0  0  0  # atno 17321 bound_to 7965
  140.0925  144.5609  150.7045 LP  0  0  0  0  0  0  0  0  0  0  0  0  # atno 17342 bound_to 10162
  140.7112  143.2506  151.4576 LP  0  0  0  0  0  0  0  0  0  0  0  0  # atno 17343 bound_to 10162
  156.6595  130.4508  149.5692 LP  0  0  0  0  0  0  0  0  0  0  0  0  # atno 17370 bound_to 10713
  156.2077  130.6659  151.1236 LP  0  0  0  0  0  0  0  0  0  0  0  0  # atno 17371 bound_to 10713
  141.1950  133.6585  156.5624 LP  0  0  0  0  0  0  0  0  0  0  0  0  # atno 17394 bound_to 11000
  140.3849  134.7491  157.4685 LP  0  0  0  0  0  0  0  0  0  0  0  0  # atno 17395 bound_to 11000

$$$$
