AV-unprocessed.smi:2779|AV-procd|sdf|10712|dock10
  -GOLD-   2272015153D 1   1.00000     0.00000
 Structure written by MMmdl.
 38 39  0  0  0  0  0  0  0  0  1 V2000
  147.2132  137.3363  162.1884 O   0  0  0  0  0  0  0  0  0  0  0  0
  147.3183  136.1584  161.8476 C   0  0  0  0  0  0  0  0  0  0  0  0
  146.9257  135.0405  162.7020 C   0  0  0  0  0  0  0  0  0  0  0  0
  147.0489  133.7586  162.2963 C   0  0  0  0  0  0  0  0  0  0  0  0
  147.5877  133.4741  160.9768 C   0  0  0  0  0  0  0  0  0  0  0  0
  147.7633  132.0782  160.4313 C   0  0  0  0  0  0  0  0  0  0  0  0
  148.4493  131.3135  161.2812 F   0  0  0  0  0  0  0  0  0  0  0  0
  146.5731  131.5150  160.2214 F   0  0  0  0  0  0  0  0  0  0  0  0
  148.4217  132.1191  159.2726 F   0  0  0  0  0  0  0  0  0  0  0  0
  147.9397  134.4600  160.2161 N   0  0  0  0  0  0  0  0  0  0  0  0
  147.8105  135.7739  160.6343 N   0  0  0  0  0  0  0  0  0  0  0  0
  148.2292  136.7629  159.6344 C   0  0  0  0  0  0  0  0  0  0  0  0
  149.7094  136.5781  159.2326 C   0  0  1  0  0  0  0  0  0  0  0  0
  149.8636  135.3267  158.5935 O   0  0  0  0  0  0  0  0  0  0  0  0
  150.1844  137.6494  158.2388 C   0  0  0  0  0  0  0  0  0  0  0  0
  150.6425  138.7822  158.9591 O   0  0  0  0  0  0  0  0  0  0  0  0
  151.9431  139.1915  158.5730 C   0  0  0  0  0  0  0  0  0  0  0  0
  152.4254  140.3543  159.4156 C   0  0  0  0  0  0  0  0  0  0  0  0
  153.4698  140.1646  160.3442 C   0  0  0  0  0  0  0  0  0  0  0  0
  153.9221  141.2423  161.1304 C   0  0  0  0  0  0  0  0  0  0  0  0
  153.3333  142.5138  160.9881 C   0  0  0  0  0  0  0  0  0  0  0  0
  152.2924  142.7073  160.0593 C   0  0  0  0  0  0  0  0  0  0  0  0
  151.8387  141.6294  159.2739 C   0  0  0  0  0  0  0  0  0  0  0  0
  150.3555  136.6019  160.1113 H   0  0  0  0  0  0  0  0  0  0  0  0
  146.5249  135.2473  163.6836 H   0  0  0  0  0  0  0  0  0  0  0  0
  146.7507  132.9485  162.9451 H   0  0  0  0  0  0  0  0  0  0  0  0
  147.5789  136.7643  158.7574 H   0  0  0  0  0  0  0  0  0  0  0  0
  148.0947  137.7521  160.0759 H   0  0  0  0  0  0  0  0  0  0  0  0
  150.0659  135.4768  157.6827 H   0  0  0  0  0  0  0  0  0  0  0  0
  151.0027  137.2576  157.6317 H   0  0  0  0  0  0  0  0  0  0  0  0
  149.3765  137.9292  157.5604 H   0  0  0  0  0  0  0  0  0  0  0  0
  152.6399  138.3570  158.6673 H   0  0  0  0  0  0  0  0  0  0  0  0
  151.9454  139.4935  157.5243 H   0  0  0  0  0  0  0  0  0  0  0  0
  153.9261  139.1918  160.4553 H   0  0  0  0  0  0  0  0  0  0  0  0
  154.7208  141.0938  161.8423 H   0  0  0  0  0  0  0  0  0  0  0  0
  153.6802  143.3403  161.5909 H   0  0  0  0  0  0  0  0  0  0  0  0
  151.8420  143.6827  159.9489 H   0  0  0  0  0  0  0  0  0  0  0  0
  151.0408  141.7853  158.5626 H   0  0  0  0  0  0  0  0  0  0  0  0
  1  2  2  0  0  0  0
  2 11  1  0  0  0  0
  2  3  1  0  0  0  0
  3  4  2  0  0  0  0
  3 25  1  0  0  0  0
  4  5  1  0  0  0  0
  4 26  1  0  0  0  0
  5  6  1  0  0  0  0
  5 10  2  0  0  0  0
  6  7  1  0  0  0  0
  6  8  1  0  0  0  0
  6  9  1  0  0  0  0
 10 11  1  0  0  0  0
 11 12  1  0  0  0  0
 12 13  1  0  0  0  0
 12 27  1  0  0  0  0
 12 28  1  0  0  0  0
 13 24  1  0  0  0  0
 13 14  1  0  0  0  0
 13 15  1  0  0  0  0
 14 29  1  0  0  0  0
 15 16  1  0  0  0  0
 15 30  1  0  0  0  0
 15 31  1  0  0  0  0
 16 17  1  0  0  0  0
 17 18  1  0  0  0  0
 17 32  1  0  0  0  0
 17 33  1  0  0  0  0
 18 23  1  0  0  0  0
 18 19  2  0  0  0  0
 19 20  1  0  0  0  0
 19 34  1  0  0  0  0
 20 21  2  0  0  0  0
 20 35  1  0  0  0  0
 21 22  1  0  0  0  0
 21 36  1  0  0  0  0
 22 23  2  0  0  0  0
 22 37  1  0  0  0  0
 23 38  1  0  0  0  0
M  END
> <s_m_source_file>
AV-unprocessed.smi

> <i_m_source_file_index>
2779

> <i_lp_mmshare_version>
43012

> <i_f3d_flags>
0

> <s_epik_input>
Tz1jMVtjSF1bY0hdYyhDKEYpKEYpRilubjFbQ0gyXVtDQEhdKFtPSF0pW0NIMl1PW0NIMl1jMltjSF1bY0hdW2NIXVtjSF1bY0hdMg==

> <s_epik_cmdline>
J2VwaWtfcHl0aG9uJywgJy1waCcsICc3LjAnLCAnLXRuJywgJzgnLCAnLW1hJywgJzIwMCcsICctbWV0YWxfYmluZGluZycsICctaW1hZScsICc8aW5maWxlLm1hZT4nLCAnLW9tYWUnLCAnPG91dGZpbGUubWFlPic=

> <r_lp_tautomer_probability>
1

> <r_epik_Ionization_Penalty>
6.7226e-08

> <r_epik_Ionization_Penalty_Charging>
6.11342e-09

> <r_epik_Ionization_Penalty_Neutral>
6.11126e-08

> <r_epik_State_Penalty>
-0

> <r_epik_Charging_Adjusted_Penalty>
6.11342e-09

> <i_epik_Tot_Q>
0

> <i_epik_Tot_abs_Q>
0

> <r_epik_Metal_State_Penalty>
-0

> <b_epik_Metal_Only>
0

> <s_lp_Force_Field>
OPLS_2005

> <r_lp_Energy>
32.3095

> <b_lp_Chiralities_Consistent>
1

> <s_lp_Variant>
AV-unprocessed.smi:2779-2

> <Gold.Version>
5.8.1

> <Gold.Id.Protein>
6NUR|6NUR_protein|mol2

> <Gold.PLP.Fitness>
53.9925

> <Gold.PLP.PLP>
-49.0520

> <Gold.PLP.part.hbond>
-3.1367

> <Gold.PLP.part.metal>
0.0000

> <Gold.PLP.part.buried>
-5.2005

> <Gold.PLP.part.nonpolar>
-40.6277

> <Gold.PLP.part.repulsive>
0.0000

> <Gold.PLP.ligand.clash>
0.0000

> <Gold.PLP.ligand.torsion>
0.9470

> <Gold.PLP.Chemscore.Hbond>
2.2271

> <Gold.PLP.Chemscore.CHOScore>
0.0000

> <Gold.PLP.Chemscore.Metal>
0.0000

> <Gold.Chemscore.Hbonds>
donor molecule, donor type, donor heavy atom, donor atom, acceptor molecule, acceptor atom, score
      P1  H  6896  6909       L1    14  0.91
      P1  H  6931  6943       L1     1  0.73
      P1  H  6934  6947       L1     1  0.56

> <Gold.PLP.Chemscore.Internal.Correction>
0.1532

> <Gold.Rescore>
     Score         DG    S(hbond)    S(metal)    S(lipo)     H(rot)  DE(clash)    DE(int)     intcor
     15.99     -16.68       2.04        0.00      98.73       2.80       0.01       0.68       ----

> <Gold.Chemscore.Fitness>
15.9922

> <Gold.Chemscore.DG>
-16.6806

> <Gold.Chemscore.ZeroCoef>
-5.4800

> <Gold.Chemscore.Hbond>
2.0429

> <Gold.Chemscore.Metal>
0.0000

> <Gold.Chemscore.Lipo>
98.7275

> <Gold.Chemscore.Internal_Hbond>
0.0000

> <Gold.Chemscore.DEClash>
0.0089

> <Gold.Chemscore.DEInternal>
0.6796

> <Gold.Chemscore.Rot>
2.8022

> <Gold.Chemscore.Internal.Correction>
   9.000000E+99

> <Gold.Chemscore.Hbonds>
donor molecule, donor type, donor heavy atom, donor atom, acceptor molecule, acceptor atom, score
      P1  H  6896  6909       L1    14  0.65
      P1  H  6931  6943       L1     1  0.48
      P1  H  6934  6947       L1     1  0.55

> <Gold.Chemscore.Hbond.Weighted>
-6.8231

> <Gold.Chemscore.Metal.Weighted>
-0.0000

> <Gold.Chemscore.Lipo.Weighted>
-11.5511

> <Gold.Chemscore.Internal_Hbond.Weighted>
0.0000

> <Gold.Chemscore.DEClash.Weighted>
0.0089

> <Gold.Chemscore.DEInternal.Weighted>
0.6796

> <Gold.Chemscore.Rot.Weighted>
7.1736

> <Gold.Chemscore.Internal.Correction.Weighted>
   9.000000E+99

> <Gold.Protein.RotatedTorsions>
[ 6907 6896 6895 6894 ] final   35.80 input  -60.11 | X-H torsion
[ 7974 7965 7964 7962 ] final  167.06 input  175.53 | X-H torsion
[ 8008 7997 7996 7995 ] final   51.17 input   59.86 | X-H torsion
[ 10167 10162 10161 10158 ] final  135.05 input  -65.29 | X-H torsion
[ 10718 10713 10712 10709 ] final -164.52 input   66.30 | X-H torsion
[ 10763 10752 10751 10750 ] final  -67.95 input  -60.55 | X-H torsion
[ 11005 11000 10999 10996 ] final  -19.11 input  -57.11 | X-H torsion

> <Gold.Protein.ActiveResidues>
 VAL166  LYS551  ARG553  GLY616  TRP617  ASP618  TYR619  PRO620  LYS621  CYS622 
 ASP623  PHE694  ASN695  SER759  ASP760  ASP761  ALA762  ILE779  LEU786  VAL792 
 PHE793  MET794  SER795  GLU796  ALA797  LYS798  CYS799  TRP800  GLU811  SER814 

> <Gold.Protein.RotatedAtoms>
  152.1211  134.9205  160.0562 H   0  0  0  0  0  0  0  0  0  0  0  0  # atno 6907 bound_to 6896
  152.0345  133.3946  159.4319 H   0  0  0  0  0  0  0  0  0  0  0  0  # atno 6908 bound_to 6896
  150.6849  134.3405  159.4909 H   0  0  0  0  0  0  0  0  0  0  0  0  # atno 6909 bound_to 6896
  144.7439  139.8705  143.6388 H   0  0  0  0  0  0  0  0  0  0  0  0  # atno 7974 bound_to 7965
  155.4308  140.3450  155.4280 H   0  0  0  0  0  0  0  0  0  0  0  0  # atno 8008 bound_to 7997
  156.1337  140.1521  156.9057 H   0  0  0  0  0  0  0  0  0  0  0  0  # atno 8009 bound_to 7997
  154.4915  140.0840  156.7584 H   0  0  0  0  0  0  0  0  0  0  0  0  # atno 8010 bound_to 7997
  139.5232  144.6537  151.5227 H   0  0  0  0  0  0  0  0  0  0  0  0  # atno 10167 bound_to 10162
  156.6402  130.8965  151.2994 H   0  0  0  0  0  0  0  0  0  0  0  0  # atno 10718 bound_to 10713
  154.3819  135.6072  153.5795 H   0  0  0  0  0  0  0  0  0  0  0  0  # atno 10763 bound_to 10752
  152.9788  135.5863  154.4400 H   0  0  0  0  0  0  0  0  0  0  0  0  # atno 10764 bound_to 10752
  154.4170  135.2845  155.1978 H   0  0  0  0  0  0  0  0  0  0  0  0  # atno 10765 bound_to 10752
  140.8334  133.7980  155.9783 H   0  0  0  0  0  0  0  0  0  0  0  0  # atno 11005 bound_to 11000
  146.1283  139.4314  143.0184 LP  0  0  0  0  0  0  0  0  0  0  0  0  # atno 17320 bound_to 7965
  145.7201  141.0078  143.1407 LP  0  0  0  0  0  0  0  0  0  0  0  0  # atno 17321 bound_to 7965
  140.6353  143.8997  150.6641 LP  0  0  0  0  0  0  0  0  0  0  0  0  # atno 17342 bound_to 10162
  140.2314  143.3733  152.1562 LP  0  0  0  0  0  0  0  0  0  0  0  0  # atno 17343 bound_to 10162
  157.7173  130.9513  150.1304 LP  0  0  0  0  0  0  0  0  0  0  0  0  # atno 17370 bound_to 10713
  156.2165  130.3670  149.8607 LP  0  0  0  0  0  0  0  0  0  0  0  0  # atno 17371 bound_to 10713
  140.8973  134.2421  157.5061 LP  0  0  0  0  0  0  0  0  0  0  0  0  # atno 17394 bound_to 11000
  139.8704  134.9690  156.4651 LP  0  0  0  0  0  0  0  0  0  0  0  0  # atno 17395 bound_to 11000

$$$$
