AV-unprocessed.smi:1841|AV-procd|sdf|7496|dock10
  -GOLD-   22720 9193D 1   1.00000     0.00000
 Structure written by MMmdl.
 40 41  0  0  0  0  0  0  0  0  1 V2000
  151.5488  145.3921  160.4688 C   0  0  0  0  0  0  0  0  0  0  0  0
  151.3505  144.3616  159.5170 O   0  0  0  0  0  0  0  0  0  0  0  0
  152.5659  143.9120  158.9415 C   0  0  0  0  0  0  0  0  0  0  0  0
  152.7248  142.4128  159.2111 C   0  0  0  0  0  0  0  0  0  0  0  0
  153.7089  142.2321  160.2248 O   0  0  0  0  0  0  0  0  0  0  0  0
  154.2271  140.9690  160.4235 C   0  0  0  0  0  0  0  0  0  0  0  0
  153.7541  139.9133  159.6200 C   0  0  0  0  0  0  0  0  0  0  0  0
  154.2801  138.6212  159.8107 C   0  0  0  0  0  0  0  0  0  0  0  0
  155.2659  138.4228  160.8082 C   0  0  0  0  0  0  0  0  0  0  0  0
  155.8925  137.1799  161.1051 N   0  0  0  0  0  0  0  0  0  0  0  0
  155.7590  135.9820  160.5053 C   0  0  0  0  0  0  0  0  0  0  0  0
  155.0095  135.7473  159.5580 O   0  0  0  0  0  0  0  0  0  0  0  0
  156.6189  134.8481  161.0875 C   0  0  2  0  0  0  0  0  0  0  0  0
  156.2836  133.4933  160.4307 C   0  0  0  0  0  0  0  0  0  0  0  0
  155.6504  132.6864  161.5517 C   0  0  0  0  0  0  0  0  0  0  0  0
  155.1659  131.5689  161.3792 O   0  0  0  0  0  0  0  0  0  0  0  0
  155.6929  133.3566  162.7061 N   0  0  0  0  0  0  0  0  0  0  0  0
  155.1655  132.8896  163.9808 C   0  0  0  0  0  0  0  0  0  0  0  0
  156.3738  134.6355  162.5981 C   0  0  0  0  0  0  0  0  0  0  0  0
  155.6701  139.5474  161.5578 C   0  0  0  0  0  0  0  0  0  0  0  0
  155.1712  140.7885  161.3792 N   0  0  0  0  0  0  0  0  0  0  0  0
  150.5882  145.6979  160.8833 H   0  0  0  0  0  0  0  0  0  0  0  0
  152.0123  146.2671  160.0117 H   0  0  0  0  0  0  0  0  0  0  0  0
  152.1776  145.0525  161.2928 H   0  0  0  0  0  0  0  0  0  0  0  0
  152.5391  144.0874  157.8649 H   0  0  0  0  0  0  0  0  0  0  0  0
  153.4175  144.4637  159.3430 H   0  0  0  0  0  0  0  0  0  0  0  0
  151.7670  141.9793  159.5043 H   0  0  0  0  0  0  0  0  0  0  0  0
  153.0521  141.9172  158.2956 H   0  0  0  0  0  0  0  0  0  0  0  0
  153.0024  140.0925  158.8652 H   0  0  0  0  0  0  0  0  0  0  0  0
  153.9162  137.8247  159.1824 H   0  0  0  0  0  0  0  0  0  0  0  0
  156.5294  137.2028  161.8885 H   0  0  0  0  0  0  0  0  0  0  0  0
  157.6729  135.0806  160.9242 H   0  0  0  0  0  0  0  0  0  0  0  0
  155.5984  133.5727  159.5849 H   0  0  0  0  0  0  0  0  0  0  0  0
  157.1865  132.9888  160.0856 H   0  0  0  0  0  0  0  0  0  0  0  0
  155.6078  131.9301  164.2512 H   0  0  0  0  0  0  0  0  0  0  0  0
  154.0835  132.7658  163.9234 H   0  0  0  0  0  0  0  0  0  0  0  0
  155.3832  133.5991  164.7794 H   0  0  0  0  0  0  0  0  0  0  0  0
  157.3189  134.5872  163.1406 H   0  0  0  0  0  0  0  0  0  0  0  0
  155.7752  135.4276  163.0518 H   0  0  0  0  0  0  0  0  0  0  0  0
  156.4213  139.4507  162.3282 H   0  0  0  0  0  0  0  0  0  0  0  0
  1  2  1  0  0  0  0
  1 22  1  0  0  0  0
  1 23  1  0  0  0  0
  1 24  1  0  0  0  0
  2  3  1  0  0  0  0
  3  4  1  0  0  0  0
  3 25  1  0  0  0  0
  3 26  1  0  0  0  0
  4  5  1  0  0  0  0
  4 27  1  0  0  0  0
  4 28  1  0  0  0  0
  5  6  1  0  0  0  0
  6 21  1  0  0  0  0
  6  7  2  0  0  0  0
  7  8  1  0  0  0  0
  7 29  1  0  0  0  0
  8  9  2  0  0  0  0
  8 30  1  0  0  0  0
  9 10  1  0  0  0  0
  9 20  1  0  0  0  0
 10 11  1  0  0  0  0
 10 31  1  0  0  0  0
 11 12  2  0  0  0  0
 11 13  1  0  0  0  0
 13 19  1  0  0  0  0
 13 14  1  0  0  0  0
 13 32  1  0  0  0  0
 14 15  1  0  0  0  0
 14 33  1  0  0  0  0
 14 34  1  0  0  0  0
 15 16  2  0  0  0  0
 15 17  1  0  0  0  0
 17 18  1  0  0  0  0
 17 19  1  0  0  0  0
 18 35  1  0  0  0  0
 18 36  1  0  0  0  0
 18 37  1  0  0  0  0
 19 38  1  0  0  0  0
 19 39  1  0  0  0  0
 20 21  2  0  0  0  0
 20 40  1  0  0  0  0
M  END
> <s_m_source_file>
AV-unprocessed.smi

> <i_m_source_file_index>
1841

> <i_lp_mmshare_version>
43012

> <i_f3d_flags>
0

> <s_epik_input>
W0NIM11PW0NIMl1bQ0gyXU9jMVtjSF1bY0hdYyhbY0hdbjEpW05IXUMoPU8pW0NAQEhdMltDSDJdQyg9TylOKFtDSDNdKVtDSDJdMg==

> <s_epik_cmdline>
J2VwaWtfcHl0aG9uJywgJy1waCcsICc3LjAnLCAnLXRuJywgJzgnLCAnLW1hJywgJzIwMCcsICctbWV0YWxfYmluZGluZycsICctaW1hZScsICc8aW5maWxlLm1hZT4nLCAnLW9tYWUnLCAnPG91dGZpbGUubWFlPic=

> <r_lp_tautomer_probability>
1

> <r_epik_Ionization_Penalty>
1.70347e-05

> <r_epik_Ionization_Penalty_Charging>
0

> <r_epik_Ionization_Penalty_Neutral>
1.70347e-05

> <r_epik_State_Penalty>
-0

> <r_epik_Charging_Adjusted_Penalty>
0

> <i_epik_Tot_Q>
0

> <i_epik_Tot_abs_Q>
0

> <r_epik_Metal_State_Penalty>
-0

> <b_epik_Metal_Only>
0

> <s_lp_Force_Field>
OPLS_2005

> <r_lp_Energy>
17.4372

> <b_lp_Chiralities_Consistent>
1

> <s_lp_Variant>
AV-unprocessed.smi:1841-1

> <Gold.Version>
5.8.1

> <Gold.Id.Protein>
6NUR|6NUR_protein|mol2

> <Gold.PLP.Fitness>
40.7257

> <Gold.PLP.PLP>
-39.8800

> <Gold.PLP.part.hbond>
-2.0000

> <Gold.PLP.part.metal>
0.0000

> <Gold.PLP.part.buried>
-5.5899

> <Gold.PLP.part.nonpolar>
-32.8034

> <Gold.PLP.part.repulsive>
0.0723

> <Gold.PLP.ligand.clash>
0.5851

> <Gold.PLP.ligand.torsion>
0.7968

> <Gold.PLP.Chemscore.Hbond>
1.0000

> <Gold.PLP.Chemscore.CHOScore>
0.0000

> <Gold.PLP.Chemscore.Metal>
0.0000

> <Gold.PLP.Chemscore.Internal.Correction>
0.0245

> <Gold.Rescore>
     Score         DG    S(hbond)    S(metal)    S(lipo)     H(rot)  DE(clash)    DE(int)     intcor
     12.24     -14.00       0.99        0.00      87.04       1.95       0.01       1.74       ----

> <Gold.Chemscore.Fitness>
12.2446

> <Gold.Chemscore.DG>
-14.0013

> <Gold.Chemscore.ZeroCoef>
-5.4800

> <Gold.Chemscore.Hbond>
0.9944

> <Gold.Chemscore.Metal>
0.0000

> <Gold.Chemscore.Lipo>
87.0429

> <Gold.Chemscore.Internal_Hbond>
0.0000

> <Gold.Chemscore.DEClash>
0.0149

> <Gold.Chemscore.DEInternal>
1.7419

> <Gold.Chemscore.Rot>
1.9468

> <Gold.Chemscore.Internal.Correction>
   9.000000E+99

> <Gold.Chemscore.Hbond.Weighted>
-3.3212

> <Gold.Chemscore.Metal.Weighted>
-0.0000

> <Gold.Chemscore.Lipo.Weighted>
-10.1840

> <Gold.Chemscore.Internal_Hbond.Weighted>
0.0000

> <Gold.Chemscore.DEClash.Weighted>
0.0149

> <Gold.Chemscore.DEInternal.Weighted>
1.7419

> <Gold.Chemscore.Rot.Weighted>
4.9839

> <Gold.Chemscore.Internal.Correction.Weighted>
   9.000000E+99

> <Gold.Protein.RotatedTorsions>
[ 6907 6896 6895 6894 ] final  -64.53 input  -60.11 | X-H torsion
[ 7974 7965 7964 7962 ] final -104.89 input  175.53 | X-H torsion
[ 8008 7997 7996 7995 ] final  -19.07 input   59.86 | X-H torsion
[ 10167 10162 10161 10158 ] final  140.62 input  -65.29 | X-H torsion
[ 10718 10713 10712 10709 ] final  152.70 input   66.30 | X-H torsion
[ 10763 10752 10751 10750 ] final   61.97 input  -60.55 | X-H torsion
[ 11005 11000 10999 10996 ] final  153.13 input  -57.11 | X-H torsion

> <Gold.Protein.ActiveResidues>
 VAL166  LYS551  ARG553  GLY616  TRP617  ASP618  TYR619  PRO620  LYS621  CYS622 
 ASP623  PHE694  ASN695  SER759  ASP760  ASP761  ALA762  ILE779  LEU786  VAL792 
 PHE793  MET794  SER795  GLU796  ALA797  LYS798  CYS799  TRP800  GLU811  SER814 

> <Gold.Protein.RotatedAtoms>
  150.7580  134.6286  159.6173 H   0  0  0  0  0  0  0  0  0  0  0  0  # atno 6907 bound_to 6896
  152.3570  134.6922  160.0228 H   0  0  0  0  0  0  0  0  0  0  0  0  # atno 6908 bound_to 6896
  151.7325  133.3282  159.3380 H   0  0  0  0  0  0  0  0  0  0  0  0  # atno 6909 bound_to 6896
  145.2374  140.9193  143.3170 H   0  0  0  0  0  0  0  0  0  0  0  0  # atno 7974 bound_to 7965
  154.4862  140.2099  155.9650 H   0  0  0  0  0  0  0  0  0  0  0  0  # atno 8008 bound_to 7997
  156.1239  140.3208  155.8218 H   0  0  0  0  0  0  0  0  0  0  0  0  # atno 8009 bound_to 7997
  155.4418  140.0510  157.3000 H   0  0  0  0  0  0  0  0  0  0  0  0  # atno 8010 bound_to 7997
  139.5043  144.6223  151.6022 H   0  0  0  0  0  0  0  0  0  0  0  0  # atno 10167 bound_to 10162
  157.2544  131.0785  151.1708 H   0  0  0  0  0  0  0  0  0  0  0  0  # atno 10718 bound_to 10713
  152.9967  135.5482  154.6119 H   0  0  0  0  0  0  0  0  0  0  0  0  # atno 10763 bound_to 10752
  154.5437  135.2821  155.1074 H   0  0  0  0  0  0  0  0  0  0  0  0  # atno 10764 bound_to 10752
  154.2341  135.6428  153.5238 H   0  0  0  0  0  0  0  0  0  0  0  0  # atno 10765 bound_to 10752
  140.1370  134.8764  157.2281 H   0  0  0  0  0  0  0  0  0  0  0  0  # atno 11005 bound_to 11000
  144.9621  139.3969  143.6351 LP  0  0  0  0  0  0  0  0  0  0  0  0  # atno 17320 bound_to 7965
  146.3337  139.8678  142.8845 LP  0  0  0  0  0  0  0  0  0  0  0  0  # atno 17321 bound_to 7965
  140.5929  143.9748  150.6336 LP  0  0  0  0  0  0  0  0  0  0  0  0  # atno 17342 bound_to 10162
  140.2934  143.3308  152.1040 LP  0  0  0  0  0  0  0  0  0  0  0  0  # atno 17343 bound_to 10162
  157.3243  130.6953  149.6287 LP  0  0  0  0  0  0  0  0  0  0  0  0  # atno 17370 bound_to 10713
  155.9665  130.4326  150.4970 LP  0  0  0  0  0  0  0  0  0  0  0  0  # atno 17371 bound_to 10713
  140.2769  134.3394  155.7355 LP  0  0  0  0  0  0  0  0  0  0  0  0  # atno 17394 bound_to 11000
  141.2180  133.7456  156.9307 LP  0  0  0  0  0  0  0  0  0  0  0  0  # atno 17395 bound_to 11000

$$$$
