#       Name:                AV-unprocessed.smi:129
#       Creating user name   scv26
#       Creation time:       Thu Mar 26 18:29:37 2020


#       File generated by GOLD software.
#

@<TRIPOS>MOLECULE
AV-unprocessed.smi:129
    70    73     1
SMALL
NO_CHARGES


@<TRIPOS>ATOM
      1 ****        -6.3059  -2.3073  -0.8811 C.3            1 S1                 0.0000
      2 ****        -5.9215  -0.9993  -0.4836 O.3            1 S1                 0.0000
      3 ****        -6.9088  -0.1117  -0.1024 C.ar           1 S1                 0.0000
      4 ****        -8.2905  -0.4332  -0.1032 C.ar           1 S1                 0.0000
      5 ****        -9.2473   0.5154   0.3015 C.ar           1 S1                 0.0000
      6 ****        -8.8383   1.7930   0.7188 C.ar           1 S1                 0.0000
      7 ****        -7.4721   2.1258   0.7250 C.ar           1 S1                 0.0000
      8 ****        -6.5026   1.1831   0.3027 C.ar           1 S1                 0.0000
      9 ****        -5.1054   1.4560   0.3046 N.am           1 S1                 0.0000
     10 ****        -4.4677   2.6406   0.2401 C.2            1 S1                 0.0000
     11 ****        -5.0183   3.7413   0.2194 O.2            1 S1                 0.0000
     12 ****        -2.9682   2.5484   0.2480 C.ar           1 S1                 0.0000
     13 ****        -2.2045   3.5550   0.8774 C.ar           1 S1                 0.0000
     14 ****        -0.7982   3.4933   0.8712 C.ar           1 S1                 0.0000
     15 ****        -0.1296   2.4268   0.2374 C.ar           1 S1                 0.0000
     16 ****         1.2913   2.4506   0.2588 N.am           1 S1                 0.0000
     17 ****         2.1583   1.4369   0.0837 C.2            1 S1                 0.0000
     18 ****         1.8344   0.2607  -0.0855 O.2            1 S1                 0.0000
     19 ****         3.6414   1.8328   0.1557 C.3            1 S1                 0.0000
     20 ****         4.5517   0.8163  -0.4153 N.am           1 S1                 0.0000
     21 ****         4.8244   0.8580  -1.8052 C.2            1 S1                 0.0000
     22 ****         4.3251   1.7216  -2.5282 O.2            1 S1                 0.0000
     23 ****         5.7176  -0.1817  -2.3032 C.2            1 S1                 0.0000
     24 ****         6.0397  -0.2135  -3.6076 F              1 S1                 0.0000
     25 ****         6.2286  -1.1150  -1.4741 C.2            1 S1                 0.0000
     26 ****         5.9437  -1.1511  -0.1207 N.am           1 S1                 0.0000
     27 ****         6.5155  -2.2138   0.7930 C.3            1 S1                 0.0000
     28 ****         5.4489  -3.2737   1.1230 C.3            1 S1                 0.0000
     29 ****         6.1714  -4.5735   0.8308 C.3            1 S1                 0.0000
     30 ****         7.1302  -4.1577  -0.2748 C.3            1 S1                 0.0000
     31 ****         7.5700  -2.8745   0.1522 O.3            1 S1                 0.0000
     32 ****         5.0906  -0.1752   0.4387 C.2            1 S1                 0.0000
     33 ****         4.8180  -0.1955   1.6411 O.2            1 S1                 0.0000
     34 ****        -0.8912   1.4294  -0.4174 C.ar           1 S1                 0.0000
     35 ****        -2.2985   1.4906  -0.4093 C.ar           1 S1                 0.0000
     36 ****        -5.4156  -2.8783  -1.1438 H              1 S1                 0.0000
     37 ****        -6.9528  -2.2842  -1.7591 H              1 S1                 0.0000
     38 ****        -6.8105  -2.8379  -0.0724 H              1 S1                 0.0000
     39 ****        -8.6454  -1.4052  -0.4098 H              1 S1                 0.0000
     40 ****       -10.2965   0.2593   0.2979 H              1 S1                 0.0000
     41 ****        -9.5722   2.5172   1.0404 H              1 S1                 0.0000
     42 ****        -7.1937   3.1079   1.0732 H              1 S1                 0.0000
     43 ****        -4.5116   0.6400   0.2668 H              1 S1                 0.0000
     44 ****        -2.6922   4.3821   1.3730 H              1 S1                 0.0000
     45 ****        -0.2326   4.2727   1.3609 H              1 S1                 0.0000
     46 ****         1.7027   3.3449   0.4834 H              1 S1                 0.0000
     47 ****         3.7768   2.7925  -0.3466 H              1 S1                 0.0000
     48 ****         3.8869   2.0449   1.1972 H              1 S1                 0.0000
     49 ****         6.8842  -1.8554  -1.9058 H              1 S1                 0.0000
     50 ****         6.9031  -1.6826   1.6643 H              1 S1                 0.0000
     51 ****         5.1168  -3.1872   2.1580 H              1 S1                 0.0000
     52 ****         4.5872  -3.1598   0.4627 H              1 S1                 0.0000
     53 ****         6.7317  -4.8977   1.7087 H              1 S1                 0.0000
     54 ****         5.5002  -5.3797   0.5339 H              1 S1                 0.0000
     55 ****         7.9650  -4.8487  -0.3925 H              1 S1                 0.0000
     56 ****         6.6096  -4.0801  -1.2302 H              1 S1                 0.0000
     57 ****        -0.4198   0.6172  -0.9486 H              1 S1                 0.0000
     58 ****        -2.8559   0.7215  -0.9246 H              1 S1                 0.0000
     59 ****        -5.4349  -0.5873  -1.2539 LP             1 S1                 0.0000
     60 ****        -5.2969  -1.0974   0.2912 LP             1 S1                 0.0000
     61 ****        -6.0159   3.8020   0.2515 LP             1 S1                 0.0000
     62 ****        -4.4679   4.5748   0.1706 LP             1 S1                 0.0000
     63 ****         0.8677   0.0053  -0.0993 LP             1 S1                 0.0000
     64 ****         2.5382  -0.4389  -0.2090 LP             1 S1                 0.0000
     65 ****         3.7149   2.4101  -2.1363 LP             1 S1                 0.0000
     66 ****         4.5301   1.7340  -3.5069 LP             1 S1                 0.0000
     67 ****         8.3350  -2.9780   0.7880 LP             1 S1                 0.0000
     68 ****         7.8655  -2.3417  -0.6407 LP             1 S1                 0.0000
     69 ****         4.2073   0.4959   2.0271 LP             1 S1                 0.0000
     70 ****         5.2077  -0.9034   2.2303 LP             1 S1                 0.0000
@<TRIPOS>BOND
    1    1    2 1     
    2    1   36 1     
    3    1   37 1     
    4    1   38 1     
    5    2    3 1     
    6    3    8 ar    
    7    3    4 ar    
    8    4    5 ar    
    9    4   39 1     
   10    5    6 ar    
   11    5   40 1     
   12    6    7 ar    
   13    6   41 1     
   14    7    8 ar    
   15    7   42 1     
   16    8    9 1     
   17    9   10 am    
   18    9   43 1     
   19   10   11 2     
   20   10   12 1     
   21   12   35 ar    
   22   12   13 ar    
   23   13   14 ar    
   24   13   44 1     
   25   14   15 ar    
   26   14   45 1     
   27   15   16 1     
   28   15   34 ar    
   29   16   17 am    
   30   16   46 1     
   31   17   18 2     
   32   17   19 1     
   33   19   20 1     
   34   19   47 1     
   35   19   48 1     
   36   20   32 am    
   37   20   21 am    
   38   21   22 2     
   39   21   23 1     
   40   23   24 1     
   41   23   25 2     
   42   25   26 1     
   43   25   49 1     
   44   26   27 1     
   45   26   32 am    
   46   27   31 1     
   47   27   28 1     
   48   27   50 1     
   49   28   29 1     
   50   28   51 1     
   51   28   52 1     
   52   29   30 1     
   53   29   53 1     
   54   29   54 1     
   55   30   31 1     
   56   30   55 1     
   57   30   56 1     
   58   32   33 2     
   59   34   35 ar    
   60   34   57 1     
   61   35   58 1     
   62    2   59 1     
   63    2   60 1     
   64   11   61 1     
   65   11   62 1     
   66   18   63 1     
   67   18   64 1     
   68   22   65 1     
   69   22   66 1     
   70   31   67 1     
   71   31   68 1     
   72   33   69 1     
   73   33   70 1     
@<TRIPOS>SUBSTRUCTURE
      1 S1             1
@<TRIPOS>SET
LONE_PAIRS      STATIC     ATOMS    <user>   **** ""
12 59 60 61 62 63 64 65 66 67 68 69 70
DONOR_HYDROGENS      STATIC     ATOMS    <user>   **** ""
2 43 46
ATOM$BLUE        STATIC     ATOMS    COLORGROUP SYSTEM
12 59 60 61 62 63 64 65 66 67 68 69 70
ATOM$RED        STATIC     ATOMS    COLORGROUP SYSTEM
2 43 46
