#       Name:                AV-unprocessed.smi:3038
#       Creating user name   scv26
#       Creation time:       Fri Mar 27 16:56:36 2020


#       File generated by GOLD software.
#

@<TRIPOS>MOLECULE
AV-unprocessed.smi:3038
    42    44     1
SMALL
NO_CHARGES


@<TRIPOS>ATOM
      1 ****         0.9618   3.3531  -0.5896 O.2            1 S1                 0.0000
      2 ****         1.6913   2.3642  -0.5259 C.2            1 S1                 0.0000
      3 ****         3.2108   2.5305  -0.5893 C.3            1 S1                 0.0000
      4 ****         3.7712   1.8374  -1.7350 N.pl3          1 S1                 0.0000
      5 ****         3.8346   2.1796  -3.0235 C.2            1 S1                 0.0000
      6 ****         4.4213   1.2402  -3.7497 N.2            1 S1                 0.0000
      7 ****         4.7310   0.2665  -2.8149 N.2            1 S1                 0.0000
      8 ****         4.3478   0.6151  -1.6176 N.2            1 S1                 0.0000
      9 ****         1.2272   1.1113  -0.3911 N.am           1 S1                 0.0000
     10 ****        -0.1810   0.7359  -0.3237 C.3            1 S1                 0.0000
     11 ****        -0.7035   0.8391   1.1211 C.3            1 S1                 0.0000
     12 ****        -2.1559   0.3372   1.2265 C.3            1 S1                 0.0000
     13 ****        -2.3116  -1.0431   0.6995 N.4            1 S1                 1.0000
     14 ****        -1.7664  -2.0824   1.6044 C.3            1 S1                 0.0000
     15 ****        -2.5164  -3.3928   1.5429 C.3            1 S1                 0.0000
     16 ****        -2.7058  -2.4671   2.7237 C.3            1 S1                 0.0000
     17 ****        -1.8233  -1.1657  -0.6983 C.3            1 S1                 0.0000
     18 ****        -0.3624  -0.6991  -0.8454 C.3            1 S1                 0.0000
     19 ****         3.4706   3.5876  -0.6599 H              1 S1                 0.0000
     20 ****         3.6631   2.1465   0.3263 H              1 S1                 0.0000
     21 ****         3.4489   3.1044  -3.4265 H              1 S1                 0.0000
     22 ****         1.9030   0.3617  -0.3454 H              1 S1                 0.0000
     23 ****        -0.7635   1.4045  -0.9608 H              1 S1                 0.0000
     24 ****        -0.0638   0.2634   1.7915 H              1 S1                 0.0000
     25 ****        -0.6513   1.8728   1.4650 H              1 S1                 0.0000
     26 ****        -2.5000   0.3829   2.2604 H              1 S1                 0.0000
     27 ****        -2.8101   0.9984   0.6569 H              1 S1                 0.0000
     28 ****        -0.6912  -2.0739   1.7717 H              1 S1                 0.0000
     29 ****        -3.3425  -3.4832   0.8398 H              1 S1                 0.0000
     30 ****        -1.9480  -4.3052   1.7120 H              1 S1                 0.0000
     31 ****        -2.2620  -2.7702   3.6699 H              1 S1                 0.0000
     32 ****        -3.6574  -1.9441   2.8030 H              1 S1                 0.0000
     33 ****        -1.9305  -2.1952  -1.0416 H              1 S1                 0.0000
     34 ****        -2.4643  -0.5603  -1.3407 H              1 S1                 0.0000
     35 ****        -0.0657  -0.7534  -1.8937 H              1 S1                 0.0000
     36 ****         0.2991  -1.3794  -0.3071 H              1 S1                 0.0000
     37 ****        -3.3059  -1.2180   0.6647 H              1 S1                 0.0000
     38 ****         1.3623   4.2647  -0.6827 LP             1 S1                 0.0000
     39 ****        -0.0315   3.2452  -0.5482 LP             1 S1                 0.0000
     40 ****         4.5978   1.2352  -4.7340 LP             1 S1                 0.0000
     41 ****         5.1905  -0.5951  -3.0305 LP             1 S1                 0.0000
     42 ****         4.4577   0.0847  -0.7770 LP             1 S1                 0.0000
@<TRIPOS>BOND
    1    1    2 2     
    2    2    3 1     
    3    2    9 am    
    4    3    4 1     
    5    3   19 1     
    6    3   20 1     
    7    4    8 1     
    8    4    5 1     
    9    5    6 2     
   10    5   21 1     
   11    6    7 1     
   12    7    8 2     
   13    9   10 1     
   14    9   22 1     
   15   10   18 1     
   16   10   11 1     
   17   10   23 1     
   18   11   12 1     
   19   11   24 1     
   20   11   25 1     
   21   12   13 1     
   22   12   26 1     
   23   12   27 1     
   24   13   14 1     
   25   13   17 1     
   26   13   37 1     
   27   14   16 1     
   28   14   15 1     
   29   14   28 1     
   30   15   16 1     
   31   15   29 1     
   32   15   30 1     
   33   16   31 1     
   34   16   32 1     
   35   17   18 1     
   36   17   33 1     
   37   17   34 1     
   38   18   35 1     
   39   18   36 1     
   40    1   38 1     
   41    1   39 1     
   42    6   40 1     
   43    7   41 1     
   44    8   42 1     
@<TRIPOS>SUBSTRUCTURE
      1 S1             1
@<TRIPOS>SET
LONE_PAIRS      STATIC     ATOMS    <user>   **** ""
5 38 39 40 41 42
DONOR_HYDROGENS      STATIC     ATOMS    <user>   **** ""
2 22 37
ATOM$BLUE        STATIC     ATOMS    COLORGROUP SYSTEM
5 38 39 40 41 42
ATOM$RED        STATIC     ATOMS    COLORGROUP SYSTEM
2 22 37
