AV-unprocessed.smi:2928|AV-procd|sdf|11235|dock9
  -GOLD-   2272016133D 1   1.00000     0.00000
 Structure written by MMmdl.
 56 59  0  0  0  0  0  0  0  0  3 V2000
  143.6356  132.4438  149.5295 C   0  0  0  0  0  0  0  0  0  0  0  0
  143.7798  133.6838  150.3292 N   0  3  2  0  0  0  0  0  0  0  0  0
  144.9592  134.5134  149.9847 C   0  0  2  0  0  0  0  0  0  0  0  0
  146.2799  133.8295  150.4222 C   0  0  0  0  0  0  0  0  0  0  0  0
  146.2958  133.3571  151.8881 C   0  0  0  0  0  0  0  0  0  0  0  0
  144.9555  132.7437  152.3320 C   0  0  0  0  0  0  0  0  0  0  0  0
  143.7071  133.4890  151.7967 C   0  0  1  0  0  0  0  0  0  0  0  0
  143.4101  134.8474  152.4738 C   0  0  0  0  0  0  0  0  0  0  0  0
  144.2875  136.0418  152.0061 C   0  0  1  0  0  0  0  0  0  0  0  0
  145.4153  136.3095  152.8944 N   0  0  0  0  0  0  0  0  0  0  0  0
  146.2085  137.3897  152.8579 C   0  0  0  0  0  0  0  0  0  0  0  0
  146.0919  138.2954  152.0332 O   0  0  0  0  0  0  0  0  0  0  0  0
  147.1131  137.3549  153.8492 N   0  0  0  0  0  0  0  0  0  0  0  0
  148.0544  138.3581  154.2120 C   0  0  0  0  0  0  0  0  0  0  0  0
  147.9128  139.7152  153.8266 C   0  0  0  0  0  0  0  0  0  0  0  0
  148.8938  140.6531  154.2059 C   0  0  0  0  0  0  0  0  0  0  0  0
  150.0029  140.2194  154.9559 C   0  0  0  0  0  0  0  0  0  0  0  0
  150.1158  138.9176  155.2930 N   0  3  0  0  0  0  0  0  0  0  0  0
  149.2018  137.9762  154.9522 C   0  0  0  0  0  0  0  0  0  0  0  0
  149.4106  136.6453  155.3531 N   0  0  0  0  0  0  0  0  0  0  0  0
  150.6270  136.0255  154.8552 C   0  0  0  0  0  0  0  0  0  0  0  0
  150.8200  134.7678  155.7067 C   0  0  0  0  0  0  0  0  0  0  0  0
  150.0066  135.0249  156.9815 C   0  0  0  0  0  0  0  0  0  0  0  0
  149.4017  136.4176  156.7881 C   0  0  0  0  0  0  0  0  0  0  0  0
  144.7433  135.9459  150.5278 C   0  0  0  0  0  0  0  0  0  0  0  0
  144.4563  131.7463  149.6940 H   0  0  0  0  0  0  0  0  0  0  0  0
  143.6015  132.6799  148.4657 H   0  0  0  0  0  0  0  0  0  0  0  0
  142.7051  131.9351  149.7830 H   0  0  0  0  0  0  0  0  0  0  0  0
  144.9946  134.6040  148.8980 H   0  0  0  0  0  0  0  0  0  0  0  0
  146.4504  132.9624  149.7833 H   0  0  0  0  0  0  0  0  0  0  0  0
  147.1262  134.4919  150.2384 H   0  0  0  0  0  0  0  0  0  0  0  0
  147.0908  132.6230  152.0228 H   0  0  0  0  0  0  0  0  0  0  0  0
  146.5737  134.1723  152.5468 H   0  0  0  0  0  0  0  0  0  0  0  0
  144.9203  131.7107  151.9851 H   0  0  0  0  0  0  0  0  0  0  0  0
  144.9194  132.6832  153.4202 H   0  0  0  0  0  0  0  0  0  0  0  0
  142.8455  132.8524  152.0037 H   0  0  0  0  0  0  0  0  0  0  0  0
  142.3766  135.1005  152.2333 H   0  0  0  0  0  0  0  0  0  0  0  0
  143.4245  134.7400  153.5588 H   0  0  0  0  0  0  0  0  0  0  0  0
  143.6665  136.9374  152.0730 H   0  0  0  0  0  0  0  0  0  0  0  0
  145.5962  135.6198  153.6090 H   0  0  0  0  0  0  0  0  0  0  0  0
  147.0347  136.5818  154.4935 H   0  0  0  0  0  0  0  0  0  0  0  0
  147.0746  140.0505  153.2349 H   0  0  0  0  0  0  0  0  0  0  0  0
  148.7977  141.6906  153.9209 H   0  0  0  0  0  0  0  0  0  0  0  0
  150.8002  140.8681  155.2891 H   0  0  0  0  0  0  0  0  0  0  0  0
  150.5390  135.7825  153.7957 H   0  0  0  0  0  0  0  0  0  0  0  0
  151.4781  136.6967  154.9780 H   0  0  0  0  0  0  0  0  0  0  0  0
  150.4278  133.8929  155.1867 H   0  0  0  0  0  0  0  0  0  0  0  0
  151.8742  134.5839  155.9166 H   0  0  0  0  0  0  0  0  0  0  0  0
  149.2168  134.2783  157.0743 H   0  0  0  0  0  0  0  0  0  0  0  0
  150.6183  134.9746  157.8827 H   0  0  0  0  0  0  0  0  0  0  0  0
  150.0108  137.1650  157.2988 H   0  0  0  0  0  0  0  0  0  0  0  0
  148.3895  136.4754  157.1897 H   0  0  0  0  0  0  0  0  0  0  0  0
  145.6270  136.5605  150.3509 H   0  0  0  0  0  0  0  0  0  0  0  0
  143.9587  136.4002  149.9207 H   0  0  0  0  0  0  0  0  0  0  0  0
  142.9723  134.2398  150.0856 H   0  0  0  0  0  0  0  0  0  0  0  0
  150.9312  138.6279  155.8334 H   0  0  0  0  0  0  0  0  0  0  0  0
  1  2  1  0  0  0  0
  1 26  1  0  0  0  0
  1 27  1  0  0  0  0
  1 28  1  0  0  0  0
  2  7  1  0  0  0  0
  2  3  1  0  0  0  0
  2 55  1  0  0  0  0
  3 25  1  0  0  0  0
  3  4  1  0  0  0  0
  3 29  1  0  0  0  0
  4  5  1  0  0  0  0
  4 30  1  0  0  0  0
  4 31  1  0  0  0  0
  5  6  1  0  0  0  0
  5 32  1  0  0  0  0
  5 33  1  0  0  0  0
  6  7  1  0  0  0  0
  6 34  1  0  0  0  0
  6 35  1  0  0  0  0
  7  8  1  0  0  0  0
  7 36  1  0  0  0  0
  8  9  1  0  0  0  0
  8 37  1  0  0  0  0
  8 38  1  0  0  0  0
  9 10  1  0  0  0  0
  9 25  1  0  0  0  0
  9 39  1  0  0  0  0
 10 11  1  0  0  0  0
 10 40  1  0  0  0  0
 11 12  2  0  0  0  0
 11 13  1  0  0  0  0
 13 14  1  0  0  0  0
 13 41  1  0  0  0  0
 14 19  1  0  0  0  0
 14 15  2  0  0  0  0
 15 16  1  0  0  0  0
 15 42  1  0  0  0  0
 16 17  2  0  0  0  0
 16 43  1  0  0  0  0
 17 18  1  0  0  0  0
 17 44  1  0  0  0  0
 18 19  2  0  0  0  0
 18 56  1  0  0  0  0
 19 20  1  0  0  0  0
 20 24  1  0  0  0  0
 20 21  1  0  0  0  0
 21 22  1  0  0  0  0
 21 45  1  0  0  0  0
 21 46  1  0  0  0  0
 22 23  1  0  0  0  0
 22 47  1  0  0  0  0
 22 48  1  0  0  0  0
 23 24  1  0  0  0  0
 23 49  1  0  0  0  0
 23 50  1  0  0  0  0
 24 51  1  0  0  0  0
 24 52  1  0  0  0  0
 25 53  1  0  0  0  0
 25 54  1  0  0  0  0
M  CHG  1   2   1
M  CHG  1  18   1
M  END
> <s_m_source_file>
AV-unprocessed.smi

> <i_m_source_file_index>
2928

> <i_lp_mmshare_version>
43012

> <i_f3d_flags>
0

> <s_epik_input>
W0NIMl0xW0NIMl1bQ0gyXVtDQEhdKE4oW0NIM10pW0NIXTEyKVtDSDJdW0NASF0oW0NIMl0yKVtOSF1DKD1PKVtOSF1jM1tjSF1bY0hdW2NIXW5jM040W0NIMl1bQ0gyXVtDSDJdW0NIMl00

> <s_epik_cmdline>
J2VwaWtfcHl0aG9uJywgJy1waCcsICc3LjAnLCAnLXRuJywgJzgnLCAnLW1hJywgJzIwMCcsICctbWV0YWxfYmluZGluZycsICctaW1hZScsICc8aW5maWxlLm1hZT4nLCAnLW9tYWUnLCAnPG91dGZpbGUubWFlPic=

> <r_lp_tautomer_probability>
0.999994

> <r_epik_Ionization_Penalty>
1.2404

> <r_epik_Ionization_Penalty_Charging>
1.24038

> <r_epik_Ionization_Penalty_Neutral>
1.86539e-05

> <r_epik_State_Penalty>
1.30821

> <r_epik_Charging_Adjusted_Penalty>
2.54859

> <i_epik_Tot_Q>
2

> <i_epik_Tot_abs_Q>
2

> <r_epik_Metal_State_Penalty>
1.3782

> <b_epik_Metal_Only>
0

> <s_lp_Force_Field>
OPLS_2005

> <r_lp_Energy>
75.6224

> <b_lp_Chiralities_Consistent>
1

> <s_lp_Variant>
AV-unprocessed.smi:2928-5

> <Gold.Version>
5.8.1

> <Gold.Id.Protein>
6NUR|6NUR_protein|mol2

> <Gold.PLP.Fitness>
35.9946

> <Gold.PLP.PLP>
-30.2611

> <Gold.PLP.part.hbond>
-2.0000

> <Gold.PLP.part.metal>
0.0000

> <Gold.PLP.part.buried>
3.4642

> <Gold.PLP.part.nonpolar>
-32.4926

> <Gold.PLP.part.repulsive>
0.4860

> <Gold.PLP.ligand.clash>
0.0000

> <Gold.PLP.ligand.torsion>
0.1686

> <Gold.PLP.Chemscore.Hbond>
2.0000

> <Gold.PLP.Chemscore.CHOScore>
0.0000

> <Gold.PLP.Chemscore.Metal>
0.0000

> <Gold.Chemscore.Hbonds>
donor molecule, donor type, donor heavy atom, donor atom, acceptor molecule, acceptor atom, score
      L1  H     2    55       P1 10186  1.95

> <Gold.PLP.Chemscore.Internal.Correction>
0.0707

> <Gold.Rescore>
     Score         DG    S(hbond)    S(metal)    S(lipo)     H(rot)  DE(clash)    DE(int)     intcor
     15.39     -17.30       0.96        0.00      99.60       1.19       0.52       1.40       ----

> <Gold.Chemscore.Fitness>
15.3854

> <Gold.Chemscore.DG>
-17.3033

> <Gold.Chemscore.ZeroCoef>
-5.4800

> <Gold.Chemscore.Hbond>
0.9615

> <Gold.Chemscore.Metal>
0.0000

> <Gold.Chemscore.Lipo>
99.5987

> <Gold.Chemscore.Internal_Hbond>
0.0000

> <Gold.Chemscore.DEClash>
0.5202

> <Gold.Chemscore.DEInternal>
1.3977

> <Gold.Chemscore.Rot>
1.1879

> <Gold.Chemscore.Internal.Correction>
   9.000000E+99

> <Gold.Chemscore.Hbonds>
donor molecule, donor type, donor heavy atom, donor atom, acceptor molecule, acceptor atom, score
      L1  H     2    55       P1 10186  0.84

> <Gold.Chemscore.Hbond.Weighted>
-3.2113

> <Gold.Chemscore.Metal.Weighted>
-0.0000

> <Gold.Chemscore.Lipo.Weighted>
-11.6530

> <Gold.Chemscore.Internal_Hbond.Weighted>
0.0000

> <Gold.Chemscore.DEClash.Weighted>
0.5202

> <Gold.Chemscore.DEInternal.Weighted>
1.3977

> <Gold.Chemscore.Rot.Weighted>
3.0410

> <Gold.Chemscore.Internal.Correction.Weighted>
   9.000000E+99

> <Gold.Protein.RotatedTorsions>
[ 6907 6896 6895 6894 ] final  102.77 input  -60.11 | X-H torsion
[ 7974 7965 7964 7962 ] final   26.49 input  175.53 | X-H torsion
[ 8008 7997 7996 7995 ] final  -35.38 input   59.86 | X-H torsion
[ 10167 10162 10161 10158 ] final   96.49 input  -65.29 | X-H torsion
[ 10718 10713 10712 10709 ] final  142.71 input   66.30 | X-H torsion
[ 10763 10752 10751 10750 ] final  -97.67 input  -60.55 | X-H torsion
[ 11005 11000 10999 10996 ] final  -20.59 input  -57.11 | X-H torsion

> <Gold.Protein.ActiveResidues>
 VAL166  LYS551  ARG553  GLY616  TRP617  ASP618  TYR619  PRO620  LYS621  CYS622 
 ASP623  PHE694  ASN695  SER759  ASP760  ASP761  ALA762  ILE779  LEU786  VAL792 
 PHE793  MET794  SER795  GLU796  ALA797  LYS798  CYS799  TRP800  GLU811  SER814 

> <Gold.Protein.RotatedAtoms>
  152.5314  133.9925  159.7857 H   0  0  0  0  0  0  0  0  0  0  0  0  # atno 6907 bound_to 6896
  151.0158  133.5914  159.2684 H   0  0  0  0  0  0  0  0  0  0  0  0  # atno 6908 bound_to 6896
  151.2972  135.0765  159.9279 H   0  0  0  0  0  0  0  0  0  0  0  0  # atno 6909 bound_to 6896
  146.1834  139.7320  142.8884 H   0  0  0  0  0  0  0  0  0  0  0  0  # atno 7974 bound_to 7965
  154.4097  140.1659  156.2202 H   0  0  0  0  0  0  0  0  0  0  0  0  # atno 8008 bound_to 7997
  155.9370  140.3411  155.6273 H   0  0  0  0  0  0  0  0  0  0  0  0  # atno 8009 bound_to 7997
  155.7036  140.0748  157.2391 H   0  0  0  0  0  0  0  0  0  0  0  0  # atno 8010 bound_to 7997
  139.7890  144.6859  150.9919 H   0  0  0  0  0  0  0  0  0  0  0  0  # atno 10167 bound_to 10162
  157.3774  131.0987  151.0771 H   0  0  0  0  0  0  0  0  0  0  0  0  # atno 10718 bound_to 10713
  154.7348  135.5038  153.9023 H   0  0  0  0  0  0  0  0  0  0  0  0  # atno 10763 bound_to 10752
  153.0984  135.6678  153.9727 H   0  0  0  0  0  0  0  0  0  0  0  0  # atno 10764 bound_to 10752
  153.9519  135.3057  155.3417 H   0  0  0  0  0  0  0  0  0  0  0  0  # atno 10765 bound_to 10752
  140.8479  133.7878  155.9933 H   0  0  0  0  0  0  0  0  0  0  0  0  # atno 11005 bound_to 11000
  145.4009  141.0385  143.3071 LP  0  0  0  0  0  0  0  0  0  0  0  0  # atno 17320 bound_to 7965
  144.8355  139.5557  143.6924 LP  0  0  0  0  0  0  0  0  0  0  0  0  # atno 17321 bound_to 7965
  140.7820  143.4401  151.0564 LP  0  0  0  0  0  0  0  0  0  0  0  0  # atno 17342 bound_to 10162
  139.8079  143.7992  152.3169 LP  0  0  0  0  0  0  0  0  0  0  0  0  # atno 17343 bound_to 10162
  157.1852  130.6327  149.5685 LP  0  0  0  0  0  0  0  0  0  0  0  0  # atno 17370 bound_to 10713
  155.9768  130.4740  150.6553 LP  0  0  0  0  0  0  0  0  0  0  0  0  # atno 17371 bound_to 10713
  140.8823  134.2596  157.5138 LP  0  0  0  0  0  0  0  0  0  0  0  0  # atno 17394 bound_to 11000
  139.8703  134.9621  156.4418 LP  0  0  0  0  0  0  0  0  0  0  0  0  # atno 17395 bound_to 11000

$$$$
