AV-unprocessed.smi:1536|AV-procd|sdf|6187|dock6
  -GOLD-   22720 6353D 1   1.00000     0.00000
 Structure written by MMmdl.
 48 49  0  0  0  0  0  0  0  0  2 V2000
  152.2420  143.9261  158.4204 C   0  0  0  0  0  0  0  0  0  0  0  0
  151.0899  142.9524  158.1362 C   0  0  2  0  0  0  0  0  0  0  0  0
  151.0042  142.5933  156.6421 C   0  0  0  0  0  0  0  0  0  0  0  0
  149.8320  141.6386  156.3614 C   0  0  0  0  0  0  0  0  0  0  0  0
  148.5523  142.2251  156.8420 N   0  3  1  0  0  0  0  0  0  0  0  0
  147.3139  141.5384  156.3536 C   0  0  1  0  0  0  0  0  0  0  0  0
  145.9935  142.2149  156.8214 C   0  0  0  0  0  0  0  0  0  0  0  0
  145.6601  141.9016  158.2070 N   0  0  0  0  0  0  0  0  0  0  0  0
  144.4330  141.6246  158.6769 C   0  0  0  0  0  0  0  0  0  0  0  0
  143.4317  141.5740  157.9643 O   0  0  0  0  0  0  0  0  0  0  0  0
  144.3028  141.4078  160.1875 C   0  0  0  0  0  0  0  0  0  0  0  0
  144.9023  142.4894  160.9482 N   0  0  0  0  0  0  0  0  0  0  0  0
  144.3559  143.4122  161.7427 C   0  0  0  0  0  0  0  0  0  0  0  0
  145.2732  144.2140  162.2617 N   0  0  0  0  0  0  0  0  0  0  0  0
  146.4557  143.7267  161.7299 N   0  0  0  0  0  0  0  0  0  0  0  0
  146.2420  142.7039  160.9489 N   0  0  0  0  0  0  0  0  0  0  0  0
  147.3865  141.3549  154.8096 C   0  0  0  0  0  0  0  0  0  0  0  0
  146.8953  142.5910  154.0330 C   0  0  0  0  0  0  0  0  0  0  0  0
  146.5867  140.1230  154.3393 C   0  0  0  0  0  0  0  0  0  0  0  0
  148.5884  142.5483  158.2938 C   0  0  0  0  0  0  0  0  0  0  0  0
  149.7378  143.5205  158.6032 C   0  0  0  0  0  0  0  0  0  0  0  0
  152.1047  144.8696  157.8912 H   0  0  0  0  0  0  0  0  0  0  0  0
  153.1981  143.5054  158.1078 H   0  0  0  0  0  0  0  0  0  0  0  0
  152.3133  144.1498  159.4854 H   0  0  0  0  0  0  0  0  0  0  0  0
  151.2850  142.0358  158.6951 H   0  0  0  0  0  0  0  0  0  0  0  0
  150.8831  143.5013  156.0494 H   0  0  0  0  0  0  0  0  0  0  0  0
  151.9369  142.1326  156.3145 H   0  0  0  0  0  0  0  0  0  0  0  0
  149.7768  141.4499  155.2888 H   0  0  0  0  0  0  0  0  0  0  0  0
  150.0229  140.6806  156.8430 H   0  0  0  0  0  0  0  0  0  0  0  0
  147.3169  140.5313  156.7740 H   0  0  0  0  0  0  0  0  0  0  0  0
  146.0469  143.2923  156.6581 H   0  0  0  0  0  0  0  0  0  0  0  0
  145.1537  141.8604  156.2251 H   0  0  0  0  0  0  0  0  0  0  0  0
  146.4233  141.9077  158.8687 H   0  0  0  0  0  0  0  0  0  0  0  0
  143.2482  141.3201  160.4528 H   0  0  0  0  0  0  0  0  0  0  0  0
  144.7857  140.4727  160.4741 H   0  0  0  0  0  0  0  0  0  0  0  0
  143.2974  143.4929  161.9419 H   0  0  0  0  0  0  0  0  0  0  0  0
  148.4269  141.1954  154.5252 H   0  0  0  0  0  0  0  0  0  0  0  0
  145.8870  142.8759  154.3353 H   0  0  0  0  0  0  0  0  0  0  0  0
  146.8751  142.3973  152.9599 H   0  0  0  0  0  0  0  0  0  0  0  0
  147.5488  143.4507  154.1785 H   0  0  0  0  0  0  0  0  0  0  0  0
  145.5357  140.2027  154.6193 H   0  0  0  0  0  0  0  0  0  0  0  0
  146.9747  139.1957  154.7610 H   0  0  0  0  0  0  0  0  0  0  0  0
  146.6318  140.0162  153.2549 H   0  0  0  0  0  0  0  0  0  0  0  0
  147.6449  142.9973  158.6034 H   0  0  0  0  0  0  0  0  0  0  0  0
  148.7158  141.6401  158.8823 H   0  0  0  0  0  0  0  0  0  0  0  0
  149.7671  143.7234  159.6744 H   0  0  0  0  0  0  0  0  0  0  0  0
  149.5474  144.4766  158.1132 H   0  0  0  0  0  0  0  0  0  0  0  0
  148.5165  143.1233  156.3813 H   0  0  0  0  0  0  0  0  0  0  0  0
  1  2  1  0  0  0  0
  1 22  1  0  0  0  0
  1 23  1  0  0  0  0
  1 24  1  0  0  0  0
  2 21  1  0  0  0  0
  2  3  1  0  0  0  0
  2 25  1  0  0  0  0
  3  4  1  0  0  0  0
  3 26  1  0  0  0  0
  3 27  1  0  0  0  0
  4  5  1  0  0  0  0
  4 28  1  0  0  0  0
  4 29  1  0  0  0  0
  5  6  1  0  0  0  0
  5 20  1  0  0  0  0
  5 48  1  0  0  0  0
  6  7  1  0  0  0  0
  6 17  1  0  0  0  0
  6 30  1  0  0  0  0
  7  8  1  0  0  0  0
  7 31  1  0  0  0  0
  7 32  1  0  0  0  0
  8  9  1  0  0  0  0
  8 33  1  0  0  0  0
  9 10  2  0  0  0  0
  9 11  1  0  0  0  0
 11 12  1  0  0  0  0
 11 34  1  0  0  0  0
 11 35  1  0  0  0  0
 12 16  1  0  0  0  0
 12 13  1  0  0  0  0
 13 14  2  0  0  0  0
 13 36  1  0  0  0  0
 14 15  1  0  0  0  0
 15 16  2  0  0  0  0
 17 18  1  0  0  0  0
 17 19  1  0  0  0  0
 17 37  1  0  0  0  0
 18 38  1  0  0  0  0
 18 39  1  0  0  0  0
 18 40  1  0  0  0  0
 19 41  1  0  0  0  0
 19 42  1  0  0  0  0
 19 43  1  0  0  0  0
 20 21  1  0  0  0  0
 20 44  1  0  0  0  0
 20 45  1  0  0  0  0
 21 46  1  0  0  0  0
 21 47  1  0  0  0  0
M  CHG  1   5   1
M  END
> <s_m_source_file>
AV-unprocessed.smi

> <i_m_source_file_index>
1536

> <i_lp_mmshare_version>
43012

> <i_f3d_flags>
0

> <s_epik_input>
W0NIM11bQ0hdMVtDSDJdW0NIMl1OKFtDSDJdW0NIMl0xKVtDQEBIXShbQ0hdKFtDSDNdKVtDSDNdKVtDSDJdW05IXUMoPU8pW0NIMl1uMltjSF1ubm4y

> <s_epik_cmdline>
J2VwaWtfcHl0aG9uJywgJy1waCcsICc3LjAnLCAnLXRuJywgJzgnLCAnLW1hJywgJzIwMCcsICctbWV0YWxfYmluZGluZycsICctaW1hZScsICc8aW5maWxlLm1hZT4nLCAnLW9tYWUnLCAnPG91dGZpbGUubWFlPic=

> <r_lp_tautomer_probability>
1

> <r_epik_Ionization_Penalty>
0.00109671

> <r_epik_Ionization_Penalty_Charging>
0.00109273

> <r_epik_Ionization_Penalty_Neutral>
3.97951e-06

> <r_epik_State_Penalty>
0.000716588

> <r_epik_Charging_Adjusted_Penalty>
0.00180932

> <i_epik_Tot_Q>
1

> <i_epik_Tot_abs_Q>
1

> <r_epik_Metal_State_Penalty>
-0

> <b_epik_Metal_Only>
0

> <s_lp_Force_Field>
OPLS_2005

> <r_lp_Energy>
35.3262

> <b_lp_Chiralities_Consistent>
1

> <s_lp_Variant>
AV-unprocessed.smi:1536-2

> <Gold.Version>
5.8.1

> <Gold.Id.Protein>
6NUR|6NUR_protein|mol2

> <Gold.PLP.Fitness>
39.7245

> <Gold.PLP.PLP>
-32.2512

> <Gold.PLP.part.hbond>
-3.5602

> <Gold.PLP.part.metal>
0.0000

> <Gold.PLP.part.buried>
-5.6092

> <Gold.PLP.part.nonpolar>
-24.5810

> <Gold.PLP.part.repulsive>
0.2438

> <Gold.PLP.ligand.clash>
0.0000

> <Gold.PLP.ligand.torsion>
0.9915

> <Gold.PLP.Chemscore.Hbond>
2.9920

> <Gold.PLP.Chemscore.CHOScore>
0.0000

> <Gold.PLP.Chemscore.Metal>
0.0000

> <Gold.Chemscore.Hbonds>
donor molecule, donor type, donor heavy atom, donor atom, acceptor molecule, acceptor atom, score
      L1  H     5    48       P1  8028  2.00
      P1  H  6933  6944       L1    16  0.01
      P1  H  6934  6946       L1    16  1.00

> <Gold.PLP.Chemscore.Internal.Correction>
0.4803

> <Gold.Rescore>
     Score         DG    S(hbond)    S(metal)    S(lipo)     H(rot)  DE(clash)    DE(int)     intcor
     10.46     -12.67       1.91        0.00      67.53       2.77       0.16       2.06       ----

> <Gold.Chemscore.Fitness>
10.4556

> <Gold.Chemscore.DG>
-12.6749

> <Gold.Chemscore.ZeroCoef>
-5.4800

> <Gold.Chemscore.Hbond>
1.9123

> <Gold.Chemscore.Metal>
0.0000

> <Gold.Chemscore.Lipo>
67.5328

> <Gold.Chemscore.Internal_Hbond>
0.0000

> <Gold.Chemscore.DEClash>
0.1624

> <Gold.Chemscore.DEInternal>
2.0570

> <Gold.Chemscore.Rot>
2.7709

> <Gold.Chemscore.Internal.Correction>
   9.000000E+99

> <Gold.Chemscore.Hbonds>
donor molecule, donor type, donor heavy atom, donor atom, acceptor molecule, acceptor atom, score
      L1  H     5    48       P1  8028  0.85
      P1  H  6934  6946       L1    16  0.28

> <Gold.Chemscore.Hbond.Weighted>
-6.3871

> <Gold.Chemscore.Metal.Weighted>
-0.0000

> <Gold.Chemscore.Lipo.Weighted>
-7.9013

> <Gold.Chemscore.Internal_Hbond.Weighted>
0.0000

> <Gold.Chemscore.DEClash.Weighted>
0.1624

> <Gold.Chemscore.DEInternal.Weighted>
2.0570

> <Gold.Chemscore.Rot.Weighted>
7.0935

> <Gold.Chemscore.Internal.Correction.Weighted>
   9.000000E+99

> <Gold.Protein.RotatedTorsions>
[ 6907 6896 6895 6894 ] final  137.80 input  -60.11 | X-H torsion
[ 7974 7965 7964 7962 ] final  -72.19 input  175.53 | X-H torsion
[ 8008 7997 7996 7995 ] final -129.22 input   59.86 | X-H torsion
[ 10167 10162 10161 10158 ] final  -24.83 input  -65.29 | X-H torsion
[ 10718 10713 10712 10709 ] final   83.62 input   66.30 | X-H torsion
[ 10763 10752 10751 10750 ] final  148.62 input  -60.55 | X-H torsion
[ 11005 11000 10999 10996 ] final   41.76 input  -57.11 | X-H torsion

> <Gold.Protein.ActiveResidues>
 VAL166  LYS551  ARG553  GLY616  TRP617  ASP618  TYR619  PRO620  LYS621  CYS622 
 ASP623  PHE694  ASN695  SER759  ASP760  ASP761  ALA762  ILE779  LEU786  VAL792 
 PHE793  MET794  SER795  GLU796  ALA797  LYS798  CYS799  TRP800  GLU811  SER814 

> <Gold.Protein.RotatedAtoms>
  152.2739  133.5408  159.5455 H   0  0  0  0  0  0  0  0  0  0  0  0  # atno 6907 bound_to 6896
  150.7170  134.0658  159.3856 H   0  0  0  0  0  0  0  0  0  0  0  0  # atno 6908 bound_to 6896
  151.8572  135.0537  160.0516 H   0  0  0  0  0  0  0  0  0  0  0  0  # atno 6909 bound_to 6896
  145.6684  140.9229  143.0896 H   0  0  0  0  0  0  0  0  0  0  0  0  # atno 7974 bound_to 7965
  155.2757  140.0442  157.3011 H   0  0  0  0  0  0  0  0  0  0  0  0  # atno 8008 bound_to 7997
  154.5627  140.2351  155.8279 H   0  0  0  0  0  0  0  0  0  0  0  0  # atno 8009 bound_to 7997
  156.2060  140.3012  155.9635 H   0  0  0  0  0  0  0  0  0  0  0  0  # atno 8010 bound_to 7997
  140.7287  143.4318  151.0790 H   0  0  0  0  0  0  0  0  0  0  0  0  # atno 10167 bound_to 10162
  157.6882  131.0098  150.2550 H   0  0  0  0  0  0  0  0  0  0  0  0  # atno 10718 bound_to 10713
  154.0577  135.2876  155.3330 H   0  0  0  0  0  0  0  0  0  0  0  0  # atno 10763 bound_to 10752
  154.6828  135.5256  153.8290 H   0  0  0  0  0  0  0  0  0  0  0  0  # atno 10764 bound_to 10752
  153.0535  135.6586  154.0768 H   0  0  0  0  0  0  0  0  0  0  0  0  # atno 10765 bound_to 10752
  140.1804  134.4111  155.8204 H   0  0  0  0  0  0  0  0  0  0  0  0  # atno 11005 bound_to 11000
  144.7065  139.8540  143.7428 LP  0  0  0  0  0  0  0  0  0  0  0  0  # atno 17320 bound_to 7965
  146.1066  139.4067  143.0313 LP  0  0  0  0  0  0  0  0  0  0  0  0  # atno 17321 bound_to 7965
  139.7976  143.8129  152.3159 LP  0  0  0  0  0  0  0  0  0  0  0  0  # atno 17342 bound_to 10162
  139.8135  144.7326  150.9666 LP  0  0  0  0  0  0  0  0  0  0  0  0  # atno 17343 bound_to 10162
  156.3140  130.3776  149.7636 LP  0  0  0  0  0  0  0  0  0  0  0  0  # atno 17370 bound_to 10713
  156.5227  130.8222  151.3209 LP  0  0  0  0  0  0  0  0  0  0  0  0  # atno 17371 bound_to 10713
  141.2222  133.6997  156.7920 LP  0  0  0  0  0  0  0  0  0  0  0  0  # atno 17394 bound_to 11000
  140.2274  134.8711  157.3441 LP  0  0  0  0  0  0  0  0  0  0  0  0  # atno 17395 bound_to 11000

$$$$
