AV-unprocessed.smi:5|AV-procd|sdf|38|dock2
  -GOLD-   2262015153D 1   1.00000     0.00000
 Structure written by MMmdl.
 43 44  0  0  0  0  0  0  0  0  2 V2000
  153.4119  142.4667  161.3800 C   0  0  0  0  0  0  0  0  0  0  0  0
  152.6682  142.9844  160.1659 C   0  0  0  0  0  0  0  0  0  0  0  0
  152.2025  144.2460  160.0866 C   0  0  0  0  0  0  0  0  0  0  0  0
  151.4754  144.7798  158.8648 C   0  0  0  0  0  0  0  0  0  0  0  0
  151.6106  143.8191  157.6684 C   0  0  0  0  0  0  0  0  0  0  0  0
  151.3917  142.4329  158.1184 N   0  0  0  0  0  0  0  0  0  0  0  0
  150.2830  141.6868  157.8801 C   0  0  0  0  0  0  0  0  0  0  0  0
  150.1489  140.5283  158.2761 O   0  0  0  0  0  0  0  0  0  0  0  0
  149.3040  142.3344  157.2243 N   0  0  0  0  0  0  0  0  0  0  0  0
  147.9389  141.8451  157.0464 C   0  0  0  0  0  0  0  0  0  0  0  0
  146.8741  142.7666  157.6454 C   0  0  0  0  0  0  0  0  0  0  0  0
  146.8911  143.2189  158.9197 C   0  0  0  0  0  0  0  0  0  0  0  0
  145.8947  144.0568  159.4528 N   0  0  0  0  0  0  0  0  0  0  0  0
  146.0274  144.4653  160.8693 C   0  0  0  0  0  0  0  0  0  0  0  0
  147.3300  145.2517  161.1010 C   0  0  0  0  0  0  0  0  0  0  0  0
  145.8911  143.2628  161.8233 C   0  0  0  0  0  0  0  0  0  0  0  0
  144.8612  144.4611  158.6532 C   0  0  0  0  0  0  0  0  0  0  0  0
  143.9957  145.2061  159.1130 O   0  0  0  0  0  0  0  0  0  0  0  0
  144.8195  144.0248  157.3575 N   0  5  0  0  0  0  0  0  0  0  0  0
  145.7573  143.2032  156.8043 C   0  0  0  0  0  0  0  0  0  0  0  0
  145.6928  142.8286  155.6338 O   0  0  0  0  0  0  0  0  0  0  0  0
  152.4514  141.9803  159.0366 C   0  0  0  0  0  0  0  0  0  0  0  0
  154.3973  142.1011  161.0907 H   0  0  0  0  0  0  0  0  0  0  0  0
  152.8612  141.6456  161.8392 H   0  0  0  0  0  0  0  0  0  0  0  0
  153.5447  143.2481  162.1289 H   0  0  0  0  0  0  0  0  0  0  0  0
  152.3395  144.9328  160.9091 H   0  0  0  0  0  0  0  0  0  0  0  0
  150.4255  144.9181  159.1244 H   0  0  0  0  0  0  0  0  0  0  0  0
  151.8749  145.7603  158.6049 H   0  0  0  0  0  0  0  0  0  0  0  0
  150.9640  144.1357  156.8499 H   0  0  0  0  0  0  0  0  0  0  0  0
  152.6234  143.8855  157.2678 H   0  0  0  0  0  0  0  0  0  0  0  0
  149.4882  143.2795  156.9213 H   0  0  0  0  0  0  0  0  0  0  0  0
  147.7519  141.7460  155.9769 H   0  0  0  0  0  0  0  0  0  0  0  0
  147.8417  140.8452  157.4733 H   0  0  0  0  0  0  0  0  0  0  0  0
  147.6726  142.9668  159.6187 H   0  0  0  0  0  0  0  0  0  0  0  0
  145.2205  145.1435  161.1477 H   0  0  0  0  0  0  0  0  0  0  0  0
  147.3812  145.6249  162.1241 H   0  0  0  0  0  0  0  0  0  0  0  0
  147.3888  146.1131  160.4350 H   0  0  0  0  0  0  0  0  0  0  0  0
  148.2155  144.6388  160.9331 H   0  0  0  0  0  0  0  0  0  0  0  0
  145.8740  143.5941  162.8617 H   0  0  0  0  0  0  0  0  0  0  0  0
  146.7153  142.5562  161.7247 H   0  0  0  0  0  0  0  0  0  0  0  0
  144.9630  142.7213  161.6381 H   0  0  0  0  0  0  0  0  0  0  0  0
  153.3842  141.8535  158.4861 H   0  0  0  0  0  0  0  0  0  0  0  0
  152.2255  141.0120  159.4848 H   0  0  0  0  0  0  0  0  0  0  0  0
  1  2  1  0  0  0  0
  1 23  1  0  0  0  0
  1 24  1  0  0  0  0
  1 25  1  0  0  0  0
  2 22  1  0  0  0  0
  2  3  2  0  0  0  0
  3  4  1  0  0  0  0
  3 26  1  0  0  0  0
  4  5  1  0  0  0  0
  4 27  1  0  0  0  0
  4 28  1  0  0  0  0
  5  6  1  0  0  0  0
  5 29  1  0  0  0  0
  5 30  1  0  0  0  0
  6  7  1  0  0  0  0
  6 22  1  0  0  0  0
  7  8  2  0  0  0  0
  7  9  1  0  0  0  0
  9 10  1  0  0  0  0
  9 31  1  0  0  0  0
 10 11  1  0  0  0  0
 10 32  1  0  0  0  0
 10 33  1  0  0  0  0
 11 20  1  0  0  0  0
 11 12  2  0  0  0  0
 12 13  1  0  0  0  0
 12 34  1  0  0  0  0
 13 14  1  0  0  0  0
 13 17  1  0  0  0  0
 14 15  1  0  0  0  0
 14 16  1  0  0  0  0
 14 35  1  0  0  0  0
 15 36  1  0  0  0  0
 15 37  1  0  0  0  0
 15 38  1  0  0  0  0
 16 39  1  0  0  0  0
 16 40  1  0  0  0  0
 16 41  1  0  0  0  0
 17 18  2  0  0  0  0
 17 19  1  0  0  0  0
 19 20  1  0  0  0  0
 20 21  2  0  0  0  0
 22 42  1  0  0  0  0
 22 43  1  0  0  0  0
M  CHG  1  19  -1
M  END
> <s_m_source_file>
AV-unprocessed.smi

> <i_m_source_file_index>
5

> <i_lp_mmshare_version>
43012

> <i_f3d_flags>
0

> <s_epik_input>
W0NIM11DMT1bQ0hdW0NIMl1bQ0gyXU4oW0NIMl0xKUMoPU8pW05IXVtDSDJdYzJbY0hdbihbQ0hdKFtDSDNdKVtDSDNdKWMoPU8pW25IXWMyPU8=

> <s_epik_cmdline>
J2VwaWtfcHl0aG9uJywgJy1waCcsICc3LjAnLCAnLXRuJywgJzgnLCAnLW1hJywgJzIwMCcsICctbWV0YWxfYmluZGluZycsICctaW1hZScsICc8aW5maWxlLm1hZT4nLCAnLW9tYWUnLCAnPG91dGZpbGUubWFlPic=

> <r_lp_tautomer_probability>
0.999537

> <r_epik_Ionization_Penalty>
3.83548

> <r_epik_Ionization_Penalty_Charging>
1.96903e-07

> <r_epik_Ionization_Penalty_Neutral>
3.83548

> <r_epik_State_Penalty>
3.83512

> <r_epik_Charging_Adjusted_Penalty>
3.83512

> <i_epik_Tot_Q>
-1

> <i_epik_Tot_abs_Q>
1

> <r_epik_Metal_State_Penalty>
0.576105

> <b_epik_Metal_Only>
1

> <s_lp_Force_Field>
OPLS_2005

> <r_lp_Energy>
38.6384

> <b_lp_Chiralities_Consistent>
1

> <s_lp_Variant>
AV-unprocessed.smi:5-2

> <Gold.Version>
5.8.1

> <Gold.Id.Protein>
6NUR|6NUR_protein|mol2

> <Gold.PLP.Fitness>
45.9759

> <Gold.PLP.PLP>
-43.4255

> <Gold.PLP.part.hbond>
-1.0000

> <Gold.PLP.part.metal>
0.0000

> <Gold.PLP.part.buried>
-7.6232

> <Gold.PLP.part.nonpolar>
-35.3158

> <Gold.PLP.part.repulsive>
0.3800

> <Gold.PLP.ligand.clash>
0.0000

> <Gold.PLP.ligand.torsion>
0.1128

> <Gold.PLP.Chemscore.Hbond>
0.8960

> <Gold.PLP.Chemscore.CHOScore>
0.0000

> <Gold.PLP.Chemscore.Metal>
0.0000

> <Gold.Chemscore.Hbonds>
donor molecule, donor type, donor heavy atom, donor atom, acceptor molecule, acceptor atom, score
      L1  H     9    31       P1  8028  0.88

> <Gold.PLP.Chemscore.Internal.Correction>
0.0880

> <Gold.Rescore>
     Score         DG    S(hbond)    S(metal)    S(lipo)     H(rot)  DE(clash)    DE(int)     intcor
     15.99     -16.17       0.97        0.00      95.62       1.46       0.09       0.09       ----

> <Gold.Chemscore.Fitness>
15.9903

> <Gold.Chemscore.DG>
-16.1744

> <Gold.Chemscore.ZeroCoef>
-5.4800

> <Gold.Chemscore.Hbond>
0.9685

> <Gold.Chemscore.Metal>
0.0000

> <Gold.Chemscore.Lipo>
95.6172

> <Gold.Chemscore.Internal_Hbond>
0.0000

> <Gold.Chemscore.DEClash>
0.0926

> <Gold.Chemscore.DEInternal>
0.0915

> <Gold.Chemscore.Rot>
1.4561

> <Gold.Chemscore.Internal.Correction>
   9.000000E+99

> <Gold.Chemscore.Hbonds>
donor molecule, donor type, donor heavy atom, donor atom, acceptor molecule, acceptor atom, score
      L1  H     9    31       P1  8028  0.82

> <Gold.Chemscore.Hbond.Weighted>
-3.2348

> <Gold.Chemscore.Metal.Weighted>
-0.0000

> <Gold.Chemscore.Lipo.Weighted>
-11.1872

> <Gold.Chemscore.Internal_Hbond.Weighted>
0.0000

> <Gold.Chemscore.DEClash.Weighted>
0.0926

> <Gold.Chemscore.DEInternal.Weighted>
0.0915

> <Gold.Chemscore.Rot.Weighted>
3.7276

> <Gold.Chemscore.Internal.Correction.Weighted>
   9.000000E+99

> <Gold.Protein.RotatedTorsions>
[ 6907 6896 6895 6894 ] final  178.21 input  -60.11 | X-H torsion
[ 7974 7965 7964 7962 ] final   67.37 input  175.53 | X-H torsion
[ 8008 7997 7996 7995 ] final   85.70 input   59.86 | X-H torsion
[ 10167 10162 10161 10158 ] final   20.18 input  -65.29 | X-H torsion
[ 10718 10713 10712 10709 ] final   65.23 input   66.30 | X-H torsion
[ 10763 10752 10751 10750 ] final   78.65 input  -60.55 | X-H torsion
[ 11005 11000 10999 10996 ] final  -91.49 input  -57.11 | X-H torsion

> <Gold.Protein.ActiveResidues>
 VAL166  LYS551  ARG553  GLY616  TRP617  ASP618  TYR619  PRO620  LYS621  CYS622 
 ASP623  PHE694  ASN695  SER759  ASP760  ASP761  ALA762  ILE779  LEU786  VAL792 
 PHE793  MET794  SER795  GLU796  ALA797  LYS798  CYS799  TRP800  GLU811  SER814 

> <Gold.Protein.RotatedAtoms>
  151.6914  133.3311  159.3243 H   0  0  0  0  0  0  0  0  0  0  0  0  # atno 6907 bound_to 6896
  150.7777  134.6695  159.6393 H   0  0  0  0  0  0  0  0  0  0  0  0  # atno 6908 bound_to 6896
  152.3824  134.6572  160.0190 H   0  0  0  0  0  0  0  0  0  0  0  0  # atno 6909 bound_to 6896
  145.8154  139.3055  143.1074 H   0  0  0  0  0  0  0  0  0  0  0  0  # atno 7974 bound_to 7965
  155.9533  140.3399  155.6427 H   0  0  0  0  0  0  0  0  0  0  0  0  # atno 8008 bound_to 7997
  155.6892  140.0747  157.2473 H   0  0  0  0  0  0  0  0  0  0  0  0  # atno 8009 bound_to 7997
  154.4127  140.1660  156.2054 H   0  0  0  0  0  0  0  0  0  0  0  0  # atno 8010 bound_to 7997
  140.5523  143.9487  150.6586 H   0  0  0  0  0  0  0  0  0  0  0  0  # atno 10167 bound_to 10162
  157.6092  130.9203  149.9950 H   0  0  0  0  0  0  0  0  0  0  0  0  # atno 10718 bound_to 10713
  153.0891  135.4869  154.8654 H   0  0  0  0  0  0  0  0  0  0  0  0  # atno 10763 bound_to 10752
  154.7247  135.3047  154.8993 H   0  0  0  0  0  0  0  0  0  0  0  0  # atno 10764 bound_to 10752
  153.9647  135.6808  153.4799 H   0  0  0  0  0  0  0  0  0  0  0  0  # atno 10765 bound_to 10752
  141.1543  133.7759  156.9887 H   0  0  0  0  0  0  0  0  0  0  0  0  # atno 11005 bound_to 11000
  145.9732  140.8743  143.0152 LP  0  0  0  0  0  0  0  0  0  0  0  0  # atno 17320 bound_to 7965
  144.6753  140.1976  143.7390 LP  0  0  0  0  0  0  0  0  0  0  0  0  # atno 17321 bound_to 7965
  140.2916  143.3320  152.1057 LP  0  0  0  0  0  0  0  0  0  0  0  0  # atno 17342 bound_to 10162
  139.5032  144.6751  151.6147 LP  0  0  0  0  0  0  0  0  0  0  0  0  # atno 17343 bound_to 10162
  156.1189  130.3646  149.9921 LP  0  0  0  0  0  0  0  0  0  0  0  0  # atno 17370 bound_to 10713
  156.8005  130.9289  151.3646 LP  0  0  0  0  0  0  0  0  0  0  0  0  # atno 17371 bound_to 10713
  140.1017  134.9531  157.1933 LP  0  0  0  0  0  0  0  0  0  0  0  0  # atno 17394 bound_to 11000
  140.3309  134.2811  155.7228 LP  0  0  0  0  0  0  0  0  0  0  0  0  # atno 17395 bound_to 11000

$$$$
