AV-unprocessed.smi:3246|AV-procd|sdf|12411|dock5
  -GOLD-   2272018293D 1   1.00000     0.00000
 Structure written by MMmdl.
 36 37  0  0  0  0  0  0  0  0  2 V2000
  154.1718  139.4368  159.2221 O   0  0  0  0  0  0  0  0  0  0  0  0
  154.4693  139.4728  160.4157 C   0  0  0  0  0  0  0  0  0  0  0  0
  155.4782  138.4489  160.9620 C   0  0  0  0  0  0  0  0  0  0  0  0
  155.0605  137.7569  162.1841 N   0  0  0  0  0  0  0  0  0  0  0  0
  155.4611  138.2545  163.4900 C   0  0  0  0  0  0  0  0  0  0  0  0
  154.6620  137.4165  164.4982 C   0  0  0  0  0  0  0  0  0  0  0  0
  154.1010  136.2319  163.7041 C   0  0  0  0  0  0  0  0  0  0  0  0
  154.3240  136.6410  162.2583 C   0  0  0  0  0  0  0  0  0  0  0  0
  153.8652  136.0109  161.3069 O   0  0  0  0  0  0  0  0  0  0  0  0
  153.9507  140.3782  161.2633 N   0  0  0  0  0  0  0  0  0  0  0  0
  152.9857  141.4088  160.9019 C   0  0  0  0  0  0  0  0  0  0  0  0
  153.3871  142.1251  159.6023 C   0  0  0  0  0  0  0  0  0  0  0  0
  152.4337  143.2508  159.2534 C   0  0  0  0  0  0  0  0  0  0  0  0
  152.2943  144.3682  160.1062 C   0  0  0  0  0  0  0  0  0  0  0  0
  151.3962  145.3978  159.7551 C   0  0  0  0  0  0  0  0  0  0  0  0
  150.6577  145.2865  158.5589 C   0  0  0  0  0  0  0  0  0  0  0  0
  150.8166  144.2018  157.7689 N   0  3  0  0  0  0  0  0  0  0  0  0
  151.6660  143.1948  158.0699 C   0  0  0  0  0  0  0  0  0  0  0  0
  155.6857  137.7148  160.1818 H   0  0  0  0  0  0  0  0  0  0  0  0
  156.4209  138.9644  161.1498 H   0  0  0  0  0  0  0  0  0  0  0  0
  156.5337  138.1039  163.6194 H   0  0  0  0  0  0  0  0  0  0  0  0
  155.2499  139.3199  163.5919 H   0  0  0  0  0  0  0  0  0  0  0  0
  155.2831  137.0908  165.3333 H   0  0  0  0  0  0  0  0  0  0  0  0
  153.8424  138.0071  164.9100 H   0  0  0  0  0  0  0  0  0  0  0  0
  154.6542  135.3154  163.9113 H   0  0  0  0  0  0  0  0  0  0  0  0
  153.0445  136.0592  163.9117 H   0  0  0  0  0  0  0  0  0  0  0  0
  154.2415  140.3419  162.2299 H   0  0  0  0  0  0  0  0  0  0  0  0
  151.9906  140.9701  160.8072 H   0  0  0  0  0  0  0  0  0  0  0  0
  152.9318  142.1254  161.7218 H   0  0  0  0  0  0  0  0  0  0  0  0
  154.3976  142.5261  159.6931 H   0  0  0  0  0  0  0  0  0  0  0  0
  153.4115  141.4183  158.7715 H   0  0  0  0  0  0  0  0  0  0  0  0
  152.8671  144.4368  161.0198 H   0  0  0  0  0  0  0  0  0  0  0  0
  151.2762  146.2604  160.3942 H   0  0  0  0  0  0  0  0  0  0  0  0
  149.9499  146.0259  158.2134 H   0  0  0  0  0  0  0  0  0  0  0  0
  151.7043  142.3804  157.3606 H   0  0  0  0  0  0  0  0  0  0  0  0
  150.2720  144.1403  156.9079 H   0  0  0  0  0  0  0  0  0  0  0  0
  1  2  2  0  0  0  0
  2  3  1  0  0  0  0
  2 10  1  0  0  0  0
  3  4  1  0  0  0  0
  3 19  1  0  0  0  0
  3 20  1  0  0  0  0
  4  8  1  0  0  0  0
  4  5  1  0  0  0  0
  5  6  1  0  0  0  0
  5 21  1  0  0  0  0
  5 22  1  0  0  0  0
  6  7  1  0  0  0  0
  6 23  1  0  0  0  0
  6 24  1  0  0  0  0
  7  8  1  0  0  0  0
  7 25  1  0  0  0  0
  7 26  1  0  0  0  0
  8  9  2  0  0  0  0
 10 11  1  0  0  0  0
 10 27  1  0  0  0  0
 11 12  1  0  0  0  0
 11 28  1  0  0  0  0
 11 29  1  0  0  0  0
 12 13  1  0  0  0  0
 12 30  1  0  0  0  0
 12 31  1  0  0  0  0
 13 18  1  0  0  0  0
 13 14  2  0  0  0  0
 14 15  1  0  0  0  0
 14 32  1  0  0  0  0
 15 16  2  0  0  0  0
 15 33  1  0  0  0  0
 16 17  1  0  0  0  0
 16 34  1  0  0  0  0
 17 18  2  0  0  0  0
 17 36  1  0  0  0  0
 18 35  1  0  0  0  0
M  CHG  1  17   1
M  END
> <s_m_source_file>
AV-unprocessed.smi

> <i_m_source_file_index>
3246

> <i_lp_mmshare_version>
43012

> <i_f3d_flags>
0

> <s_epik_input>
Tz1DMVtDSDJdW0NIMl1bQ0gyXU4xW0NIMl1DKD1PKVtOSF1bQ0gyXVtDSDJdYzJbY0hdW2NIXVtjSF1uW2NIXTI=

> <s_epik_cmdline>
J2VwaWtfcHl0aG9uJywgJy1waCcsICc3LjAnLCAnLXRuJywgJzgnLCAnLW1hJywgJzIwMCcsICctbWV0YWxfYmluZGluZycsICctaW1hZScsICc8aW5maWxlLm1hZT4nLCAnLW9tYWUnLCAnPG91dGZpbGUubWFlPic=

> <r_epik_Ionization_Penalty>
2.27275

> <r_epik_Ionization_Penalty_Charging>
2.27275

> <r_epik_Ionization_Penalty_Neutral>
5.87859e-08

> <r_epik_State_Penalty>
2.42145

> <r_epik_Charging_Adjusted_Penalty>
4.69419

> <i_epik_Tot_Q>
1

> <i_epik_Tot_abs_Q>
1

> <r_epik_Metal_State_Penalty>
2.43419

> <b_epik_Metal_Only>
0

> <s_lp_Force_Field>
OPLS_2005

> <r_lp_Energy>
18.8936

> <b_lp_Chiralities_Consistent>
1

> <s_lp_Variant>
AV-unprocessed.smi:3246-2

> <Gold.Version>
5.8.1

> <Gold.Id.Protein>
6NUR|6NUR_protein|mol2

> <Gold.PLP.Fitness>
48.3632

> <Gold.PLP.PLP>
-38.8341

> <Gold.PLP.part.hbond>
-2.5055

> <Gold.PLP.part.metal>
0.0000

> <Gold.PLP.part.buried>
-4.1270

> <Gold.PLP.part.nonpolar>
-33.5353

> <Gold.PLP.part.repulsive>
0.0651

> <Gold.PLP.ligand.clash>
0.0000

> <Gold.PLP.ligand.torsion>
0.5721

> <Gold.PLP.Chemscore.Hbond>
3.5525

> <Gold.PLP.Chemscore.CHOScore>
0.0000

> <Gold.PLP.Chemscore.Metal>
0.0000

> <Gold.Chemscore.Hbonds>
donor molecule, donor type, donor heavy atom, donor atom, acceptor molecule, acceptor atom, score
      L1  H    17    36       P1  8028  2.00
      P1  H  6896  6909       L1     9  0.32
      P1  H  7997  8010       L1     1  0.67

> <Gold.PLP.Chemscore.Internal.Correction>
0.0158

> <Gold.Rescore>
     Score         DG    S(hbond)    S(metal)    S(lipo)     H(rot)  DE(clash)    DE(int)     intcor
     20.47     -22.72       2.93        0.00     106.52       1.96       0.21       2.03       ----

> <Gold.Chemscore.Fitness>
20.4744

> <Gold.Chemscore.DG>
-22.7157

> <Gold.Chemscore.ZeroCoef>
-5.4800

> <Gold.Chemscore.Hbond>
2.9296

> <Gold.Chemscore.Metal>
0.0000

> <Gold.Chemscore.Lipo>
106.5211

> <Gold.Chemscore.Internal_Hbond>
0.0000

> <Gold.Chemscore.DEClash>
0.2113

> <Gold.Chemscore.DEInternal>
2.0300

> <Gold.Chemscore.Rot>
1.9579

> <Gold.Chemscore.Internal.Correction>
   9.000000E+99

> <Gold.Chemscore.Hbonds>
donor molecule, donor type, donor heavy atom, donor atom, acceptor molecule, acceptor atom, score
      L1  H    17    36       P1  8028  0.93
      P1  H  6896  6909       L1     9  0.32
      P1  H  7997  8010       L1     1  0.67

> <Gold.Chemscore.Hbond.Weighted>
-9.7848

> <Gold.Chemscore.Metal.Weighted>
-0.0000

> <Gold.Chemscore.Lipo.Weighted>
-12.4630

> <Gold.Chemscore.Internal_Hbond.Weighted>
0.0000

> <Gold.Chemscore.DEClash.Weighted>
0.2113

> <Gold.Chemscore.DEInternal.Weighted>
2.0300

> <Gold.Chemscore.Rot.Weighted>
5.0121

> <Gold.Chemscore.Internal.Correction.Weighted>
   9.000000E+99

> <Gold.Protein.RotatedTorsions>
[ 6907 6896 6895 6894 ] final  168.49 input  -60.11 | X-H torsion
[ 7974 7965 7964 7962 ] final   79.95 input  175.53 | X-H torsion
[ 8008 7997 7996 7995 ] final    8.32 input   59.86 | X-H torsion
[ 10167 10162 10161 10158 ] final  -93.10 input  -65.29 | X-H torsion
[ 10718 10713 10712 10709 ] final  136.75 input   66.30 | X-H torsion
[ 10763 10752 10751 10750 ] final  -16.43 input  -60.55 | X-H torsion
[ 11005 11000 10999 10996 ] final   18.33 input  -57.11 | X-H torsion

> <Gold.Protein.ActiveResidues>
 VAL166  LYS551  ARG553  GLY616  TRP617  ASP618  TYR619  PRO620  LYS621  CYS622 
 ASP623  PHE694  ASN695  SER759  ASP760  ASP761  ALA762  ILE779  LEU786  VAL792 
 PHE793  MET794  SER795  GLU796  ALA797  LYS798  CYS799  TRP800  GLU811  SER814 

> <Gold.Protein.RotatedAtoms>
  151.8468  133.3433  159.3660 H   0  0  0  0  0  0  0  0  0  0  0  0  # atno 6907 bound_to 6896
  150.7218  134.5338  159.5723 H   0  0  0  0  0  0  0  0  0  0  0  0  # atno 6908 bound_to 6896
  152.2823  134.7815  160.0445 H   0  0  0  0  0  0  0  0  0  0  0  0  # atno 6909 bound_to 6896
  145.6576  139.2463  143.1941 H   0  0  0  0  0  0  0  0  0  0  0  0  # atno 7974 bound_to 7965
  154.7653  140.2792  155.6181 H   0  0  0  0  0  0  0  0  0  0  0  0  # atno 8008 bound_to 7997
  156.2923  140.2652  156.2370 H   0  0  0  0  0  0  0  0  0  0  0  0  # atno 8009 bound_to 7997
  154.9966  140.0373  157.2332 H   0  0  0  0  0  0  0  0  0  0  0  0  # atno 8010 bound_to 7997
  140.3281  143.3010  151.9972 H   0  0  0  0  0  0  0  0  0  0  0  0  # atno 10167 bound_to 10162
  157.4434  131.1059  151.0117 H   0  0  0  0  0  0  0  0  0  0  0  0  # atno 10718 bound_to 10713
  153.5585  135.7010  153.5558 H   0  0  0  0  0  0  0  0  0  0  0  0  # atno 10763 bound_to 10752
  153.3451  135.4010  155.1602 H   0  0  0  0  0  0  0  0  0  0  0  0  # atno 10764 bound_to 10752
  154.8651  135.3751  154.5100 H   0  0  0  0  0  0  0  0  0  0  0  0  # atno 10765 bound_to 10752
  140.4260  134.1469  155.7676 H   0  0  0  0  0  0  0  0  0  0  0  0  # atno 11005 bound_to 11000
  146.1152  140.7378  142.9484 LP  0  0  0  0  0  0  0  0  0  0  0  0  # atno 17320 bound_to 7965
  144.7100  140.4003  143.7088 LP  0  0  0  0  0  0  0  0  0  0  0  0  # atno 17321 bound_to 7965
  139.4861  144.6257  151.7169 LP  0  0  0  0  0  0  0  0  0  0  0  0  # atno 17342 bound_to 10162
  140.5422  144.0560  150.6093 LP  0  0  0  0  0  0  0  0  0  0  0  0  # atno 17343 bound_to 10162
  157.0972  130.5967  149.5452 LP  0  0  0  0  0  0  0  0  0  0  0  0  # atno 17370 bound_to 10713
  155.9957  130.5025  150.7471 LP  0  0  0  0  0  0  0  0  0  0  0  0  # atno 17371 bound_to 10713
  141.1765  133.8504  157.1404 LP  0  0  0  0  0  0  0  0  0  0  0  0  # atno 17394 bound_to 11000
  140.0167  134.9964  157.0507 LP  0  0  0  0  0  0  0  0  0  0  0  0  # atno 17395 bound_to 11000

$$$$
