AV-unprocessed.smi:3315|AV-procd|sdf|12751|dock6
  -GOLD-   2272019 93D 1   1.00000     0.00000
 Structure written by MMmdl.
 37 38  0  0  0  0  0  0  0  0  1 V2000
  145.0669  143.6018  159.4551 C   0  0  0  0  0  0  0  0  0  0  0  0
  144.8700  143.7165  158.0509 O   0  0  0  0  0  0  0  0  0  0  0  0
  145.4365  142.6937  157.2199 C   0  0  1  0  0  0  0  0  0  0  0  0
  146.9522  142.6037  157.4371 C   0  0  0  0  0  0  0  0  0  0  0  0
  144.5858  141.4111  157.2963 C   0  0  0  0  0  0  0  0  0  0  0  0
  143.6761  142.0394  156.2427 C   0  0  2  0  0  0  0  0  0  0  0  0
  143.1781  141.0646  155.2777 N   0  0  0  0  0  0  0  0  0  0  0  0
  142.3613  140.0473  155.5835 C   0  0  0  0  0  0  0  0  0  0  0  0
  141.9459  139.8290  156.7218 O   0  0  0  0  0  0  0  0  0  0  0  0
  142.0628  139.3163  154.4959 N   0  0  0  0  0  0  0  0  0  0  0  0
  141.2167  138.1804  154.4242 C   0  0  0  0  0  0  0  0  0  0  0  0
  140.4731  137.8987  153.2473 C   0  0  0  0  0  0  0  0  0  0  0  0
  139.8040  136.7547  153.5781 C   0  0  0  0  0  0  0  0  0  0  0  0
  140.1089  136.3688  154.8456 O   0  0  0  0  0  0  0  0  0  0  0  0
  141.0168  137.2889  155.3837 N   0  0  0  0  0  0  0  0  0  0  0  0
  144.8901  142.8781  155.7656 C   0  0  0  0  0  0  0  0  0  0  0  0
  144.5808  144.3139  155.3267 C   0  0  0  0  0  0  0  0  0  0  0  0
  145.7500  142.2737  154.6394 C   0  0  0  0  0  0  0  0  0  0  0  0
  144.4677  144.3593  159.9598 H   0  0  0  0  0  0  0  0  0  0  0  0
  146.1058  143.7782  159.7323 H   0  0  0  0  0  0  0  0  0  0  0  0
  144.7611  142.6300  159.8406 H   0  0  0  0  0  0  0  0  0  0  0  0
  147.4213  141.9096  156.7408 H   0  0  0  0  0  0  0  0  0  0  0  0
  147.2011  142.2433  158.4349 H   0  0  0  0  0  0  0  0  0  0  0  0
  147.4298  143.5744  157.3021 H   0  0  0  0  0  0  0  0  0  0  0  0
  145.1205  140.5280  156.9421 H   0  0  0  0  0  0  0  0  0  0  0  0
  144.0945  141.2138  158.2483 H   0  0  0  0  0  0  0  0  0  0  0  0
  142.8926  142.6483  156.7002 H   0  0  0  0  0  0  0  0  0  0  0  0
  143.4754  141.1743  154.3193 H   0  0  0  0  0  0  0  0  0  0  0  0
  142.4813  139.6067  153.6248 H   0  0  0  0  0  0  0  0  0  0  0  0
  140.4346  138.4420  152.3148 H   0  0  0  0  0  0  0  0  0  0  0  0
  139.1067  136.1241  153.0467 H   0  0  0  0  0  0  0  0  0  0  0  0
  144.1384  144.3431  154.3304 H   0  0  0  0  0  0  0  0  0  0  0  0
  145.4822  144.9268  155.3059 H   0  0  0  0  0  0  0  0  0  0  0  0
  143.8718  144.8019  155.9956 H   0  0  0  0  0  0  0  0  0  0  0  0
  145.2247  142.2798  153.6839 H   0  0  0  0  0  0  0  0  0  0  0  0
  146.0277  141.2393  154.8424 H   0  0  0  0  0  0  0  0  0  0  0  0
  146.6752  142.8337  154.4996 H   0  0  0  0  0  0  0  0  0  0  0  0
  1  2  1  0  0  0  0
  1 19  1  0  0  0  0
  1 20  1  0  0  0  0
  1 21  1  0  0  0  0
  2  3  1  0  0  0  0
  3 16  1  0  0  0  0
  3  4  1  0  0  0  0
  3  5  1  0  0  0  0
  4 22  1  0  0  0  0
  4 23  1  0  0  0  0
  4 24  1  0  0  0  0
  5  6  1  0  0  0  0
  5 25  1  0  0  0  0
  5 26  1  0  0  0  0
  6  7  1  0  0  0  0
  6 16  1  0  0  0  0
  6 27  1  0  0  0  0
  7  8  1  0  0  0  0
  7 28  1  0  0  0  0
  8  9  2  0  0  0  0
  8 10  1  0  0  0  0
 10 11  1  0  0  0  0
 10 29  1  0  0  0  0
 11 15  2  0  0  0  0
 11 12  1  0  0  0  0
 12 13  2  0  0  0  0
 12 30  1  0  0  0  0
 13 14  1  0  0  0  0
 13 31  1  0  0  0  0
 14 15  1  0  0  0  0
 16 17  1  0  0  0  0
 16 18  1  0  0  0  0
 17 32  1  0  0  0  0
 17 33  1  0  0  0  0
 17 34  1  0  0  0  0
 18 35  1  0  0  0  0
 18 36  1  0  0  0  0
 18 37  1  0  0  0  0
M  END
> <s_m_source_file>
AV-unprocessed.smi

> <i_m_source_file_index>
3315

> <i_lp_mmshare_version>
43012

> <i_f3d_flags>
0

> <s_epik_input>
W0NIM11PW0NAQF0xKFtDSDNdKVtDSDJdW0NASF0oQzEoW0NIM10pW0NIM10pW05IXUMoPU8pW05IXWMyW2NIXVtjSF1vbjI=

> <s_epik_cmdline>
J2VwaWtfcHl0aG9uJywgJy1waCcsICc3LjAnLCAnLXRuJywgJzgnLCAnLW1hJywgJzIwMCcsICctbWV0YWxfYmluZGluZycsICctaW1hZScsICc8aW5maWxlLm1hZT4nLCAnLW9tYWUnLCAnPG91dGZpbGUubWFlPic=

> <r_lp_tautomer_probability>
1

> <r_epik_Ionization_Penalty>
2.28875e-05

> <r_epik_Ionization_Penalty_Charging>
0

> <r_epik_Ionization_Penalty_Neutral>
2.28875e-05

> <r_epik_State_Penalty>
-0

> <r_epik_Charging_Adjusted_Penalty>
0

> <i_epik_Tot_Q>
0

> <i_epik_Tot_abs_Q>
0

> <r_epik_Metal_State_Penalty>
-0

> <b_epik_Metal_Only>
0

> <s_lp_Force_Field>
OPLS_2005

> <r_lp_Energy>
22.1239

> <b_lp_Chiralities_Consistent>
1

> <s_lp_Variant>
AV-unprocessed.smi:3315-3

> <Gold.Version>
5.8.1

> <Gold.Id.Protein>
6NUR|6NUR_protein|mol2

> <Gold.PLP.Fitness>
31.2063

> <Gold.PLP.PLP>
-19.7110

> <Gold.PLP.part.hbond>
-3.0000

> <Gold.PLP.part.metal>
0.0000

> <Gold.PLP.part.buried>
-4.9500

> <Gold.PLP.part.nonpolar>
-12.1014

> <Gold.PLP.part.repulsive>
0.1534

> <Gold.PLP.ligand.clash>
0.0000

> <Gold.PLP.ligand.torsion>
0.4065

> <Gold.PLP.Chemscore.Hbond>
3.0000

> <Gold.PLP.Chemscore.CHOScore>
0.9788

> <Gold.PLP.Chemscore.Metal>
0.0000

> <Gold.Chemscore.Hbonds>
donor molecule, donor type, donor heavy atom, donor atom, acceptor molecule, acceptor atom, score
      L1  H     7    28       P1 10175  1.00
      L1  H    10    29       P1 10175  1.00
      P1  H 11000 11005       L1    14  1.00
      L1  C    13    31       P1 10187  1.00

> <Gold.PLP.Chemscore.Internal.Correction>
0.3721

> <Gold.Rescore>
     Score         DG    S(hbond)    S(metal)    S(lipo)     H(rot)  DE(clash)    DE(int)     intcor
     13.93     -15.32       2.71        0.00      35.14       1.30       0.01       1.38       ----

> <Gold.Chemscore.Fitness>
13.9261

> <Gold.Chemscore.DG>
-15.3183

> <Gold.Chemscore.ZeroCoef>
-5.4800

> <Gold.Chemscore.Hbond>
2.7141

> <Gold.Chemscore.Metal>
0.0000

> <Gold.Chemscore.Lipo>
35.1357

> <Gold.Chemscore.Internal_Hbond>
0.0000

> <Gold.Chemscore.DEClash>
0.0093

> <Gold.Chemscore.DEInternal>
1.3829

> <Gold.Chemscore.Rot>
1.3038

> <Gold.Chemscore.Internal.Correction>
   9.000000E+99

> <Gold.Chemscore.Hbonds>
donor molecule, donor type, donor heavy atom, donor atom, acceptor molecule, acceptor atom, score
      L1  H     7    28       P1 10175  0.47
      L1  H    10    29       P1 10175  0.99
      P1  H 11000 11005       L1    14  0.69

> <Gold.Chemscore.Hbond.Weighted>
-9.0652

> <Gold.Chemscore.Metal.Weighted>
-0.0000

> <Gold.Chemscore.Lipo.Weighted>
-4.1109

> <Gold.Chemscore.Internal_Hbond.Weighted>
0.0000

> <Gold.Chemscore.DEClash.Weighted>
0.0093

> <Gold.Chemscore.DEInternal.Weighted>
1.3829

> <Gold.Chemscore.Rot.Weighted>
3.3377

> <Gold.Chemscore.Internal.Correction.Weighted>
   9.000000E+99

> <Gold.Protein.RotatedTorsions>
[ 6907 6896 6895 6894 ] final -117.60 input  -60.11 | X-H torsion
[ 7974 7965 7964 7962 ] final  139.05 input  175.53 | X-H torsion
[ 8008 7997 7996 7995 ] final   85.43 input   59.86 | X-H torsion
[ 10167 10162 10161 10158 ] final   14.42 input  -65.29 | X-H torsion
[ 10718 10713 10712 10709 ] final   55.75 input   66.30 | X-H torsion
[ 10763 10752 10751 10750 ] final -115.94 input  -60.55 | X-H torsion
[ 11005 11000 10999 10996 ] final   71.13 input  -57.11 | X-H torsion

> <Gold.Protein.ActiveResidues>
 VAL166  LYS551  ARG553  GLY616  TRP617  ASP618  TYR619  PRO620  LYS621  CYS622 
 ASP623  PHE694  ASN695  SER759  ASP760  ASP761  ALA762  ILE779  LEU786  VAL792 
 PHE793  MET794  SER795  GLU796  ALA797  LYS798  CYS799  TRP800  GLU811  SER814 

> <Gold.Protein.RotatedAtoms>
  150.8150  133.8353  159.3164 H   0  0  0  0  0  0  0  0  0  0  0  0  # atno 6907 bound_to 6896
  151.6128  135.1037  160.0094 H   0  0  0  0  0  0  0  0  0  0  0  0  # atno 6908 bound_to 6896
  152.4242  133.7126  159.6544 H   0  0  0  0  0  0  0  0  0  0  0  0  # atno 6909 bound_to 6896
  144.9315  139.5041  143.5615 H   0  0  0  0  0  0  0  0  0  0  0  0  # atno 7974 bound_to 7965
  155.9499  140.3401  155.6399 H   0  0  0  0  0  0  0  0  0  0  0  0  # atno 8008 bound_to 7997
  155.6933  140.0751  157.2458 H   0  0  0  0  0  0  0  0  0  0  0  0  # atno 8009 bound_to 7997
  154.4120  140.1653  156.2098 H   0  0  0  0  0  0  0  0  0  0  0  0  # atno 8010 bound_to 7997
  140.5936  143.8745  150.6897 H   0  0  0  0  0  0  0  0  0  0  0  0  # atno 10167 bound_to 10162
  157.5372  130.8672  149.8770 H   0  0  0  0  0  0  0  0  0  0  0  0  # atno 10718 bound_to 10713
  154.8500  135.4363  154.1742 H   0  0  0  0  0  0  0  0  0  0  0  0  # atno 10763 bound_to 10752
  153.2848  135.6956  153.7356 H   0  0  0  0  0  0  0  0  0  0  0  0  # atno 10764 bound_to 10752
  153.6546  135.3445  155.3084 H   0  0  0  0  0  0  0  0  0  0  0  0  # atno 10765 bound_to 10752
  139.9560  134.7143  156.0752 H   0  0  0  0  0  0  0  0  0  0  0  0  # atno 11005 bound_to 11000
  146.3249  139.8269  142.8916 LP  0  0  0  0  0  0  0  0  0  0  0  0  # atno 17320 bound_to 7965
  145.3134  141.0225  143.3541 LP  0  0  0  0  0  0  0  0  0  0  0  0  # atno 17321 bound_to 7965
  140.2274  143.3762  152.1593 LP  0  0  0  0  0  0  0  0  0  0  0  0  # atno 17342 bound_to 10162
  139.5244  144.7083  151.5286 LP  0  0  0  0  0  0  0  0  0  0  0  0  # atno 17343 bound_to 10162
  156.0468  130.3726  150.1298 LP  0  0  0  0  0  0  0  0  0  0  0  0  # atno 17370 bound_to 10713
  156.9480  130.9765  151.3504 LP  0  0  0  0  0  0  0  0  0  0  0  0  # atno 17371 bound_to 10713
  141.1231  133.6607  156.3267 LP  0  0  0  0  0  0  0  0  0  0  0  0  # atno 17394 bound_to 11000
  140.5608  134.5936  157.5433 LP  0  0  0  0  0  0  0  0  0  0  0  0  # atno 17395 bound_to 11000

$$$$
