AV-unprocessed.smi:3302|AV-procd|sdf|12656|dock5
  -GOLD-   2272018593D 1   1.00000     0.00000
 Structure written by MMmdl.
 35 36  0  0  0  0  0  0  0  0  1 V2000
  151.2728  140.6416  155.5549 O   0  0  0  0  0  0  0  0  0  0  0  0
  150.5610  141.5705  155.9361 C   0  0  0  0  0  0  0  0  0  0  0  0
  151.1310  142.5965  156.9171 C   0  0  0  0  0  0  0  0  0  0  0  0
  151.2082  142.0214  158.2158 O   0  0  0  0  0  0  0  0  0  0  0  0
  152.0312  142.7343  159.1289 C   0  0  0  0  0  0  0  0  0  0  0  0
  152.4561  141.8252  160.3011 C   0  0  0  0  0  0  0  0  0  0  0  0
  153.2277  142.6150  161.3706 C   0  0  0  0  0  0  0  0  0  0  0  0
  152.4100  143.8138  161.8768 C   0  0  0  0  0  0  0  0  0  0  0  0
  151.9813  144.7236  160.7147 C   0  0  0  0  0  0  0  0  0  0  0  0
  151.2132  143.9322  159.6433 C   0  0  0  0  0  0  0  0  0  0  0  0
  149.3015  141.7782  155.5112 N   0  0  0  0  0  0  0  0  0  0  0  0
  148.5515  140.9686  154.6207 C   0  0  0  0  0  0  0  0  0  0  0  0
  148.9409  139.6238  154.4529 C   0  0  0  0  0  0  0  0  0  0  0  0
  148.2186  138.8178  153.5502 C   0  0  0  0  0  0  0  0  0  0  0  0
  147.1763  139.2703  152.8215 N   0  0  0  0  0  0  0  0  0  0  0  0
  146.8220  140.5653  152.9653 C   0  0  0  0  0  0  0  0  0  0  0  0
  147.4764  141.4577  153.8383 C   0  0  0  0  0  0  0  0  0  0  0  0
  147.0892  142.7550  153.8869 F   0  0  0  0  0  0  0  0  0  0  0  0
  152.1147  142.9124  156.5691 H   0  0  0  0  0  0  0  0  0  0  0  0
  150.4830  143.4738  156.9287 H   0  0  0  0  0  0  0  0  0  0  0  0
  152.9157  143.1171  158.6157 H   0  0  0  0  0  0  0  0  0  0  0  0
  151.5715  141.3729  160.7513 H   0  0  0  0  0  0  0  0  0  0  0  0
  153.0763  141.0023  159.9469 H   0  0  0  0  0  0  0  0  0  0  0  0
  153.4826  141.9603  162.2044 H   0  0  0  0  0  0  0  0  0  0  0  0
  154.1722  142.9667  160.9537 H   0  0  0  0  0  0  0  0  0  0  0  0
  151.5259  143.4555  162.4059 H   0  0  0  0  0  0  0  0  0  0  0  0
  152.9935  144.3838  162.6004 H   0  0  0  0  0  0  0  0  0  0  0  0
  151.3612  145.5381  161.0901 H   0  0  0  0  0  0  0  0  0  0  0  0
  152.8622  145.1856  160.2674 H   0  0  0  0  0  0  0  0  0  0  0  0
  150.9562  144.5899  158.8124 H   0  0  0  0  0  0  0  0  0  0  0  0
  150.2693  143.5791  160.0610 H   0  0  0  0  0  0  0  0  0  0  0  0
  148.8737  142.6498  155.7884 H   0  0  0  0  0  0  0  0  0  0  0  0
  149.7702  139.2117  155.0093 H   0  0  0  0  0  0  0  0  0  0  0  0
  148.4882  137.7820  153.4072 H   0  0  0  0  0  0  0  0  0  0  0  0
  145.9992  140.9056  152.3542 H   0  0  0  0  0  0  0  0  0  0  0  0
  1  2  2  0  0  0  0
  2  3  1  0  0  0  0
  2 11  1  0  0  0  0
  3  4  1  0  0  0  0
  3 19  1  0  0  0  0
  3 20  1  0  0  0  0
  4  5  1  0  0  0  0
  5 10  1  0  0  0  0
  5  6  1  0  0  0  0
  5 21  1  0  0  0  0
  6  7  1  0  0  0  0
  6 22  1  0  0  0  0
  6 23  1  0  0  0  0
  7  8  1  0  0  0  0
  7 24  1  0  0  0  0
  7 25  1  0  0  0  0
  8  9  1  0  0  0  0
  8 26  1  0  0  0  0
  8 27  1  0  0  0  0
  9 10  1  0  0  0  0
  9 28  1  0  0  0  0
  9 29  1  0  0  0  0
 10 30  1  0  0  0  0
 10 31  1  0  0  0  0
 11 12  1  0  0  0  0
 11 32  1  0  0  0  0
 12 17  1  0  0  0  0
 12 13  2  0  0  0  0
 13 14  1  0  0  0  0
 13 33  1  0  0  0  0
 14 15  2  0  0  0  0
 14 34  1  0  0  0  0
 15 16  1  0  0  0  0
 16 17  2  0  0  0  0
 16 35  1  0  0  0  0
 17 18  1  0  0  0  0
M  END
> <s_m_source_file>
AV-unprocessed.smi

> <i_m_source_file_index>
3302

> <i_lp_mmshare_version>
43012

> <i_f3d_flags>
0

> <s_epik_input>
RmMxW2NIXW5bY0hdW2NIXWMxW05IXUMoPU8pW0NIMl1PW0NIXTJbQ0gyXVtDSDJdW0NIMl1bQ0gyXVtDSDJdMg==

> <s_epik_cmdline>
J2VwaWtfcHl0aG9uJywgJy1waCcsICc3LjAnLCAnLXRuJywgJzgnLCAnLW1hJywgJzIwMCcsICctbWV0YWxfYmluZGluZycsICctaW1hZScsICc8aW5maWxlLm1hZT4nLCAnLW9tYWUnLCAnPG91dGZpbGUubWFlPic=

> <r_lp_tautomer_probability>
1

> <r_epik_Ionization_Penalty>
0.000106646

> <r_epik_Ionization_Penalty_Charging>
0

> <r_epik_Ionization_Penalty_Neutral>
0.000106646

> <r_epik_State_Penalty>
-0

> <r_epik_Charging_Adjusted_Penalty>
0

> <i_epik_Tot_Q>
0

> <i_epik_Tot_abs_Q>
0

> <r_epik_Metal_State_Penalty>
-0

> <b_epik_Metal_Only>
0

> <s_lp_Force_Field>
OPLS_2005

> <r_lp_Energy>
19.2883

> <b_lp_Chiralities_Consistent>
1

> <s_lp_Variant>
AV-unprocessed.smi:3302-1

> <Gold.Version>
5.8.1

> <Gold.Id.Protein>
6NUR|6NUR_protein|mol2

> <Gold.PLP.Fitness>
49.1581

> <Gold.PLP.PLP>
-39.8373

> <Gold.PLP.part.hbond>
-2.0000

> <Gold.PLP.part.metal>
0.0000

> <Gold.PLP.part.buried>
-2.3591

> <Gold.PLP.part.nonpolar>
-34.6677

> <Gold.PLP.part.repulsive>
0.9677

> <Gold.PLP.ligand.clash>
0.0000

> <Gold.PLP.ligand.torsion>
0.5114

> <Gold.PLP.Chemscore.Hbond>
1.5636

> <Gold.PLP.Chemscore.CHOScore>
1.8209

> <Gold.PLP.Chemscore.Metal>
0.0000

> <Gold.Chemscore.Hbonds>
donor molecule, donor type, donor heavy atom, donor atom, acceptor molecule, acceptor atom, score
      L1  H    11    32       P1  8028  0.87
      P1  H  7989  7998       L1     1  0.69
      L1  C    14    34       P1  7948  1.00
      L1  C    16    35       P1 10175  0.74

> <Gold.PLP.Chemscore.Internal.Correction>
0.1899

> <Gold.Rescore>
     Score         DG    S(hbond)    S(metal)    S(lipo)     H(rot)  DE(clash)    DE(int)     intcor
     17.02     -19.25       1.38        0.00     109.41       1.42       0.35       1.88       ----

> <Gold.Chemscore.Fitness>
17.0224

> <Gold.Chemscore.DG>
-19.2483

> <Gold.Chemscore.ZeroCoef>
-5.4800

> <Gold.Chemscore.Hbond>
1.3815

> <Gold.Chemscore.Metal>
0.0000

> <Gold.Chemscore.Lipo>
109.4088

> <Gold.Chemscore.Internal_Hbond>
0.0000

> <Gold.Chemscore.DEClash>
0.3473

> <Gold.Chemscore.DEInternal>
1.8785

> <Gold.Chemscore.Rot>
1.4245

> <Gold.Chemscore.Internal.Correction>
   9.000000E+99

> <Gold.Chemscore.Hbonds>
donor molecule, donor type, donor heavy atom, donor atom, acceptor molecule, acceptor atom, score
      L1  H    11    32       P1  8028  0.80
      P1  H  7989  7998       L1     1  0.44

> <Gold.Chemscore.Hbond.Weighted>
-4.6142

> <Gold.Chemscore.Metal.Weighted>
-0.0000

> <Gold.Chemscore.Lipo.Weighted>
-12.8008

> <Gold.Chemscore.Internal_Hbond.Weighted>
0.0000

> <Gold.Chemscore.DEClash.Weighted>
0.3473

> <Gold.Chemscore.DEInternal.Weighted>
1.8785

> <Gold.Chemscore.Rot.Weighted>
3.6468

> <Gold.Chemscore.Internal.Correction.Weighted>
   9.000000E+99

> <Gold.Protein.RotatedTorsions>
[ 6907 6896 6895 6894 ] final -105.62 input  -60.11 | X-H torsion
[ 7974 7965 7964 7962 ] final  -86.21 input  175.53 | X-H torsion
[ 8008 7997 7996 7995 ] final  160.47 input   59.86 | X-H torsion
[ 10167 10162 10161 10158 ] final  -89.21 input  -65.29 | X-H torsion
[ 10718 10713 10712 10709 ] final   20.62 input   66.30 | X-H torsion
[ 10763 10752 10751 10750 ] final -144.19 input  -60.55 | X-H torsion
[ 11005 11000 10999 10996 ] final  106.36 input  -57.11 | X-H torsion

> <Gold.Protein.ActiveResidues>
 VAL166  LYS551  ARG553  GLY616  TRP617  ASP618  TYR619  PRO620  LYS621  CYS622 
 ASP623  PHE694  ASN695  SER759  ASP760  ASP761  ALA762  ILE779  LEU786  VAL792 
 PHE793  MET794  SER795  GLU796  ALA797  LYS798  CYS799  TRP800  GLU811  SER814 

> <Gold.Protein.RotatedAtoms>
  150.7346  134.0099  159.3665 H   0  0  0  0  0  0  0  0  0  0  0  0  # atno 6907 bound_to 6896
  151.8058  135.0693  160.0415 H   0  0  0  0  0  0  0  0  0  0  0  0  # atno 6908 bound_to 6896
  152.3108  133.5715  159.5716 H   0  0  0  0  0  0  0  0  0  0  0  0  # atno 6909 bound_to 6896
  145.4830  140.9556  143.1854 H   0  0  0  0  0  0  0  0  0  0  0  0  # atno 7974 bound_to 7965
  156.2170  140.1803  156.7566 H   0  0  0  0  0  0  0  0  0  0  0  0  # atno 8008 bound_to 7997
  154.5806  140.0667  156.9127 H   0  0  0  0  0  0  0  0  0  0  0  0  # atno 8009 bound_to 7997
  155.2509  140.3329  155.4285 H   0  0  0  0  0  0  0  0  0  0  0  0  # atno 8010 bound_to 7997
  140.3671  143.2813  151.9545 H   0  0  0  0  0  0  0  0  0  0  0  0  # atno 10167 bound_to 10162
  157.1270  130.6574  149.5940 H   0  0  0  0  0  0  0  0  0  0  0  0  # atno 10718 bound_to 10713
  154.8438  135.3447  154.6307 H   0  0  0  0  0  0  0  0  0  0  0  0  # atno 10763 bound_to 10752
  153.6917  135.6974  153.5093 H   0  0  0  0  0  0  0  0  0  0  0  0  # atno 10764 bound_to 10752
  153.2590  135.4329  155.0830 H   0  0  0  0  0  0  0  0  0  0  0  0  # atno 10765 bound_to 10752
  139.8813  134.9366  156.5655 H   0  0  0  0  0  0  0  0  0  0  0  0  # atno 11005 bound_to 11000
  144.7878  139.6391  143.7126 LP  0  0  0  0  0  0  0  0  0  0  0  0  # atno 17320 bound_to 7965
  146.2330  139.5850  142.9543 LP  0  0  0  0  0  0  0  0  0  0  0  0  # atno 17321 bound_to 7965
  139.4807  144.5940  151.7722 LP  0  0  0  0  0  0  0  0  0  0  0  0  # atno 17342 bound_to 10162
  140.5070  144.1083  150.5985 LP  0  0  0  0  0  0  0  0  0  0  0  0  # atno 17343 bound_to 10162
  155.9816  130.4824  150.6836 LP  0  0  0  0  0  0  0  0  0  0  0  0  # atno 17370 bound_to 10713
  157.4426  131.0863  151.0928 LP  0  0  0  0  0  0  0  0  0  0  0  0  # atno 17371 bound_to 10713
  140.8138  133.8408  155.8833 LP  0  0  0  0  0  0  0  0  0  0  0  0  # atno 17394 bound_to 11000
  140.9482  134.1813  157.4747 LP  0  0  0  0  0  0  0  0  0  0  0  0  # atno 17395 bound_to 11000

$$$$
