#       Name:                AV-unprocessed.smi:6
#       Creating user name   scv26
#       Creation time:       Thu Mar 26 15:15:30 2020


#       File generated by GOLD software.
#

@<TRIPOS>MOLECULE
AV-unprocessed.smi:6
    43    44     1
SMALL
NO_CHARGES


@<TRIPOS>ATOM
      1 ****        -4.6632   1.7505   1.5163 C.3            1 S1                 0.0000
      2 ****        -3.8401   1.4826   0.2469 C.3            1 S1                 0.0000
      3 ****        -4.6483   1.6706  -1.0461 C.3            1 S1                 0.0000
      4 ****        -3.1425   0.1291   0.2933 C.ar           1 S1                 0.0000
      5 ****        -3.9212  -0.9579   0.3357 N.ar           1 S1                 0.0000
      6 ****        -3.2979  -2.1547   0.3799 C.ar           1 S1                 0.0000
      7 ****        -1.8924  -2.2609   0.3790 C.ar           1 S1                 0.0000
      8 ****        -1.1686  -1.0518   0.3278 C.ar           1 S1                 0.0000
      9 ****         0.2324  -1.0877   0.3239 N.pl3          1 S1                 0.0000
     10 ****         0.9842   0.1099  -0.0297 C.3            1 S1                 0.0000
     11 ****         2.4893  -0.0824   0.0677 C.2            1 S1                 0.0000
     12 ****         3.2771  -0.1277  -1.0367 C.2            1 S1                 0.0000
     13 ****         4.6544  -0.2744  -0.9892 N.am           1 S1                 0.0000
     14 ****         5.4808  -0.3280  -2.1639 C.3            1 S1                 0.0000
     15 ****         5.3073  -0.3727   0.2571 C.2            1 S1                 0.0000
     16 ****         6.5266  -0.5025   0.3701 O.2            1 S1                 0.0000
     17 ****         4.5000  -0.3136   1.3922 N.am           1 S1                 0.0000
     18 ****         3.1090  -0.1698   1.3955 C.2            1 S1                 0.0000
     19 ****         2.5077  -0.1261   2.4674 O.2            1 S1                 0.0000
     20 ****        -1.8053   0.1425   0.2860 N.ar           1 S1                 0.0000
     21 ****         4.9597  -0.3790   2.2889 H              1 S1                 0.0000
     22 ****        -4.0401   1.6795   2.4083 H              1 S1                 0.0000
     23 ****        -5.4791   1.0346   1.6214 H              1 S1                 0.0000
     24 ****        -5.0997   2.7493   1.4968 H              1 S1                 0.0000
     25 ****        -3.0591   2.2451   0.2280 H              1 S1                 0.0000
     26 ****        -4.0125   1.5553  -1.9245 H              1 S1                 0.0000
     27 ****        -5.0934   2.6648  -1.0890 H              1 S1                 0.0000
     28 ****        -5.4563   0.9423  -1.1209 H              1 S1                 0.0000
     29 ****        -3.9242  -3.0336   0.4164 H              1 S1                 0.0000
     30 ****        -1.4007  -3.2218   0.4153 H              1 S1                 0.0000
     31 ****         0.6897  -1.9832   0.2327 H              1 S1                 0.0000
     32 ****         0.7163   0.4062  -1.0446 H              1 S1                 0.0000
     33 ****         0.6974   0.9337   0.6254 H              1 S1                 0.0000
     34 ****         2.8024  -0.0463  -2.0044 H              1 S1                 0.0000
     35 ****         6.0056  -1.2855  -2.1586 H              1 S1                 0.0000
     36 ****         6.1686   0.5192  -2.1240 H              1 S1                 0.0000
     37 ****         4.8377  -0.2540  -3.0416 H              1 S1                 0.0000
     38 ****        -4.9187  -0.8873   0.3347 LP             1 S1                 0.0000
     39 ****         7.1029  -0.5428  -0.4461 LP             1 S1                 0.0000
     40 ****         6.9404  -0.5677   1.2781 LP             1 S1                 0.0000
     41 ****         1.5130  -0.0232   2.4789 LP             1 S1                 0.0000
     42 ****         3.0133  -0.1936   3.3275 LP             1 S1                 0.0000
     43 ****        -1.2951   1.0018   0.2510 LP             1 S1                 0.0000
@<TRIPOS>BOND
    1    1    2 1     
    2    1   22 1     
    3    1   23 1     
    4    1   24 1     
    5    2    3 1     
    6    2    4 1     
    7    2   25 1     
    8    3   26 1     
    9    3   27 1     
   10    3   28 1     
   11    4   20 ar    
   12    4    5 ar    
   13    5    6 ar    
   14    6    7 ar    
   15    6   29 1     
   16    7    8 ar    
   17    7   30 1     
   18    8    9 1     
   19    8   20 ar    
   20    9   10 1     
   21    9   31 1     
   22   10   11 1     
   23   10   32 1     
   24   10   33 1     
   25   11   18 1     
   26   11   12 2     
   27   12   13 1     
   28   12   34 1     
   29   13   14 1     
   30   13   15 1     
   31   14   35 1     
   32   14   36 1     
   33   14   37 1     
   34   15   16 2     
   35   15   17 1     
   36   17   21 1     
   37   17   18 1     
   38   18   19 2     
   39    5   38 1     
   40   16   39 1     
   41   16   40 1     
   42   19   41 1     
   43   19   42 1     
   44   20   43 1     
@<TRIPOS>SUBSTRUCTURE
      1 S1             1
@<TRIPOS>SET
LONE_PAIRS      STATIC     ATOMS    <user>   **** ""
6 38 39 40 41 42 43
DONOR_HYDROGENS      STATIC     ATOMS    <user>   **** ""
2 31 21
ATOM$BLUE        STATIC     ATOMS    COLORGROUP SYSTEM
6 38 39 40 41 42 43
ATOM$RED        STATIC     ATOMS    COLORGROUP SYSTEM
2 31 21
