AV-unprocessed.smi:1744|AV-procd|sdf|7026|dock6
  -GOLD-   22720 8243D 1   1.00000     0.00000
 Structure written by MMmdl.
 44 45  0  0  0  0  0  0  0  0  2 V2000
  151.1135  145.0375  159.5707 C   0  0  0  0  0  0  0  0  0  0  0  0
  152.4666  144.4893  159.1002 C   0  0  0  0  0  0  0  0  0  0  0  0
  152.5086  143.0407  159.1534 N   0  0  0  0  0  0  0  0  0  0  0  0
  151.8803  142.1369  158.3198 C   0  0  0  0  0  0  0  0  0  0  0  0
  152.2303  140.9026  158.7782 C   0  0  0  0  0  0  0  0  0  0  0  0
  151.8009  139.6772  158.2106 N   0  0  0  0  0  0  0  0  0  0  0  0
  151.9401  139.2801  156.9356 C   0  0  0  0  0  0  0  0  0  0  0  0
  152.4650  139.9418  156.0405 O   0  0  0  0  0  0  0  0  0  0  0  0
  151.4247  138.0565  156.7476 N   0  0  0  0  0  0  0  0  0  0  0  0
  151.4190  137.3272  155.4797 C   0  0  2  0  0  0  0  0  0  0  0  0
  151.1430  138.2587  154.2827 C   0  0  0  0  0  0  0  0  0  0  0  0
  149.6880  138.7588  154.2658 C   0  0  0  0  0  0  0  0  0  0  0  0
  148.7302  137.6208  154.2747 N   0  3  2  0  0  0  0  0  0  0  0  0
  147.3155  138.0485  154.1212 C   0  0  0  0  0  0  0  0  0  0  0  0
  147.1179  139.0810  153.0062 C   0  0  0  0  0  0  0  0  0  0  0  0
  147.3561  138.6719  151.7581 N   0  0  0  0  0  0  0  0  0  0  0  0
  146.7722  140.2327  153.2635 O   0  0  0  0  0  0  0  0  0  0  0  0
  148.9319  136.7460  155.4579 C   0  0  0  0  0  0  0  0  0  0  0  0
  150.3713  136.2010  155.5116 C   0  0  0  0  0  0  0  0  0  0  0  0
  153.0749  141.1304  159.9017 C   0  0  0  0  0  0  0  0  0  0  0  0
  153.2362  142.4271  160.1192 N   0  0  0  0  0  0  0  0  0  0  0  0
  151.1040  146.1269  159.5362 H   0  0  0  0  0  0  0  0  0  0  0  0
  150.9012  144.7345  160.5966 H   0  0  0  0  0  0  0  0  0  0  0  0
  150.3001  144.6787  158.9392 H   0  0  0  0  0  0  0  0  0  0  0  0
  152.6722  144.8090  158.0777 H   0  0  0  0  0  0  0  0  0  0  0  0
  153.2695  144.8850  159.7236 H   0  0  0  0  0  0  0  0  0  0  0  0
  151.2568  142.4452  157.4934 H   0  0  0  0  0  0  0  0  0  0  0  0
  151.3398  139.0380  158.8412 H   0  0  0  0  0  0  0  0  0  0  0  0
  151.0202  137.5884  157.5452 H   0  0  0  0  0  0  0  0  0  0  0  0
  152.4020  136.8702  155.3510 H   0  0  0  0  0  0  0  0  0  0  0  0
  151.8300  139.1057  154.2866 H   0  0  0  0  0  0  0  0  0  0  0  0
  151.3416  137.7173  153.3567 H   0  0  0  0  0  0  0  0  0  0  0  0
  149.5004  139.4032  155.1260 H   0  0  0  0  0  0  0  0  0  0  0  0
  149.5342  139.3720  153.3774 H   0  0  0  0  0  0  0  0  0  0  0  0
  146.6978  137.1881  153.8599 H   0  0  0  0  0  0  0  0  0  0  0  0
  146.9341  138.4310  155.0696 H   0  0  0  0  0  0  0  0  0  0  0  0
  147.2368  139.3076  150.9826 H   0  0  0  0  0  0  0  0  0  0  0  0
  147.6513  137.7202  151.5908 H   0  0  0  0  0  0  0  0  0  0  0  0
  148.7000  137.3023  156.3674 H   0  0  0  0  0  0  0  0  0  0  0  0
  148.2370  135.9063  155.4165 H   0  0  0  0  0  0  0  0  0  0  0  0
  150.5320  135.5407  154.6583 H   0  0  0  0  0  0  0  0  0  0  0  0
  150.5063  135.5830  156.4002 H   0  0  0  0  0  0  0  0  0  0  0  0
  153.5667  140.4261  160.5560 H   0  0  0  0  0  0  0  0  0  0  0  0
  148.9387  137.0544  153.4642 H   0  0  0  0  0  0  0  0  0  0  0  0
  1  2  1  0  0  0  0
  1 22  1  0  0  0  0
  1 23  1  0  0  0  0
  1 24  1  0  0  0  0
  2  3  1  0  0  0  0
  2 25  1  0  0  0  0
  2 26  1  0  0  0  0
  3 21  1  0  0  0  0
  3  4  1  0  0  0  0
  4  5  2  0  0  0  0
  4 27  1  0  0  0  0
  5  6  1  0  0  0  0
  5 20  1  0  0  0  0
  6  7  1  0  0  0  0
  6 28  1  0  0  0  0
  7  8  2  0  0  0  0
  7  9  1  0  0  0  0
  9 10  1  0  0  0  0
  9 29  1  0  0  0  0
 10 19  1  0  0  0  0
 10 11  1  0  0  0  0
 10 30  1  0  0  0  0
 11 12  1  0  0  0  0
 11 31  1  0  0  0  0
 11 32  1  0  0  0  0
 12 13  1  0  0  0  0
 12 33  1  0  0  0  0
 12 34  1  0  0  0  0
 13 14  1  0  0  0  0
 13 18  1  0  0  0  0
 13 44  1  0  0  0  0
 14 15  1  0  0  0  0
 14 35  1  0  0  0  0
 14 36  1  0  0  0  0
 15 16  1  0  0  0  0
 15 17  2  0  0  0  0
 16 37  1  0  0  0  0
 16 38  1  0  0  0  0
 18 19  1  0  0  0  0
 18 39  1  0  0  0  0
 18 40  1  0  0  0  0
 19 41  1  0  0  0  0
 19 42  1  0  0  0  0
 20 21  2  0  0  0  0
 20 43  1  0  0  0  0
M  CHG  1  13   1
M  END
> <s_m_source_file>
AV-unprocessed.smi

> <i_m_source_file_index>
1744

> <i_lp_mmshare_version>
43012

> <i_f3d_flags>
0

> <s_epik_input>
W0NIM11bQ0gyXW4xW2NIXWMoW2NIXW4xKVtOSF1DKD1PKVtOSF1bQ0hdMltDSDJdW0NIMl1OKFtDSDJdW0NIMl0yKVtDSDJdQyg9TylbTkgyXQ==

> <s_epik_cmdline>
J2VwaWtfcHl0aG9uJywgJy1waCcsICc3LjAnLCAnLXRuJywgJzgnLCAnLW1hJywgJzIwMCcsICctbWV0YWxfYmluZGluZycsICctaW1hZScsICc8aW5maWxlLm1hZT4nLCAnLW9tYWUnLCAnPG91dGZpbGUubWFlPic=

> <r_lp_tautomer_probability>
1

> <r_epik_Ionization_Penalty>
0.839033

> <r_epik_Ionization_Penalty_Charging>
0.838844

> <r_epik_Ionization_Penalty_Neutral>
0.000189439

> <r_epik_State_Penalty>
0.8734

> <r_epik_Charging_Adjusted_Penalty>
1.71224

> <i_epik_Tot_Q>
1

> <i_epik_Tot_abs_Q>
1

> <r_epik_Metal_State_Penalty>
0.89072

> <b_epik_Metal_Only>
0

> <s_lp_Force_Field>
OPLS_2005

> <r_lp_Energy>
17.546

> <b_lp_Chiralities_Consistent>
1

> <s_lp_Variant>
AV-unprocessed.smi:1744-3

> <Gold.Version>
5.8.1

> <Gold.Id.Protein>
6NUR|6NUR_protein|mol2

> <Gold.PLP.Fitness>
49.2613

> <Gold.PLP.PLP>
-39.3015

> <Gold.PLP.part.hbond>
-4.0000

> <Gold.PLP.part.metal>
0.0000

> <Gold.PLP.part.buried>
-6.5251

> <Gold.PLP.part.nonpolar>
-29.1244

> <Gold.PLP.part.repulsive>
1.0006

> <Gold.PLP.ligand.clash>
0.0000

> <Gold.PLP.ligand.torsion>
1.0359

> <Gold.PLP.Chemscore.Hbond>
4.0000

> <Gold.PLP.Chemscore.CHOScore>
0.0000

> <Gold.PLP.Chemscore.Metal>
0.0000

> <Gold.Chemscore.Hbonds>
donor molecule, donor type, donor heavy atom, donor atom, acceptor molecule, acceptor atom, score
      L1  H    13    44       P1  7948  2.00
      L1  H    16    38       P1  7948  1.00
      P1  H  7997  8008       L1     8  1.00

> <Gold.PLP.Chemscore.Internal.Correction>
0.0317

> <Gold.Rescore>
     Score         DG    S(hbond)    S(metal)    S(lipo)     H(rot)  DE(clash)    DE(int)     intcor
     16.43     -19.24       2.95        0.00      82.00       2.22       0.50       2.31       ----

> <Gold.Chemscore.Fitness>
16.4256

> <Gold.Chemscore.DG>
-19.2383

> <Gold.Chemscore.ZeroCoef>
-5.4800

> <Gold.Chemscore.Hbond>
2.9491

> <Gold.Chemscore.Metal>
0.0000

> <Gold.Chemscore.Lipo>
82.0028

> <Gold.Chemscore.Internal_Hbond>
0.0000

> <Gold.Chemscore.DEClash>
0.5022

> <Gold.Chemscore.DEInternal>
2.3105

> <Gold.Chemscore.Rot>
2.2211

> <Gold.Chemscore.Internal.Correction>
   9.000000E+99

> <Gold.Chemscore.Hbonds>
donor molecule, donor type, donor heavy atom, donor atom, acceptor molecule, acceptor atom, score
      L1  H    13    44       P1  7948  1.00
      L1  H    16    38       P1  7948  0.94
      P1  H  7997  8008       L1     8  0.94

> <Gold.Chemscore.Hbond.Weighted>
-9.8500

> <Gold.Chemscore.Metal.Weighted>
-0.0000

> <Gold.Chemscore.Lipo.Weighted>
-9.5943

> <Gold.Chemscore.Internal_Hbond.Weighted>
0.0000

> <Gold.Chemscore.DEClash.Weighted>
0.5022

> <Gold.Chemscore.DEInternal.Weighted>
2.3105

> <Gold.Chemscore.Rot.Weighted>
5.6860

> <Gold.Chemscore.Internal.Correction.Weighted>
   9.000000E+99

> <Gold.Protein.RotatedTorsions>
[ 6907 6896 6895 6894 ] final  175.51 input  -60.11 | X-H torsion
[ 7974 7965 7964 7962 ] final  114.92 input  175.53 | X-H torsion
[ 8008 7997 7996 7995 ] final  -30.09 input   59.86 | X-H torsion
[ 10167 10162 10161 10158 ] final  -17.24 input  -65.29 | X-H torsion
[ 10718 10713 10712 10709 ] final  -89.39 input   66.30 | X-H torsion
[ 10763 10752 10751 10750 ] final  168.61 input  -60.55 | X-H torsion
[ 11005 11000 10999 10996 ] final    8.94 input  -57.11 | X-H torsion

> <Gold.Protein.ActiveResidues>
 VAL166  LYS551  ARG553  GLY616  TRP617  ASP618  TYR619  PRO620  LYS621  CYS622 
 ASP623  PHE694  ASN695  SER759  ASP760  ASP761  ALA762  ILE779  LEU786  VAL792 
 PHE793  MET794  SER795  GLU796  ALA797  LYS798  CYS799  TRP800  GLU811  SER814 

> <Gold.Protein.RotatedAtoms>
  151.7351  133.3319  159.3350 H   0  0  0  0  0  0  0  0  0  0  0  0  # atno 6907 bound_to 6896
  150.7596  134.6328  159.6205 H   0  0  0  0  0  0  0  0  0  0  0  0  # atno 6908 bound_to 6896
  152.3567  134.6932  160.0271 H   0  0  0  0  0  0  0  0  0  0  0  0  # atno 6909 bound_to 6896
  145.1984  139.2964  143.4331 H   0  0  0  0  0  0  0  0  0  0  0  0  # atno 7974 bound_to 7965
  154.4264  140.1800  156.1352 H   0  0  0  0  0  0  0  0  0  0  0  0  # atno 8008 bound_to 7997
  156.0036  140.3357  155.6845 H   0  0  0  0  0  0  0  0  0  0  0  0  # atno 8009 bound_to 7997
  155.6209  140.0659  157.2669 H   0  0  0  0  0  0  0  0  0  0  0  0  # atno 8010 bound_to 7997
  140.7244  143.5036  150.9838 H   0  0  0  0  0  0  0  0  0  0  0  0  # atno 10167 bound_to 10162
  155.9984  130.4871  150.5164 H   0  0  0  0  0  0  0  0  0  0  0  0  # atno 10718 bound_to 10713
  154.3711  135.2753  155.2266 H   0  0  0  0  0  0  0  0  0  0  0  0  # atno 10763 bound_to 10752
  154.4413  135.5953  153.6134 H   0  0  0  0  0  0  0  0  0  0  0  0  # atno 10764 bound_to 10752
  152.9838  135.6019  154.3942 H   0  0  0  0  0  0  0  0  0  0  0  0  # atno 10765 bound_to 10752
  140.5313  134.0464  155.7874 H   0  0  0  0  0  0  0  0  0  0  0  0  # atno 11005 bound_to 11000
  146.3422  140.2220  142.8591 LP  0  0  0  0  0  0  0  0  0  0  0  0  # atno 17320 bound_to 7965
  144.9972  140.8599  143.5304 LP  0  0  0  0  0  0  0  0  0  0  0  0  # atno 17321 bound_to 7965
  139.8746  143.7149  152.3163 LP  0  0  0  0  0  0  0  0  0  0  0  0  # atno 17342 bound_to 10162
  139.7409  144.7559  151.0653 LP  0  0  0  0  0  0  0  0  0  0  0  0  # atno 17343 bound_to 10162
  157.3131  131.0667  151.1986 LP  0  0  0  0  0  0  0  0  0  0  0  0  # atno 17370 bound_to 10713
  157.2925  130.6803  149.6122 LP  0  0  0  0  0  0  0  0  0  0  0  0  # atno 17371 bound_to 10713
  141.1280  133.9351  157.2596 LP  0  0  0  0  0  0  0  0  0  0  0  0  # atno 17394 bound_to 11000
  139.9553  135.0167  156.9109 LP  0  0  0  0  0  0  0  0  0  0  0  0  # atno 17395 bound_to 11000

$$$$
