AV-unprocessed.smi:838|AV-procd|sdf|3909|dock8
  -GOLD-   22720 1373D 1   1.00000     0.00000
 Structure written by MMmdl.
 46 47  0  0  0  0  0  0  0  0  2 V2000
  150.5288  141.3881  157.9653 C   0  0  0  0  0  0  0  0  0  0  0  0
  150.7449  140.2198  157.0006 C   0  0  0  0  0  0  0  0  0  0  0  0
  151.1868  139.1661  157.4579 O   0  0  0  0  0  0  0  0  0  0  0  0
  150.4469  140.3784  155.6885 N   0  0  0  0  0  0  0  0  0  0  0  0
  149.8394  141.5711  155.0905 C   0  0  0  0  0  0  0  0  0  0  0  0
  148.4247  141.2190  154.5951 C   0  0  0  0  0  0  0  0  0  0  0  0
  148.4460  140.0669  153.6537 N   0  3  0  0  0  0  0  0  0  0  0  0
  147.0899  139.7268  153.1557 C   0  0  0  0  0  0  0  0  0  0  0  0
  146.4709  138.5291  153.9021 C   0  0  0  0  0  0  0  0  0  0  0  0
  146.7303  137.2739  153.2064 N   0  0  0  0  0  0  0  0  0  0  0  0
  145.7984  136.3555  152.9126 C   0  0  0  0  0  0  0  0  0  0  0  0
  144.6090  136.4855  153.2040 O   0  0  0  0  0  0  0  0  0  0  0  0
  146.3351  135.3055  152.2662 N   0  0  0  0  0  0  0  0  0  0  0  0
  145.6843  134.1326  151.7891 C   0  0  0  0  0  0  0  0  0  0  0  0
  144.4751  134.1660  151.1745 N   0  0  0  0  0  0  0  0  0  0  0  0
  143.9123  133.0162  150.7504 C   0  0  0  0  0  0  0  0  0  0  0  0
  144.5199  131.7592  150.9112 C   0  0  0  0  0  0  0  0  0  0  0  0
  145.7732  131.7066  151.5447 C   0  0  0  0  0  0  0  0  0  0  0  0
  146.3697  132.9047  151.9924 C   0  0  0  0  0  0  0  0  0  0  0  0
  147.7255  132.8489  152.6778 C   0  0  0  0  0  0  0  0  0  0  0  0
  149.1862  138.8951  154.1997 C   0  0  0  0  0  0  0  0  0  0  0  0
  150.5831  139.2988  154.7065 C   0  0  0  0  0  0  0  0  0  0  0  0
  149.4791  141.6819  157.9894 H   0  0  0  0  0  0  0  0  0  0  0  0
  151.1326  142.2478  157.6737 H   0  0  0  0  0  0  0  0  0  0  0  0
  150.8185  141.1077  158.9785 H   0  0  0  0  0  0  0  0  0  0  0  0
  149.7878  142.4236  155.7660 H   0  0  0  0  0  0  0  0  0  0  0  0
  150.4561  141.9000  154.2527 H   0  0  0  0  0  0  0  0  0  0  0  0
  147.7837  140.9790  155.4451 H   0  0  0  0  0  0  0  0  0  0  0  0
  147.9868  142.0873  154.1014 H   0  0  0  0  0  0  0  0  0  0  0  0
  146.4478  140.6068  153.2188 H   0  0  0  0  0  0  0  0  0  0  0  0
  147.1518  139.4677  152.0975 H   0  0  0  0  0  0  0  0  0  0  0  0
  146.8958  138.4551  154.9035 H   0  0  0  0  0  0  0  0  0  0  0  0
  145.3946  138.6493  154.0293 H   0  0  0  0  0  0  0  0  0  0  0  0
  147.6852  137.0892  152.9349 H   0  0  0  0  0  0  0  0  0  0  0  0
  147.3283  135.3466  152.0924 H   0  0  0  0  0  0  0  0  0  0  0  0
  142.9491  133.1017  150.2696 H   0  0  0  0  0  0  0  0  0  0  0  0
  144.0371  130.8601  150.5581 H   0  0  0  0  0  0  0  0  0  0  0  0
  146.2676  130.7565  151.6845 H   0  0  0  0  0  0  0  0  0  0  0  0
  148.1049  131.8277  152.7255 H   0  0  0  0  0  0  0  0  0  0  0  0
  147.6531  133.2275  153.6978 H   0  0  0  0  0  0  0  0  0  0  0  0
  148.4540  133.4509  152.1340 H   0  0  0  0  0  0  0  0  0  0  0  0
  148.6130  138.4529  155.0163 H   0  0  0  0  0  0  0  0  0  0  0  0
  149.2940  138.1254  153.4365 H   0  0  0  0  0  0  0  0  0  0  0  0
  151.1971  139.6483  153.8750 H   0  0  0  0  0  0  0  0  0  0  0  0
  151.0968  138.4233  155.1059 H   0  0  0  0  0  0  0  0  0  0  0  0
  148.9704  140.3843  152.8511 H   0  0  0  0  0  0  0  0  0  0  0  0
  1  2  1  0  0  0  0
  1 23  1  0  0  0  0
  1 24  1  0  0  0  0
  1 25  1  0  0  0  0
  2  3  2  0  0  0  0
  2  4  1  0  0  0  0
  4 22  1  0  0  0  0
  4  5  1  0  0  0  0
  5  6  1  0  0  0  0
  5 26  1  0  0  0  0
  5 27  1  0  0  0  0
  6  7  1  0  0  0  0
  6 28  1  0  0  0  0
  6 29  1  0  0  0  0
  7  8  1  0  0  0  0
  7 21  1  0  0  0  0
  7 46  1  0  0  0  0
  8  9  1  0  0  0  0
  8 30  1  0  0  0  0
  8 31  1  0  0  0  0
  9 10  1  0  0  0  0
  9 32  1  0  0  0  0
  9 33  1  0  0  0  0
 10 11  1  0  0  0  0
 10 34  1  0  0  0  0
 11 12  2  0  0  0  0
 11 13  1  0  0  0  0
 13 14  1  0  0  0  0
 13 35  1  0  0  0  0
 14 19  1  0  0  0  0
 14 15  2  0  0  0  0
 15 16  1  0  0  0  0
 16 17  2  0  0  0  0
 16 36  1  0  0  0  0
 17 18  1  0  0  0  0
 17 37  1  0  0  0  0
 18 19  2  0  0  0  0
 18 38  1  0  0  0  0
 19 20  1  0  0  0  0
 20 39  1  0  0  0  0
 20 40  1  0  0  0  0
 20 41  1  0  0  0  0
 21 22  1  0  0  0  0
 21 42  1  0  0  0  0
 21 43  1  0  0  0  0
 22 44  1  0  0  0  0
 22 45  1  0  0  0  0
M  CHG  1   7   1
M  END
> <s_m_source_file>
AV-unprocessed.smi

> <i_m_source_file_index>
838

> <i_lp_mmshare_version>
43012

> <i_f3d_flags>
0

> <s_epik_input>
W0NIM11DKD1PKU4xW0NIMl1bQ0gyXU4oW0NIMl1bQ0gyXTEpW0NIMl1bQ0gyXVtOSF1DKD1PKVtOSF1jMm5bY0hdW2NIXVtjSF1jMltDSDNd

> <s_epik_cmdline>
J2VwaWtfcHl0aG9uJywgJy1waCcsICc3LjAnLCAnLXRuJywgJzgnLCAnLW1hJywgJzIwMCcsICctbWV0YWxfYmluZGluZycsICctaW1hZScsICc8aW5maWxlLm1hZT4nLCAnLW9tYWUnLCAnPG91dGZpbGUubWFlPic=

> <r_epik_Ionization_Penalty>
0.630076

> <r_epik_Ionization_Penalty_Charging>
0.630034

> <r_epik_Ionization_Penalty_Neutral>
4.2229e-05

> <r_epik_State_Penalty>
0.646805

> <r_epik_Charging_Adjusted_Penalty>
1.27684

> <i_epik_Tot_Q>
1

> <i_epik_Tot_abs_Q>
1

> <r_epik_Metal_State_Penalty>
0.64681

> <b_epik_Metal_Only>
0

> <s_lp_Force_Field>
OPLS_2005

> <r_lp_Energy>
41.2384

> <b_lp_Chiralities_Consistent>
1

> <s_lp_Variant>
AV-unprocessed.smi:838-2

> <Gold.Version>
5.8.1

> <Gold.Id.Protein>
6NUR|6NUR_protein|mol2

> <Gold.PLP.Fitness>
48.5551

> <Gold.PLP.PLP>
-38.8845

> <Gold.PLP.part.hbond>
-3.0000

> <Gold.PLP.part.metal>
0.0000

> <Gold.PLP.part.buried>
-3.6729

> <Gold.PLP.part.nonpolar>
-32.0114

> <Gold.PLP.part.repulsive>
0.4247

> <Gold.PLP.ligand.clash>
0.0000

> <Gold.PLP.ligand.torsion>
1.0864

> <Gold.PLP.Chemscore.Hbond>
2.9280

> <Gold.PLP.Chemscore.CHOScore>
1.0000

> <Gold.PLP.Chemscore.Metal>
0.0000

> <Gold.Chemscore.Hbonds>
donor molecule, donor type, donor heavy atom, donor atom, acceptor molecule, acceptor atom, score
      L1  H     7    46       P1  7957  0.98
      L1  H    10    34       P1  7948  1.00
      L1  H    13    35       P1  7948  1.00
      L1  C    16    36       P1 10186  1.00

> <Gold.PLP.Chemscore.Internal.Correction>
0.0593

> <Gold.Rescore>
     Score         DG    S(hbond)    S(metal)    S(lipo)     H(rot)  DE(clash)    DE(int)     intcor
     19.56     -20.70       2.87        0.00      82.77       1.58       0.04       1.10       ----

> <Gold.Chemscore.Fitness>
19.5587

> <Gold.Chemscore.DG>
-20.6998

> <Gold.Chemscore.ZeroCoef>
-5.4800

> <Gold.Chemscore.Hbond>
2.8675

> <Gold.Chemscore.Metal>
0.0000

> <Gold.Chemscore.Lipo>
82.7707

> <Gold.Chemscore.Internal_Hbond>
0.0000

> <Gold.Chemscore.DEClash>
0.0396

> <Gold.Chemscore.DEInternal>
1.1015

> <Gold.Chemscore.Rot>
1.5788

> <Gold.Chemscore.Internal.Correction>
   9.000000E+99

> <Gold.Chemscore.Hbonds>
donor molecule, donor type, donor heavy atom, donor atom, acceptor molecule, acceptor atom, score
      L1  H     7    46       P1  7957  0.93
      L1  H    10    34       P1  7948  0.96
      L1  H    13    35       P1  7948  0.98

> <Gold.Chemscore.Hbond.Weighted>
-9.5773

> <Gold.Chemscore.Metal.Weighted>
-0.0000

> <Gold.Chemscore.Lipo.Weighted>
-9.6842

> <Gold.Chemscore.Internal_Hbond.Weighted>
0.0000

> <Gold.Chemscore.DEClash.Weighted>
0.0396

> <Gold.Chemscore.DEInternal.Weighted>
1.1015

> <Gold.Chemscore.Rot.Weighted>
4.0416

> <Gold.Chemscore.Internal.Correction.Weighted>
   9.000000E+99

> <Gold.Protein.RotatedTorsions>
[ 6907 6896 6895 6894 ] final -139.54 input  -60.11 | X-H torsion
[ 7974 7965 7964 7962 ] final   26.88 input  175.53 | X-H torsion
[ 8008 7997 7996 7995 ] final  111.61 input   59.86 | X-H torsion
[ 10167 10162 10161 10158 ] final    0.88 input  -65.29 | X-H torsion
[ 10718 10713 10712 10709 ] final   57.41 input   66.30 | X-H torsion
[ 10763 10752 10751 10750 ] final -167.34 input  -60.55 | X-H torsion
[ 11005 11000 10999 10996 ] final -104.24 input  -57.11 | X-H torsion

> <Gold.Protein.ActiveResidues>
 VAL166  LYS551  ARG553  GLY616  TRP617  ASP618  TYR619  PRO620  LYS621  CYS622 
 ASP623  PHE694  ASN695  SER759  ASP760  ASP761  ALA762  ILE779  LEU786  VAL792 
 PHE793  MET794  SER795  GLU796  ALA797  LYS798  CYS799  TRP800  GLU811  SER814 

> <Gold.Protein.RotatedAtoms>
  151.0491  133.5639  159.2643 H   0  0  0  0  0  0  0  0  0  0  0  0  # atno 6907 bound_to 6896
  151.2657  135.0668  159.9125 H   0  0  0  0  0  0  0  0  0  0  0  0  # atno 6908 bound_to 6896
  152.5378  134.0229  159.8044 H   0  0  0  0  0  0  0  0  0  0  0  0  # atno 6909 bound_to 6896
  146.1814  139.7268  142.8897 H   0  0  0  0  0  0  0  0  0  0  0  0  # atno 7974 bound_to 7965
  156.2135  140.3016  155.9787 H   0  0  0  0  0  0  0  0  0  0  0  0  # atno 8008 bound_to 7997
  155.2663  140.0432  157.3019 H   0  0  0  0  0  0  0  0  0  0  0  0  # atno 8009 bound_to 7997
  154.5734  140.2355  155.8166 H   0  0  0  0  0  0  0  0  0  0  0  0  # atno 8010 bound_to 7997
  140.6708  143.7052  150.7920 H   0  0  0  0  0  0  0  0  0  0  0  0  # atno 10167 bound_to 10162
  157.5512  130.8767  149.8966 H   0  0  0  0  0  0  0  0  0  0  0  0  # atno 10718 bound_to 10713
  154.6742  135.2944  154.9701 H   0  0  0  0  0  0  0  0  0  0  0  0  # atno 10763 bound_to 10752
  154.0718  135.6617  153.4829 H   0  0  0  0  0  0  0  0  0  0  0  0  # atno 10764 bound_to 10752
  153.0506  135.5176  154.7753 H   0  0  0  0  0  0  0  0  0  0  0  0  # atno 10765 bound_to 10752
  141.1109  133.8707  157.1587 H   0  0  0  0  0  0  0  0  0  0  0  0  # atno 11005 bound_to 11000
  145.4065  141.0391  143.3041 LP  0  0  0  0  0  0  0  0  0  0  0  0  # atno 17320 bound_to 7965
  144.8322  139.5610  143.6938 LP  0  0  0  0  0  0  0  0  0  0  0  0  # atno 17321 bound_to 7965
  140.0738  143.5035  152.2566 LP  0  0  0  0  0  0  0  0  0  0  0  0  # atno 17342 bound_to 10162
  139.5976  144.7572  151.3248 LP  0  0  0  0  0  0  0  0  0  0  0  0  # atno 17343 bound_to 10162
  156.0578  130.3705  150.1050 LP  0  0  0  0  0  0  0  0  0  0  0  0  # atno 17370 bound_to 10713
  156.9222  130.9687  151.3546 LP  0  0  0  0  0  0  0  0  0  0  0  0  # atno 17371 bound_to 10713
  140.0003  135.0030  157.0174 LP  0  0  0  0  0  0  0  0  0  0  0  0  # atno 17394 bound_to 11000
  140.4777  134.1321  155.7212 LP  0  0  0  0  0  0  0  0  0  0  0  0  # atno 17395 bound_to 11000

$$$$
