#       Name:                AV-unprocessed.smi:249
#       Creating user name   scv26
#       Creation time:       Thu Mar 26 20:58:11 2020


#       File generated by GOLD software.
#

@<TRIPOS>MOLECULE
AV-unprocessed.smi:249
    72    75     1
SMALL
NO_CHARGES


@<TRIPOS>ATOM
      1 ****        -1.3730  -5.3286   2.2316 C.3            1 S1                 0.0000
      2 ****        -1.6353  -4.3392   1.0861 C.3            1 S1                 0.0000
      3 ****        -3.0460  -3.8520   1.0435 N.4            1 S1                 1.0000
      4 ****        -3.4547  -3.0594   2.2373 C.3            1 S1                 0.0000
      5 ****        -2.8120  -1.6596   2.2438 C.3            1 S1                 0.0000
      6 ****        -3.1521  -0.8880   0.9501 C.3            1 S1                 0.0000
      7 ****        -2.5964   0.4710   0.9083 N.3            1 S1                 0.0000
      8 ****        -3.1802   1.4067  -0.0458 C.3            1 S1                 0.0000
      9 ****        -1.2569   0.6037   1.0586 C.ar           1 S1                 0.0000
     10 ****        -0.7824   0.7668   2.3189 N.ar           1 S1                 0.0000
     11 ****         0.5301   0.9058   2.5284 C.ar           1 S1                 0.0000
     12 ****         1.5217   0.9150   1.6352 N.ar           1 S1                 0.0000
     13 ****         1.0472   0.7613   0.3659 C.ar           1 S1                 0.0000
     14 ****        -0.3157   0.5989  -0.0104 C.ar           1 S1                 0.0000
     15 ****        -0.4111   0.4566  -1.3900 N.2            1 S1                 0.0000
     16 ****         0.8235   0.5332  -1.8054 C.2            1 S1                 0.0000
     17 ****         1.7619   0.7352  -0.8188 N.pl3          1 S1                 0.0000
     18 ****         3.1977   0.8541  -0.9989 C.3            1 S1                 0.0000
     19 ****         3.7820   2.2450  -0.6374 C.3            1 S1                 0.0000
     20 ****         5.3262   2.1647  -0.6462 C.3            1 S1                 0.0000
     21 ****         5.8302   1.9514  -1.9497 O.3            1 S1                 0.0000
     22 ****         3.2405   3.4172  -1.5079 C.3            1 S1                 0.0000
     23 ****         3.9201   4.7559  -1.2649 C.3            1 S1                 0.0000
     24 ****         2.9219   5.7354  -1.8631 C.3            1 S1                 0.0000
     25 ****         1.6557   5.2055  -1.5043 O.3            1 S1                 0.0000
     26 ****         1.7701   3.8040  -1.2736 C.3            1 S1                 0.0000
     27 ****        -2.7818  -1.7404  -0.2843 C.3            1 S1                 0.0000
     28 ****        -3.4337  -3.1365  -0.2105 C.3            1 S1                 0.0000
     29 ****        -3.2021  -3.9619  -1.4891 C.3            1 S1                 0.0000
     30 ****        -0.3808  -5.7695   2.1328 H              1 S1                 0.0000
     31 ****        -2.0970  -6.1440   2.2240 H              1 S1                 0.0000
     32 ****        -1.4090  -4.8481   3.2087 H              1 S1                 0.0000
     33 ****        -0.9339  -3.5072   1.1418 H              1 S1                 0.0000
     34 ****        -1.4015  -4.8697   0.1652 H              1 S1                 0.0000
     35 ****        -4.5404  -2.9545   2.2250 H              1 S1                 0.0000
     36 ****        -3.2280  -3.5876   3.1620 H              1 S1                 0.0000
     37 ****        -3.1677  -1.1001   3.1097 H              1 S1                 0.0000
     38 ****        -1.7343  -1.7604   2.3686 H              1 S1                 0.0000
     39 ****        -4.2357  -0.7610   0.9382 H              1 S1                 0.0000
     40 ****        -2.7236   2.3935   0.0432 H              1 S1                 0.0000
     41 ****        -4.2475   1.5179   0.1454 H              1 S1                 0.0000
     42 ****        -3.0559   1.0639  -1.0727 H              1 S1                 0.0000
     43 ****         0.8285   1.0289   3.5591 H              1 S1                 0.0000
     44 ****         1.0834   0.4580  -2.8514 H              1 S1                 0.0000
     45 ****         3.6635   0.0840  -0.3828 H              1 S1                 0.0000
     46 ****         3.4372   0.6031  -2.0330 H              1 S1                 0.0000
     47 ****         3.5051   2.4575   0.3957 H              1 S1                 0.0000
     48 ****         5.7707   3.0731  -0.2402 H              1 S1                 0.0000
     49 ****         5.6665   1.3505  -0.0055 H              1 S1                 0.0000
     50 ****         6.7728   1.8985  -1.9029 H              1 S1                 0.0000
     51 ****         3.3656   3.1674  -2.5626 H              1 S1                 0.0000
     52 ****         4.0300   4.9423  -0.1956 H              1 S1                 0.0000
     53 ****         4.9031   4.8311  -1.7307 H              1 S1                 0.0000
     54 ****         3.0518   6.7524  -1.4931 H              1 S1                 0.0000
     55 ****         3.0057   5.7517  -2.9507 H              1 S1                 0.0000
     56 ****         1.0955   3.2647  -1.9371 H              1 S1                 0.0000
     57 ****         1.4643   3.6069  -0.2456 H              1 S1                 0.0000
     58 ****        -3.1096  -1.2386  -1.1948 H              1 S1                 0.0000
     59 ****        -1.7002  -1.8473  -0.3662 H              1 S1                 0.0000
     60 ****        -4.5130  -2.9875  -0.1483 H              1 S1                 0.0000
     61 ****        -3.6933  -3.4912  -2.3412 H              1 S1                 0.0000
     62 ****        -3.6110  -4.9681  -1.3922 H              1 S1                 0.0000
     63 ****        -2.1451  -4.0446  -1.7423 H              1 S1                 0.0000
     64 ****        -3.6114  -4.6889   1.0614 H              1 S1                 0.0000
     65 ****        -2.9551   0.7876   1.7864 LP             1 S1                 0.0000
     66 ****        -1.4158   0.7831   3.0925 LP             1 S1                 0.0000
     67 ****         2.4887   1.0210   1.8670 LP             1 S1                 0.0000
     68 ****        -1.2369   0.3255  -1.9385 LP             1 S1                 0.0000
     69 ****         5.5643   2.7116  -2.5425 LP             1 S1                 0.0000
     70 ****         5.4625   1.0974  -2.3177 LP             1 S1                 0.0000
     71 ****         1.0048   5.3684  -2.2458 LP             1 S1                 0.0000
     72 ****         1.3313   5.6542  -0.6715 LP             1 S1                 0.0000
@<TRIPOS>BOND
    1    1    2 1     
    2    1   30 1     
    3    1   31 1     
    4    1   32 1     
    5    2    3 1     
    6    2   33 1     
    7    2   34 1     
    8    3   28 1     
    9    3    4 1     
   10    3   64 1     
   11    4    5 1     
   12    4   35 1     
   13    4   36 1     
   14    5    6 1     
   15    5   37 1     
   16    5   38 1     
   17    6    7 1     
   18    6   27 1     
   19    6   39 1     
   20    7    8 1     
   21    7    9 1     
   22    8   40 1     
   23    8   41 1     
   24    8   42 1     
   25    9   14 ar    
   26    9   10 ar    
   27   10   11 ar    
   28   11   12 ar    
   29   11   43 1     
   30   12   13 ar    
   31   13   17 1     
   32   13   14 ar    
   33   14   15 1     
   34   15   16 2     
   35   16   17 1     
   36   16   44 1     
   37   17   18 1     
   38   18   19 1     
   39   18   45 1     
   40   18   46 1     
   41   19   20 1     
   42   19   22 1     
   43   19   47 1     
   44   20   21 1     
   45   20   48 1     
   46   20   49 1     
   47   21   50 1     
   48   22   26 1     
   49   22   23 1     
   50   22   51 1     
   51   23   24 1     
   52   23   52 1     
   53   23   53 1     
   54   24   25 1     
   55   24   54 1     
   56   24   55 1     
   57   25   26 1     
   58   26   56 1     
   59   26   57 1     
   60   27   28 1     
   61   27   58 1     
   62   27   59 1     
   63   28   29 1     
   64   28   60 1     
   65   29   61 1     
   66   29   62 1     
   67   29   63 1     
   68    7   65 1     
   69   10   66 1     
   70   12   67 1     
   71   15   68 1     
   72   21   69 1     
   73   21   70 1     
   74   25   71 1     
   75   25   72 1     
@<TRIPOS>SUBSTRUCTURE
      1 S1             1
@<TRIPOS>SET
LONE_PAIRS      STATIC     ATOMS    <user>   **** ""
8 65 66 67 68 69 70 71 72
DONOR_HYDROGENS      STATIC     ATOMS    <user>   **** ""
2 64 50
ATOM$BLUE        STATIC     ATOMS    COLORGROUP SYSTEM
8 65 66 67 68 69 70 71 72
ATOM$RED        STATIC     ATOMS    COLORGROUP SYSTEM
2 64 50
