AV-unprocessed.smi:1487|AV-procd|sdf|6014|dock8
  -GOLD-   22720 6113D 1   1.00000     0.00000
 Structure written by MMmdl.
 48 50  0  0  0  0  0  0  0  0  2 V2000
  146.5420  134.8794  162.8206 C   0  0  0  0  0  0  0  0  0  0  0  0
  147.1947  134.8320  161.4503 C   0  0  0  0  0  0  0  0  0  0  0  0
  147.7581  136.0131  160.9166 C   0  0  0  0  0  0  0  0  0  0  0  0
  148.3731  136.0118  159.6456 C   0  0  0  0  0  0  0  0  0  0  0  0
  148.9816  137.0356  158.9397 N   0  0  0  0  0  0  0  0  0  0  0  0
  149.3559  136.4097  157.8280 C   0  0  0  0  0  0  0  0  0  0  0  0
  149.0667  135.0979  157.7316 N   0  0  0  0  0  0  0  0  0  0  0  0
  149.3770  134.2131  156.6225 C   0  0  0  0  0  0  0  0  0  0  0  0
  148.8490  134.7444  155.2760 C   0  0  1  0  0  0  0  0  0  0  0  0
  149.7798  135.6620  154.7341 O   0  0  0  0  0  0  0  0  0  0  0  0
  148.6377  133.6044  154.2601 C   0  0  0  0  0  0  0  0  0  0  0  0
  147.8695  134.0396  153.0654 N   0  3  2  0  0  0  0  0  0  0  0  0
  146.6267  134.7836  153.4059 C   0  0  0  0  0  0  0  0  0  0  0  0
  145.9369  135.3238  152.1417 C   0  0  0  0  0  0  0  0  0  0  0  0
  145.6360  134.1896  151.1536 C   0  0  0  0  0  0  0  0  0  0  0  0
  146.9263  133.4191  150.8386 C   0  0  2  0  0  0  0  0  0  0  0  0
  146.6266  132.3177  150.0084 O   0  0  0  0  0  0  0  0  0  0  0  0
  147.5966  132.9170  152.1309 C   0  0  0  0  0  0  0  0  0  0  0  0
  148.4095  134.7867  158.9173 C   0  0  0  0  0  0  0  0  0  0  0  0
  147.8539  133.6048  159.4382 C   0  0  0  0  0  0  0  0  0  0  0  0
  147.2423  133.6240  160.7091 C   0  0  0  0  0  0  0  0  0  0  0  0
  146.6451  132.3423  161.2627 C   0  0  0  0  0  0  0  0  0  0  0  0
  146.6456  135.8643  163.2770 H   0  0  0  0  0  0  0  0  0  0  0  0
  147.0014  134.1521  163.4902 H   0  0  0  0  0  0  0  0  0  0  0  0
  145.4777  134.6562  162.7430 H   0  0  0  0  0  0  0  0  0  0  0  0
  147.7222  136.9331  161.4814 H   0  0  0  0  0  0  0  0  0  0  0  0
  149.8735  136.9345  157.0383 H   0  0  0  0  0  0  0  0  0  0  0  0
  150.4575  134.0707  156.5820 H   0  0  0  0  0  0  0  0  0  0  0  0
  148.9434  133.2354  156.8362 H   0  0  0  0  0  0  0  0  0  0  0  0
  147.9144  135.2749  155.4566 H   0  0  0  0  0  0  0  0  0  0  0  0
  149.7457  135.6032  153.7907 H   0  0  0  0  0  0  0  0  0  0  0  0
  149.6173  133.2312  153.9562 H   0  0  0  0  0  0  0  0  0  0  0  0
  148.1271  132.7618  154.7287 H   0  0  0  0  0  0  0  0  0  0  0  0
  145.9461  134.1261  153.9490 H   0  0  0  0  0  0  0  0  0  0  0  0
  146.8524  135.6181  154.0687 H   0  0  0  0  0  0  0  0  0  0  0  0
  145.0126  135.8361  152.4110 H   0  0  0  0  0  0  0  0  0  0  0  0
  146.5755  136.0680  151.6644 H   0  0  0  0  0  0  0  0  0  0  0  0
  144.8936  133.5166  151.5857 H   0  0  0  0  0  0  0  0  0  0  0  0
  145.1994  134.5938  150.2396 H   0  0  0  0  0  0  0  0  0  0  0  0
  147.6170  134.0697  150.3003 H   0  0  0  0  0  0  0  0  0  0  0  0
  147.4240  131.8382  149.8409 H   0  0  0  0  0  0  0  0  0  0  0  0
  148.5320  132.4157  151.8780 H   0  0  0  0  0  0  0  0  0  0  0  0
  146.9642  132.1792  152.6282 H   0  0  0  0  0  0  0  0  0  0  0  0
  147.8987  132.6904  158.8651 H   0  0  0  0  0  0  0  0  0  0  0  0
  146.7334  131.5215  160.5503 H   0  0  0  0  0  0  0  0  0  0  0  0
  145.5868  132.4777  161.4871 H   0  0  0  0  0  0  0  0  0  0  0  0
  147.1588  132.0475  162.1781 H   0  0  0  0  0  0  0  0  0  0  0  0
  148.4713  134.6782  152.5647 H   0  0  0  0  0  0  0  0  0  0  0  0
  1  2  1  0  0  0  0
  1 23  1  0  0  0  0
  1 24  1  0  0  0  0
  1 25  1  0  0  0  0
  2 21  1  0  0  0  0
  2  3  2  0  0  0  0
  3  4  1  0  0  0  0
  3 26  1  0  0  0  0
  4 19  2  0  0  0  0
  4  5  1  0  0  0  0
  5  6  2  0  0  0  0
  6  7  1  0  0  0  0
  6 27  1  0  0  0  0
  7  8  1  0  0  0  0
  7 19  1  0  0  0  0
  8  9  1  0  0  0  0
  8 28  1  0  0  0  0
  8 29  1  0  0  0  0
  9 10  1  0  0  0  0
  9 11  1  0  0  0  0
  9 30  1  0  0  0  0
 10 31  1  0  0  0  0
 11 12  1  0  0  0  0
 11 32  1  0  0  0  0
 11 33  1  0  0  0  0
 12 18  1  0  0  0  0
 12 13  1  0  0  0  0
 12 48  1  0  0  0  0
 13 14  1  0  0  0  0
 13 34  1  0  0  0  0
 13 35  1  0  0  0  0
 14 15  1  0  0  0  0
 14 36  1  0  0  0  0
 14 37  1  0  0  0  0
 15 16  1  0  0  0  0
 15 38  1  0  0  0  0
 15 39  1  0  0  0  0
 16 17  1  0  0  0  0
 16 18  1  0  0  0  0
 16 40  1  0  0  0  0
 17 41  1  0  0  0  0
 18 42  1  0  0  0  0
 18 43  1  0  0  0  0
 19 20  1  0  0  0  0
 20 21  2  0  0  0  0
 20 44  1  0  0  0  0
 21 22  1  0  0  0  0
 22 45  1  0  0  0  0
 22 46  1  0  0  0  0
 22 47  1  0  0  0  0
M  CHG  1  12   1
M  END
> <s_m_source_file>
AV-unprocessed.smi

> <i_m_source_file_index>
1487

> <i_lp_mmshare_version>
43012

> <i_f3d_flags>
0

> <s_epik_input>
W0NIM11jKFtjSF0xKWMoW0NIM10pW2NIXWMoYzEyKW4oW2NIXW4yKVtDSDJdW0NASF0oW09IXSlbQ0gyXU4zW0NIMl1bQ0gyXVtDSDJdW0NAQEhdKFtPSF0pW0NIMl0z

> <s_epik_cmdline>
J2VwaWtfcHl0aG9uJywgJy1waCcsICc3LjAnLCAnLXRuJywgJzgnLCAnLW1hJywgJzIwMCcsICctbWV0YWxfYmluZGluZycsICctaW1hZScsICc8aW5maWxlLm1hZT4nLCAnLW9tYWUnLCAnPG91dGZpbGUubWFlPic=

> <r_epik_Ionization_Penalty>
0.0940186

> <r_epik_Ionization_Penalty_Charging>
0.00679686

> <r_epik_Ionization_Penalty_Neutral>
0.0872218

> <r_epik_State_Penalty>
0.0799311

> <r_epik_Charging_Adjusted_Penalty>
0.086728

> <i_epik_Tot_Q>
1

> <i_epik_Tot_abs_Q>
1

> <r_epik_Metal_State_Penalty>
7.95545e-05

> <b_epik_Metal_Only>
0

> <s_lp_Force_Field>
OPLS_2005

> <r_lp_Energy>
21.0759

> <b_lp_Chiralities_Consistent>
1

> <s_lp_Variant>
AV-unprocessed.smi:1487-8

> <Gold.Version>
5.8.1

> <Gold.Id.Protein>
6NUR|6NUR_protein|mol2

> <Gold.PLP.Fitness>
46.2264

> <Gold.PLP.PLP>
-35.0024

> <Gold.PLP.part.hbond>
-3.0000

> <Gold.PLP.part.metal>
0.0000

> <Gold.PLP.part.buried>
-3.4903

> <Gold.PLP.part.nonpolar>
-28.0604

> <Gold.PLP.part.repulsive>
0.0000

> <Gold.PLP.ligand.clash>
0.0000

> <Gold.PLP.ligand.torsion>
0.3971

> <Gold.PLP.Chemscore.Hbond>
4.0000

> <Gold.PLP.Chemscore.CHOScore>
0.0000

> <Gold.PLP.Chemscore.Metal>
0.0000

> <Gold.Chemscore.Hbonds>
donor molecule, donor type, donor heavy atom, donor atom, acceptor molecule, acceptor atom, score
      L1  H    10    31       P1  7948  0.59
      L1  H    12    48       P1  7948  1.80
      L1  H    17    41       P1 10747  1.00

> <Gold.PLP.Chemscore.Internal.Correction>
0.0182

> <Gold.Rescore>
     Score         DG    S(hbond)    S(metal)    S(lipo)     H(rot)  DE(clash)    DE(int)     intcor
     17.85     -18.26       2.97        0.00      82.97       2.67       0.00       0.41       ----

> <Gold.Chemscore.Fitness>
17.8529

> <Gold.Chemscore.DG>
-18.2624

> <Gold.Chemscore.ZeroCoef>
-5.4800

> <Gold.Chemscore.Hbond>
2.9680

> <Gold.Chemscore.Metal>
0.0000

> <Gold.Chemscore.Lipo>
82.9718

> <Gold.Chemscore.Internal_Hbond>
0.0000

> <Gold.Chemscore.DEClash>
0.0038

> <Gold.Chemscore.DEInternal>
0.4057

> <Gold.Chemscore.Rot>
2.6712

> <Gold.Chemscore.Internal.Correction>
   9.000000E+99

> <Gold.Chemscore.Hbonds>
donor molecule, donor type, donor heavy atom, donor atom, acceptor molecule, acceptor atom, score
      L1  H    10    31       P1  7948  0.08
      L1  H    12    48       P1  7948  0.18
      L1  H    17    41       P1 10747  0.99

> <Gold.Chemscore.Hbond.Weighted>
-9.9130

> <Gold.Chemscore.Metal.Weighted>
-0.0000

> <Gold.Chemscore.Lipo.Weighted>
-9.7077

> <Gold.Chemscore.Internal_Hbond.Weighted>
0.0000

> <Gold.Chemscore.DEClash.Weighted>
0.0038

> <Gold.Chemscore.DEInternal.Weighted>
0.4057

> <Gold.Chemscore.Rot.Weighted>
6.8383

> <Gold.Chemscore.Internal.Correction.Weighted>
   9.000000E+99

> <Gold.Protein.RotatedTorsions>
[ 6907 6896 6895 6894 ] final   64.76 input  -60.11 | X-H torsion
[ 7974 7965 7964 7962 ] final   75.61 input  175.53 | X-H torsion
[ 8008 7997 7996 7995 ] final  -46.90 input   59.86 | X-H torsion
[ 10167 10162 10161 10158 ] final   86.38 input  -65.29 | X-H torsion
[ 10718 10713 10712 10709 ] final -119.68 input   66.30 | X-H torsion
[ 10763 10752 10751 10750 ] final  -47.30 input  -60.55 | X-H torsion
[ 11005 11000 10999 10996 ] final    9.80 input  -57.11 | X-H torsion

> <Gold.Protein.ActiveResidues>
 VAL166  LYS551  ARG553  GLY616  TRP617  ASP618  TYR619  PRO620  LYS621  CYS622 
 ASP623  PHE694  ASN695  SER759  ASP760  ASP761  ALA762  ILE779  LEU786  VAL792 
 PHE793  MET794  SER795  GLU796  ALA797  LYS798  CYS799  TRP800  GLU811  SER814 

> <Gold.Protein.RotatedAtoms>
  152.4356  134.5692  159.9916 H   0  0  0  0  0  0  0  0  0  0  0  0  # atno 6907 bound_to 6896
  151.5803  133.3373  159.3015 H   0  0  0  0  0  0  0  0  0  0  0  0  # atno 6908 bound_to 6896
  150.8254  134.7518  159.6873 H   0  0  0  0  0  0  0  0  0  0  0  0  # atno 6909 bound_to 6896
  145.7134  139.2622  143.1637 H   0  0  0  0  0  0  0  0  0  0  0  0  # atno 7974 bound_to 7965
  154.4011  140.1360  156.4088 H   0  0  0  0  0  0  0  0  0  0  0  0  # atno 8008 bound_to 7997
  155.7754  140.3483  155.5248 H   0  0  0  0  0  0  0  0  0  0  0  0  # atno 8009 bound_to 7997
  155.8726  140.0974  157.1530 H   0  0  0  0  0  0  0  0  0  0  0  0  # atno 8010 bound_to 7997
  139.8881  144.6401  150.8769 H   0  0  0  0  0  0  0  0  0  0  0  0  # atno 10167 bound_to 10162
  156.1199  130.6315  150.9446 H   0  0  0  0  0  0  0  0  0  0  0  0  # atno 10718 bound_to 10713
  154.0592  135.6620  153.4809 H   0  0  0  0  0  0  0  0  0  0  0  0  # atno 10763 bound_to 10752
  153.0433  135.5130  154.7676 H   0  0  0  0  0  0  0  0  0  0  0  0  # atno 10764 bound_to 10752
  154.6707  135.3029  154.9713 H   0  0  0  0  0  0  0  0  0  0  0  0  # atno 10765 bound_to 10752
  140.5216  134.0553  155.7846 H   0  0  0  0  0  0  0  0  0  0  0  0  # atno 11005 bound_to 11000
  146.0692  140.7888  142.9697 LP  0  0  0  0  0  0  0  0  0  0  0  0  # atno 17320 bound_to 7965
  144.6936  140.3315  143.7215 LP  0  0  0  0  0  0  0  0  0  0  0  0  # atno 17321 bound_to 7965
  140.7732  143.3532  151.1973 LP  0  0  0  0  0  0  0  0  0  0  0  0  # atno 17342 bound_to 10162
  139.7135  143.9338  152.2957 LP  0  0  0  0  0  0  0  0  0  0  0  0  # atno 17343 bound_to 10162
  157.6383  131.0913  150.8304 LP  0  0  0  0  0  0  0  0  0  0  0  0  # atno 17370 bound_to 10713
  156.8402  130.5045  149.5322 LP  0  0  0  0  0  0  0  0  0  0  0  0  # atno 17371 bound_to 10713
  141.1331  133.9268  157.2493 LP  0  0  0  0  0  0  0  0  0  0  0  0  # atno 17394 bound_to 11000
  139.9602  135.0156  156.9241 LP  0  0  0  0  0  0  0  0  0  0  0  0  # atno 17395 bound_to 11000

$$$$
