AV-unprocessed.smi:234|AV-procd|sdf|1789|dock1
  -GOLD-   2262020343D 1   1.00000     0.00000
 Structure written by MMmdl.
 59 62  0  0  0  0  0  0  0  0  1 V2000
  147.8969  144.9871  160.7722 C   0  0  0  0  0  0  0  0  0  0  0  0
  149.3747  144.8323  160.3873 C   0  0  0  0  0  0  0  0  0  0  0  0
  149.5859  143.6533  159.6259 O   0  0  0  0  0  0  0  0  0  0  0  0
  150.9345  143.4580  159.2097 C   0  0  2  0  0  0  0  0  0  0  0  0
  150.9824  142.5252  157.9991 C   0  0  0  0  0  0  0  0  0  0  0  0
  151.0570  141.3685  159.0064 C   0  0  1  0  0  0  0  0  0  0  0  0
  151.9476  140.2745  158.6031 N   0  0  0  0  0  0  0  0  0  0  0  0
  152.3542  139.3151  159.6249 C   0  0  0  0  0  0  0  0  0  0  0  0
  151.7225  139.6783  157.4050 C   0  0  0  0  0  0  0  0  0  0  0  0
  152.5580  139.9091  156.3570 N   0  0  0  0  0  0  0  0  0  0  0  0
  152.3292  139.3324  155.1737 C   0  0  0  0  0  0  0  0  0  0  0  0
  151.3406  138.5068  154.8249 N   0  0  0  0  0  0  0  0  0  0  0  0
  150.4972  138.2751  155.8715 C   0  0  0  0  0  0  0  0  0  0  0  0
  150.6107  138.8200  157.1813 C   0  0  0  0  0  0  0  0  0  0  0  0
  149.5695  138.3606  157.9787 N   0  0  0  0  0  0  0  0  0  0  0  0
  148.8808  137.5857  157.1857 C   0  0  0  0  0  0  0  0  0  0  0  0
  149.3712  137.4711  155.9042 N   0  0  0  0  0  0  0  0  0  0  0  0
  148.8103  136.6716  154.8261 C   0  0  0  0  0  0  0  0  0  0  0  0
  148.9596  135.1485  155.0531 C   0  0  2  0  0  0  0  0  0  0  0  0
  148.2264  134.7933  156.2149 O   0  0  0  0  0  0  0  0  0  0  0  0
  150.3982  134.6849  155.2275 C   0  0  0  0  0  0  0  0  0  0  0  0
  150.3222  133.2148  154.8354 C   0  0  0  0  0  0  0  0  0  0  0  0
  149.3658  133.1668  153.7847 O   0  0  0  0  0  0  0  0  0  0  0  0
  148.5062  134.3047  153.8416 C   0  0  1  0  0  0  0  0  0  0  0  0
  147.0299  133.8776  153.8129 C   0  0  0  0  0  0  0  0  0  0  0  0
  151.6681  142.3667  160.0299 C   0  0  0  0  0  0  0  0  0  0  0  0
  153.1974  142.5253  160.0489 C   0  0  0  0  0  0  0  0  0  0  0  0
  151.2234  142.2177  161.4874 C   0  0  0  0  0  0  0  0  0  0  0  0
  147.7352  145.9167  161.3176 H   0  0  0  0  0  0  0  0  0  0  0  0
  147.5563  144.1693  161.4068 H   0  0  0  0  0  0  0  0  0  0  0  0
  147.2638  145.0069  159.8849 H   0  0  0  0  0  0  0  0  0  0  0  0
  149.6733  145.6821  159.7735 H   0  0  0  0  0  0  0  0  0  0  0  0
  150.0173  144.8437  161.2689 H   0  0  0  0  0  0  0  0  0  0  0  0
  151.5123  144.3738  159.0720 H   0  0  0  0  0  0  0  0  0  0  0  0
  150.0861  142.5352  157.3782 H   0  0  0  0  0  0  0  0  0  0  0  0
  151.8868  142.6502  157.4010 H   0  0  0  0  0  0  0  0  0  0  0  0
  150.0625  141.0333  159.3073 H   0  0  0  0  0  0  0  0  0  0  0  0
  151.9818  138.3114  159.4130 H   0  0  0  0  0  0  0  0  0  0  0  0
  151.9782  139.6003  160.6066 H   0  0  0  0  0  0  0  0  0  0  0  0
  153.4417  139.2696  159.6824 H   0  0  0  0  0  0  0  0  0  0  0  0
  153.0399  139.5670  154.3951 H   0  0  0  0  0  0  0  0  0  0  0  0
  147.9943  137.0647  157.5175 H   0  0  0  0  0  0  0  0  0  0  0  0
  147.7582  136.9358  154.7122 H   0  0  0  0  0  0  0  0  0  0  0  0
  149.3004  136.9660  153.8970 H   0  0  0  0  0  0  0  0  0  0  0  0
  147.8565  135.5800  156.5856 H   0  0  0  0  0  0  0  0  0  0  0  0
  151.0485  135.2069  154.5245 H   0  0  0  0  0  0  0  0  0  0  0  0
  150.7941  134.8433  156.2315 H   0  0  0  0  0  0  0  0  0  0  0  0
  151.2850  132.8130  154.5193 H   0  0  0  0  0  0  0  0  0  0  0  0
  149.9608  132.6136  155.6706 H   0  0  0  0  0  0  0  0  0  0  0  0
  148.7137  134.8668  152.9300 H   0  0  0  0  0  0  0  0  0  0  0  0
  146.3699  134.7437  153.8623 H   0  0  0  0  0  0  0  0  0  0  0  0
  146.7844  133.2167  154.6444 H   0  0  0  0  0  0  0  0  0  0  0  0
  146.8025  133.3401  152.8924 H   0  0  0  0  0  0  0  0  0  0  0  0
  153.6872  141.6779  160.5291 H   0  0  0  0  0  0  0  0  0  0  0  0
  153.4954  143.4217  160.5932 H   0  0  0  0  0  0  0  0  0  0  0  0
  153.6142  142.6086  159.0450 H   0  0  0  0  0  0  0  0  0  0  0  0
  151.7620  141.4192  161.9976 H   0  0  0  0  0  0  0  0  0  0  0  0
  150.1612  141.9843  161.5627 H   0  0  0  0  0  0  0  0  0  0  0  0
  151.3927  143.1365  162.0494 H   0  0  0  0  0  0  0  0  0  0  0  0
  1  2  1  0  0  0  0
  1 29  1  0  0  0  0
  1 30  1  0  0  0  0
  1 31  1  0  0  0  0
  2  3  1  0  0  0  0
  2 32  1  0  0  0  0
  2 33  1  0  0  0  0
  3  4  1  0  0  0  0
  4 26  1  0  0  0  0
  4  5  1  0  0  0  0
  4 34  1  0  0  0  0
  5  6  1  0  0  0  0
  5 35  1  0  0  0  0
  5 36  1  0  0  0  0
  6  7  1  0  0  0  0
  6 26  1  0  0  0  0
  6 37  1  0  0  0  0
  7  8  1  0  0  0  0
  7  9  1  0  0  0  0
  8 38  1  0  0  0  0
  8 39  1  0  0  0  0
  8 40  1  0  0  0  0
  9 14  1  0  0  0  0
  9 10  2  0  0  0  0
 10 11  1  0  0  0  0
 11 12  2  0  0  0  0
 11 41  1  0  0  0  0
 12 13  1  0  0  0  0
 13 17  1  0  0  0  0
 13 14  2  0  0  0  0
 14 15  1  0  0  0  0
 15 16  2  0  0  0  0
 16 17  1  0  0  0  0
 16 42  1  0  0  0  0
 17 18  1  0  0  0  0
 18 19  1  0  0  0  0
 18 43  1  0  0  0  0
 18 44  1  0  0  0  0
 19 24  1  0  0  0  0
 19 20  1  0  0  0  0
 19 21  1  0  0  0  0
 20 45  1  0  0  0  0
 21 22  1  0  0  0  0
 21 46  1  0  0  0  0
 21 47  1  0  0  0  0
 22 23  1  0  0  0  0
 22 48  1  0  0  0  0
 22 49  1  0  0  0  0
 23 24  1  0  0  0  0
 24 25  1  0  0  0  0
 24 50  1  0  0  0  0
 25 51  1  0  0  0  0
 25 52  1  0  0  0  0
 25 53  1  0  0  0  0
 26 27  1  0  0  0  0
 26 28  1  0  0  0  0
 27 54  1  0  0  0  0
 27 55  1  0  0  0  0
 27 56  1  0  0  0  0
 28 57  1  0  0  0  0
 28 58  1  0  0  0  0
 28 59  1  0  0  0  0
M  END
> <s_m_source_file>
AV-unprocessed.smi

> <i_m_source_file_index>
234

> <i_lp_mmshare_version>
43012

> <i_f3d_flags>
0

> <s_epik_input>
W0NIM11bQ0gyXU9bQ0BASF0oQzEoW0NIM10pW0NIM10pW0NIMl1bQ0BIXTFOKFtDSDNdKWMobltjSF1uMiljKGMyMyluW2NIXW4zW0NIMl1bQ0BAXTQoW09IXSlbQ0gyXVtDSDJdT1tDQEhdNFtDSDNd

> <s_epik_cmdline>
J2VwaWtfcHl0aG9uJywgJy1waCcsICc3LjAnLCAnLXRuJywgJzgnLCAnLW1hJywgJzIwMCcsICctbWV0YWxfYmluZGluZycsICctaW1hZScsICc8aW5maWxlLm1hZT4nLCAnLW9tYWUnLCAnPG91dGZpbGUubWFlPic=

> <r_lp_tautomer_probability>
1

> <r_epik_Ionization_Penalty>
0.00349132

> <r_epik_Ionization_Penalty_Charging>
0

> <r_epik_Ionization_Penalty_Neutral>
0.00349132

> <r_epik_State_Penalty>
0.00242418

> <r_epik_Charging_Adjusted_Penalty>
0.00242418

> <i_epik_Tot_Q>
0

> <i_epik_Tot_abs_Q>
0

> <r_epik_Metal_State_Penalty>
-0

> <b_epik_Metal_Only>
0

> <s_lp_Force_Field>
OPLS_2005

> <r_lp_Energy>
49.8598

> <b_lp_Chiralities_Consistent>
1

> <s_lp_Variant>
AV-unprocessed.smi:234-5

> <Gold.Version>
5.8.1

> <Gold.Id.Protein>
6NUR|6NUR_protein|mol2

> <Gold.PLP.Fitness>
46.2021

> <Gold.PLP.PLP>
-40.8127

> <Gold.PLP.part.hbond>
-2.9447

> <Gold.PLP.part.metal>
0.0000

> <Gold.PLP.part.buried>
-7.5734

> <Gold.PLP.part.nonpolar>
-29.7496

> <Gold.PLP.part.repulsive>
0.1891

> <Gold.PLP.ligand.clash>
0.0000

> <Gold.PLP.ligand.torsion>
0.9501

> <Gold.PLP.Chemscore.Hbond>
2.0000

> <Gold.PLP.Chemscore.CHOScore>
0.0000

> <Gold.PLP.Chemscore.Metal>
0.0000

> <Gold.Chemscore.Hbonds>
donor molecule, donor type, donor heavy atom, donor atom, acceptor molecule, acceptor atom, score
      P1  H  7997  8009       L1    10  0.95

> <Gold.PLP.Chemscore.Internal.Correction>
1.2896

> <Gold.Rescore>
     Score         DG    S(hbond)    S(metal)    S(lipo)     H(rot)  DE(clash)    DE(int)     intcor
     14.84     -16.07       1.54        0.00     103.84       2.62       0.04       1.19       ----

> <Gold.Chemscore.Fitness>
14.8443

> <Gold.Chemscore.DG>
-16.0735

> <Gold.Chemscore.ZeroCoef>
-5.4800

> <Gold.Chemscore.Hbond>
1.5439

> <Gold.Chemscore.Metal>
0.0000

> <Gold.Chemscore.Lipo>
103.8372

> <Gold.Chemscore.Internal_Hbond>
0.0000

> <Gold.Chemscore.DEClash>
0.0353

> <Gold.Chemscore.DEInternal>
1.1938

> <Gold.Chemscore.Rot>
2.6219

> <Gold.Chemscore.Internal.Correction>
   9.000000E+99

> <Gold.Chemscore.Hbonds>
donor molecule, donor type, donor heavy atom, donor atom, acceptor molecule, acceptor atom, score
      P1  H  7997  8009       L1    10  0.21

> <Gold.Chemscore.Hbond.Weighted>
-5.1567

> <Gold.Chemscore.Metal.Weighted>
-0.0000

> <Gold.Chemscore.Lipo.Weighted>
-12.1489

> <Gold.Chemscore.Internal_Hbond.Weighted>
0.0000

> <Gold.Chemscore.DEClash.Weighted>
0.0353

> <Gold.Chemscore.DEInternal.Weighted>
1.1938

> <Gold.Chemscore.Rot.Weighted>
6.7121

> <Gold.Chemscore.Internal.Correction.Weighted>
   9.000000E+99

> <Gold.Protein.RotatedTorsions>
[ 6907 6896 6895 6894 ] final -113.74 input  -60.11 | X-H torsion
[ 7974 7965 7964 7962 ] final  -85.60 input  175.53 | X-H torsion
[ 8008 7997 7996 7995 ] final -154.40 input   59.86 | X-H torsion
[ 10167 10162 10161 10158 ] final   97.81 input  -65.29 | X-H torsion
[ 10718 10713 10712 10709 ] final  -60.91 input   66.30 | X-H torsion
[ 10763 10752 10751 10750 ] final  -46.57 input  -60.55 | X-H torsion
[ 11005 11000 10999 10996 ] final  102.60 input  -57.11 | X-H torsion

> <Gold.Protein.ActiveResidues>
 VAL166  LYS551  ARG553  GLY616  TRP617  ASP618  TYR619  PRO620  LYS621  CYS622 
 ASP623  PHE694  ASN695  SER759  ASP760  ASP761  ALA762  ILE779  LEU786  VAL792 
 PHE793  MET794  SER795  GLU796  ALA797  LYS798  CYS799  TRP800  GLU811  SER814 

> <Gold.Protein.RotatedAtoms>
  150.7851  133.8901  159.3310 H   0  0  0  0  0  0  0  0  0  0  0  0  # atno 6907 bound_to 6896
  151.6753  135.0968  160.0215 H   0  0  0  0  0  0  0  0  0  0  0  0  # atno 6908 bound_to 6896
  152.3913  133.6644  159.6275 H   0  0  0  0  0  0  0  0  0  0  0  0  # atno 6909 bound_to 6896
  145.4911  140.9552  143.1811 H   0  0  0  0  0  0  0  0  0  0  0  0  # atno 7974 bound_to 7965
  155.6857  140.0749  157.2467 H   0  0  0  0  0  0  0  0  0  0  0  0  # atno 8008 bound_to 7997
  154.4097  140.1674  156.2083 H   0  0  0  0  0  0  0  0  0  0  0  0  # atno 8009 bound_to 7997
  155.9496  140.3378  155.6399 H   0  0  0  0  0  0  0  0  0  0  0  0  # atno 8010 bound_to 7997
  139.7767  144.6903  151.0080 H   0  0  0  0  0  0  0  0  0  0  0  0  # atno 10167 bound_to 10162
  156.0958  130.4193  150.0920 H   0  0  0  0  0  0  0  0  0  0  0  0  # atno 10718 bound_to 10713
  154.0471  135.6636  153.4796 H   0  0  0  0  0  0  0  0  0  0  0  0  # atno 10763 bound_to 10752
  153.0478  135.5103  154.7786 H   0  0  0  0  0  0  0  0  0  0  0  0  # atno 10764 bound_to 10752
  154.6781  135.3040  154.9617 H   0  0  0  0  0  0  0  0  0  0  0  0  # atno 10765 bound_to 10752
  139.8778  134.9230  156.5083 H   0  0  0  0  0  0  0  0  0  0  0  0  # atno 11005 bound_to 11000
  144.7833  139.6479  143.7145 LP  0  0  0  0  0  0  0  0  0  0  0  0  # atno 17320 bound_to 7965
  146.2283  139.5765  142.9572 LP  0  0  0  0  0  0  0  0  0  0  0  0  # atno 17321 bound_to 7965
  140.7816  143.4528  151.0388 LP  0  0  0  0  0  0  0  0  0  0  0  0  # atno 17342 bound_to 10162
  139.8210  143.7820  152.3177 LP  0  0  0  0  0  0  0  0  0  0  0  0  # atno 17343 bound_to 10162
  156.8919  130.9591  151.3587 LP  0  0  0  0  0  0  0  0  0  0  0  0  # atno 17370 bound_to 10713
  157.6118  130.8589  149.8964 LP  0  0  0  0  0  0  0  0  0  0  0  0  # atno 17371 bound_to 10713
  140.8539  133.8111  155.9196 LP  0  0  0  0  0  0  0  0  0  0  0  0  # atno 17394 bound_to 11000
  140.9117  134.2252  157.4982 LP  0  0  0  0  0  0  0  0  0  0  0  0  # atno 17395 bound_to 11000

$$$$
