AV-unprocessed.smi:2114|AV-procd|sdf|8618|dock10
  -GOLD-   2272011363D 1   1.00000     0.00000
 Structure written by MMmdl.
 47 48  0  0  0  0  0  0  0  0  1 V2000
  148.2914  133.5902  159.4094 C   0  0  0  0  0  0  0  0  0  0  0  0
  149.2430  134.0419  158.4622 O   0  0  0  0  0  0  0  0  0  0  0  0
  148.8072  133.8623  157.1241 C   0  0  0  0  0  0  0  0  0  0  0  0
  149.8738  134.4083  156.1626 C   0  0  1  0  0  0  0  0  0  0  0  0
  149.3421  134.4961  154.7228 C   0  0  0  0  0  0  0  0  0  0  0  0
  150.3126  135.7233  156.6213 N   0  0  0  0  0  0  0  0  0  0  0  0
  151.0656  136.5834  155.9167 C   0  0  0  0  0  0  0  0  0  0  0  0
  151.4390  136.3755  154.7619 O   0  0  0  0  0  0  0  0  0  0  0  0
  151.3812  137.8789  156.6057 C   0  0  0  0  0  0  0  0  0  0  0  0
  151.8653  138.9831  155.8742 C   0  0  0  0  0  0  0  0  0  0  0  0
  152.1709  140.1767  156.5557 C   0  0  0  0  0  0  0  0  0  0  0  0
  151.9935  140.2363  157.9581 C   0  0  0  0  0  0  0  0  0  0  0  0
  152.2907  141.4242  158.6596 N   0  0  0  0  0  0  0  0  0  0  0  0
  152.5166  141.3305  160.1000 C   0  0  0  0  0  0  0  0  0  0  0  0
  153.1083  142.6461  160.6385 C   0  0  2  0  0  0  0  0  0  0  0  0
  153.2494  142.6315  162.1640 C   0  0  0  0  0  0  0  0  0  0  0  0
  152.2510  143.7255  160.2778 O   0  0  0  0  0  0  0  0  0  0  0  0
  152.1277  143.8743  158.8660 C   0  0  2  0  0  0  0  0  0  0  0  0
  151.2695  145.1122  158.5872 C   0  0  0  0  0  0  0  0  0  0  0  0
  151.5076  142.5946  158.2739 C   0  0  0  0  0  0  0  0  0  0  0  0
  151.5468  139.1674  158.6624 N   0  0  0  0  0  0  0  0  0  0  0  0
  151.2534  138.0259  158.0047 C   0  0  0  0  0  0  0  0  0  0  0  0
  148.6726  133.7530  160.4175 H   0  0  0  0  0  0  0  0  0  0  0  0
  148.0938  132.5240  159.2923 H   0  0  0  0  0  0  0  0  0  0  0  0
  147.3506  134.1338  159.3134 H   0  0  0  0  0  0  0  0  0  0  0  0
  148.6468  132.7993  156.9357 H   0  0  0  0  0  0  0  0  0  0  0  0
  147.8539  134.3693  156.9638 H   0  0  0  0  0  0  0  0  0  0  0  0
  150.7230  133.7226  156.1760 H   0  0  0  0  0  0  0  0  0  0  0  0
  149.0164  133.5186  154.3661 H   0  0  0  0  0  0  0  0  0  0  0  0
  150.1110  134.8532  154.0370 H   0  0  0  0  0  0  0  0  0  0  0  0
  148.4921  135.1757  154.6536 H   0  0  0  0  0  0  0  0  0  0  0  0
  150.0357  135.9920  157.5546 H   0  0  0  0  0  0  0  0  0  0  0  0
  152.0012  138.9252  154.8039 H   0  0  0  0  0  0  0  0  0  0  0  0
  152.5505  141.0218  156.0009 H   0  0  0  0  0  0  0  0  0  0  0  0
  151.5712  141.1106  160.5984 H   0  0  0  0  0  0  0  0  0  0  0  0
  153.2006  140.5095  160.3192 H   0  0  0  0  0  0  0  0  0  0  0  0
  154.0945  142.8116  160.2010 H   0  0  0  0  0  0  0  0  0  0  0  0
  153.9065  141.8248  162.4895 H   0  0  0  0  0  0  0  0  0  0  0  0
  152.2824  142.4921  162.6483 H   0  0  0  0  0  0  0  0  0  0  0  0
  153.6712  143.5695  162.5253 H   0  0  0  0  0  0  0  0  0  0  0  0
  153.1176  144.0357  158.4351 H   0  0  0  0  0  0  0  0  0  0  0  0
  151.1574  145.2790  157.5156 H   0  0  0  0  0  0  0  0  0  0  0  0
  151.7240  146.0051  159.0169 H   0  0  0  0  0  0  0  0  0  0  0  0
  150.2728  145.0063  159.0163 H   0  0  0  0  0  0  0  0  0  0  0  0
  151.4443  142.6964  157.1915 H   0  0  0  0  0  0  0  0  0  0  0  0
  150.4880  142.4678  158.6400 H   0  0  0  0  0  0  0  0  0  0  0  0
  150.9115  137.2094  158.6238 H   0  0  0  0  0  0  0  0  0  0  0  0
  1  2  1  0  0  0  0
  1 23  1  0  0  0  0
  1 24  1  0  0  0  0
  1 25  1  0  0  0  0
  2  3  1  0  0  0  0
  3  4  1  0  0  0  0
  3 26  1  0  0  0  0
  3 27  1  0  0  0  0
  4  5  1  0  0  0  0
  4  6  1  0  0  0  0
  4 28  1  0  0  0  0
  5 29  1  0  0  0  0
  5 30  1  0  0  0  0
  5 31  1  0  0  0  0
  6  7  1  0  0  0  0
  6 32  1  0  0  0  0
  7  8  2  0  0  0  0
  7  9  1  0  0  0  0
  9 22  1  0  0  0  0
  9 10  2  0  0  0  0
 10 11  1  0  0  0  0
 10 33  1  0  0  0  0
 11 12  2  0  0  0  0
 11 34  1  0  0  0  0
 12 13  1  0  0  0  0
 12 21  1  0  0  0  0
 13 20  1  0  0  0  0
 13 14  1  0  0  0  0
 14 15  1  0  0  0  0
 14 35  1  0  0  0  0
 14 36  1  0  0  0  0
 15 16  1  0  0  0  0
 15 17  1  0  0  0  0
 15 37  1  0  0  0  0
 16 38  1  0  0  0  0
 16 39  1  0  0  0  0
 16 40  1  0  0  0  0
 17 18  1  0  0  0  0
 18 19  1  0  0  0  0
 18 20  1  0  0  0  0
 18 41  1  0  0  0  0
 19 42  1  0  0  0  0
 19 43  1  0  0  0  0
 19 44  1  0  0  0  0
 20 45  1  0  0  0  0
 20 46  1  0  0  0  0
 21 22  2  0  0  0  0
 22 47  1  0  0  0  0
M  END
> <s_m_source_file>
AV-unprocessed.smi

> <i_m_source_file_index>
2114

> <i_lp_mmshare_version>
43012

> <i_f3d_flags>
0

> <s_epik_input>
W0NIM11PW0NIMl1bQ0BIXShbQ0gzXSlbTkhdQyg9TyljMVtjSF1bY0hdYyhuW2NIXTEpTjJbQ0gyXVtDQEBIXShbQ0gzXSlPW0NAQEhdKFtDSDNdKVtDSDJdMg==

> <s_epik_cmdline>
J2VwaWtfcHl0aG9uJywgJy1waCcsICc3LjAnLCAnLXRuJywgJzgnLCAnLW1hJywgJzIwMCcsICctbWV0YWxfYmluZGluZycsICctaW1hZScsICc8aW5maWxlLm1hZT4nLCAnLW9tYWUnLCAnPG91dGZpbGUubWFlPic=

> <r_lp_tautomer_probability>
1

> <r_epik_Ionization_Penalty>
1.92915e-05

> <r_epik_Ionization_Penalty_Charging>
0

> <r_epik_Ionization_Penalty_Neutral>
1.92915e-05

> <r_epik_State_Penalty>
-0

> <r_epik_Charging_Adjusted_Penalty>
0

> <i_epik_Tot_Q>
0

> <i_epik_Tot_abs_Q>
0

> <r_epik_Metal_State_Penalty>
-0

> <b_epik_Metal_Only>
0

> <s_lp_Force_Field>
OPLS_2005

> <r_lp_Energy>
18.3403

> <b_lp_Chiralities_Consistent>
1

> <s_lp_Variant>
AV-unprocessed.smi:2114-2

> <Gold.Version>
5.8.1

> <Gold.Id.Protein>
6NUR|6NUR_protein|mol2

> <Gold.PLP.Fitness>
41.9929

> <Gold.PLP.PLP>
-36.8704

> <Gold.PLP.part.hbond>
-2.0000

> <Gold.PLP.part.metal>
0.0000

> <Gold.PLP.part.buried>
-5.2505

> <Gold.PLP.part.nonpolar>
-29.1790

> <Gold.PLP.part.repulsive>
0.3010

> <Gold.PLP.ligand.clash>
0.0000

> <Gold.PLP.ligand.torsion>
0.6106

> <Gold.PLP.Chemscore.Hbond>
2.0000

> <Gold.PLP.Chemscore.CHOScore>
0.0000

> <Gold.PLP.Chemscore.Metal>
0.0000

> <Gold.Chemscore.Hbonds>
donor molecule, donor type, donor heavy atom, donor atom, acceptor molecule, acceptor atom, score
      P1  H  6896  6907       L1     2  1.00
      P1  H 10752 10763       L1     8  1.00

> <Gold.PLP.Chemscore.Internal.Correction>
0.3438

> <Gold.Rescore>
     Score         DG    S(hbond)    S(metal)    S(lipo)     H(rot)  DE(clash)    DE(int)     intcor
     18.00     -19.89       1.96        0.00     100.57       1.52       0.04       1.84       ----

> <Gold.Chemscore.Fitness>
18.0034

> <Gold.Chemscore.DG>
-19.8873

> <Gold.Chemscore.ZeroCoef>
-5.4800

> <Gold.Chemscore.Hbond>
1.9578

> <Gold.Chemscore.Metal>
0.0000

> <Gold.Chemscore.Lipo>
100.5663

> <Gold.Chemscore.Internal_Hbond>
0.0000

> <Gold.Chemscore.DEClash>
0.0398

> <Gold.Chemscore.DEInternal>
1.8441

> <Gold.Chemscore.Rot>
1.5226

> <Gold.Chemscore.Internal.Correction>
   9.000000E+99

> <Gold.Chemscore.Hbonds>
donor molecule, donor type, donor heavy atom, donor atom, acceptor molecule, acceptor atom, score
      P1  H  6896  6907       L1     2  0.40
      P1  H 10752 10763       L1     8  0.93

> <Gold.Chemscore.Hbond.Weighted>
-6.5390

> <Gold.Chemscore.Metal.Weighted>
-0.0000

> <Gold.Chemscore.Lipo.Weighted>
-11.7663

> <Gold.Chemscore.Internal_Hbond.Weighted>
0.0000

> <Gold.Chemscore.DEClash.Weighted>
0.0398

> <Gold.Chemscore.DEInternal.Weighted>
1.8441

> <Gold.Chemscore.Rot.Weighted>
3.8980

> <Gold.Chemscore.Internal.Correction.Weighted>
   9.000000E+99

> <Gold.Protein.RotatedTorsions>
[ 6907 6896 6895 6894 ] final  -98.89 input  -60.11 | X-H torsion
[ 7974 7965 7964 7962 ] final   39.31 input  175.53 | X-H torsion
[ 8008 7997 7996 7995 ] final  -90.54 input   59.86 | X-H torsion
[ 10167 10162 10161 10158 ] final  143.84 input  -65.29 | X-H torsion
[ 10718 10713 10712 10709 ] final  -69.43 input   66.30 | X-H torsion
[ 10763 10752 10751 10750 ] final   60.40 input  -60.55 | X-H torsion
[ 11005 11000 10999 10996 ] final -152.77 input  -57.11 | X-H torsion

> <Gold.Protein.ActiveResidues>
 VAL166  LYS551  ARG553  GLY616  TRP617  ASP618  TYR619  PRO620  LYS621  CYS622 
 ASP623  PHE694  ASN695  SER759  ASP760  ASP761  ALA762  ILE779  LEU786  VAL792 
 PHE793  MET794  SER795  GLU796  ALA797  LYS798  CYS799  TRP800  GLU811  SER814 

> <Gold.Protein.RotatedAtoms>
  150.7061  134.1125  159.4005 H   0  0  0  0  0  0  0  0  0  0  0  0  # atno 6907 bound_to 6896
  151.9112  135.0336  160.0524 H   0  0  0  0  0  0  0  0  0  0  0  0  # atno 6908 bound_to 6896
  152.2334  133.5041  159.5265 H   0  0  0  0  0  0  0  0  0  0  0  0  # atno 6909 bound_to 6896
  146.0994  139.5667  142.9424 H   0  0  0  0  0  0  0  0  0  0  0  0  # atno 7974 bound_to 7965
  154.6998  140.0529  157.0446 H   0  0  0  0  0  0  0  0  0  0  0  0  # atno 8008 bound_to 7997
  155.0701  140.3198  155.4614 H   0  0  0  0  0  0  0  0  0  0  0  0  # atno 8009 bound_to 7997
  156.2756  140.2083  156.5829 H   0  0  0  0  0  0  0  0  0  0  0  0  # atno 8010 bound_to 7997
  139.4960  144.6013  151.6474 H   0  0  0  0  0  0  0  0  0  0  0  0  # atno 10167 bound_to 10162
  156.0456  130.4312  150.2146 H   0  0  0  0  0  0  0  0  0  0  0  0  # atno 10718 bound_to 10713
  152.9920  135.5537  154.5868 H   0  0  0  0  0  0  0  0  0  0  0  0  # atno 10763 bound_to 10752
  154.5238  135.2809  155.1241 H   0  0  0  0  0  0  0  0  0  0  0  0  # atno 10764 bound_to 10752
  154.2584  135.6385  153.5318 H   0  0  0  0  0  0  0  0  0  0  0  0  # atno 10765 bound_to 10752
  140.7153  134.3788  157.5192 H   0  0  0  0  0  0  0  0  0  0  0  0  # atno 11005 bound_to 11000
  145.5884  141.0373  143.2084 LP  0  0  0  0  0  0  0  0  0  0  0  0  # atno 17320 bound_to 7965
  144.7421  139.7421  143.7307 LP  0  0  0  0  0  0  0  0  0  0  0  0  # atno 17321 bound_to 7965
  140.5664  144.0183  150.6194 LP  0  0  0  0  0  0  0  0  0  0  0  0  # atno 17342 bound_to 10162
  140.3286  143.3092  152.0710 LP  0  0  0  0  0  0  0  0  0  0  0  0  # atno 17343 bound_to 10162
  157.0236  130.9987  151.3332 LP  0  0  0  0  0  0  0  0  0  0  0  0  # atno 17370 bound_to 10713
  157.5327  130.8068  149.7935 LP  0  0  0  0  0  0  0  0  0  0  0  0  # atno 17371 bound_to 10713
  139.8861  134.8918  156.2602 LP  0  0  0  0  0  0  0  0  0  0  0  0  # atno 17394 bound_to 11000
  141.0050  133.7129  156.1020 LP  0  0  0  0  0  0  0  0  0  0  0  0  # atno 17395 bound_to 11000

$$$$
