AV-unprocessed.smi:667|AV-procd|sdf|3257|dock9
  -GOLD-   22720 0213D 1   1.00000     0.00000
 Structure written by MMmdl.
 48 49  0  0  0  0  0  0  0  0  1 V2000
  150.8496  145.5940  160.1243 C   0  0  0  0  0  0  0  0  0  0  0  0
  151.7354  144.4179  160.4211 C   0  0  0  0  0  0  0  0  0  0  0  0
  152.0583  144.1488  161.6752 N   0  0  0  0  0  0  0  0  0  0  0  0
  152.8362  143.0500  161.6028 N   0  0  0  0  0  0  0  0  0  0  0  0
  153.3694  142.4763  162.8232 C   0  0  0  0  0  0  0  0  0  0  0  0
  153.0104  142.6278  160.2991 C   0  0  0  0  0  0  0  0  0  0  0  0
  153.8316  141.4280  159.9513 C   0  0  0  0  0  0  0  0  0  0  0  0
  152.3057  143.4895  159.5012 C   0  0  0  0  0  0  0  0  0  0  0  0
  152.1514  143.4711  158.0018 C   0  0  0  0  0  0  0  0  0  0  0  0
  151.3031  142.2684  157.5903 C   0  0  0  0  0  0  0  0  0  0  0  0
  151.6028  141.1407  157.9825 O   0  0  0  0  0  0  0  0  0  0  0  0
  150.2444  142.5228  156.8057 N   0  0  0  0  0  0  0  0  0  0  0  0
  149.2995  141.5214  156.3234 C   0  0  0  0  0  0  0  0  0  0  0  0
  149.3934  141.3098  154.7914 C   0  0  2  0  0  0  0  0  0  0  0  0
  148.0895  141.6385  154.0768 C   0  0  0  0  0  0  0  0  0  0  0  0
  147.3101  140.3219  154.1297 C   0  0  0  0  0  0  0  0  0  0  0  0
  148.2561  139.3161  154.4817 O   0  0  0  0  0  0  0  0  0  0  0  0
  149.5701  139.8445  154.3584 C   0  0  2  0  0  0  0  0  0  0  0  0
  150.6016  138.9915  155.1315 C   0  0  0  0  0  0  0  0  0  0  0  0
  151.8999  139.7716  155.4013 C   0  0  0  0  0  0  0  0  0  0  0  0
  150.9194  137.6918  154.3744 C   0  0  0  0  0  0  0  0  0  0  0  0
  149.8720  145.2646  159.7720 H   0  0  0  0  0  0  0  0  0  0  0  0
  151.2862  146.2268  159.3513 H   0  0  0  0  0  0  0  0  0  0  0  0
  150.6918  146.2154  161.0069 H   0  0  0  0  0  0  0  0  0  0  0  0
  154.4277  142.7227  162.9103 H   0  0  0  0  0  0  0  0  0  0  0  0
  153.2555  141.3921  162.8029 H   0  0  0  0  0  0  0  0  0  0  0  0
  152.8405  142.8665  163.6940 H   0  0  0  0  0  0  0  0  0  0  0  0
  154.0284  141.3805  158.8806 H   0  0  0  0  0  0  0  0  0  0  0  0
  153.3142  140.5122  160.2366 H   0  0  0  0  0  0  0  0  0  0  0  0
  154.7932  141.4496  160.4641 H   0  0  0  0  0  0  0  0  0  0  0  0
  151.6829  144.3852  157.6353 H   0  0  0  0  0  0  0  0  0  0  0  0
  153.1185  143.4112  157.5020 H   0  0  0  0  0  0  0  0  0  0  0  0
  150.0734  143.4803  156.5348 H   0  0  0  0  0  0  0  0  0  0  0  0
  149.4812  140.5899  156.8601 H   0  0  0  0  0  0  0  0  0  0  0  0
  148.2951  141.8414  156.6021 H   0  0  0  0  0  0  0  0  0  0  0  0
  150.2077  141.9176  154.3950 H   0  0  0  0  0  0  0  0  0  0  0  0
  147.5391  142.4729  154.5120 H   0  0  0  0  0  0  0  0  0  0  0  0
  148.2997  141.8946  153.0375 H   0  0  0  0  0  0  0  0  0  0  0  0
  146.5265  140.3526  154.8871 H   0  0  0  0  0  0  0  0  0  0  0  0
  146.8459  140.0963  153.1693 H   0  0  0  0  0  0  0  0  0  0  0  0
  149.8288  139.8267  153.2973 H   0  0  0  0  0  0  0  0  0  0  0  0
  150.1724  138.7035  156.0911 H   0  0  0  0  0  0  0  0  0  0  0  0
  152.3750  140.0816  154.4700 H   0  0  0  0  0  0  0  0  0  0  0  0
  152.6163  139.1613  155.9517 H   0  0  0  0  0  0  0  0  0  0  0  0
  151.7185  140.6684  155.9935 H   0  0  0  0  0  0  0  0  0  0  0  0
  151.3462  137.8988  153.3925 H   0  0  0  0  0  0  0  0  0  0  0  0
  150.0229  137.0889  154.2268 H   0  0  0  0  0  0  0  0  0  0  0  0
  151.6344  137.0802  154.9256 H   0  0  0  0  0  0  0  0  0  0  0  0
  1  2  1  0  0  0  0
  1 22  1  0  0  0  0
  1 23  1  0  0  0  0
  1 24  1  0  0  0  0
  2  8  1  0  0  0  0
  2  3  2  0  0  0  0
  3  4  1  0  0  0  0
  4  5  1  0  0  0  0
  4  6  1  0  0  0  0
  5 25  1  0  0  0  0
  5 26  1  0  0  0  0
  5 27  1  0  0  0  0
  6  7  1  0  0  0  0
  6  8  2  0  0  0  0
  7 28  1  0  0  0  0
  7 29  1  0  0  0  0
  7 30  1  0  0  0  0
  8  9  1  0  0  0  0
  9 10  1  0  0  0  0
  9 31  1  0  0  0  0
  9 32  1  0  0  0  0
 10 11  2  0  0  0  0
 10 12  1  0  0  0  0
 12 13  1  0  0  0  0
 12 33  1  0  0  0  0
 13 14  1  0  0  0  0
 13 34  1  0  0  0  0
 13 35  1  0  0  0  0
 14 18  1  0  0  0  0
 14 15  1  0  0  0  0
 14 36  1  0  0  0  0
 15 16  1  0  0  0  0
 15 37  1  0  0  0  0
 15 38  1  0  0  0  0
 16 17  1  0  0  0  0
 16 39  1  0  0  0  0
 16 40  1  0  0  0  0
 17 18  1  0  0  0  0
 18 19  1  0  0  0  0
 18 41  1  0  0  0  0
 19 20  1  0  0  0  0
 19 21  1  0  0  0  0
 19 42  1  0  0  0  0
 20 43  1  0  0  0  0
 20 44  1  0  0  0  0
 20 45  1  0  0  0  0
 21 46  1  0  0  0  0
 21 47  1  0  0  0  0
 21 48  1  0  0  0  0
M  END
> <s_m_source_file>
AV-unprocessed.smi

> <i_m_source_file_index>
667

> <i_lp_mmshare_version>
43012

> <i_f3d_flags>
0

> <s_epik_input>
W0NIM11jMW5uKFtDSDNdKWMoW0NIM10pYzFbQ0gyXUMoPU8pW05IXVtDSDJdW0NAQEhdMltDSDJdW0NIMl1PW0NASF0yW0NIXShbQ0gzXSlbQ0gzXQ==

> <s_epik_cmdline>
J2VwaWtfcHl0aG9uJywgJy1waCcsICc3LjAnLCAnLXRuJywgJzgnLCAnLW1hJywgJzIwMCcsICctbWV0YWxfYmluZGluZycsICctaW1hZScsICc8aW5maWxlLm1hZT4nLCAnLW9tYWUnLCAnPG91dGZpbGUubWFlPic=

> <r_lp_tautomer_probability>
1

> <r_epik_Ionization_Penalty>
0.00315488

> <r_epik_Ionization_Penalty_Charging>
0

> <r_epik_Ionization_Penalty_Neutral>
0.00315488

> <r_epik_State_Penalty>
0.00222269

> <r_epik_Charging_Adjusted_Penalty>
0.00222269

> <i_epik_Tot_Q>
0

> <i_epik_Tot_abs_Q>
0

> <r_epik_Metal_State_Penalty>
-0

> <b_epik_Metal_Only>
0

> <s_lp_Force_Field>
OPLS_2005

> <r_lp_Energy>
17.3848

> <b_lp_Chiralities_Consistent>
1

> <s_lp_Variant>
AV-unprocessed.smi:667-3

> <Gold.Version>
5.8.1

> <Gold.Id.Protein>
6NUR|6NUR_protein|mol2

> <Gold.PLP.Fitness>
53.1895

> <Gold.PLP.PLP>
-52.5946

> <Gold.PLP.part.hbond>
-1.0000

> <Gold.PLP.part.metal>
0.0000

> <Gold.PLP.part.buried>
-4.6745

> <Gold.PLP.part.nonpolar>
-47.6902

> <Gold.PLP.part.repulsive>
0.3373

> <Gold.PLP.ligand.clash>
0.0000

> <Gold.PLP.ligand.torsion>
1.1708

> <Gold.PLP.Chemscore.Hbond>
0.9600

> <Gold.PLP.Chemscore.CHOScore>
0.0000

> <Gold.PLP.Chemscore.Metal>
0.0000

> <Gold.Chemscore.Hbonds>
donor molecule, donor type, donor heavy atom, donor atom, acceptor molecule, acceptor atom, score
      L1  H    12    33       P1  8028  0.96

> <Gold.PLP.Chemscore.Internal.Correction>
0.0565

> <Gold.Rescore>
     Score         DG    S(hbond)    S(metal)    S(lipo)     H(rot)  DE(clash)    DE(int)     intcor
     19.36     -20.51       0.98        0.00     133.68       1.52       0.08       1.07       ----

> <Gold.Chemscore.Fitness>
19.3609

> <Gold.Chemscore.DG>
-20.5103

> <Gold.Chemscore.ZeroCoef>
-5.4800

> <Gold.Chemscore.Hbond>
0.9833

> <Gold.Chemscore.Metal>
0.0000

> <Gold.Chemscore.Lipo>
133.6791

> <Gold.Chemscore.Internal_Hbond>
0.0000

> <Gold.Chemscore.DEClash>
0.0796

> <Gold.Chemscore.DEInternal>
1.0698

> <Gold.Chemscore.Rot>
1.5213

> <Gold.Chemscore.Internal.Correction>
   9.000000E+99

> <Gold.Chemscore.Hbonds>
donor molecule, donor type, donor heavy atom, donor atom, acceptor molecule, acceptor atom, score
      L1  H    12    33       P1  8028  0.92

> <Gold.Chemscore.Hbond.Weighted>
-3.2844

> <Gold.Chemscore.Metal.Weighted>
-0.0000

> <Gold.Chemscore.Lipo.Weighted>
-15.6405

> <Gold.Chemscore.Internal_Hbond.Weighted>
0.0000

> <Gold.Chemscore.DEClash.Weighted>
0.0796

> <Gold.Chemscore.DEInternal.Weighted>
1.0698

> <Gold.Chemscore.Rot.Weighted>
3.8945

> <Gold.Chemscore.Internal.Correction.Weighted>
   9.000000E+99

> <Gold.Protein.RotatedTorsions>
[ 6907 6896 6895 6894 ] final  147.21 input  -60.11 | X-H torsion
[ 7974 7965 7964 7962 ] final  129.55 input  175.53 | X-H torsion
[ 8008 7997 7996 7995 ] final   51.09 input   59.86 | X-H torsion
[ 10167 10162 10161 10158 ] final    0.02 input  -65.29 | X-H torsion
[ 10718 10713 10712 10709 ] final  -41.64 input   66.30 | X-H torsion
[ 10763 10752 10751 10750 ] final  176.21 input  -60.55 | X-H torsion
[ 11005 11000 10999 10996 ] final  104.92 input  -57.11 | X-H torsion

> <Gold.Protein.ActiveResidues>
 VAL166  LYS551  ARG553  GLY616  TRP617  ASP618  TYR619  PRO620  LYS621  CYS622 
 ASP623  PHE694  ASN695  SER759  ASP760  ASP761  ALA762  ILE779  LEU786  VAL792 
 PHE793  MET794  SER795  GLU796  ALA797  LYS798  CYS799  TRP800  GLU811  SER814 

> <Gold.Protein.RotatedAtoms>
  152.1578  133.4562  159.4845 H   0  0  0  0  0  0  0  0  0  0  0  0  # atno 6907 bound_to 6896
  150.6903  134.2109  159.4368 H   0  0  0  0  0  0  0  0  0  0  0  0  # atno 6908 bound_to 6896
  152.0009  134.9928  160.0615 H   0  0  0  0  0  0  0  0  0  0  0  0  # atno 6909 bound_to 6896
  145.0274  139.4077  143.5167 H   0  0  0  0  0  0  0  0  0  0  0  0  # atno 7974 bound_to 7965
  155.4295  140.3450  155.4279 H   0  0  0  0  0  0  0  0  0  0  0  0  # atno 8008 bound_to 7997
  156.1345  140.1524  156.9046 H   0  0  0  0  0  0  0  0  0  0  0  0  # atno 8009 bound_to 7997
  154.4921  140.0838  156.7596 H   0  0  0  0  0  0  0  0  0  0  0  0  # atno 8010 bound_to 7997
  140.6747  143.6949  150.7998 H   0  0  0  0  0  0  0  0  0  0  0  0  # atno 10167 bound_to 10162
  156.2681  130.4204  149.8467 H   0  0  0  0  0  0  0  0  0  0  0  0  # atno 10718 bound_to 10713
  154.4781  135.2773  155.1592 H   0  0  0  0  0  0  0  0  0  0  0  0  # atno 10763 bound_to 10752
  154.3313  135.6189  153.5556 H   0  0  0  0  0  0  0  0  0  0  0  0  # atno 10764 bound_to 10752
  152.9872  135.5766  154.5175 H   0  0  0  0  0  0  0  0  0  0  0  0  # atno 10765 bound_to 10752
  139.8796  134.9317  156.5435 H   0  0  0  0  0  0  0  0  0  0  0  0  # atno 11005 bound_to 11000
  146.3494  139.9805  142.8696 LP  0  0  0  0  0  0  0  0  0  0  0  0  # atno 17320 bound_to 7965
  145.1815  140.9769  143.4263 LP  0  0  0  0  0  0  0  0  0  0  0  0  # atno 17321 bound_to 7965
  140.0640  143.5126  152.2613 LP  0  0  0  0  0  0  0  0  0  0  0  0  # atno 17342 bound_to 10162
  139.6033  144.7589  151.3120 LP  0  0  0  0  0  0  0  0  0  0  0  0  # atno 17343 bound_to 10162
  156.5958  130.8526  151.3419 LP  0  0  0  0  0  0  0  0  0  0  0  0  # atno 17370 bound_to 10713
  157.7274  130.9643  150.1699 LP  0  0  0  0  0  0  0  0  0  0  0  0  # atno 17371 bound_to 10713
  140.8293  133.8292  155.8969 LP  0  0  0  0  0  0  0  0  0  0  0  0  # atno 17394 bound_to 11000
  140.9344  134.1981  157.4841 LP  0  0  0  0  0  0  0  0  0  0  0  0  # atno 17395 bound_to 11000

$$$$
