AV-unprocessed.smi:2168|AV-procd|sdf|8819|dock3
  -GOLD-   2272012 13D 1   1.00000     0.00000
 Structure written by MMmdl.
 47 48  0  0  0  0  0  0  0  0  2 V2000
  147.9169  132.7159  161.6204 C   0  0  0  0  0  0  0  0  0  0  0  0
  147.0838  133.4282  160.5448 C   0  0  0  0  0  0  0  0  0  0  0  0
  146.9704  134.8811  160.7757 N   0  0  0  0  0  0  0  0  0  0  0  0
  146.5984  135.3129  162.1377 C   0  0  0  0  0  0  0  0  0  0  0  0
  147.6503  136.2273  162.7861 C   0  0  0  0  0  0  0  0  0  0  0  0
  147.6882  136.0045  159.6611 S   0  0  0  0  0  0  0  0  0  0  0  0
  147.0236  137.3101  159.7915 O   0  0  0  0  0  0  0  0  0  0  0  0
  149.1525  135.8892  159.7445 O   0  0  0  0  0  0  0  0  0  0  0  0
  147.1741  135.2981  158.1753 N   0  0  0  0  0  0  0  0  0  0  0  0
  148.1627  134.6973  157.2836 C   0  0  0  0  0  0  0  0  0  0  0  0
  147.5772  134.3419  155.9305 C   0  0  0  0  0  0  0  0  0  0  0  0
  146.5615  133.3703  155.8166 C   0  0  0  0  0  0  0  0  0  0  0  0
  146.0191  133.0793  154.5478 C   0  0  0  0  0  0  0  0  0  0  0  0
  146.4954  133.7627  153.4023 C   0  0  0  0  0  0  0  0  0  0  0  0
  145.9824  133.5200  152.1096 N   0  0  0  0  0  0  0  0  0  0  0  0
  144.6739  134.1004  151.8189 C   0  0  0  0  0  0  0  0  0  0  0  0
  144.3846  134.0397  150.3095 C   0  0  0  0  0  0  0  0  0  0  0  0
  144.5143  132.6994  149.8483 O   0  0  0  0  0  0  0  0  0  0  0  0
  145.8343  132.2010  150.0339 C   0  0  0  0  0  0  0  0  0  0  0  0
  146.1770  132.1911  151.5332 C   0  0  0  0  0  0  0  0  0  0  0  0
  147.4732  134.6885  153.5682 N   0  3  0  0  0  0  0  0  0  0  0  0
  148.0228  134.9942  154.7630 C   0  0  0  0  0  0  0  0  0  0  0  0
  148.0158  131.6563  161.3843 H   0  0  0  0  0  0  0  0  0  0  0  0
  147.4492  132.7842  162.6021 H   0  0  0  0  0  0  0  0  0  0  0  0
  148.9228  133.1283  161.6927 H   0  0  0  0  0  0  0  0  0  0  0  0
  147.5228  133.2495  159.5636 H   0  0  0  0  0  0  0  0  0  0  0  0
  146.0833  132.9960  160.5091 H   0  0  0  0  0  0  0  0  0  0  0  0
  145.6439  135.8373  162.0874 H   0  0  0  0  0  0  0  0  0  0  0  0
  146.4302  134.4388  162.7677 H   0  0  0  0  0  0  0  0  0  0  0  0
  147.3744  136.4540  163.8160 H   0  0  0  0  0  0  0  0  0  0  0  0
  147.7329  137.1781  162.2604 H   0  0  0  0  0  0  0  0  0  0  0  0
  148.6377  135.7679  162.8044 H   0  0  0  0  0  0  0  0  0  0  0  0
  146.4519  135.8365  157.6970 H   0  0  0  0  0  0  0  0  0  0  0  0
  148.9741  135.4094  157.1325 H   0  0  0  0  0  0  0  0  0  0  0  0
  148.5976  133.8195  157.7635 H   0  0  0  0  0  0  0  0  0  0  0  0
  146.1899  132.8591  156.6928 H   0  0  0  0  0  0  0  0  0  0  0  0
  145.2271  132.3494  154.4745 H   0  0  0  0  0  0  0  0  0  0  0  0
  143.9129  133.5430  152.3665 H   0  0  0  0  0  0  0  0  0  0  0  0
  144.6078  135.1362  152.1480 H   0  0  0  0  0  0  0  0  0  0  0  0
  143.3715  134.3876  150.1079 H   0  0  0  0  0  0  0  0  0  0  0  0
  145.0611  134.6938  149.7570 H   0  0  0  0  0  0  0  0  0  0  0  0
  145.8934  131.1909  149.6287 H   0  0  0  0  0  0  0  0  0  0  0  0
  146.5470  132.8101  149.4754 H   0  0  0  0  0  0  0  0  0  0  0  0
  147.2112  131.8694  151.6613 H   0  0  0  0  0  0  0  0  0  0  0  0
  145.5431  131.4741  152.0566 H   0  0  0  0  0  0  0  0  0  0  0  0
  148.7887  135.7560  154.7503 H   0  0  0  0  0  0  0  0  0  0  0  0
  147.8137  135.1834  152.7437 H   0  0  0  0  0  0  0  0  0  0  0  0
  1  2  1  0  0  0  0
  1 23  1  0  0  0  0
  1 24  1  0  0  0  0
  1 25  1  0  0  0  0
  2  3  1  0  0  0  0
  2 26  1  0  0  0  0
  2 27  1  0  0  0  0
  3  4  1  0  0  0  0
  3  6  1  0  0  0  0
  4  5  1  0  0  0  0
  4 28  1  0  0  0  0
  4 29  1  0  0  0  0
  5 30  1  0  0  0  0
  5 31  1  0  0  0  0
  5 32  1  0  0  0  0
  6  7  2  0  0  0  0
  6  8  2  0  0  0  0
  6  9  1  0  0  0  0
  9 10  1  0  0  0  0
  9 33  1  0  0  0  0
 10 11  1  0  0  0  0
 10 34  1  0  0  0  0
 10 35  1  0  0  0  0
 11 22  1  0  0  0  0
 11 12  2  0  0  0  0
 12 13  1  0  0  0  0
 12 36  1  0  0  0  0
 13 14  2  0  0  0  0
 13 37  1  0  0  0  0
 14 15  1  0  0  0  0
 14 21  1  0  0  0  0
 15 20  1  0  0  0  0
 15 16  1  0  0  0  0
 16 17  1  0  0  0  0
 16 38  1  0  0  0  0
 16 39  1  0  0  0  0
 17 18  1  0  0  0  0
 17 40  1  0  0  0  0
 17 41  1  0  0  0  0
 18 19  1  0  0  0  0
 19 20  1  0  0  0  0
 19 42  1  0  0  0  0
 19 43  1  0  0  0  0
 20 44  1  0  0  0  0
 20 45  1  0  0  0  0
 21 22  2  0  0  0  0
 21 47  1  0  0  0  0
 22 46  1  0  0  0  0
M  CHG  1  21   1
M  END
> <s_m_source_file>
AV-unprocessed.smi

> <i_m_source_file_index>
2168

> <i_lp_mmshare_version>
43012

> <i_f3d_flags>
0

> <s_epik_input>
W0NIM11bQ0gyXU4oW0NIMl1bQ0gzXSlTKD1PKSg9TylbTkhdW0NIMl1jMVtjSF1bY0hdYyhuW2NIXTEpTjJbQ0gyXVtDSDJdT1tDSDJdW0NIMl0y

> <s_epik_cmdline>
J2VwaWtfcHl0aG9uJywgJy1waCcsICc3LjAnLCAnLXRuJywgJzgnLCAnLW1hJywgJzIwMCcsICctbWV0YWxfYmluZGluZycsICctaW1hZScsICc8aW5maWxlLm1hZT4nLCAnLW9tYWUnLCAnPG91dGZpbGUubWFlPic=

> <r_lp_tautomer_probability>
0.999994

> <r_epik_Ionization_Penalty>
2.66893

> <r_epik_Ionization_Penalty_Charging>
2.61323

> <r_epik_Ionization_Penalty_Neutral>
0.0557011

> <r_epik_State_Penalty>
2.68492

> <r_epik_Charging_Adjusted_Penalty>
5.29815

> <i_epik_Tot_Q>
1

> <i_epik_Tot_abs_Q>
1

> <r_epik_Metal_State_Penalty>
5.63236

> <b_epik_Metal_Only>
0

> <s_lp_Force_Field>
OPLS_2005

> <r_lp_Energy>
21.5493

> <b_lp_Chiralities_Consistent>
1

> <s_lp_Variant>
AV-unprocessed.smi:2168-2

> <Gold.Version>
5.8.1

> <Gold.Id.Protein>
6NUR|6NUR_protein|mol2

> <Gold.PLP.Fitness>
42.5979

> <Gold.PLP.PLP>
-31.2146

> <Gold.PLP.part.hbond>
-3.0000

> <Gold.PLP.part.metal>
0.0000

> <Gold.PLP.part.buried>
-5.4831

> <Gold.PLP.part.nonpolar>
-22.9196

> <Gold.PLP.part.repulsive>
0.2861

> <Gold.PLP.ligand.clash>
0.0000

> <Gold.PLP.ligand.torsion>
1.7619

> <Gold.PLP.Chemscore.Hbond>
4.0000

> <Gold.PLP.Chemscore.CHOScore>
0.0000

> <Gold.PLP.Chemscore.Metal>
0.0000

> <Gold.Chemscore.Hbonds>
donor molecule, donor type, donor heavy atom, donor atom, acceptor molecule, acceptor atom, score
      L1  H    21    47       P1  7948  2.00
      P1  H  6896  6908       L1     8  1.00
      P1  H  6934  6947       L1     7  0.94

> <Gold.PLP.Chemscore.Internal.Correction>
2.9071

> <Gold.Rescore>
     Score         DG    S(hbond)    S(metal)    S(lipo)     H(rot)  DE(clash)    DE(int)     intcor
     16.44     -18.19       2.93        0.00      68.66       1.99       0.01       1.74       ----

> <Gold.Chemscore.Fitness>
16.4431

> <Gold.Chemscore.DG>
-18.1910

> <Gold.Chemscore.ZeroCoef>
-5.4800

> <Gold.Chemscore.Hbond>
2.9282

> <Gold.Chemscore.Metal>
0.0000

> <Gold.Chemscore.Lipo>
68.6611

> <Gold.Chemscore.Internal_Hbond>
0.0000

> <Gold.Chemscore.DEClash>
0.0073

> <Gold.Chemscore.DEInternal>
1.7406

> <Gold.Chemscore.Rot>
1.9932

> <Gold.Chemscore.Internal.Correction>
   9.000000E+99

> <Gold.Chemscore.Hbonds>
donor molecule, donor type, donor heavy atom, donor atom, acceptor molecule, acceptor atom, score
      L1  H    21    47       P1  7948  0.98
      P1  H  6896  6908       L1     8  0.98
      P1  H  6934  6947       L1     7  0.87

> <Gold.Chemscore.Hbond.Weighted>
-9.7802

> <Gold.Chemscore.Metal.Weighted>
-0.0000

> <Gold.Chemscore.Lipo.Weighted>
-8.0334

> <Gold.Chemscore.Internal_Hbond.Weighted>
0.0000

> <Gold.Chemscore.DEClash.Weighted>
0.0073

> <Gold.Chemscore.DEInternal.Weighted>
1.7406

> <Gold.Chemscore.Rot.Weighted>
5.1025

> <Gold.Chemscore.Internal.Correction.Weighted>
   9.000000E+99

> <Gold.Protein.RotatedTorsions>
[ 6907 6896 6895 6894 ] final -173.76 input  -60.11 | X-H torsion
[ 7974 7965 7964 7962 ] final -139.52 input  175.53 | X-H torsion
[ 8008 7997 7996 7995 ] final    5.21 input   59.86 | X-H torsion
[ 10167 10162 10161 10158 ] final  166.93 input  -65.29 | X-H torsion
[ 10718 10713 10712 10709 ] final -165.71 input   66.30 | X-H torsion
[ 10763 10752 10751 10750 ] final   25.09 input  -60.55 | X-H torsion
[ 11005 11000 10999 10996 ] final  130.14 input  -57.11 | X-H torsion

> <Gold.Protein.ActiveResidues>
 VAL166  LYS551  ARG553  GLY616  TRP617  ASP618  TYR619  PRO620  LYS621  CYS622 
 ASP623  PHE694  ASN695  SER759  ASP760  ASP761  ALA762  ILE779  LEU786  VAL792 
 PHE793  MET794  SER795  GLU796  ALA797  LYS798  CYS799  TRP800  GLU811  SER814 

> <Gold.Protein.RotatedAtoms>
  151.5614  133.3402  159.2971 H   0  0  0  0  0  0  0  0  0  0  0  0  # atno 6907 bound_to 6896
  150.8420  134.7719  159.6951 H   0  0  0  0  0  0  0  0  0  0  0  0  # atno 6908 bound_to 6896
  152.4486  134.5449  159.9901 H   0  0  0  0  0  0  0  0  0  0  0  0  # atno 6909 bound_to 6896
  144.8670  140.6309  143.5291 H   0  0  0  0  0  0  0  0  0  0  0  0  # atno 7974 bound_to 7965
  154.7255  140.2720  155.6503 H   0  0  0  0  0  0  0  0  0  0  0  0  # atno 8008 bound_to 7997
  156.2835  140.2726  156.1865 H   0  0  0  0  0  0  0  0  0  0  0  0  # atno 8009 bound_to 7997
  155.0450  140.0371  157.2513 H   0  0  0  0  0  0  0  0  0  0  0  0  # atno 8010 bound_to 7997
  139.4935  144.3975  151.9447 H   0  0  0  0  0  0  0  0  0  0  0  0  # atno 10167 bound_to 10162
  156.6574  130.9032  151.3023 H   0  0  0  0  0  0  0  0  0  0  0  0  # atno 10718 bound_to 10713
  153.0716  135.6591  154.0234 H   0  0  0  0  0  0  0  0  0  0  0  0  # atno 10763 bound_to 10752
  153.9878  135.2949  155.3416 H   0  0  0  0  0  0  0  0  0  0  0  0  # atno 10764 bound_to 10752
  154.7093  135.5212  153.8712 H   0  0  0  0  0  0  0  0  0  0  0  0  # atno 10765 bound_to 10752
  139.9655  134.9592  156.9250 H   0  0  0  0  0  0  0  0  0  0  0  0  # atno 11005 bound_to 11000
  145.4202  139.1565  143.4078 LP  0  0  0  0  0  0  0  0  0  0  0  0  # atno 17320 bound_to 7965
  146.2903  140.4312  142.8742 LP  0  0  0  0  0  0  0  0  0  0  0  0  # atno 17321 bound_to 7965
  140.3414  144.3199  150.5966 LP  0  0  0  0  0  0  0  0  0  0  0  0  # atno 17342 bound_to 10162
  140.5563  143.2198  151.7842 LP  0  0  0  0  0  0  0  0  0  0  0  0  # atno 17343 bound_to 10162
  157.7121  130.9453  150.1125 LP  0  0  0  0  0  0  0  0  0  0  0  0  # atno 17370 bound_to 10713
  156.2037  130.3662  149.8756 LP  0  0  0  0  0  0  0  0  0  0  0  0  # atno 17371 bound_to 10713
  140.5406  134.0723  155.7340 LP  0  0  0  0  0  0  0  0  0  0  0  0  # atno 17394 bound_to 11000
  141.1334  133.9263  157.2486 LP  0  0  0  0  0  0  0  0  0  0  0  0  # atno 17395 bound_to 11000

$$$$
