AV-unprocessed.smi:2310|AV-procd|sdf|9255|dock10
  -GOLD-   2272012473D 1   1.00000     0.00000
 Structure written by MMmdl.
 45 46  0  0  0  0  0  0  0  0  1 V2000
  156.2571  134.3561  162.5002 C   0  0  0  0  0  0  0  0  0  0  0  0
  156.4066  133.8389  161.0619 C   0  0  0  0  0  0  0  0  0  0  0  0
  155.4222  134.4823  160.0680 C   0  0  2  0  0  0  0  0  0  0  0  0
  155.6754  133.9924  158.6335 C   0  0  0  0  0  0  0  0  0  0  0  0
  154.6728  134.4700  157.6675 C   0  0  0  0  0  0  0  0  0  0  0  0
  153.8852  134.8455  156.9080 N   0  0  0  0  0  0  0  0  0  0  0  0
  155.5390  135.9396  160.1222 N   0  0  0  0  0  0  0  0  0  0  0  0
  154.5560  136.8169  159.8726 C   0  0  0  0  0  0  0  0  0  0  0  0
  153.4146  136.4898  159.5491 O   0  0  0  0  0  0  0  0  0  0  0  0
  154.9831  138.0791  160.0448 N   0  0  0  0  0  0  0  0  0  0  0  0
  154.2436  139.2882  159.9191 C   0  0  0  0  0  0  0  0  0  0  0  0
  153.0568  139.3983  159.1570 C   0  0  0  0  0  0  0  0  0  0  0  0
  152.4054  140.6434  159.0762 C   0  0  0  0  0  0  0  0  0  0  0  0
  152.9616  141.7569  159.7475 C   0  0  0  0  0  0  0  0  0  0  0  0
  152.3411  143.0212  159.6982 N   0  0  0  0  0  0  0  0  0  0  0  0
  151.7682  143.5491  158.4676 C   0  0  0  0  0  0  0  0  0  0  0  0
  151.8198  145.0751  158.6081 C   0  0  0  0  0  0  0  0  0  0  0  0
  151.9315  145.3096  160.1146 C   0  0  0  0  0  0  0  0  0  0  0  0
  152.7292  144.0988  160.5954 C   0  0  0  0  0  0  0  0  0  0  0  0
  154.1018  141.6532  160.4696 N   0  0  0  0  0  0  0  0  0  0  0  0
  154.7273  140.4589  160.5487 C   0  0  0  0  0  0  0  0  0  0  0  0
  155.9994  140.4457  161.3776 C   0  0  0  0  0  0  0  0  0  0  0  0
  156.9345  133.8298  163.1728 H   0  0  0  0  0  0  0  0  0  0  0  0
  155.2415  134.2056  162.8674 H   0  0  0  0  0  0  0  0  0  0  0  0
  156.4850  135.4199  162.5703 H   0  0  0  0  0  0  0  0  0  0  0  0
  157.4312  134.0006  160.7244 H   0  0  0  0  0  0  0  0  0  0  0  0
  156.2560  132.7588  161.0635 H   0  0  0  0  0  0  0  0  0  0  0  0
  154.4159  134.1696  160.3525 H   0  0  0  0  0  0  0  0  0  0  0  0
  156.6591  134.3086  158.2854 H   0  0  0  0  0  0  0  0  0  0  0  0
  155.6590  132.9029  158.5992 H   0  0  0  0  0  0  0  0  0  0  0  0
  156.4414  136.3086  160.3841 H   0  0  0  0  0  0  0  0  0  0  0  0
  155.9257  138.1842  160.3900 H   0  0  0  0  0  0  0  0  0  0  0  0
  152.6401  138.5578  158.6238 H   0  0  0  0  0  0  0  0  0  0  0  0
  151.4929  140.7243  158.5049 H   0  0  0  0  0  0  0  0  0  0  0  0
  152.3150  143.2220  157.5825 H   0  0  0  0  0  0  0  0  0  0  0  0
  150.7379  143.2024  158.3829 H   0  0  0  0  0  0  0  0  0  0  0  0
  152.7147  145.4569  158.1148 H   0  0  0  0  0  0  0  0  0  0  0  0
  150.9563  145.5704  158.1636 H   0  0  0  0  0  0  0  0  0  0  0  0
  152.4072  146.2579  160.3666 H   0  0  0  0  0  0  0  0  0  0  0  0
  150.9374  145.3003  160.5635 H   0  0  0  0  0  0  0  0  0  0  0  0
  152.5077  143.8579  161.6358 H   0  0  0  0  0  0  0  0  0  0  0  0
  153.8006  144.2818  160.5024 H   0  0  0  0  0  0  0  0  0  0  0  0
  155.9058  139.7400  162.2035 H   0  0  0  0  0  0  0  0  0  0  0  0
  156.2144  141.4292  161.7975 H   0  0  0  0  0  0  0  0  0  0  0  0
  156.8501  140.1491  160.7635 H   0  0  0  0  0  0  0  0  0  0  0  0
  1  2  1  0  0  0  0
  1 23  1  0  0  0  0
  1 24  1  0  0  0  0
  1 25  1  0  0  0  0
  2  3  1  0  0  0  0
  2 26  1  0  0  0  0
  2 27  1  0  0  0  0
  3  4  1  0  0  0  0
  3  7  1  0  0  0  0
  3 28  1  0  0  0  0
  4  5  1  0  0  0  0
  4 29  1  0  0  0  0
  4 30  1  0  0  0  0
  5  6  3  0  0  0  0
  7  8  1  0  0  0  0
  7 31  1  0  0  0  0
  8  9  2  0  0  0  0
  8 10  1  0  0  0  0
 10 11  1  0  0  0  0
 10 32  1  0  0  0  0
 11 21  1  0  0  0  0
 11 12  2  0  0  0  0
 12 13  1  0  0  0  0
 12 33  1  0  0  0  0
 13 14  2  0  0  0  0
 13 34  1  0  0  0  0
 14 15  1  0  0  0  0
 14 20  1  0  0  0  0
 15 19  1  0  0  0  0
 15 16  1  0  0  0  0
 16 17  1  0  0  0  0
 16 35  1  0  0  0  0
 16 36  1  0  0  0  0
 17 18  1  0  0  0  0
 17 37  1  0  0  0  0
 17 38  1  0  0  0  0
 18 19  1  0  0  0  0
 18 39  1  0  0  0  0
 18 40  1  0  0  0  0
 19 41  1  0  0  0  0
 19 42  1  0  0  0  0
 20 21  2  0  0  0  0
 21 22  1  0  0  0  0
 22 43  1  0  0  0  0
 22 44  1  0  0  0  0
 22 45  1  0  0  0  0
M  END
> <s_m_source_file>
AV-unprocessed.smi

> <i_m_source_file_index>
2310

> <i_lp_mmshare_version>
43012

> <i_f3d_flags>
0

> <s_epik_input>
TiNDW0NIMl1bQ0BASF0oW0NIMl1bQ0gzXSlbTkhdQyg9TylbTkhdYzFbY0hdW2NIXWMobmMxW0NIM10pTjJbQ0gyXVtDSDJdW0NIMl1bQ0gyXTI=

> <s_epik_cmdline>
J2VwaWtfcHl0aG9uJywgJy1waCcsICc3LjAnLCAnLXRuJywgJzgnLCAnLW1hJywgJzIwMCcsICctbWV0YWxfYmluZGluZycsICctaW1hZScsICc8aW5maWxlLm1hZT4nLCAnLW9tYWUnLCAnPG91dGZpbGUubWFlPic=

> <r_lp_tautomer_probability>
1

> <r_epik_Ionization_Penalty>
0.281354

> <r_epik_Ionization_Penalty_Charging>
0

> <r_epik_Ionization_Penalty_Neutral>
0.281354

> <r_epik_State_Penalty>
0.273364

> <r_epik_Charging_Adjusted_Penalty>
0.273364

> <i_epik_Tot_Q>
0

> <i_epik_Tot_abs_Q>
0

> <r_epik_Metal_State_Penalty>
0.18752

> <b_epik_Metal_Only>
0

> <s_lp_Force_Field>
OPLS_2005

> <r_lp_Energy>
30.6963

> <b_lp_Chiralities_Consistent>
1

> <s_lp_Variant>
AV-unprocessed.smi:2310-1

> <Gold.Version>
5.8.1

> <Gold.Id.Protein>
6NUR|6NUR_protein|mol2

> <Gold.PLP.Fitness>
47.9013

> <Gold.PLP.PLP>
-43.4153

> <Gold.PLP.part.hbond>
-2.0000

> <Gold.PLP.part.metal>
0.0000

> <Gold.PLP.part.buried>
-5.7517

> <Gold.PLP.part.nonpolar>
-36.5022

> <Gold.PLP.part.repulsive>
0.0541

> <Gold.PLP.ligand.clash>
0.0000

> <Gold.PLP.ligand.torsion>
0.8612

> <Gold.PLP.Chemscore.Hbond>
2.0000

> <Gold.PLP.Chemscore.CHOScore>
0.0000

> <Gold.PLP.Chemscore.Metal>
0.0000

> <Gold.Chemscore.Hbonds>
donor molecule, donor type, donor heavy atom, donor atom, acceptor molecule, acceptor atom, score
      P1  H  6896  6909       L1     9  0.93
      P1  H 10752 10765       L1     6  0.83

> <Gold.PLP.Chemscore.Internal.Correction>
0.2085

> <Gold.Rescore>
     Score         DG    S(hbond)    S(metal)    S(lipo)     H(rot)  DE(clash)    DE(int)     intcor
     15.41     -17.06       1.00        0.00     102.16       1.45       0.00       1.64       ----

> <Gold.Chemscore.Fitness>
15.4139

> <Gold.Chemscore.DG>
-17.0626

> <Gold.Chemscore.ZeroCoef>
-5.4800

> <Gold.Chemscore.Hbond>
1.0000

> <Gold.Chemscore.Metal>
0.0000

> <Gold.Chemscore.Lipo>
102.1593

> <Gold.Chemscore.Internal_Hbond>
0.0000

> <Gold.Chemscore.DEClash>
0.0038

> <Gold.Chemscore.DEInternal>
1.6449

> <Gold.Chemscore.Rot>
1.4492

> <Gold.Chemscore.Internal.Correction>
   9.000000E+99

> <Gold.Chemscore.Hbonds>
donor molecule, donor type, donor heavy atom, donor atom, acceptor molecule, acceptor atom, score
      P1  H  6896  6909       L1     9  0.86
      P1  H 10752 10765       L1     6  0.81

> <Gold.Chemscore.Hbond.Weighted>
-3.3399

> <Gold.Chemscore.Metal.Weighted>
-0.0000

> <Gold.Chemscore.Lipo.Weighted>
-11.9526

> <Gold.Chemscore.Internal_Hbond.Weighted>
0.0000

> <Gold.Chemscore.DEClash.Weighted>
0.0038

> <Gold.Chemscore.DEInternal.Weighted>
1.6449

> <Gold.Chemscore.Rot.Weighted>
3.7100

> <Gold.Chemscore.Internal.Correction.Weighted>
   9.000000E+99

> <Gold.Protein.RotatedTorsions>
[ 6907 6896 6895 6894 ] final  173.10 input  -60.11 | X-H torsion
[ 7974 7965 7964 7962 ] final   58.21 input  175.53 | X-H torsion
[ 8008 7997 7996 7995 ] final -113.84 input   59.86 | X-H torsion
[ 10167 10162 10161 10158 ] final   25.66 input  -65.29 | X-H torsion
[ 10718 10713 10712 10709 ] final -112.76 input   66.30 | X-H torsion
[ 10763 10752 10751 10750 ] final  -80.16 input  -60.55 | X-H torsion
[ 11005 11000 10999 10996 ] final  -72.76 input  -57.11 | X-H torsion

> <Gold.Protein.ActiveResidues>
 VAL166  LYS551  ARG553  GLY616  TRP617  ASP618  TYR619  PRO620  LYS621  CYS622 
 ASP623  PHE694  ASN695  SER759  ASP760  ASP761  ALA762  ILE779  LEU786  VAL792 
 PHE793  MET794  SER795  GLU796  ALA797  LYS798  CYS799  TRP800  GLU811  SER814 

> <Gold.Protein.RotatedAtoms>
  151.7738  133.3343  159.3451 H   0  0  0  0  0  0  0  0  0  0  0  0  # atno 6907 bound_to 6896
  150.7452  134.5994  159.6038 H   0  0  0  0  0  0  0  0  0  0  0  0  # atno 6908 bound_to 6896
  152.3323  134.7245  160.0337 H   0  0  0  0  0  0  0  0  0  0  0  0  # atno 6909 bound_to 6896
  145.9206  139.3727  143.0480 H   0  0  0  0  0  0  0  0  0  0  0  0  # atno 7974 bound_to 7965
  155.0270  140.0393  157.2459 H   0  0  0  0  0  0  0  0  0  0  0  0  # atno 8008 bound_to 7997
  154.7329  140.2734  155.6417 H   0  0  0  0  0  0  0  0  0  0  0  0  # atno 8009 bound_to 7997
  156.2846  140.2680  156.2034 H   0  0  0  0  0  0  0  0  0  0  0  0  # atno 8010 bound_to 7997
  140.5087  144.0195  150.6363 H   0  0  0  0  0  0  0  0  0  0  0  0  # atno 10167 bound_to 10162
  156.0725  130.5937  150.8551 H   0  0  0  0  0  0  0  0  0  0  0  0  # atno 10718 bound_to 10713
  154.5477  135.5670  153.6895 H   0  0  0  0  0  0  0  0  0  0  0  0  # atno 10763 bound_to 10752
  152.9981  135.6243  154.2416 H   0  0  0  0  0  0  0  0  0  0  0  0  # atno 10764 bound_to 10752
  154.2349  135.2864  155.2855 H   0  0  0  0  0  0  0  0  0  0  0  0  # atno 10765 bound_to 10752
  141.1613  133.6857  156.7109 H   0  0  0  0  0  0  0  0  0  0  0  0  # atno 11005 bound_to 11000
  145.8554  140.9505  143.0728 LP  0  0  0  0  0  0  0  0  0  0  0  0  # atno 17320 bound_to 7965
  144.6752  140.0461  143.7480 LP  0  0  0  0  0  0  0  0  0  0  0  0  # atno 17321 bound_to 7965
  140.3512  143.2962  152.0485 LP  0  0  0  0  0  0  0  0  0  0  0  0  # atno 17342 bound_to 10162
  139.4890  144.6372  151.6950 LP  0  0  0  0  0  0  0  0  0  0  0  0  # atno 17343 bound_to 10162
  157.5803  131.0946  150.9281 LP  0  0  0  0  0  0  0  0  0  0  0  0  # atno 17370 bound_to 10713
  156.9478  130.5408  149.5281 LP  0  0  0  0  0  0  0  0  0  0  0  0  # atno 17371 bound_to 10713
  140.2888  134.8257  157.3998 LP  0  0  0  0  0  0  0  0  0  0  0  0  # atno 17394 bound_to 11000
  140.1365  134.5027  155.8064 LP  0  0  0  0  0  0  0  0  0  0  0  0  # atno 17395 bound_to 11000

$$$$
