AV-unprocessed.smi:688|AV-procd|sdf|3355|dock9
  -GOLD-   22720 0333D 1   1.00000     0.00000
 Structure written by MMmdl.
 36 37  0  0  0  0  0  0  0  0  1 V2000
  140.6135  134.9086  153.8668 O   0  0  0  0  0  0  0  0  0  0  0  0
  141.6917  135.3815  153.5131 C   0  0  0  0  0  0  0  0  0  0  0  0
  142.8312  134.5716  153.4851 N   0  0  0  0  0  0  0  0  0  0  0  0
  144.1098  134.9814  153.1059 C   0  0  0  0  0  0  0  0  0  0  0  0
  145.0420  134.1777  153.1224 O   0  0  0  0  0  0  0  0  0  0  0  0
  144.2567  136.3326  152.7170 N   0  0  0  0  0  0  0  0  0  0  0  0
  145.5735  136.7833  152.3314 C   0  0  0  0  0  0  0  0  0  0  0  0
  146.0121  138.1055  153.0007 C   0  0  1  0  0  0  0  0  0  0  0  0
  146.6040  137.7688  154.2382 O   0  0  0  0  0  0  0  0  0  0  0  0
  147.0422  138.8998  152.1780 C   0  0  0  0  0  0  0  0  0  0  0  0
  146.7886  140.2852  152.3421 O   0  0  0  0  0  0  0  0  0  0  0  0
  147.4518  140.8377  153.4668 C   0  0  0  0  0  0  0  0  0  0  0  0
  146.5796  141.8529  154.1773 C   0  0  0  0  0  0  0  0  0  0  0  0
  146.3127  141.7064  155.5545 C   0  0  0  0  0  0  0  0  0  0  0  0
  145.4988  142.6424  156.2215 C   0  0  0  0  0  0  0  0  0  0  0  0
  144.9477  143.7281  155.5133 C   0  0  0  0  0  0  0  0  0  0  0  0
  143.9515  144.8755  156.3307 Cl  0  0  0  0  0  0  0  0  0  0  0  0
  145.2095  143.8757  154.1371 C   0  0  0  0  0  0  0  0  0  0  0  0
  146.0222  142.9386  153.4694 C   0  0  0  0  0  0  0  0  0  0  0  0
  143.1533  137.1727  152.7303 C   0  0  0  0  0  0  0  0  0  0  0  0
  141.9150  136.7667  153.1012 C   0  0  0  0  0  0  0  0  0  0  0  0
  140.5907  137.8758  153.0960 Cl  0  0  0  0  0  0  0  0  0  0  0  0
  142.7193  133.6073  153.7625 H   0  0  0  0  0  0  0  0  0  0  0  0
  146.2617  135.9622  152.5466 H   0  0  0  0  0  0  0  0  0  0  0  0
  145.5575  136.8840  151.2448 H   0  0  0  0  0  0  0  0  0  0  0  0
  145.1387  138.7281  153.1970 H   0  0  0  0  0  0  0  0  0  0  0  0
  146.5238  136.8352  154.3619 H   0  0  0  0  0  0  0  0  0  0  0  0
  148.0619  138.6416  152.4695 H   0  0  0  0  0  0  0  0  0  0  0  0
  146.9412  138.6665  151.1178 H   0  0  0  0  0  0  0  0  0  0  0  0
  147.7336  140.0419  154.1583 H   0  0  0  0  0  0  0  0  0  0  0  0
  148.3715  141.3338  153.1526 H   0  0  0  0  0  0  0  0  0  0  0  0
  146.7336  140.8756  156.1018 H   0  0  0  0  0  0  0  0  0  0  0  0
  145.2983  142.5258  157.2764 H   0  0  0  0  0  0  0  0  0  0  0  0
  144.7874  144.7071  153.5915 H   0  0  0  0  0  0  0  0  0  0  0  0
  146.2165  143.0589  152.4137 H   0  0  0  0  0  0  0  0  0  0  0  0
  143.2825  138.2047  152.4364 H   0  0  0  0  0  0  0  0  0  0  0  0
  1  2  2  0  0  0  0
  2 21  1  0  0  0  0
  2  3  1  0  0  0  0
  3 23  1  0  0  0  0
  3  4  1  0  0  0  0
  4  5  2  0  0  0  0
  4  6  1  0  0  0  0
  6  7  1  0  0  0  0
  6 20  1  0  0  0  0
  7  8  1  0  0  0  0
  7 24  1  0  0  0  0
  7 25  1  0  0  0  0
  8  9  1  0  0  0  0
  8 10  1  0  0  0  0
  8 26  1  0  0  0  0
  9 27  1  0  0  0  0
 10 11  1  0  0  0  0
 10 28  1  0  0  0  0
 10 29  1  0  0  0  0
 11 12  1  0  0  0  0
 12 13  1  0  0  0  0
 12 30  1  0  0  0  0
 12 31  1  0  0  0  0
 13 19  1  0  0  0  0
 13 14  2  0  0  0  0
 14 15  1  0  0  0  0
 14 32  1  0  0  0  0
 15 16  2  0  0  0  0
 15 33  1  0  0  0  0
 16 17  1  0  0  0  0
 16 18  1  0  0  0  0
 18 19  2  0  0  0  0
 18 34  1  0  0  0  0
 19 35  1  0  0  0  0
 20 21  2  0  0  0  0
 20 36  1  0  0  0  0
 21 22  1  0  0  0  0
M  END
> <s_m_source_file>
AV-unprocessed.smi

> <i_m_source_file_index>
688

> <i_lp_mmshare_version>
43012

> <i_f3d_flags>
0

> <s_epik_input>
Tz1jMVtuSF1jKD1PKW4oW2NIXWMxQ2wpW0NIMl1bQ0BIXShbT0hdKVtDSDJdT1tDSDJdYzJbY0hdW2NIXWMoQ2wpW2NIXVtjSF0y

> <s_epik_cmdline>
J2VwaWtfcHl0aG9uJywgJy1waCcsICc3LjAnLCAnLXRuJywgJzgnLCAnLW1hJywgJzIwMCcsICctbWV0YWxfYmluZGluZycsICctaW1hZScsICc8aW5maWxlLm1hZT4nLCAnLW9tYWUnLCAnPG91dGZpbGUubWFlPic=

> <r_lp_tautomer_probability>
0.999537

> <r_epik_Ionization_Penalty>
0.0280571

> <r_epik_Ionization_Penalty_Charging>
0.028057

> <r_epik_Ionization_Penalty_Neutral>
6.25502e-08

> <r_epik_State_Penalty>
0.0230008

> <r_epik_Charging_Adjusted_Penalty>
0.0510579

> <i_epik_Tot_Q>
0

> <i_epik_Tot_abs_Q>
0

> <r_epik_Metal_State_Penalty>
2.1942

> <b_epik_Metal_Only>
0

> <s_lp_Force_Field>
OPLS_2005

> <r_lp_Energy>
13.9943

> <b_lp_Chiralities_Consistent>
1

> <s_lp_Variant>
AV-unprocessed.smi:688-2

> <Gold.Version>
5.8.1

> <Gold.Id.Protein>
6NUR|6NUR_protein|mol2

> <Gold.PLP.Fitness>
44.9468

> <Gold.PLP.PLP>
-37.8676

> <Gold.PLP.part.hbond>
-2.9313

> <Gold.PLP.part.metal>
0.0000

> <Gold.PLP.part.buried>
-6.7171

> <Gold.PLP.part.nonpolar>
-29.7932

> <Gold.PLP.part.repulsive>
1.2761

> <Gold.PLP.ligand.clash>
0.0000

> <Gold.PLP.ligand.torsion>
1.3960

> <Gold.PLP.Chemscore.Hbond>
1.9425

> <Gold.PLP.Chemscore.CHOScore>
1.3126

> <Gold.PLP.Chemscore.Metal>
0.0000

> <Gold.Chemscore.Hbonds>
donor molecule, donor type, donor heavy atom, donor atom, acceptor molecule, acceptor atom, score
      L1  H     3    23       P1 10957  0.83
      P1  H 11000 11005       L1     1  1.00
      L1  C    20    36       P1 10171  0.42
      L1  C    20    36       P1 10175  1.00

> <Gold.PLP.Chemscore.Internal.Correction>
0.1059

> <Gold.Rescore>
     Score         DG    S(hbond)    S(metal)    S(lipo)     H(rot)  DE(clash)    DE(int)     intcor
     11.23     -12.88       2.00        0.00      70.70       2.94       0.27       1.39       ----

> <Gold.Chemscore.Fitness>
11.2252

> <Gold.Chemscore.DG>
-12.8811

> <Gold.Chemscore.ZeroCoef>
-5.4800

> <Gold.Chemscore.Hbond>
1.9950

> <Gold.Chemscore.Metal>
0.0000

> <Gold.Chemscore.Lipo>
70.6964

> <Gold.Chemscore.Internal_Hbond>
0.0000

> <Gold.Chemscore.DEClash>
0.2702

> <Gold.Chemscore.DEInternal>
1.3858

> <Gold.Chemscore.Rot>
2.9429

> <Gold.Chemscore.Internal.Correction>
   9.000000E+99

> <Gold.Chemscore.Hbonds>
donor molecule, donor type, donor heavy atom, donor atom, acceptor molecule, acceptor atom, score
      L1  H     3    23       P1 10957  0.80
      P1  H 11000 11005       L1     1  0.97

> <Gold.Chemscore.Hbond.Weighted>
-6.6634

> <Gold.Chemscore.Metal.Weighted>
-0.0000

> <Gold.Chemscore.Lipo.Weighted>
-8.2715

> <Gold.Chemscore.Internal_Hbond.Weighted>
0.0000

> <Gold.Chemscore.DEClash.Weighted>
0.2702

> <Gold.Chemscore.DEInternal.Weighted>
1.3858

> <Gold.Chemscore.Rot.Weighted>
7.5337

> <Gold.Chemscore.Internal.Correction.Weighted>
   9.000000E+99

> <Gold.Protein.RotatedTorsions>
[ 6907 6896 6895 6894 ] final   64.44 input  -60.11 | X-H torsion
[ 7974 7965 7964 7962 ] final  -47.36 input  175.53 | X-H torsion
[ 8008 7997 7996 7995 ] final   39.58 input   59.86 | X-H torsion
[ 10167 10162 10161 10158 ] final  151.93 input  -65.29 | X-H torsion
[ 10718 10713 10712 10709 ] final -142.56 input   66.30 | X-H torsion
[ 10763 10752 10751 10750 ] final  -56.26 input  -60.55 | X-H torsion
[ 11005 11000 10999 10996 ] final   25.46 input  -57.11 | X-H torsion

> <Gold.Protein.ActiveResidues>
 VAL166  LYS551  ARG553  GLY616  TRP617  ASP618  TYR619  PRO620  LYS621  CYS622 
 ASP623  PHE694  ASN695  SER759  ASP760  ASP761  ALA762  ILE779  LEU786  VAL792 
 PHE793  MET794  SER795  GLU796  ALA797  LYS798  CYS799  TRP800  GLU811  SER814 

> <Gold.Protein.RotatedAtoms>
  152.4331  134.5739  159.9928 H   0  0  0  0  0  0  0  0  0  0  0  0  # atno 6907 bound_to 6896
  151.5856  133.3367  159.3025 H   0  0  0  0  0  0  0  0  0  0  0  0  # atno 6908 bound_to 6896
  150.8226  134.7477  159.6850 H   0  0  0  0  0  0  0  0  0  0  0  0  # atno 6909 bound_to 6896
  145.9624  140.7466  142.9451 H   0  0  0  0  0  0  0  0  0  0  0  0  # atno 7974 bound_to 7965
  155.2390  140.3344  155.4294 H   0  0  0  0  0  0  0  0  0  0  0  0  # atno 8008 bound_to 7997
  156.2264  140.1831  156.7398 H   0  0  0  0  0  0  0  0  0  0  0  0  # atno 8009 bound_to 7997
  154.5905  140.0639  156.9217 H   0  0  0  0  0  0  0  0  0  0  0  0  # atno 8010 bound_to 7997
  139.4836  144.5400  151.7580 H   0  0  0  0  0  0  0  0  0  0  0  0  # atno 10167 bound_to 10162
  156.3474  130.7670  151.1816 H   0  0  0  0  0  0  0  0  0  0  0  0  # atno 10718 bound_to 10713
  154.2038  135.6406  153.5095 H   0  0  0  0  0  0  0  0  0  0  0  0  # atno 10763 bound_to 10752
  153.0006  135.5457  154.6288 H   0  0  0  0  0  0  0  0  0  0  0  0  # atno 10764 bound_to 10752
  154.5707  135.2916  155.0803 H   0  0  0  0  0  0  0  0  0  0  0  0  # atno 10765 bound_to 10752
  140.3476  134.2264  155.7683 H   0  0  0  0  0  0  0  0  0  0  0  0  # atno 11005 bound_to 11000
  144.6818  140.2613  143.7318 LP  0  0  0  0  0  0  0  0  0  0  0  0  # atno 17320 bound_to 7965
  145.8021  139.1968  143.2042 LP  0  0  0  0  0  0  0  0  0  0  0  0  # atno 17321 bound_to 7965
  140.4938  144.1271  150.5956 LP  0  0  0  0  0  0  0  0  0  0  0  0  # atno 17342 bound_to 10162
  140.4141  143.2643  151.9797 LP  0  0  0  0  0  0  0  0  0  0  0  0  # atno 17343 bound_to 10162
  157.7456  131.0437  150.4758 LP  0  0  0  0  0  0  0  0  0  0  0  0  # atno 17370 bound_to 10713
  156.4948  130.4103  149.6386 LP  0  0  0  0  0  0  0  0  0  0  0  0  # atno 17371 bound_to 10713
  141.2021  133.7946  157.0407 LP  0  0  0  0  0  0  0  0  0  0  0  0  # atno 17394 bound_to 11000
  140.0729  134.9692  157.1498 LP  0  0  0  0  0  0  0  0  0  0  0  0  # atno 17395 bound_to 11000

$$$$
