AV-unprocessed.smi:79|AV-procd|sdf|781|dock10
  -GOLD-   2262017143D 1   1.00000     0.00000
 Structure written by MMmdl.
 56 59  0  0  0  0  0  0  0  0  2 V2000
  144.3720  134.6047  151.6943 C   0  0  0  0  0  0  0  0  0  0  0  0
  145.6159  135.4908  151.8421 C   0  0  2  0  0  0  0  0  0  0  0  0
  146.7401  134.6421  151.9625 O   0  0  0  0  0  0  0  0  0  0  0  0
  145.5231  136.4006  153.0843 C   0  0  0  0  0  0  0  0  0  0  0  0
  146.8340  136.9728  153.4871 N   0  3  2  0  0  0  0  0  0  0  0  0
  147.2622  136.5043  154.8278 C   0  0  0  0  0  0  0  0  0  0  0  0
  148.6616  137.0339  155.1732 C   0  0  0  0  0  0  0  0  0  0  0  0
  148.7219  138.4869  155.0446 N   0  0  0  0  0  0  0  0  0  0  0  0
  149.8996  138.9762  155.4941 C   0  0  0  0  0  0  0  0  0  0  0  0
  150.7613  139.5748  154.6302 N   0  0  0  0  0  0  0  0  0  0  0  0
  151.9166  140.0728  155.0824 C   0  0  0  0  0  0  0  0  0  0  0  0
  152.3915  140.0798  156.3302 N   0  0  0  0  0  0  0  0  0  0  0  0
  151.5257  139.4773  157.1955 C   0  0  0  0  0  0  0  0  0  0  0  0
  150.2691  138.9015  156.8617 C   0  0  0  0  0  0  0  0  0  0  0  0
  149.6617  138.3840  157.9978 N   0  0  0  0  0  0  0  0  0  0  0  0
  150.5130  138.6410  158.9540 C   0  0  0  0  0  0  0  0  0  0  0  0
  151.6629  139.2898  158.5602 N   0  0  0  0  0  0  0  0  0  0  0  0
  152.7683  139.7030  159.4113 C   0  0  0  0  0  0  0  0  0  0  0  0
  153.5898  138.5317  159.9806 C   0  0  0  0  0  0  0  0  0  0  0  0
  154.9759  139.0607  160.4013 C   0  0  0  0  0  0  0  0  0  0  0  0
  155.6063  139.8025  159.3760 O   0  0  0  0  0  0  0  0  0  0  0  0
  152.8501  137.6660  161.0107 C   0  0  0  0  0  0  0  0  0  0  0  0
  153.1349  136.4513  160.2821 O   0  0  0  0  0  0  0  0  0  0  0  0
  153.5862  137.2362  159.1563 C   0  0  0  0  0  0  0  0  0  0  0  0
  148.2872  139.0022  153.7409 C   0  0  2  0  0  0  0  0  0  0  0  0
  148.2785  140.5434  153.6791 C   0  0  0  0  0  0  0  0  0  0  0  0
  146.8865  138.4552  153.3933 C   0  0  0  0  0  0  0  0  0  0  0  0
  143.4731  135.2104  151.5751 H   0  0  0  0  0  0  0  0  0  0  0  0
  144.2295  133.9673  152.5678 H   0  0  0  0  0  0  0  0  0  0  0  0
  144.4500  133.9583  150.8192 H   0  0  0  0  0  0  0  0  0  0  0  0
  145.7240  136.0783  150.9313 H   0  0  0  0  0  0  0  0  0  0  0  0
  147.5209  135.1706  152.0237 H   0  0  0  0  0  0  0  0  0  0  0  0
  144.8194  137.2157  152.9077 H   0  0  0  0  0  0  0  0  0  0  0  0
  145.1072  135.8169  153.9075 H   0  0  0  0  0  0  0  0  0  0  0  0
  146.5409  136.8363  155.5764 H   0  0  0  0  0  0  0  0  0  0  0  0
  147.2730  135.4141  154.8559 H   0  0  0  0  0  0  0  0  0  0  0  0
  148.9244  136.7411  156.1909 H   0  0  0  0  0  0  0  0  0  0  0  0
  149.3982  136.5777  154.5100 H   0  0  0  0  0  0  0  0  0  0  0  0
  152.5502  140.5341  154.3390 H   0  0  0  0  0  0  0  0  0  0  0  0
  150.3209  138.3642  159.9803 H   0  0  0  0  0  0  0  0  0  0  0  0
  153.4090  140.3782  158.8428 H   0  0  0  0  0  0  0  0  0  0  0  0
  152.3524  140.3057  160.2198 H   0  0  0  0  0  0  0  0  0  0  0  0
  154.9003  139.7153  161.2695 H   0  0  0  0  0  0  0  0  0  0  0  0
  155.6370  138.2394  160.6797 H   0  0  0  0  0  0  0  0  0  0  0  0
  156.0521  140.5382  159.7672 H   0  0  0  0  0  0  0  0  0  0  0  0
  153.2919  137.6731  162.0076 H   0  0  0  0  0  0  0  0  0  0  0  0
  151.7778  137.8599  161.0649 H   0  0  0  0  0  0  0  0  0  0  0  0
  152.8577  137.2246  158.3449 H   0  0  0  0  0  0  0  0  0  0  0  0
  154.5700  136.9310  158.7981 H   0  0  0  0  0  0  0  0  0  0  0  0
  148.9871  138.6365  152.9876 H   0  0  0  0  0  0  0  0  0  0  0  0
  147.9059  140.8927  152.7157 H   0  0  0  0  0  0  0  0  0  0  0  0
  149.2769  140.9634  153.8030 H   0  0  0  0  0  0  0  0  0  0  0  0
  147.6394  140.9673  154.4545 H   0  0  0  0  0  0  0  0  0  0  0  0
  146.6174  138.7799  152.3891 H   0  0  0  0  0  0  0  0  0  0  0  0
  146.1441  138.8807  154.0708 H   0  0  0  0  0  0  0  0  0  0  0  0
  147.5164  136.6113  152.8365 H   0  0  0  0  0  0  0  0  0  0  0  0
  1  2  1  0  0  0  0
  1 28  1  0  0  0  0
  1 29  1  0  0  0  0
  1 30  1  0  0  0  0
  2  3  1  0  0  0  0
  2  4  1  0  0  0  0
  2 31  1  0  0  0  0
  3 32  1  0  0  0  0
  4  5  1  0  0  0  0
  4 33  1  0  0  0  0
  4 34  1  0  0  0  0
  5 27  1  0  0  0  0
  5  6  1  0  0  0  0
  5 56  1  0  0  0  0
  6  7  1  0  0  0  0
  6 35  1  0  0  0  0
  6 36  1  0  0  0  0
  7  8  1  0  0  0  0
  7 37  1  0  0  0  0
  7 38  1  0  0  0  0
  8  9  1  0  0  0  0
  8 25  1  0  0  0  0
  9 14  1  0  0  0  0
  9 10  2  0  0  0  0
 10 11  1  0  0  0  0
 11 12  2  0  0  0  0
 11 39  1  0  0  0  0
 12 13  1  0  0  0  0
 13 17  1  0  0  0  0
 13 14  2  0  0  0  0
 14 15  1  0  0  0  0
 15 16  2  0  0  0  0
 16 17  1  0  0  0  0
 16 40  1  0  0  0  0
 17 18  1  0  0  0  0
 18 19  1  0  0  0  0
 18 41  1  0  0  0  0
 18 42  1  0  0  0  0
 19 24  1  0  0  0  0
 19 20  1  0  0  0  0
 19 22  1  0  0  0  0
 20 21  1  0  0  0  0
 20 43  1  0  0  0  0
 20 44  1  0  0  0  0
 21 45  1  0  0  0  0
 22 23  1  0  0  0  0
 22 46  1  0  0  0  0
 22 47  1  0  0  0  0
 23 24  1  0  0  0  0
 24 48  1  0  0  0  0
 24 49  1  0  0  0  0
 25 26  1  0  0  0  0
 25 27  1  0  0  0  0
 25 50  1  0  0  0  0
 26 51  1  0  0  0  0
 26 52  1  0  0  0  0
 26 53  1  0  0  0  0
 27 54  1  0  0  0  0
 27 55  1  0  0  0  0
M  CHG  1   5   1
M  END
> <s_m_source_file>
AV-unprocessed.smi

> <i_m_source_file_index>
79

> <i_lp_mmshare_version>
43012

> <i_f3d_flags>
0

> <s_epik_input>
W0NIM11bQ0BIXShbT0hdKVtDSDJdTjFbQ0gyXVtDSDJdTihbQ0BASF0oW0NIM10pW0NIMl0xKWMobltjSF1uMiljKGMyMyluW2NIXW4zW0NIMl1DNChbQ0gyXVtPSF0pW0NIMl1PW0NIMl00

> <s_epik_cmdline>
J2VwaWtfcHl0aG9uJywgJy1waCcsICc3LjAnLCAnLXRuJywgJzgnLCAnLW1hJywgJzIwMCcsICctbWV0YWxfYmluZGluZycsICctaW1hZScsICc8aW5maWxlLm1hZT4nLCAnLW9tYWUnLCAnPG91dGZpbGUubWFlPic=

> <r_lp_tautomer_probability>
1

> <r_epik_Ionization_Penalty>
0.00515943

> <r_epik_Ionization_Penalty_Charging>
0.00509693

> <r_epik_Ionization_Penalty_Neutral>
6.25007e-05

> <r_epik_State_Penalty>
-0

> <r_epik_Charging_Adjusted_Penalty>
0.00509693

> <i_epik_Tot_Q>
1

> <i_epik_Tot_abs_Q>
1

> <r_epik_Metal_State_Penalty>
-0

> <b_epik_Metal_Only>
0

> <s_lp_Force_Field>
OPLS_2005

> <r_lp_Energy>
51.6894

> <b_lp_Chiralities_Consistent>
1

> <s_lp_Variant>
AV-unprocessed.smi:79-5

> <Gold.Version>
5.8.1

> <Gold.Id.Protein>
6NUR|6NUR_protein|mol2

> <Gold.PLP.Fitness>
44.3154

> <Gold.PLP.PLP>
-29.0586

> <Gold.PLP.part.hbond>
-6.0000

> <Gold.PLP.part.metal>
0.0000

> <Gold.PLP.part.buried>
0.5810

> <Gold.PLP.part.nonpolar>
-22.6667

> <Gold.PLP.part.repulsive>
0.1895

> <Gold.PLP.ligand.clash>
0.0000

> <Gold.PLP.ligand.torsion>
1.7001

> <Gold.PLP.Chemscore.Hbond>
6.0000

> <Gold.PLP.Chemscore.CHOScore>
0.0000

> <Gold.PLP.Chemscore.Metal>
0.0000

> <Gold.Chemscore.Hbonds>
donor molecule, donor type, donor heavy atom, donor atom, acceptor molecule, acceptor atom, score
      L1  H     3    32       P1  7948  1.00
      L1  H     5    56       P1  7948  2.00
      P1  H  6896  6907       L1    23  1.00
      P1  H  7997  8008       L1    12  1.00
      P1  H  7997  8010       L1    21  0.83

> <Gold.PLP.Chemscore.Internal.Correction>
0.6571

> <Gold.Rescore>
     Score         DG    S(hbond)    S(metal)    S(lipo)     H(rot)  DE(clash)    DE(int)     intcor
     13.92     -18.80       4.68        0.00      61.81       3.72       1.71       3.17       ----

> <Gold.Chemscore.Fitness>
13.9225

> <Gold.Chemscore.DG>
-18.8042

> <Gold.Chemscore.ZeroCoef>
-5.4800

> <Gold.Chemscore.Hbond>
4.6774

> <Gold.Chemscore.Metal>
0.0000

> <Gold.Chemscore.Lipo>
61.8070

> <Gold.Chemscore.Internal_Hbond>
0.0000

> <Gold.Chemscore.DEClash>
1.7099

> <Gold.Chemscore.DEInternal>
3.1718

> <Gold.Chemscore.Rot>
3.7226

> <Gold.Chemscore.Internal.Correction>
   9.000000E+99

> <Gold.Chemscore.Hbonds>
donor molecule, donor type, donor heavy atom, donor atom, acceptor molecule, acceptor atom, score
      L1  H     3    32       P1  7948  0.97
      L1  H     5    56       P1  7948  1.00
      P1  H  6896  6907       L1    23  0.99
      P1  H  7997  8008       L1    12  0.64
      P1  H  7997  8010       L1    21  0.47

> <Gold.Chemscore.Hbond.Weighted>
-15.6226

> <Gold.Chemscore.Metal.Weighted>
-0.0000

> <Gold.Chemscore.Lipo.Weighted>
-7.2314

> <Gold.Chemscore.Internal_Hbond.Weighted>
0.0000

> <Gold.Chemscore.DEClash.Weighted>
1.7099

> <Gold.Chemscore.DEInternal.Weighted>
3.1718

> <Gold.Chemscore.Rot.Weighted>
9.5298

> <Gold.Chemscore.Internal.Correction.Weighted>
   9.000000E+99

> <Gold.Protein.RotatedTorsions>
[ 6907 6896 6895 6894 ] final   32.03 input  -60.11 | X-H torsion
[ 7974 7965 7964 7962 ] final -178.36 input  175.53 | X-H torsion
[ 8008 7997 7996 7995 ] final  -35.41 input   59.86 | X-H torsion
[ 10167 10162 10161 10158 ] final  -54.97 input  -65.29 | X-H torsion
[ 10718 10713 10712 10709 ] final   68.30 input   66.30 | X-H torsion
[ 10763 10752 10751 10750 ] final -144.15 input  -60.55 | X-H torsion
[ 11005 11000 10999 10996 ] final -154.89 input  -57.11 | X-H torsion

> <Gold.Protein.ActiveResidues>
 VAL166  LYS551  ARG553  GLY616  TRP617  ASP618  TYR619  PRO620  LYS621  CYS622 
 ASP623  PHE694  ASN695  SER759  ASP760  ASP761  ALA762  ILE779  LEU786  VAL792 
 PHE793  MET794  SER795  GLU796  ALA797  LYS798  CYS799  TRP800  GLU811  SER814 

> <Gold.Protein.RotatedAtoms>
  152.0686  134.9548  160.0574 H   0  0  0  0  0  0  0  0  0  0  0  0  # atno 6907 bound_to 6896
  152.0882  133.4182  159.4540 H   0  0  0  0  0  0  0  0  0  0  0  0  # atno 6908 bound_to 6896
  150.6836  134.2822  159.4675 H   0  0  0  0  0  0  0  0  0  0  0  0  # atno 6909 bound_to 6896
  144.7131  140.0880  143.6422 H   0  0  0  0  0  0  0  0  0  0  0  0  # atno 7974 bound_to 7965
  154.4096  140.1658  156.2206 H   0  0  0  0  0  0  0  0  0  0  0  0  # atno 8008 bound_to 7997
  155.9366  140.3411  155.6270 H   0  0  0  0  0  0  0  0  0  0  0  0  # atno 8009 bound_to 7997
  155.7040  140.0748  157.2389 H   0  0  0  0  0  0  0  0  0  0  0  0  # atno 8010 bound_to 7997
  140.6401  143.2503  151.5013 H   0  0  0  0  0  0  0  0  0  0  0  0  # atno 10167 bound_to 10162
  157.6281  130.9366  150.0358 H   0  0  0  0  0  0  0  0  0  0  0  0  # atno 10718 bound_to 10713
  154.8440  135.3448  154.6300 H   0  0  0  0  0  0  0  0  0  0  0  0  # atno 10763 bound_to 10752
  153.6910  135.6975  153.5094 H   0  0  0  0  0  0  0  0  0  0  0  0  # atno 10764 bound_to 10752
  153.2595  135.4327  155.0835 H   0  0  0  0  0  0  0  0  0  0  0  0  # atno 10765 bound_to 10752
  140.6924  134.4026  157.5218 H   0  0  0  0  0  0  0  0  0  0  0  0  # atno 11005 bound_to 11000
  145.9645  139.2824  143.1136 LP  0  0  0  0  0  0  0  0  0  0  0  0  # atno 17320 bound_to 7965
  145.9185  140.9132  143.0417 LP  0  0  0  0  0  0  0  0  0  0  0  0  # atno 17321 bound_to 7965
  139.5610  144.2156  152.1691 LP  0  0  0  0  0  0  0  0  0  0  0  0  # atno 17342 bound_to 10162
  140.1424  144.5190  150.6736 LP  0  0  0  0  0  0  0  0  0  0  0  0  # atno 17343 bound_to 10162
  156.1466  130.3642  149.9501 LP  0  0  0  0  0  0  0  0  0  0  0  0  # atno 17370 bound_to 10713
  156.7531  130.9122  151.3638 LP  0  0  0  0  0  0  0  0  0  0  0  0  # atno 17371 bound_to 10713
  139.8919  134.8767  156.2294 LP  0  0  0  0  0  0  0  0  0  0  0  0  # atno 17394 bound_to 11000
  141.0230  133.7030  156.1300 LP  0  0  0  0  0  0  0  0  0  0  0  0  # atno 17395 bound_to 11000

$$$$
