AV-unprocessed.smi:933|AV-procd|sdf|4202|dock2
  -GOLD-   22720 2103D 1   1.00000     0.00000
 Structure written by MMmdl.
 42 43  0  0  0  0  0  0  0  0  1 V2000
  153.6862  142.3958  162.6716 C   0  0  0  0  0  0  0  0  0  0  0  0
  152.6834  143.0754  161.7334 C   0  0  0  0  0  0  0  0  0  0  0  0
  152.5243  142.3457  160.4418 C   0  0  0  0  0  0  0  0  0  0  0  0
  151.5969  142.6537  159.5312 N   0  0  0  0  0  0  0  0  0  0  0  0
  151.6211  141.7967  158.4267 C   0  0  0  0  0  0  0  0  0  0  0  0
  150.6411  141.9928  157.3066 C   0  0  0  0  0  0  0  0  0  0  0  0
  149.2005  141.6108  157.6864 C   0  0  0  0  0  0  0  0  0  0  0  0
  148.3599  142.7940  157.8671 N   0  0  0  0  0  0  0  0  0  0  0  0
  147.4406  142.9998  158.8250 C   0  0  0  0  0  0  0  0  0  0  0  0
  147.1993  142.1552  159.6852 O   0  0  0  0  0  0  0  0  0  0  0  0
  146.8134  144.1862  158.7475 N   0  0  0  0  0  0  0  0  0  0  0  0
  145.7750  144.6692  159.6582 C   0  0  1  0  0  0  0  0  0  0  0  0
  144.6282  143.6402  159.7425 C   0  0  0  0  0  0  0  0  0  0  0  0
  144.5184  143.2204  161.2124 C   0  0  0  0  0  0  0  0  0  0  0  0
  145.8731  143.5629  161.8256 C   0  0  0  0  0  0  0  0  0  0  0  0
  146.2849  144.8490  161.1081 C   0  0  1  0  0  0  0  0  0  0  0  0
  147.7702  145.2089  161.2871 C   0  0  0  0  0  0  0  0  0  0  0  0
  152.5880  140.8261  158.5156 C   0  0  0  0  0  0  0  0  0  0  0  0
  153.4940  140.9458  159.9984 S   0  0  0  0  0  0  0  0  0  0  0  0
  153.7823  142.9507  163.6048 H   0  0  0  0  0  0  0  0  0  0  0  0
  154.6747  142.3374  162.2147 H   0  0  0  0  0  0  0  0  0  0  0  0
  153.3699  141.3816  162.9170 H   0  0  0  0  0  0  0  0  0  0  0  0
  151.7100  143.1496  162.2193 H   0  0  0  0  0  0  0  0  0  0  0  0
  153.0053  144.0951  161.5205 H   0  0  0  0  0  0  0  0  0  0  0  0
  150.6592  143.0316  156.9752 H   0  0  0  0  0  0  0  0  0  0  0  0
  150.9479  141.4038  156.4414 H   0  0  0  0  0  0  0  0  0  0  0  0
  148.7746  140.9840  156.9010 H   0  0  0  0  0  0  0  0  0  0  0  0
  149.2044  141.0195  158.6031 H   0  0  0  0  0  0  0  0  0  0  0  0
  148.4682  143.5234  157.1771 H   0  0  0  0  0  0  0  0  0  0  0  0
  147.0794  144.8082  157.9983 H   0  0  0  0  0  0  0  0  0  0  0  0
  145.3790  145.6196  159.2957 H   0  0  0  0  0  0  0  0  0  0  0  0
  143.6870  144.0594  159.3850 H   0  0  0  0  0  0  0  0  0  0  0  0
  144.8377  142.7647  159.1255 H   0  0  0  0  0  0  0  0  0  0  0  0
  143.7399  143.8067  161.7024 H   0  0  0  0  0  0  0  0  0  0  0  0
  144.2609  142.1675  161.3290 H   0  0  0  0  0  0  0  0  0  0  0  0
  145.8213  143.6846  162.9082 H   0  0  0  0  0  0  0  0  0  0  0  0
  146.5877  142.7667  161.6116 H   0  0  0  0  0  0  0  0  0  0  0  0
  145.7009  145.6582  161.5498 H   0  0  0  0  0  0  0  0  0  0  0  0
  148.4263  144.4156  160.9273 H   0  0  0  0  0  0  0  0  0  0  0  0
  148.0035  145.3734  162.3392 H   0  0  0  0  0  0  0  0  0  0  0  0
  148.0188  146.1233  160.7480 H   0  0  0  0  0  0  0  0  0  0  0  0
  152.8153  140.0448  157.8055 H   0  0  0  0  0  0  0  0  0  0  0  0
  1  2  1  0  0  0  0
  1 20  1  0  0  0  0
  1 21  1  0  0  0  0
  1 22  1  0  0  0  0
  2  3  1  0  0  0  0
  2 23  1  0  0  0  0
  2 24  1  0  0  0  0
  3 19  1  0  0  0  0
  3  4  2  0  0  0  0
  4  5  1  0  0  0  0
  5  6  1  0  0  0  0
  5 18  2  0  0  0  0
  6  7  1  0  0  0  0
  6 25  1  0  0  0  0
  6 26  1  0  0  0  0
  7  8  1  0  0  0  0
  7 27  1  0  0  0  0
  7 28  1  0  0  0  0
  8  9  1  0  0  0  0
  8 29  1  0  0  0  0
  9 10  2  0  0  0  0
  9 11  1  0  0  0  0
 11 12  1  0  0  0  0
 11 30  1  0  0  0  0
 12 16  1  0  0  0  0
 12 13  1  0  0  0  0
 12 31  1  0  0  0  0
 13 14  1  0  0  0  0
 13 32  1  0  0  0  0
 13 33  1  0  0  0  0
 14 15  1  0  0  0  0
 14 34  1  0  0  0  0
 14 35  1  0  0  0  0
 15 16  1  0  0  0  0
 15 36  1  0  0  0  0
 15 37  1  0  0  0  0
 16 17  1  0  0  0  0
 16 38  1  0  0  0  0
 17 39  1  0  0  0  0
 17 40  1  0  0  0  0
 17 41  1  0  0  0  0
 18 19  1  0  0  0  0
 18 42  1  0  0  0  0
M  END
> <s_m_source_file>
AV-unprocessed.smi

> <i_m_source_file_index>
933

> <i_lp_mmshare_version>
43012

> <i_f3d_flags>
0

> <s_epik_input>
W0NIM11bQ0gyXWMxbmMoW2NIXXMxKVtDSDJdW0NIMl1bTkhdQyg9TylbTkhdW0NAQEhdMltDSDJdW0NIMl1bQ0gyXVtDQEhdMltDSDNd

> <s_epik_cmdline>
J2VwaWtfcHl0aG9uJywgJy1waCcsICc3LjAnLCAnLXRuJywgJzgnLCAnLW1hJywgJzIwMCcsICctbWV0YWxfYmluZGluZycsICctaW1hZScsICc8aW5maWxlLm1hZT4nLCAnLW9tYWUnLCAnPG91dGZpbGUubWFlPic=

> <r_epik_Ionization_Penalty>
0.00203408

> <r_epik_Ionization_Penalty_Charging>
0

> <r_epik_Ionization_Penalty_Neutral>
0.00203408

> <r_epik_State_Penalty>
0.0013452

> <r_epik_Charging_Adjusted_Penalty>
0.0013452

> <i_epik_Tot_Q>
0

> <i_epik_Tot_abs_Q>
0

> <r_epik_Metal_State_Penalty>
-0

> <b_epik_Metal_Only>
0

> <s_lp_Force_Field>
OPLS_2005

> <r_lp_Energy>
20.9711

> <b_lp_Chiralities_Consistent>
1

> <s_lp_Variant>
AV-unprocessed.smi:933-2

> <Gold.Version>
5.8.1

> <Gold.Id.Protein>
6NUR|6NUR_protein|mol2

> <Gold.PLP.Fitness>
47.7957

> <Gold.PLP.PLP>
-40.8916

> <Gold.PLP.part.hbond>
-4.4030

> <Gold.PLP.part.metal>
0.0000

> <Gold.PLP.part.buried>
-5.4198

> <Gold.PLP.part.nonpolar>
-31.9624

> <Gold.PLP.part.repulsive>
0.1288

> <Gold.PLP.ligand.clash>
0.0000

> <Gold.PLP.ligand.torsion>
0.6447

> <Gold.PLP.Chemscore.Hbond>
2.7086

> <Gold.PLP.Chemscore.CHOScore>
0.0000

> <Gold.PLP.Chemscore.Metal>
0.0000

> <Gold.Chemscore.Hbonds>
donor molecule, donor type, donor heavy atom, donor atom, acceptor molecule, acceptor atom, score
      L1  H     8    29       P1  8028  0.70
      L1  H    11    30       P1  8029  1.00
      P1  H  6933  6944       L1    10  0.29
      P1  H  6934  6946       L1    10  0.69

> <Gold.PLP.Chemscore.Internal.Correction>
0.0678

> <Gold.Rescore>
     Score         DG    S(hbond)    S(metal)    S(lipo)     H(rot)  DE(clash)    DE(int)     intcor
     17.80     -21.42       2.29        0.00     104.89       1.55       0.45       3.17       ----

> <Gold.Chemscore.Fitness>
17.8011

> <Gold.Chemscore.DG>
-21.4230

> <Gold.Chemscore.ZeroCoef>
-5.4800

> <Gold.Chemscore.Hbond>
2.2857

> <Gold.Chemscore.Metal>
0.0000

> <Gold.Chemscore.Lipo>
104.8901

> <Gold.Chemscore.Internal_Hbond>
0.0000

> <Gold.Chemscore.DEClash>
0.4533

> <Gold.Chemscore.DEInternal>
3.1686

> <Gold.Chemscore.Rot>
1.5482

> <Gold.Chemscore.Internal.Correction>
   9.000000E+99

> <Gold.Chemscore.Hbonds>
donor molecule, donor type, donor heavy atom, donor atom, acceptor molecule, acceptor atom, score
      L1  H     8    29       P1  8028  0.07
      L1  H    11    30       P1  8029  0.70
      P1  H  6933  6944       L1    10  0.24
      P1  H  6934  6946       L1    10  0.70

> <Gold.Chemscore.Hbond.Weighted>
-7.6344

> <Gold.Chemscore.Metal.Weighted>
-0.0000

> <Gold.Chemscore.Lipo.Weighted>
-12.2721

> <Gold.Chemscore.Internal_Hbond.Weighted>
0.0000

> <Gold.Chemscore.DEClash.Weighted>
0.4533

> <Gold.Chemscore.DEInternal.Weighted>
3.1686

> <Gold.Chemscore.Rot.Weighted>
3.9635

> <Gold.Chemscore.Internal.Correction.Weighted>
   9.000000E+99

> <Gold.Protein.RotatedTorsions>
[ 6907 6896 6895 6894 ] final -152.09 input  -60.11 | X-H torsion
[ 7974 7965 7964 7962 ] final -151.85 input  175.53 | X-H torsion
[ 8008 7997 7996 7995 ] final -140.48 input   59.86 | X-H torsion
[ 10167 10162 10161 10158 ] final  -56.23 input  -65.29 | X-H torsion
[ 10718 10713 10712 10709 ] final  -60.92 input   66.30 | X-H torsion
[ 10763 10752 10751 10750 ] final    5.23 input  -60.55 | X-H torsion
[ 11005 11000 10999 10996 ] final   43.83 input  -57.11 | X-H torsion

> <Gold.Protein.ActiveResidues>
 VAL166  LYS551  ARG553  GLY616  TRP617  ASP618  TYR619  PRO620  LYS621  CYS622 
 ASP623  PHE694  ASN695  SER759  ASP760  ASP761  ALA762  ILE779  LEU786  VAL792 
 PHE793  MET794  SER795  GLU796  ALA797  LYS798  CYS799  TRP800  GLU811  SER814 

> <Gold.Protein.RotatedAtoms>
  151.2227  133.4493  159.2600 H   0  0  0  0  0  0  0  0  0  0  0  0  # atno 6907 bound_to 6896
  151.0869  134.9893  159.8394 H   0  0  0  0  0  0  0  0  0  0  0  0  # atno 6908 bound_to 6896
  152.5430  134.2163  159.8823 H   0  0  0  0  0  0  0  0  0  0  0  0  # atno 6909 bound_to 6896
  144.7827  140.4742  143.5828 H   0  0  0  0  0  0  0  0  0  0  0  0  # atno 7974 bound_to 7965
  155.4620  140.0546  157.2990 H   0  0  0  0  0  0  0  0  0  0  0  0  # atno 8008 bound_to 7997
  154.4733  140.2050  155.9894 H   0  0  0  0  0  0  0  0  0  0  0  0  # atno 8009 bound_to 7997
  156.1092  140.3207  155.8053 H   0  0  0  0  0  0  0  0  0  0  0  0  # atno 8010 bound_to 7997
  140.6329  143.2468  151.5194 H   0  0  0  0  0  0  0  0  0  0  0  0  # atno 10167 bound_to 10162
  156.0957  130.4193  150.0922 H   0  0  0  0  0  0  0  0  0  0  0  0  # atno 10718 bound_to 10713
  153.2618  135.6924  153.7570 H   0  0  0  0  0  0  0  0  0  0  0  0  # atno 10763 bound_to 10752
  153.6626  135.3358  155.3132 H   0  0  0  0  0  0  0  0  0  0  0  0  # atno 10764 bound_to 10752
  154.8433  135.4481  154.1611 H   0  0  0  0  0  0  0  0  0  0  0  0  # atno 10765 bound_to 10752
  140.1608  134.4343  155.8319 H   0  0  0  0  0  0  0  0  0  0  0  0  # atno 11005 bound_to 11000
  145.6007  139.1503  143.3131 LP  0  0  0  0  0  0  0  0  0  0  0  0  # atno 17320 bound_to 7965
  146.2043  140.6128  142.9088 LP  0  0  0  0  0  0  0  0  0  0  0  0  # atno 17321 bound_to 7965
  139.5542  144.2319  152.1583 LP  0  0  0  0  0  0  0  0  0  0  0  0  # atno 17342 bound_to 10162
  140.1567  144.5064  150.6656 LP  0  0  0  0  0  0  0  0  0  0  0  0  # atno 17343 bound_to 10162
  156.8921  130.9592  151.3587 LP  0  0  0  0  0  0  0  0  0  0  0  0  # atno 17370 bound_to 10713
  157.6117  130.8588  149.8963 LP  0  0  0  0  0  0  0  0  0  0  0  0  # atno 17371 bound_to 10713
  141.2209  133.6913  156.7591 LP  0  0  0  0  0  0  0  0  0  0  0  0  # atno 17394 bound_to 11000
  140.2492  134.8554  157.3650 LP  0  0  0  0  0  0  0  0  0  0  0  0  # atno 17395 bound_to 11000

$$$$
