AV-unprocessed.smi:171|AV-procd|sdf|1420|dock3
  -GOLD-   2262019183D 1   1.00000     0.00000
 Structure written by MMmdl.
 56 59  0  0  0  0  0  0  0  0  1 V2000
  152.4941  141.4509  159.7179 C   0  0  0  0  0  0  0  0  0  0  0  0
  152.2189  142.2951  158.4638 C   0  0  0  0  0  0  0  0  0  0  0  0
  152.5761  143.7672  158.7246 C   0  0  0  0  0  0  0  0  0  0  0  0
  150.7623  142.0994  157.9855 C   0  0  0  0  0  0  0  0  0  0  0  0
  150.4053  140.6535  157.5392 C   0  0  2  0  0  0  0  0  0  0  0  0
  151.3306  140.1771  156.3911 C   0  0  0  0  0  0  0  0  0  0  0  0
  152.5022  139.8920  156.6280 O   0  0  0  0  0  0  0  0  0  0  0  0
  150.8323  140.0765  155.1454 N   0  0  0  0  0  0  0  0  0  0  0  0
  149.4544  140.3614  154.7463 C   0  0  0  0  0  0  0  0  0  0  0  0
  148.6689  141.1315  155.8218 C   0  0  0  0  0  0  0  0  0  0  0  0
  148.9866  140.6086  157.1481 N   0  0  0  0  0  0  0  0  0  0  0  0
  148.2311  139.5461  157.5298 C   0  0  0  0  0  0  0  0  0  0  0  0
  146.8754  139.6004  157.4382 N   0  0  0  0  0  0  0  0  0  0  0  0
  146.1310  138.5614  157.8278 C   0  0  0  0  0  0  0  0  0  0  0  0
  146.5294  137.3919  158.3315 N   0  0  0  0  0  0  0  0  0  0  0  0
  147.8886  137.3320  158.4279 C   0  0  0  0  0  0  0  0  0  0  0  0
  148.8051  138.3541  158.0525 C   0  0  0  0  0  0  0  0  0  0  0  0
  150.1084  137.9305  158.2833 N   0  0  0  0  0  0  0  0  0  0  0  0
  149.9699  136.7281  158.7711 C   0  0  0  0  0  0  0  0  0  0  0  0
  148.6701  136.2921  158.9004 N   0  0  0  0  0  0  0  0  0  0  0  0
  148.2282  135.0041  159.4133 C   0  0  0  0  0  0  0  0  0  0  0  0
  147.3974  135.1108  160.7191 C   0  0  2  0  0  0  0  0  0  0  0  0
  146.1783  135.7669  160.4134 O   0  0  0  0  0  0  0  0  0  0  0  0
  148.0921  135.9100  161.8187 C   0  0  0  0  0  0  0  0  0  0  0  0
  147.5435  135.2901  163.0947 C   0  0  0  0  0  0  0  0  0  0  0  0
  147.5027  133.9126  162.7689 O   0  0  0  0  0  0  0  0  0  0  0  0
  147.0471  133.7705  161.4261 C   0  0  2  0  0  0  0  0  0  0  0  0
  147.6805  132.4947  160.8489 C   0  0  0  0  0  0  0  0  0  0  0  0
  151.8644  141.7630  160.5517 H   0  0  0  0  0  0  0  0  0  0  0  0
  153.5337  141.5421  160.0336 H   0  0  0  0  0  0  0  0  0  0  0  0
  152.3021  140.3936  159.5328 H   0  0  0  0  0  0  0  0  0  0  0  0
  152.8821  141.9260  157.6802 H   0  0  0  0  0  0  0  0  0  0  0  0
  151.8938  144.2204  159.4445 H   0  0  0  0  0  0  0  0  0  0  0  0
  152.5394  144.3555  157.8086 H   0  0  0  0  0  0  0  0  0  0  0  0
  153.5874  143.8612  159.1210 H   0  0  0  0  0  0  0  0  0  0  0  0
  150.1131  142.3866  158.8145 H   0  0  0  0  0  0  0  0  0  0  0  0
  150.5350  142.8200  157.1977 H   0  0  0  0  0  0  0  0  0  0  0  0
  150.5669  139.9898  158.3900 H   0  0  0  0  0  0  0  0  0  0  0  0
  151.4581  139.7631  154.4176 H   0  0  0  0  0  0  0  0  0  0  0  0
  149.4514  140.9104  153.8045 H   0  0  0  0  0  0  0  0  0  0  0  0
  148.9669  139.4049  154.5541 H   0  0  0  0  0  0  0  0  0  0  0  0
  148.9477  142.1851  155.7929 H   0  0  0  0  0  0  0  0  0  0  0  0
  147.6011  141.0995  155.6036 H   0  0  0  0  0  0  0  0  0  0  0  0
  145.0632  138.6858  157.7222 H   0  0  0  0  0  0  0  0  0  0  0  0
  150.8187  136.1229  159.0543 H   0  0  0  0  0  0  0  0  0  0  0  0
  147.6498  134.5076  158.6331 H   0  0  0  0  0  0  0  0  0  0  0  0
  149.1172  134.3938  159.5749 H   0  0  0  0  0  0  0  0  0  0  0  0
  145.5986  135.6829  161.1550 H   0  0  0  0  0  0  0  0  0  0  0  0
  149.1686  135.7386  161.7837 H   0  0  0  0  0  0  0  0  0  0  0  0
  147.9250  136.9864  161.7563 H   0  0  0  0  0  0  0  0  0  0  0  0
  148.1744  135.4803  163.9632 H   0  0  0  0  0  0  0  0  0  0  0  0
  146.5365  135.6510  163.3092 H   0  0  0  0  0  0  0  0  0  0  0  0
  145.9650  133.6304  161.4599 H   0  0  0  0  0  0  0  0  0  0  0  0
  147.3591  132.3193  159.8222 H   0  0  0  0  0  0  0  0  0  0  0  0
  147.3879  131.6225  161.4340 H   0  0  0  0  0  0  0  0  0  0  0  0
  148.7693  132.5453  160.8633 H   0  0  0  0  0  0  0  0  0  0  0  0
  1  2  1  0  0  0  0
  1 29  1  0  0  0  0
  1 30  1  0  0  0  0
  1 31  1  0  0  0  0
  2  3  1  0  0  0  0
  2  4  1  0  0  0  0
  2 32  1  0  0  0  0
  3 33  1  0  0  0  0
  3 34  1  0  0  0  0
  3 35  1  0  0  0  0
  4  5  1  0  0  0  0
  4 36  1  0  0  0  0
  4 37  1  0  0  0  0
  5 11  1  0  0  0  0
  5  6  1  0  0  0  0
  5 38  1  0  0  0  0
  6  7  2  0  0  0  0
  6  8  1  0  0  0  0
  8  9  1  0  0  0  0
  8 39  1  0  0  0  0
  9 10  1  0  0  0  0
  9 40  1  0  0  0  0
  9 41  1  0  0  0  0
 10 11  1  0  0  0  0
 10 42  1  0  0  0  0
 10 43  1  0  0  0  0
 11 12  1  0  0  0  0
 12 17  1  0  0  0  0
 12 13  2  0  0  0  0
 13 14  1  0  0  0  0
 14 15  2  0  0  0  0
 14 44  1  0  0  0  0
 15 16  1  0  0  0  0
 16 20  1  0  0  0  0
 16 17  2  0  0  0  0
 17 18  1  0  0  0  0
 18 19  2  0  0  0  0
 19 20  1  0  0  0  0
 19 45  1  0  0  0  0
 20 21  1  0  0  0  0
 21 22  1  0  0  0  0
 21 46  1  0  0  0  0
 21 47  1  0  0  0  0
 22 27  1  0  0  0  0
 22 23  1  0  0  0  0
 22 24  1  0  0  0  0
 23 48  1  0  0  0  0
 24 25  1  0  0  0  0
 24 49  1  0  0  0  0
 24 50  1  0  0  0  0
 25 26  1  0  0  0  0
 25 51  1  0  0  0  0
 25 52  1  0  0  0  0
 26 27  1  0  0  0  0
 27 28  1  0  0  0  0
 27 53  1  0  0  0  0
 28 54  1  0  0  0  0
 28 55  1  0  0  0  0
 28 56  1  0  0  0  0
M  END
> <s_m_source_file>
AV-unprocessed.smi

> <i_m_source_file_index>
171

> <i_lp_mmshare_version>
43012

> <i_f3d_flags>
0

> <s_epik_input>
W0NIM11bQ0hdKFtDSDNdKVtDSDJdW0NAQEhdMUMoPU8pW05IXVtDSDJdW0NIMl1OMWMobltjSF1uMiljKGMyMyluW2NIXW4zW0NIMl1bQ0BAXTQoW09IXSlbQ0gyXVtDSDJdT1tDQEhdNFtDSDNd

> <s_epik_cmdline>
J2VwaWtfcHl0aG9uJywgJy1waCcsICc3LjAnLCAnLXRuJywgJzgnLCAnLW1hJywgJzIwMCcsICctbWV0YWxfYmluZGluZycsICctaW1hZScsICc8aW5maWxlLm1hZT4nLCAnLW9tYWUnLCAnPG91dGZpbGUubWFlPic=

> <r_lp_tautomer_probability>
1

> <r_epik_Ionization_Penalty>
0.000670584

> <r_epik_Ionization_Penalty_Charging>
0

> <r_epik_Ionization_Penalty_Neutral>
0.000670584

> <r_epik_State_Penalty>
0.000304767

> <r_epik_Charging_Adjusted_Penalty>
0.000304767

> <i_epik_Tot_Q>
0

> <i_epik_Tot_abs_Q>
0

> <r_epik_Metal_State_Penalty>
-0

> <b_epik_Metal_Only>
0

> <s_lp_Force_Field>
OPLS_2005

> <r_lp_Energy>
45.5381

> <b_lp_Chiralities_Consistent>
1

> <s_lp_Variant>
AV-unprocessed.smi:171-7

> <Gold.Version>
5.8.1

> <Gold.Id.Protein>
6NUR|6NUR_protein|mol2

> <Gold.PLP.Fitness>
46.5643

> <Gold.PLP.PLP>
-43.6685

> <Gold.PLP.part.hbond>
-2.7030

> <Gold.PLP.part.metal>
0.0000

> <Gold.PLP.part.buried>
-5.7059

> <Gold.PLP.part.nonpolar>
-37.0536

> <Gold.PLP.part.repulsive>
0.3602

> <Gold.PLP.ligand.clash>
0.0000

> <Gold.PLP.ligand.torsion>
0.3274

> <Gold.PLP.Chemscore.Hbond>
1.0000

> <Gold.PLP.Chemscore.CHOScore>
0.0000

> <Gold.PLP.Chemscore.Metal>
0.0000

> <Gold.Chemscore.Hbonds>
donor molecule, donor type, donor heavy atom, donor atom, acceptor molecule, acceptor atom, score
      P1  H  7997  8008       L1     7  1.00

> <Gold.PLP.Chemscore.Internal.Correction>
0.5505

> <Gold.Rescore>
     Score         DG    S(hbond)    S(metal)    S(lipo)     H(rot)  DE(clash)    DE(int)     intcor
     11.98     -13.86       0.98        0.00     100.72       2.61       0.11       1.78       ----

> <Gold.Chemscore.Fitness>
11.9775

> <Gold.Chemscore.DG>
-13.8630

> <Gold.Chemscore.ZeroCoef>
-5.4800

> <Gold.Chemscore.Hbond>
0.9799

> <Gold.Chemscore.Metal>
0.0000

> <Gold.Chemscore.Lipo>
100.7250

> <Gold.Chemscore.Internal_Hbond>
0.0000

> <Gold.Chemscore.DEClash>
0.1083

> <Gold.Chemscore.DEInternal>
1.7771

> <Gold.Chemscore.Rot>
2.6074

> <Gold.Chemscore.Internal.Correction>
   9.000000E+99

> <Gold.Chemscore.Hbonds>
donor molecule, donor type, donor heavy atom, donor atom, acceptor molecule, acceptor atom, score
      P1  H  7997  8008       L1     7  1.00

> <Gold.Chemscore.Hbond.Weighted>
-3.2730

> <Gold.Chemscore.Metal.Weighted>
-0.0000

> <Gold.Chemscore.Lipo.Weighted>
-11.7848

> <Gold.Chemscore.Internal_Hbond.Weighted>
0.0000

> <Gold.Chemscore.DEClash.Weighted>
0.1083

> <Gold.Chemscore.DEInternal.Weighted>
1.7771

> <Gold.Chemscore.Rot.Weighted>
6.6748

> <Gold.Chemscore.Internal.Correction.Weighted>
   9.000000E+99

> <Gold.Protein.RotatedTorsions>
[ 6907 6896 6895 6894 ] final  125.38 input  -60.11 | X-H torsion
[ 7974 7965 7964 7962 ] final -130.35 input  175.53 | X-H torsion
[ 8008 7997 7996 7995 ] final  -47.01 input   59.86 | X-H torsion
[ 10167 10162 10161 10158 ] final   11.05 input  -65.29 | X-H torsion
[ 10718 10713 10712 10709 ] final   87.26 input   66.30 | X-H torsion
[ 10763 10752 10751 10750 ] final -178.36 input  -60.55 | X-H torsion
[ 11005 11000 10999 10996 ] final -159.75 input  -57.11 | X-H torsion

> <Gold.Protein.ActiveResidues>
 VAL166  LYS551  ARG553  GLY616  TRP617  ASP618  TYR619  PRO620  LYS621  CYS622 
 ASP623  PHE694  ASN695  SER759  ASP760  ASP761  ALA762  ILE779  LEU786  VAL792 
 PHE793  MET794  SER795  GLU796  ALA797  LYS798  CYS799  TRP800  GLU811  SER814 

> <Gold.Protein.RotatedAtoms>
  152.3997  133.6799  159.6305 H   0  0  0  0  0  0  0  0  0  0  0  0  # atno 6907 bound_to 6896
  150.7890  133.8812  159.3295 H   0  0  0  0  0  0  0  0  0  0  0  0  # atno 6908 bound_to 6896
  151.6581  135.0994  160.0225 H   0  0  0  0  0  0  0  0  0  0  0  0  # atno 6909 bound_to 6896
  144.9483  140.7316  143.4803 H   0  0  0  0  0  0  0  0  0  0  0  0  # atno 7974 bound_to 7965
  154.4012  140.1357  156.4106 H   0  0  0  0  0  0  0  0  0  0  0  0  # atno 8008 bound_to 7997
  155.7737  140.3483  155.5240 H   0  0  0  0  0  0  0  0  0  0  0  0  # atno 8009 bound_to 7997
  155.8741  140.0976  157.1520 H   0  0  0  0  0  0  0  0  0  0  0  0  # atno 8010 bound_to 7997
  140.6156  143.8315  150.7114 H   0  0  0  0  0  0  0  0  0  0  0  0  # atno 10167 bound_to 10162
  157.6938  131.0248  150.3096 H   0  0  0  0  0  0  0  0  0  0  0  0  # atno 10718 bound_to 10713
  154.5487  135.2811  155.1029 H   0  0  0  0  0  0  0  0  0  0  0  0  # atno 10763 bound_to 10752
  154.2483  135.6344  153.5235 H   0  0  0  0  0  0  0  0  0  0  0  0  # atno 10764 bound_to 10752
  152.9997  135.5576  154.6047 H   0  0  0  0  0  0  0  0  0  0  0  0  # atno 10765 bound_to 10752
  140.6392  134.4570  157.5233 H   0  0  0  0  0  0  0  0  0  0  0  0  # atno 11005 bound_to 11000
  145.2883  139.1893  143.4754 LP  0  0  0  0  0  0  0  0  0  0  0  0  # atno 17320 bound_to 7965
  146.3312  140.2856  142.8612 LP  0  0  0  0  0  0  0  0  0  0  0  0  # atno 17321 bound_to 7965
  140.1894  143.4049  152.1874 LP  0  0  0  0  0  0  0  0  0  0  0  0  # atno 17342 bound_to 10162
  139.5396  144.7243  151.4779 LP  0  0  0  0  0  0  0  0  0  0  0  0  # atno 17343 bound_to 10162
  156.3600  130.3845  149.7259 LP  0  0  0  0  0  0  0  0  0  0  0  0  # atno 17370 bound_to 10713
  156.4709  130.7996  151.3014 LP  0  0  0  0  0  0  0  0  0  0  0  0  # atno 17371 bound_to 10713
  139.9087  134.8393  156.1610 LP  0  0  0  0  0  0  0  0  0  0  0  0  # atno 17394 bound_to 11000
  141.0619  133.6837  156.1970 LP  0  0  0  0  0  0  0  0  0  0  0  0  # atno 17395 bound_to 11000

$$$$
