AV-unprocessed.smi:1437|AV-procd|sdf|5865|dock4
  -GOLD-   22720 5543D 1   1.00000     0.00000
 Structure written by MMmdl.
 35 36  0  0  0  0  0  0  0  0  3 V2000
  153.5945  142.1782  161.6221 C   0  0  0  0  0  0  0  0  0  0  0  0
  152.7141  142.4056  160.4409 C   0  0  0  0  0  0  0  0  0  0  0  0
  152.8833  142.1867  159.1033 C   0  0  0  0  0  0  0  0  0  0  0  0
  151.6555  142.6329  158.5427 C   0  0  0  0  0  0  0  0  0  0  0  0
  151.3299  142.6106  157.2410 N   0  5  0  0  0  0  0  0  0  0  0  0
  150.5519  141.6186  156.7513 C   0  0  0  0  0  0  0  0  0  0  0  0
  150.6444  140.4175  157.0150 O   0  0  0  0  0  0  0  0  0  0  0  0
  149.6060  142.0460  155.9023 N   0  0  0  0  0  0  0  0  0  0  0  0
  148.6195  141.2088  155.2266 C   0  0  2  0  0  0  0  0  0  0  0  0
  149.2862  139.9609  154.6190 C   0  0  0  0  0  0  0  0  0  0  0  0
  148.2732  139.1259  153.8188 C   0  0  0  0  0  0  0  0  0  0  0  0
  147.6203  139.9442  152.7670 N   0  3  1  0  0  0  0  0  0  0  0  0
  146.7285  139.1424  151.9023 C   0  0  0  0  0  0  0  0  0  0  0  0
  146.9381  141.1354  153.3314 C   0  0  0  0  0  0  0  0  0  0  0  0
  147.9237  142.0148  154.1181 C   0  0  0  0  0  0  0  0  0  0  0  0
  150.8092  143.0682  159.4611 N   0  0  0  0  0  0  0  0  0  0  0  0
  151.4832  142.9322  160.6806 O   0  0  0  0  0  0  0  0  0  0  0  0
  153.7784  141.1135  161.7657 H   0  0  0  0  0  0  0  0  0  0  0  0
  153.1409  142.5688  162.5334 H   0  0  0  0  0  0  0  0  0  0  0  0
  154.5563  142.6725  161.4856 H   0  0  0  0  0  0  0  0  0  0  0  0
  153.7478  141.7765  158.6040 H   0  0  0  0  0  0  0  0  0  0  0  0
  149.5706  143.0376  155.7157 H   0  0  0  0  0  0  0  0  0  0  0  0
  147.8606  140.8946  155.9459 H   0  0  0  0  0  0  0  0  0  0  0  0
  150.1068  140.2604  153.9652 H   0  0  0  0  0  0  0  0  0  0  0  0
  149.7267  139.3469  155.4054 H   0  0  0  0  0  0  0  0  0  0  0  0
  148.7839  138.2789  153.3590 H   0  0  0  0  0  0  0  0  0  0  0  0
  147.5149  138.7154  154.4875 H   0  0  0  0  0  0  0  0  0  0  0  0
  145.8971  138.7283  152.4744 H   0  0  0  0  0  0  0  0  0  0  0  0
  147.2751  138.3165  151.4458 H   0  0  0  0  0  0  0  0  0  0  0  0
  146.3198  139.7548  151.0978 H   0  0  0  0  0  0  0  0  0  0  0  0
  146.4946  141.7197  152.5244 H   0  0  0  0  0  0  0  0  0  0  0  0
  146.1198  140.8164  153.9793 H   0  0  0  0  0  0  0  0  0  0  0  0
  147.3954  142.8660  154.5497 H   0  0  0  0  0  0  0  0  0  0  0  0
  148.6676  142.4268  153.4344 H   0  0  0  0  0  0  0  0  0  0  0  0
  148.3603  140.2914  152.1734 H   0  0  0  0  0  0  0  0  0  0  0  0
  1  2  1  0  0  0  0
  1 18  1  0  0  0  0
  1 19  1  0  0  0  0
  1 20  1  0  0  0  0
  2 17  1  0  0  0  0
  2  3  2  0  0  0  0
  3  4  1  0  0  0  0
  3 21  1  0  0  0  0
  4  5  1  0  0  0  0
  4 16  2  0  0  0  0
  5  6  1  0  0  0  0
  6  7  2  0  0  0  0
  6  8  1  0  0  0  0
  8  9  1  0  0  0  0
  8 22  1  0  0  0  0
  9 15  1  0  0  0  0
  9 10  1  0  0  0  0
  9 23  1  0  0  0  0
 10 11  1  0  0  0  0
 10 24  1  0  0  0  0
 10 25  1  0  0  0  0
 11 12  1  0  0  0  0
 11 26  1  0  0  0  0
 11 27  1  0  0  0  0
 12 13  1  0  0  0  0
 12 14  1  0  0  0  0
 12 35  1  0  0  0  0
 13 28  1  0  0  0  0
 13 29  1  0  0  0  0
 13 30  1  0  0  0  0
 14 15  1  0  0  0  0
 14 31  1  0  0  0  0
 14 32  1  0  0  0  0
 15 33  1  0  0  0  0
 15 34  1  0  0  0  0
 16 17  1  0  0  0  0
M  CHG  1   5  -1
M  CHG  1  12   1
M  END
> <s_m_source_file>
AV-unprocessed.smi

> <i_m_source_file_index>
1437

> <i_lp_mmshare_version>
43012

> <i_f3d_flags>
0

> <s_epik_input>
W0NIM11jMVtjSF1jKG5vMSlbTkhdQyg9TylbTkhdW0NIXTJbQ0gyXVtDSDJdTihbQ0gzXSlbQ0gyXVtDSDJdMg==

> <s_epik_cmdline>
J2VwaWtfcHl0aG9uJywgJy1waCcsICc3LjAnLCAnLXRuJywgJzgnLCAnLW1hJywgJzIwMCcsICctbWV0YWxfYmluZGluZycsICctaW1hZScsICc8aW5maWxlLm1hZT4nLCAnLW9tYWUnLCAnPG91dGZpbGUubWFlPic=

> <r_epik_Ionization_Penalty>
6.28535

> <r_epik_Ionization_Penalty_Charging>
6.28525

> <r_epik_Ionization_Penalty_Neutral>
9.66055e-05

> <r_epik_State_Penalty>
6.28414

> <r_epik_Charging_Adjusted_Penalty>
12.5694

> <i_epik_Tot_Q>
0

> <i_epik_Tot_abs_Q>
2

> <r_epik_Metal_State_Penalty>
2.21724

> <b_epik_Metal_Only>
1

> <s_lp_Force_Field>
OPLS_2005

> <r_lp_Energy>
2.83336

> <b_lp_Chiralities_Consistent>
1

> <s_lp_Variant>
AV-unprocessed.smi:1437-3

> <Gold.Version>
5.8.1

> <Gold.Id.Protein>
6NUR|6NUR_protein|mol2

> <Gold.PLP.Fitness>
40.2819

> <Gold.PLP.PLP>
-36.5683

> <Gold.PLP.part.hbond>
-3.6023

> <Gold.PLP.part.metal>
0.0000

> <Gold.PLP.part.buried>
-2.9049

> <Gold.PLP.part.nonpolar>
-29.0489

> <Gold.PLP.part.repulsive>
0.4381

> <Gold.PLP.ligand.clash>
0.0000

> <Gold.PLP.ligand.torsion>
1.2236

> <Gold.PLP.Chemscore.Hbond>
2.0520

> <Gold.PLP.Chemscore.CHOScore>
0.0000

> <Gold.PLP.Chemscore.Metal>
0.0000

> <Gold.Chemscore.Hbonds>
donor molecule, donor type, donor heavy atom, donor atom, acceptor molecule, acceptor atom, score
      L1  H     8    22       P1  8028  1.00
      L1  H    12    35       P1  7957  1.00
      P1  H  6933  6945       L1    17  0.01

> <Gold.PLP.Chemscore.Internal.Correction>
0.0048

> <Gold.Rescore>
     Score         DG    S(hbond)    S(metal)    S(lipo)     H(rot)  DE(clash)    DE(int)     intcor
     15.68     -18.20       1.97        0.00      74.43       1.00       0.06       2.46       ----

> <Gold.Chemscore.Fitness>
15.6836

> <Gold.Chemscore.DG>
-18.2028

> <Gold.Chemscore.ZeroCoef>
-5.4800

> <Gold.Chemscore.Hbond>
1.9684

> <Gold.Chemscore.Metal>
0.0000

> <Gold.Chemscore.Lipo>
74.4292

> <Gold.Chemscore.Internal_Hbond>
0.0000

> <Gold.Chemscore.DEClash>
0.0555

> <Gold.Chemscore.DEInternal>
2.4637

> <Gold.Chemscore.Rot>
1.0000

> <Gold.Chemscore.Internal.Correction>
   9.000000E+99

> <Gold.Chemscore.Hbonds>
donor molecule, donor type, donor heavy atom, donor atom, acceptor molecule, acceptor atom, score
      L1  H     8    22       P1  8028  0.99
      L1  H    12    35       P1  7957  0.94
      P1  H  6933  6945       L1    17  0.01

> <Gold.Chemscore.Hbond.Weighted>
-6.5746

> <Gold.Chemscore.Metal.Weighted>
-0.0000

> <Gold.Chemscore.Lipo.Weighted>
-8.7082

> <Gold.Chemscore.Internal_Hbond.Weighted>
0.0000

> <Gold.Chemscore.DEClash.Weighted>
0.0555

> <Gold.Chemscore.DEInternal.Weighted>
2.4637

> <Gold.Chemscore.Rot.Weighted>
2.5600

> <Gold.Chemscore.Internal.Correction.Weighted>
   9.000000E+99

> <Gold.Protein.RotatedTorsions>
[ 6907 6896 6895 6894 ] final  118.86 input  -60.11 | X-H torsion
[ 7974 7965 7964 7962 ] final -177.70 input  175.53 | X-H torsion
[ 8008 7997 7996 7995 ] final  -54.03 input   59.86 | X-H torsion
[ 10167 10162 10161 10158 ] final  136.79 input  -65.29 | X-H torsion
[ 10718 10713 10712 10709 ] final -127.23 input   66.30 | X-H torsion
[ 10763 10752 10751 10750 ] final  -69.87 input  -60.55 | X-H torsion
[ 11005 11000 10999 10996 ] final -164.14 input  -57.11 | X-H torsion

> <Gold.Protein.ActiveResidues>
 VAL166  LYS551  ARG553  GLY616  TRP617  ASP618  TYR619  PRO620  LYS621  CYS622 
 ASP623  PHE694  ASN695  SER759  ASP760  ASP761  ALA762  ILE779  LEU786  VAL792 
 PHE793  MET794  SER795  GLU796  ALA797  LYS798  CYS799  TRP800  GLU811  SER814 

> <Gold.Protein.RotatedAtoms>
  152.4513  133.7634  159.6759 H   0  0  0  0  0  0  0  0  0  0  0  0  # atno 6907 bound_to 6896
  150.8425  133.7902  159.3061 H   0  0  0  0  0  0  0  0  0  0  0  0  # atno 6908 bound_to 6896
  151.5523  135.1070  160.0004 H   0  0  0  0  0  0  0  0  0  0  0  0  # atno 6909 bound_to 6896
  144.7128  140.0980  143.6418 H   0  0  0  0  0  0  0  0  0  0  0  0  # atno 7974 bound_to 7965
  154.4150  140.1186  156.5250 H   0  0  0  0  0  0  0  0  0  0  0  0  # atno 8008 bound_to 7997
  155.6664  140.3496  155.4782 H   0  0  0  0  0  0  0  0  0  0  0  0  # atno 8009 bound_to 7997
  155.9670  140.1134  157.0836 H   0  0  0  0  0  0  0  0  0  0  0  0  # atno 8010 bound_to 7997
  139.5167  144.6445  151.5477 H   0  0  0  0  0  0  0  0  0  0  0  0  # atno 10167 bound_to 10162
  156.1837  130.6749  151.0338 H   0  0  0  0  0  0  0  0  0  0  0  0  # atno 10718 bound_to 10713
  154.4096  135.6012  153.5945 H   0  0  0  0  0  0  0  0  0  0  0  0  # atno 10763 bound_to 10752
  152.9790  135.5926  154.4086 H   0  0  0  0  0  0  0  0  0  0  0  0  # atno 10764 bound_to 10752
  154.3896  135.2842  155.2141 H   0  0  0  0  0  0  0  0  0  0  0  0  # atno 10765 bound_to 10752
  140.5902  134.5052  157.5191 H   0  0  0  0  0  0  0  0  0  0  0  0  # atno 11005 bound_to 11000
  145.9562  139.2768  143.1182 LP  0  0  0  0  0  0  0  0  0  0  0  0  # atno 17320 bound_to 7965
  145.9269  140.9076  143.0376 LP  0  0  0  0  0  0  0  0  0  0  0  0  # atno 17321 bound_to 7965
  140.6225  143.9232  150.6537 LP  0  0  0  0  0  0  0  0  0  0  0  0  # atno 17342 bound_to 10162
  140.2510  143.3593  152.1406 LP  0  0  0  0  0  0  0  0  0  0  0  0  # atno 17343 bound_to 10162
  157.6885  131.0817  150.7175 LP  0  0  0  0  0  0  0  0  0  0  0  0  # atno 17370 bound_to 10713
  156.7231  130.4687  149.5518 LP  0  0  0  0  0  0  0  0  0  0  0  0  # atno 17371 bound_to 10713
  139.9277  134.8023  156.1019 LP  0  0  0  0  0  0  0  0  0  0  0  0  # atno 17394 bound_to 11000
  141.0940  133.6703  156.2603 LP  0  0  0  0  0  0  0  0  0  0  0  0  # atno 17395 bound_to 11000

$$$$
