AV-unprocessed.smi:2807|AV-procd|sdf|10820|dock4
  -GOLD-   2272015253D 1   1.00000     0.00000
 Structure written by MMmdl.
 31 32  0  0  0  0  0  0  0  0  2 V2000
  149.5487  140.0630  158.5248 O   0  0  0  0  0  0  0  0  0  0  0  0
  149.8265  140.2182  157.3297 C   0  0  0  0  0  0  0  0  0  0  0  0
  149.0359  140.0837  156.2262 N   0  5  0  0  0  0  0  0  0  0  0  0
  148.4305  141.2069  155.5119 C   0  0  2  0  0  0  0  0  0  0  0  0
  146.9835  141.4536  155.9591 C   0  0  0  0  0  0  0  0  0  0  0  0
  146.2871  142.1202  154.7606 C   0  0  0  0  0  0  0  0  0  0  0  0
  147.1922  141.8824  153.5404 C   0  0  0  0  0  0  0  0  0  0  0  0
  148.2742  140.9050  154.0177 C   0  0  1  0  0  0  0  0  0  0  0  0
  149.4878  141.0733  153.3157 O   0  0  0  0  0  0  0  0  0  0  0  0
  151.2768  140.5939  156.9589 C   0  0  0  0  0  0  0  0  0  0  0  0
  151.7729  139.7072  156.0888 F   0  0  0  0  0  0  0  0  0  0  0  0
  151.2706  141.7842  156.3535 F   0  0  0  0  0  0  0  0  0  0  0  0
  152.1439  140.6806  158.2141 C   0  0  0  0  0  0  0  0  0  0  0  0
  151.8455  141.6167  159.2308 C   0  0  0  0  0  0  0  0  0  0  0  0
  152.6565  141.6478  160.3812 C   0  0  0  0  0  0  0  0  0  0  0  0
  153.7340  140.7470  160.4764 C   0  0  0  0  0  0  0  0  0  0  0  0
  153.9522  139.8509  159.4114 C   0  0  0  0  0  0  0  0  0  0  0  0
  153.1816  139.8141  158.3041 N   0  0  0  0  0  0  0  0  0  0  0  0
  148.9945  142.1347  155.6268 H   0  0  0  0  0  0  0  0  0  0  0  0
  146.4865  140.5064  156.1769 H   0  0  0  0  0  0  0  0  0  0  0  0
  146.9298  142.0635  156.8614 H   0  0  0  0  0  0  0  0  0  0  0  0
  145.2959  141.6920  154.6074 H   0  0  0  0  0  0  0  0  0  0  0  0
  146.1530  143.1899  154.9296 H   0  0  0  0  0  0  0  0  0  0  0  0
  146.6396  141.4878  152.6871 H   0  0  0  0  0  0  0  0  0  0  0  0
  147.6328  142.8312  153.2252 H   0  0  0  0  0  0  0  0  0  0  0  0
  147.9199  139.8821  153.8766 H   0  0  0  0  0  0  0  0  0  0  0  0
  149.4651  140.4996  152.5645 H   0  0  0  0  0  0  0  0  0  0  0  0
  151.0057  142.2890  159.1344 H   0  0  0  0  0  0  0  0  0  0  0  0
  152.4533  142.3481  161.1777 H   0  0  0  0  0  0  0  0  0  0  0  0
  154.3759  140.7409  161.3447 H   0  0  0  0  0  0  0  0  0  0  0  0
  154.7685  139.1449  159.4502 H   0  0  0  0  0  0  0  0  0  0  0  0
  1  2  2  0  0  0  0
  2  3  1  0  0  0  0
  2 10  1  0  0  0  0
  3  4  1  0  0  0  0
  4  8  1  0  0  0  0
  4  5  1  0  0  0  0
  4 19  1  0  0  0  0
  5  6  1  0  0  0  0
  5 20  1  0  0  0  0
  5 21  1  0  0  0  0
  6  7  1  0  0  0  0
  6 22  1  0  0  0  0
  6 23  1  0  0  0  0
  7  8  1  0  0  0  0
  7 24  1  0  0  0  0
  7 25  1  0  0  0  0
  8  9  1  0  0  0  0
  8 26  1  0  0  0  0
  9 27  1  0  0  0  0
 10 11  1  0  0  0  0
 10 12  1  0  0  0  0
 10 13  1  0  0  0  0
 13 18  1  0  0  0  0
 13 14  2  0  0  0  0
 14 15  1  0  0  0  0
 14 28  1  0  0  0  0
 15 16  2  0  0  0  0
 15 29  1  0  0  0  0
 16 17  1  0  0  0  0
 16 30  1  0  0  0  0
 17 18  2  0  0  0  0
 17 31  1  0  0  0  0
M  CHG  1   3  -1
M  END
> <s_m_source_file>
AV-unprocessed.smi

> <i_m_source_file_index>
2807

> <i_lp_mmshare_version>
43012

> <i_f3d_flags>
0

> <s_epik_input>
bjFbY0hdW2NIXVtjSF1bY0hdYzFDKEYpKEYpQyg9TylbTkhdW0NAQEhdMltDSDJdW0NIMl1bQ0gyXVtDQEhdMltPSF0=

> <s_epik_cmdline>
J2VwaWtfcHl0aG9uJywgJy1waCcsICc3LjAnLCAnLXRuJywgJzgnLCAnLW1hJywgJzIwMCcsICctbWV0YWxfYmluZGluZycsICctaW1hZScsICc8aW5maWxlLm1hZT4nLCAnLW9tYWUnLCAnPG91dGZpbGUubWFlPic=

> <r_lp_tautomer_probability>
1

> <r_epik_Ionization_Penalty>
5.72231

> <r_epik_Ionization_Penalty_Charging>
5.72231

> <r_epik_Ionization_Penalty_Neutral>
5.49816e-06

> <r_epik_State_Penalty>
5.72227

> <r_epik_Charging_Adjusted_Penalty>
11.4446

> <i_epik_Tot_Q>
-1

> <i_epik_Tot_abs_Q>
1

> <r_epik_Metal_State_Penalty>
1.70075

> <b_epik_Metal_Only>
1

> <s_lp_Force_Field>
OPLS_2005

> <r_lp_Energy>
34.3832

> <b_lp_Chiralities_Consistent>
1

> <s_lp_Variant>
AV-unprocessed.smi:2807-5

> <Gold.Version>
5.8.1

> <Gold.Id.Protein>
6NUR|6NUR_protein|mol2

> <Gold.PLP.Fitness>
40.1147

> <Gold.PLP.PLP>
-33.9915

> <Gold.PLP.part.hbond>
-4.4435

> <Gold.PLP.part.metal>
0.0000

> <Gold.PLP.part.buried>
-3.6692

> <Gold.PLP.part.nonpolar>
-25.0205

> <Gold.PLP.part.repulsive>
0.0314

> <Gold.PLP.ligand.clash>
0.0000

> <Gold.PLP.ligand.torsion>
1.1407

> <Gold.PLP.Chemscore.Hbond>
2.7797

> <Gold.PLP.Chemscore.CHOScore>
0.0000

> <Gold.PLP.Chemscore.Metal>
0.0000

> <Gold.Chemscore.Hbonds>
donor molecule, donor type, donor heavy atom, donor atom, acceptor molecule, acceptor atom, score
      L1  H     9    27       P1  7957  0.88
      P1  H  7989  7998       L1     9  0.08
      P1  H  7997  8010       L1    18  1.00
      P1  H  8011  8017       L1     9  0.55

> <Gold.PLP.Chemscore.Internal.Correction>
0.0656

> <Gold.Rescore>
     Score         DG    S(hbond)    S(metal)    S(lipo)     H(rot)  DE(clash)    DE(int)     intcor
     11.82     -15.19       1.60        0.00      81.00       2.00       0.63       2.74       ----

> <Gold.Chemscore.Fitness>
11.8159

> <Gold.Chemscore.DG>
-15.1937

> <Gold.Chemscore.ZeroCoef>
-5.4800

> <Gold.Chemscore.Hbond>
1.6011

> <Gold.Chemscore.Metal>
0.0000

> <Gold.Chemscore.Lipo>
80.9976

> <Gold.Chemscore.Internal_Hbond>
0.0000

> <Gold.Chemscore.DEClash>
0.6333

> <Gold.Chemscore.DEInternal>
2.7445

> <Gold.Chemscore.Rot>
1.9964

> <Gold.Chemscore.Internal.Correction>
   9.000000E+99

> <Gold.Chemscore.Hbonds>
donor molecule, donor type, donor heavy atom, donor atom, acceptor molecule, acceptor atom, score
      L1  H     9    27       P1  7957  0.85
      P1  H  7997  8010       L1    18  0.22
      P1  H  8011  8017       L1     9  0.03

> <Gold.Chemscore.Hbond.Weighted>
-5.3478

> <Gold.Chemscore.Metal.Weighted>
-0.0000

> <Gold.Chemscore.Lipo.Weighted>
-9.4767

> <Gold.Chemscore.Internal_Hbond.Weighted>
0.0000

> <Gold.Chemscore.DEClash.Weighted>
0.6333

> <Gold.Chemscore.DEInternal.Weighted>
2.7445

> <Gold.Chemscore.Rot.Weighted>
5.1108

> <Gold.Chemscore.Internal.Correction.Weighted>
   9.000000E+99

> <Gold.Protein.RotatedTorsions>
[ 6907 6896 6895 6894 ] final -107.66 input  -60.11 | X-H torsion
[ 7974 7965 7964 7962 ] final   93.61 input  175.53 | X-H torsion
[ 8008 7997 7996 7995 ] final   40.09 input   59.86 | X-H torsion
[ 10167 10162 10161 10158 ] final -113.54 input  -65.29 | X-H torsion
[ 10718 10713 10712 10709 ] final   81.69 input   66.30 | X-H torsion
[ 10763 10752 10751 10750 ] final    7.38 input  -60.55 | X-H torsion
[ 11005 11000 10999 10996 ] final  -25.44 input  -57.11 | X-H torsion

> <Gold.Protein.ActiveResidues>
 VAL166  LYS551  ARG553  GLY616  TRP617  ASP618  TYR619  PRO620  LYS621  CYS622 
 ASP623  PHE694  ASN695  SER759  ASP760  ASP761  ALA762  ILE779  LEU786  VAL792 
 PHE793  MET794  SER795  GLU796  ALA797  LYS798  CYS799  TRP800  GLU811  SER814 

> <Gold.Protein.RotatedAtoms>
  150.7457  133.9793  159.3570 H   0  0  0  0  0  0  0  0  0  0  0  0  # atno 6907 bound_to 6896
  151.7733  135.0779  160.0372 H   0  0  0  0  0  0  0  0  0  0  0  0  # atno 6908 bound_to 6896
  152.3324  133.5937  159.5855 H   0  0  0  0  0  0  0  0  0  0  0  0  # atno 6909 bound_to 6896
  145.4766  139.2280  143.2905 H   0  0  0  0  0  0  0  0  0  0  0  0  # atno 7974 bound_to 7965
  155.2474  140.3350  155.4286 H   0  0  0  0  0  0  0  0  0  0  0  0  # atno 8008 bound_to 7997
  156.2230  140.1817  156.7475 H   0  0  0  0  0  0  0  0  0  0  0  0  # atno 8009 bound_to 7997
  154.5855  140.0646  156.9150 H   0  0  0  0  0  0  0  0  0  0  0  0  # atno 8010 bound_to 7997
  140.1107  143.4530  152.1754 H   0  0  0  0  0  0  0  0  0  0  0  0  # atno 10167 bound_to 10162
  157.6839  131.0015  150.2264 H   0  0  0  0  0  0  0  0  0  0  0  0  # atno 10718 bound_to 10713
  153.2370  135.6899  153.7826 H   0  0  0  0  0  0  0  0  0  0  0  0  # atno 10763 bound_to 10752
  153.6969  135.3303  155.3216 H   0  0  0  0  0  0  0  0  0  0  0  0  # atno 10764 bound_to 10752
  154.8339  135.4558  154.1277 H   0  0  0  0  0  0  0  0  0  0  0  0  # atno 10765 bound_to 10752
  140.8938  133.7570  156.0455 H   0  0  0  0  0  0  0  0  0  0  0  0  # atno 11005 bound_to 11000
  146.2365  140.5549  142.8952 LP  0  0  0  0  0  0  0  0  0  0  0  0  # atno 17320 bound_to 7965
  144.7913  140.6038  143.6539 LP  0  0  0  0  0  0  0  0  0  0  0  0  # atno 17321 bound_to 7965
  139.5621  144.7412  151.4127 LP  0  0  0  0  0  0  0  0  0  0  0  0  # atno 17342 bound_to 10162
  140.6927  143.7823  150.7279 LP  0  0  0  0  0  0  0  0  0  0  0  0  # atno 17343 bound_to 10162
  156.2905  130.3745  149.7846 LP  0  0  0  0  0  0  0  0  0  0  0  0  # atno 17370 bound_to 10713
  156.5507  130.8340  151.3298 LP  0  0  0  0  0  0  0  0  0  0  0  0  # atno 17371 bound_to 10713
  140.8314  134.3174  157.5347 LP  0  0  0  0  0  0  0  0  0  0  0  0  # atno 17394 bound_to 11000
  139.8733  134.9365  156.3663 LP  0  0  0  0  0  0  0  0  0  0  0  0  # atno 17395 bound_to 11000

$$$$
