AV-unprocessed.smi:1995|AV-procd|sdf|8082|dock2
  -GOLD-   2272010293D 1   1.00000     0.00000
 Structure written by MMmdl.
 42 43  0  0  0  0  0  0  0  0  3 V2000
  149.9276  140.2312  154.8801 C   0  0  0  0  0  0  0  0  0  0  0  0
  149.3699  138.8061  154.7175 C   0  0  0  0  0  0  0  0  0  0  0  0
  150.3539  137.6385  155.0336 C   0  0  1  0  0  0  0  0  0  0  0  0
  151.6654  137.8393  154.2272 C   0  0  0  0  0  0  0  0  0  0  0  0
  150.7426  137.6508  156.5431 C   0  0  0  0  0  0  0  0  0  0  0  0
  149.5711  137.5681  157.4176 N   0  0  0  0  0  0  0  0  0  0  0  0
  149.5483  137.1538  158.6924 C   0  0  0  0  0  0  0  0  0  0  0  0
  150.5635  136.6840  159.2097 O   0  0  0  0  0  0  0  0  0  0  0  0
  148.3555  137.3388  159.2983 N   0  5  0  0  0  0  0  0  0  0  0  0
  148.0055  136.5616  160.3358 C   0  0  0  0  0  0  0  0  0  0  0  0
  147.5459  137.0543  161.4919 N   0  0  0  0  0  0  0  0  0  0  0  0
  147.2431  136.0686  162.4331 C   0  0  0  0  0  0  0  0  0  0  0  0
  147.4707  134.7963  161.9800 C   0  0  0  0  0  0  0  0  0  0  0  0
  148.0771  134.7980  160.3485 S   0  0  0  0  0  0  0  0  0  0  0  0
  149.7270  136.3051  154.7035 N   0  3  0  0  0  0  0  0  0  0  0  0
  150.5324  135.1074  155.0699 C   0  0  0  0  0  0  0  0  0  0  0  0
  149.9332  133.8523  154.4195 C   0  0  0  0  0  0  0  0  0  0  0  0
  148.5995  133.6872  154.8820 O   0  0  0  0  0  0  0  0  0  0  0  0
  147.7734  134.7843  154.5143 C   0  0  0  0  0  0  0  0  0  0  0  0
  148.3145  136.0910  155.1243 C   0  0  0  0  0  0  0  0  0  0  0  0
  149.1513  140.9668  154.6692 H   0  0  0  0  0  0  0  0  0  0  0  0
  150.7492  140.4296  154.1925 H   0  0  0  0  0  0  0  0  0  0  0  0
  150.2788  140.4171  155.8945 H   0  0  0  0  0  0  0  0  0  0  0  0
  148.4920  138.7366  155.3595 H   0  0  0  0  0  0  0  0  0  0  0  0
  149.0021  138.7046  153.6961 H   0  0  0  0  0  0  0  0  0  0  0  0
  152.2435  138.6849  154.6006 H   0  0  0  0  0  0  0  0  0  0  0  0
  151.4707  138.0369  153.1725 H   0  0  0  0  0  0  0  0  0  0  0  0
  152.3174  136.9671  154.2902 H   0  0  0  0  0  0  0  0  0  0  0  0
  151.3715  136.7931  156.7809 H   0  0  0  0  0  0  0  0  0  0  0  0
  151.3509  138.5213  156.7898 H   0  0  0  0  0  0  0  0  0  0  0  0
  148.7034  137.9197  157.0393 H   0  0  0  0  0  0  0  0  0  0  0  0
  146.8675  136.3632  163.4019 H   0  0  0  0  0  0  0  0  0  0  0  0
  147.3189  133.8636  162.5018 H   0  0  0  0  0  0  0  0  0  0  0  0
  151.5693  135.2117  154.7569 H   0  0  0  0  0  0  0  0  0  0  0  0
  150.5416  134.9753  156.1524 H   0  0  0  0  0  0  0  0  0  0  0  0
  149.9556  133.9233  153.3304 H   0  0  0  0  0  0  0  0  0  0  0  0
  150.5134  132.9718  154.6952 H   0  0  0  0  0  0  0  0  0  0  0  0
  147.7190  134.8600  153.4268 H   0  0  0  0  0  0  0  0  0  0  0  0
  146.7601  134.5960  154.8695 H   0  0  0  0  0  0  0  0  0  0  0  0
  148.2506  136.0576  156.2126 H   0  0  0  0  0  0  0  0  0  0  0  0
  147.6611  136.8931  154.7862 H   0  0  0  0  0  0  0  0  0  0  0  0
  149.6933  136.3015  153.6929 H   0  0  0  0  0  0  0  0  0  0  0  0
  1  2  1  0  0  0  0
  1 21  1  0  0  0  0
  1 22  1  0  0  0  0
  1 23  1  0  0  0  0
  2  3  1  0  0  0  0
  2 24  1  0  0  0  0
  2 25  1  0  0  0  0
  3  4  1  0  0  0  0
  3  5  1  0  0  0  0
  3 15  1  0  0  0  0
  4 26  1  0  0  0  0
  4 27  1  0  0  0  0
  4 28  1  0  0  0  0
  5  6  1  0  0  0  0
  5 29  1  0  0  0  0
  5 30  1  0  0  0  0
  6  7  1  0  0  0  0
  6 31  1  0  0  0  0
  7  8  2  0  0  0  0
  7  9  1  0  0  0  0
  9 10  1  0  0  0  0
 10 14  1  0  0  0  0
 10 11  2  0  0  0  0
 11 12  1  0  0  0  0
 12 13  2  0  0  0  0
 12 32  1  0  0  0  0
 13 14  1  0  0  0  0
 13 33  1  0  0  0  0
 15 20  1  0  0  0  0
 15 16  1  0  0  0  0
 15 42  1  0  0  0  0
 16 17  1  0  0  0  0
 16 34  1  0  0  0  0
 16 35  1  0  0  0  0
 17 18  1  0  0  0  0
 17 36  1  0  0  0  0
 17 37  1  0  0  0  0
 18 19  1  0  0  0  0
 19 20  1  0  0  0  0
 19 38  1  0  0  0  0
 19 39  1  0  0  0  0
 20 40  1  0  0  0  0
 20 41  1  0  0  0  0
M  CHG  1   9  -1
M  CHG  1  15   1
M  END
> <s_m_source_file>
AV-unprocessed.smi

> <i_m_source_file_index>
1995

> <i_lp_mmshare_version>
43012

> <i_f3d_flags>
0

> <s_epik_input>
W0NIMl0xW0NIMl1PW0NIMl1bQ0gyXU4xW0NAQF0oW0NIM10pKFtDSDJdW0NIM10pW0NIMl1bTkhdQyg9TylbTkhdYzJuW2NIXVtjSF1zMg==

> <s_epik_cmdline>
J2VwaWtfcHl0aG9uJywgJy1waCcsICc3LjAnLCAnLXRuJywgJzgnLCAnLW1hJywgJzIwMCcsICctbWV0YWxfYmluZGluZycsICctaW1hZScsICc8aW5maWxlLm1hZT4nLCAnLW9tYWUnLCAnPG91dGZpbGUubWFlPic=

> <r_lp_tautomer_probability>
0.999

> <r_epik_Ionization_Penalty>
8.09417

> <r_epik_Ionization_Penalty_Charging>
6.70334

> <r_epik_Ionization_Penalty_Neutral>
1.39083

> <r_epik_State_Penalty>
6.86521

> <r_epik_Charging_Adjusted_Penalty>
13.5685

> <i_epik_Tot_Q>
0

> <i_epik_Tot_abs_Q>
2

> <r_epik_Metal_State_Penalty>
2.79608

> <b_epik_Metal_Only>
1

> <s_lp_Force_Field>
OPLS_2005

> <r_lp_Energy>
20.9753

> <b_lp_Chiralities_Consistent>
1

> <s_lp_Variant>
AV-unprocessed.smi:1995-7

> <Gold.Version>
5.8.1

> <Gold.Id.Protein>
6NUR|6NUR_protein|mol2

> <Gold.PLP.Fitness>
45.6956

> <Gold.PLP.PLP>
-33.4802

> <Gold.PLP.part.hbond>
-5.0387

> <Gold.PLP.part.metal>
0.0000

> <Gold.PLP.part.buried>
-3.1560

> <Gold.PLP.part.nonpolar>
-25.0114

> <Gold.PLP.part.repulsive>
0.1161

> <Gold.PLP.ligand.clash>
0.0000

> <Gold.PLP.ligand.torsion>
0.9875

> <Gold.PLP.Chemscore.Hbond>
4.5888

> <Gold.PLP.Chemscore.CHOScore>
0.0000

> <Gold.PLP.Chemscore.Metal>
0.0000

> <Gold.Chemscore.Hbonds>
donor molecule, donor type, donor heavy atom, donor atom, acceptor molecule, acceptor atom, score
      L1  H    15    42       P1  7948  2.00
      P1  H  6896  6909       L1     8  0.99
      P1  H  6931  6943       L1    11  0.95
      P1  H  6934  6947       L1    11  0.77

> <Gold.PLP.Chemscore.Internal.Correction>
0.4241

> <Gold.Rescore>
     Score         DG    S(hbond)    S(metal)    S(lipo)     H(rot)  DE(clash)    DE(int)     intcor
     16.99     -18.51       2.86        0.00      68.17       1.75       0.02       1.50       ----

> <Gold.Chemscore.Fitness>
16.9913

> <Gold.Chemscore.DG>
-18.5090

> <Gold.Chemscore.ZeroCoef>
-5.4800

> <Gold.Chemscore.Hbond>
2.8558

> <Gold.Chemscore.Metal>
0.0000

> <Gold.Chemscore.Lipo>
68.1737

> <Gold.Chemscore.Internal_Hbond>
0.0000

> <Gold.Chemscore.DEClash>
0.0195

> <Gold.Chemscore.DEInternal>
1.4981

> <Gold.Chemscore.Rot>
1.7523

> <Gold.Chemscore.Internal.Correction>
   9.000000E+99

> <Gold.Chemscore.Hbonds>
donor molecule, donor type, donor heavy atom, donor atom, acceptor molecule, acceptor atom, score
      L1  H    15    42       P1  7948  0.39
      P1  H  6896  6909       L1     8  0.94
      P1  H  6931  6943       L1    11  0.19
      P1  H  6934  6947       L1    11  0.22

> <Gold.Chemscore.Hbond.Weighted>
-9.5385

> <Gold.Chemscore.Metal.Weighted>
-0.0000

> <Gold.Chemscore.Lipo.Weighted>
-7.9763

> <Gold.Chemscore.Internal_Hbond.Weighted>
0.0000

> <Gold.Chemscore.DEClash.Weighted>
0.0195

> <Gold.Chemscore.DEInternal.Weighted>
1.4981

> <Gold.Chemscore.Rot.Weighted>
4.4858

> <Gold.Chemscore.Internal.Correction.Weighted>
   9.000000E+99

> <Gold.Protein.RotatedTorsions>
[ 6907 6896 6895 6894 ] final   71.89 input  -60.11 | X-H torsion
[ 7974 7965 7964 7962 ] final   39.30 input  175.53 | X-H torsion
[ 8008 7997 7996 7995 ] final  -58.46 input   59.86 | X-H torsion
[ 10167 10162 10161 10158 ] final -101.70 input  -65.29 | X-H torsion
[ 10718 10713 10712 10709 ] final   64.53 input   66.30 | X-H torsion
[ 10763 10752 10751 10750 ] final  163.06 input  -60.55 | X-H torsion
[ 11005 11000 10999 10996 ] final  131.82 input  -57.11 | X-H torsion

> <Gold.Protein.ActiveResidues>
 VAL166  LYS551  ARG553  GLY616  TRP617  ASP618  TYR619  PRO620  LYS621  CYS622 
 ASP623  PHE694  ASN695  SER759  ASP760  ASP761  ALA762  ILE779  LEU786  VAL792 
 PHE793  MET794  SER795  GLU796  ALA797  LYS798  CYS799  TRP800  GLU811  SER814 

> <Gold.Protein.RotatedAtoms>
  152.4836  134.4653  159.9617 H   0  0  0  0  0  0  0  0  0  0  0  0  # atno 6907 bound_to 6896
  151.4653  133.3576  159.2823 H   0  0  0  0  0  0  0  0  0  0  0  0  # atno 6908 bound_to 6896
  150.8929  134.8359  159.7366 H   0  0  0  0  0  0  0  0  0  0  0  0  # atno 6909 bound_to 6896
  146.0995  139.5668  142.9424 H   0  0  0  0  0  0  0  0  0  0  0  0  # atno 7974 bound_to 7965
  154.4310  140.1083  156.5960 H   0  0  0  0  0  0  0  0  0  0  0  0  # atno 8008 bound_to 7997
  155.5961  140.3492  155.4561 H   0  0  0  0  0  0  0  0  0  0  0  0  # atno 8009 bound_to 7997
  156.0209  140.1239  157.0347 H   0  0  0  0  0  0  0  0  0  0  0  0  # atno 8010 bound_to 7997
  140.2385  143.3555  152.0823 H   0  0  0  0  0  0  0  0  0  0  0  0  # atno 10167 bound_to 10162
  157.6046  130.9165  149.9858 H   0  0  0  0  0  0  0  0  0  0  0  0  # atno 10718 bound_to 10713
  154.2879  135.2761  155.2668 H   0  0  0  0  0  0  0  0  0  0  0  0  # atno 10763 bound_to 10752
  154.5160  135.5769  153.6646 H   0  0  0  0  0  0  0  0  0  0  0  0  # atno 10764 bound_to 10752
  152.9919  135.6192  154.3042 H   0  0  0  0  0  0  0  0  0  0  0  0  # atno 10765 bound_to 10752
  139.9753  134.9565  156.9493 H   0  0  0  0  0  0  0  0  0  0  0  0  # atno 11005 bound_to 11000
  145.5883  141.0373  143.2084 LP  0  0  0  0  0  0  0  0  0  0  0  0  # atno 17320 bound_to 7965
  144.7421  139.7420  143.7306 LP  0  0  0  0  0  0  0  0  0  0  0  0  # atno 17321 bound_to 7965
  139.5085  144.6851  151.5908 LP  0  0  0  0  0  0  0  0  0  0  0  0  # atno 17342 bound_to 10162
  140.6131  143.9399  150.6468 LP  0  0  0  0  0  0  0  0  0  0  0  0  # atno 17343 bound_to 10162
  156.1128  130.3649  150.0020 LP  0  0  0  0  0  0  0  0  0  0  0  0  # atno 17370 bound_to 10713
  156.8115  130.9326  151.3644 LP  0  0  0  0  0  0  0  0  0  0  0  0  # atno 17371 bound_to 10713
  140.5208  134.0909  155.7291 LP  0  0  0  0  0  0  0  0  0  0  0  0  # atno 17394 bound_to 11000
  141.1430  133.9104  157.2281 LP  0  0  0  0  0  0  0  0  0  0  0  0  # atno 17395 bound_to 11000

$$$$
