AV-unprocessed.smi:3047|AV-procd|sdf|11621|dock7
  -GOLD-   2272017 03D 1   1.00000     0.00000
 Structure written by MMmdl.
 38 39  0  0  0  0  0  0  0  0  2 V2000
  150.7444  135.4785  155.4093 C   0  0  0  0  0  0  0  0  0  0  0  0
  151.4456  136.6237  156.6655 S   0  0  0  0  0  0  0  0  0  0  0  0
  150.9942  136.1826  157.9943 O   0  0  0  0  0  0  0  0  0  0  0  0
  152.8808  136.8097  156.4030 O   0  0  0  0  0  0  0  0  0  0  0  0
  150.6458  138.1173  156.3138 N   0  0  0  0  0  0  0  0  0  0  0  0
  149.6447  138.1484  155.2387 C   0  0  0  0  0  0  0  0  0  0  0  0
  149.5890  139.6000  154.7695 C   0  0  0  0  0  0  0  0  0  0  0  0
  151.0057  140.0970  155.0219 C   0  0  0  0  0  0  0  0  0  0  0  0
  151.4417  139.3555  156.2980 C   0  0  1  0  0  0  0  0  0  0  0  0
  151.2649  140.1858  157.5773 C   0  0  0  0  0  0  0  0  0  0  0  0
  150.1480  140.5629  157.9341 O   0  0  0  0  0  0  0  0  0  0  0  0
  152.3826  140.4522  158.2704 N   0  0  0  0  0  0  0  0  0  0  0  0
  152.4330  141.1891  159.5269 C   0  0  0  0  0  0  0  0  0  0  0  0
  152.9511  142.6230  159.3264 C   0  0  0  0  0  0  0  0  0  0  0  0
  151.8596  143.5980  159.3440 N   0  0  0  0  0  0  0  0  0  0  0  0
  151.6756  144.6185  160.2413 C   0  0  0  0  0  0  0  0  0  0  0  0
  150.5295  145.2693  159.8627 C   0  0  0  0  0  0  0  0  0  0  0  0
  150.0632  144.6187  158.7514 N   0  3  0  0  0  0  0  0  0  0  0  0
  150.8740  143.6029  158.4372 C   0  0  0  0  0  0  0  0  0  0  0  0
  151.1506  134.4795  155.5649 H   0  0  0  0  0  0  0  0  0  0  0  0
  151.0087  135.8225  154.4098 H   0  0  0  0  0  0  0  0  0  0  0  0
  149.6597  135.4478  155.5091 H   0  0  0  0  0  0  0  0  0  0  0  0
  149.9691  137.5037  154.4211 H   0  0  0  0  0  0  0  0  0  0  0  0
  148.6794  137.7889  155.5960 H   0  0  0  0  0  0  0  0  0  0  0  0
  149.2857  139.6960  153.7267 H   0  0  0  0  0  0  0  0  0  0  0  0
  148.8810  140.1622  155.3797 H   0  0  0  0  0  0  0  0  0  0  0  0
  151.6512  139.8062  154.1918 H   0  0  0  0  0  0  0  0  0  0  0  0
  151.0549  141.1839  155.1031 H   0  0  0  0  0  0  0  0  0  0  0  0
  152.4989  139.1026  156.1990 H   0  0  0  0  0  0  0  0  0  0  0  0
  153.2566  140.0909  157.9149 H   0  0  0  0  0  0  0  0  0  0  0  0
  151.4444  141.1984  159.9892 H   0  0  0  0  0  0  0  0  0  0  0  0
  153.0891  140.6480  160.2095 H   0  0  0  0  0  0  0  0  0  0  0  0
  153.6678  142.8907  160.1044 H   0  0  0  0  0  0  0  0  0  0  0  0
  153.4645  142.7234  158.3689 H   0  0  0  0  0  0  0  0  0  0  0  0
  152.3571  144.8013  161.0601 H   0  0  0  0  0  0  0  0  0  0  0  0
  150.0245  146.1237  160.2895 H   0  0  0  0  0  0  0  0  0  0  0  0
  150.7550  142.9222  157.6127 H   0  0  0  0  0  0  0  0  0  0  0  0
  149.2265  144.8690  158.2390 H   0  0  0  0  0  0  0  0  0  0  0  0
  1  2  1  0  0  0  0
  1 20  1  0  0  0  0
  1 21  1  0  0  0  0
  1 22  1  0  0  0  0
  2  3  2  0  0  0  0
  2  4  2  0  0  0  0
  2  5  1  0  0  0  0
  5  9  1  0  0  0  0
  5  6  1  0  0  0  0
  6  7  1  0  0  0  0
  6 23  1  0  0  0  0
  6 24  1  0  0  0  0
  7  8  1  0  0  0  0
  7 25  1  0  0  0  0
  7 26  1  0  0  0  0
  8  9  1  0  0  0  0
  8 27  1  0  0  0  0
  8 28  1  0  0  0  0
  9 10  1  0  0  0  0
  9 29  1  0  0  0  0
 10 11  2  0  0  0  0
 10 12  1  0  0  0  0
 12 13  1  0  0  0  0
 12 30  1  0  0  0  0
 13 14  1  0  0  0  0
 13 31  1  0  0  0  0
 13 32  1  0  0  0  0
 14 15  1  0  0  0  0
 14 33  1  0  0  0  0
 14 34  1  0  0  0  0
 15 19  1  0  0  0  0
 15 16  1  0  0  0  0
 16 17  2  0  0  0  0
 16 35  1  0  0  0  0
 17 18  1  0  0  0  0
 17 36  1  0  0  0  0
 18 19  2  0  0  0  0
 18 38  1  0  0  0  0
 19 37  1  0  0  0  0
M  CHG  1  18   1
M  END
> <s_m_source_file>
AV-unprocessed.smi

> <i_m_source_file_index>
3047

> <i_lp_mmshare_version>
43012

> <i_f3d_flags>
0

> <s_epik_input>
W0NIM11TKD1PKSg9TylOMVtDSDJdW0NIMl1bQ0gyXVtDQEhdMUMoPU8pW05IXVtDSDJdW0NIMl1uMltjSF1bY0hdbltjSF0y

> <s_epik_cmdline>
J2VwaWtfcHl0aG9uJywgJy1waCcsICc3LjAnLCAnLXRuJywgJzgnLCAnLW1hJywgJzIwMCcsICctbWV0YWxfYmluZGluZycsICctaW1hZScsICc8aW5maWxlLm1hZT4nLCAnLW9tYWUnLCAnPG91dGZpbGUubWFlPic=

> <r_lp_tautomer_probability>
1

> <r_epik_Ionization_Penalty>
0.281738

> <r_epik_Ionization_Penalty_Charging>
0

> <r_epik_Ionization_Penalty_Neutral>
0.281738

> <r_epik_State_Penalty>
0.274352

> <r_epik_Charging_Adjusted_Penalty>
0.274352

> <i_epik_Tot_Q>
1

> <i_epik_Tot_abs_Q>
1

> <r_epik_Metal_State_Penalty>
0.555562

> <b_epik_Metal_Only>
0

> <s_lp_Force_Field>
OPLS_2005

> <r_lp_Energy>
11.1573

> <b_lp_Chiralities_Consistent>
1

> <s_lp_Variant>
AV-unprocessed.smi:3047-1

> <Gold.Version>
5.8.1

> <Gold.Id.Protein>
6NUR|6NUR_protein|mol2

> <Gold.PLP.Fitness>
43.4487

> <Gold.PLP.PLP>
-33.3284

> <Gold.PLP.part.hbond>
-3.2316

> <Gold.PLP.part.metal>
0.0000

> <Gold.PLP.part.buried>
-3.1014

> <Gold.PLP.part.nonpolar>
-28.6245

> <Gold.PLP.part.repulsive>
0.2636

> <Gold.PLP.ligand.clash>
0.0000

> <Gold.PLP.ligand.torsion>
0.7547

> <Gold.PLP.Chemscore.Hbond>
3.6880

> <Gold.PLP.Chemscore.CHOScore>
0.0000

> <Gold.PLP.Chemscore.Metal>
0.0000

> <Gold.Chemscore.Hbonds>
donor molecule, donor type, donor heavy atom, donor atom, acceptor molecule, acceptor atom, score
      L1  H    18    38       P1  8029  2.00
      P1  H  6896  6908       L1     3  0.42
      P1  H 10752 10765       L1     4  0.90

> <Gold.PLP.Chemscore.Internal.Correction>
0.5656

> <Gold.Rescore>
     Score         DG    S(hbond)    S(metal)    S(lipo)     H(rot)  DE(clash)    DE(int)     intcor
     14.45     -15.37       2.53        0.00      66.22       2.47       0.04       0.87       ----

> <Gold.Chemscore.Fitness>
14.4521

> <Gold.Chemscore.DG>
-15.3661

> <Gold.Chemscore.ZeroCoef>
-5.4800

> <Gold.Chemscore.Hbond>
2.5326

> <Gold.Chemscore.Metal>
0.0000

> <Gold.Chemscore.Lipo>
66.2195

> <Gold.Chemscore.Internal_Hbond>
0.0000

> <Gold.Chemscore.DEClash>
0.0402

> <Gold.Chemscore.DEInternal>
0.8737

> <Gold.Chemscore.Rot>
2.4689

> <Gold.Chemscore.Internal.Correction>
   9.000000E+99

> <Gold.Chemscore.Hbonds>
donor molecule, donor type, donor heavy atom, donor atom, acceptor molecule, acceptor atom, score
      L1  H    18    38       P1  8029  0.44
      P1  H  6896  6908       L1     3  0.40
      P1  H 10752 10765       L1     4  0.39

> <Gold.Chemscore.Hbond.Weighted>
-8.4588

> <Gold.Chemscore.Metal.Weighted>
-0.0000

> <Gold.Chemscore.Lipo.Weighted>
-7.7477

> <Gold.Chemscore.Internal_Hbond.Weighted>
0.0000

> <Gold.Chemscore.DEClash.Weighted>
0.0402

> <Gold.Chemscore.DEInternal.Weighted>
0.8737

> <Gold.Chemscore.Rot.Weighted>
6.3204

> <Gold.Chemscore.Internal.Correction.Weighted>
   9.000000E+99

> <Gold.Protein.RotatedTorsions>
[ 6907 6896 6895 6894 ] final -164.18 input  -60.11 | X-H torsion
[ 7974 7965 7964 7962 ] final -175.19 input  175.53 | X-H torsion
[ 8008 7997 7996 7995 ] final  140.20 input   59.86 | X-H torsion
[ 10167 10162 10161 10158 ] final  122.69 input  -65.29 | X-H torsion
[ 10718 10713 10712 10709 ] final -140.86 input   66.30 | X-H torsion
[ 10763 10752 10751 10750 ] final -140.64 input  -60.55 | X-H torsion
[ 11005 11000 10999 10996 ] final  109.78 input  -57.11 | X-H torsion

> <Gold.Protein.ActiveResidues>
 VAL166  LYS551  ARG553  GLY616  TRP617  ASP618  TYR619  PRO620  LYS621  CYS622 
 ASP623  PHE694  ASN695  SER759  ASP760  ASP761  ALA762  ILE779  LEU786  VAL792 
 PHE793  MET794  SER795  GLU796  ALA797  LYS798  CYS799  TRP800  GLU811  SER814 

> <Gold.Protein.RotatedAtoms>
  151.4077  133.3737  159.2739 H   0  0  0  0  0  0  0  0  0  0  0  0  # atno 6907 bound_to 6896
  150.9386  134.8798  159.7608 H   0  0  0  0  0  0  0  0  0  0  0  0  # atno 6908 bound_to 6896
  152.5061  134.4026  159.9474 H   0  0  0  0  0  0  0  0  0  0  0  0  # atno 6909 bound_to 6896
  144.7129  140.1358  143.6395 H   0  0  0  0  0  0  0  0  0  0  0  0  # atno 7974 bound_to 7965
  156.2982  140.2347  156.4363 H   0  0  0  0  0  0  0  0  0  0  0  0  # atno 8008 bound_to 7997
  154.8226  140.0437  157.1441 H   0  0  0  0  0  0  0  0  0  0  0  0  # atno 8009 bound_to 7997
  154.9298  140.3015  155.5177 H   0  0  0  0  0  0  0  0  0  0  0  0  # atno 8010 bound_to 7997
  139.5844  144.7000  151.3447 H   0  0  0  0  0  0  0  0  0  0  0  0  # atno 10167 bound_to 10162
  156.3272  130.7566  151.1677 H   0  0  0  0  0  0  0  0  0  0  0  0  # atno 10718 bound_to 10713
  154.8572  135.3547  154.5740 H   0  0  0  0  0  0  0  0  0  0  0  0  # atno 10763 bound_to 10752
  153.6352  135.7000  153.5266 H   0  0  0  0  0  0  0  0  0  0  0  0  # atno 10764 bound_to 10752
  153.3016  135.4204  155.1217 H   0  0  0  0  0  0  0  0  0  0  0  0  # atno 10765 bound_to 10752
  139.8869  134.9467  156.6178 H   0  0  0  0  0  0  0  0  0  0  0  0  # atno 11005 bound_to 11000
  145.9246  139.2567  143.1361 LP  0  0  0  0  0  0  0  0  0  0  0  0  # atno 17320 bound_to 7965
  145.9585  140.8854  143.0223 LP  0  0  0  0  0  0  0  0  0  0  0  0  # atno 17321 bound_to 7965
  140.7117  143.7372  150.7580 LP  0  0  0  0  0  0  0  0  0  0  0  0  # atno 17342 bound_to 10162
  140.0912  143.4876  152.2477 LP  0  0  0  0  0  0  0  0  0  0  0  0  # atno 17343 bound_to 10162
  157.7423  131.0491  150.5030 LP  0  0  0  0  0  0  0  0  0  0  0  0  # atno 17370 bound_to 10713
  156.5191  130.4157  149.6260 LP  0  0  0  0  0  0  0  0  0  0  0  0  # atno 17371 bound_to 10713
  140.7762  133.8697  155.8531 LP  0  0  0  0  0  0  0  0  0  0  0  0  # atno 17394 bound_to 11000
  140.9799  134.1419  157.4503 LP  0  0  0  0  0  0  0  0  0  0  0  0  # atno 17395 bound_to 11000

$$$$
