#       Name:                AV-unprocessed.smi:103
#       Creating user name   scv26
#       Creation time:       Thu Mar 26 17:54:45 2020


#       File generated by GOLD software.
#

@<TRIPOS>MOLECULE
AV-unprocessed.smi:103
    64    66     1
SMALL
NO_CHARGES


@<TRIPOS>ATOM
      1 ****        -0.0274   5.5014  -0.0310 C.3            1 S1                 0.0000
      2 ****        -0.2415   4.2423   0.7986 C.2            1 S1                 0.0000
      3 ****         0.3595   4.0633   1.8581 O.2            1 S1                 0.0000
      4 ****        -1.1311   3.4060   0.2391 O.3            1 S1                 0.0000
      5 ****        -1.4405   2.1711   0.8670 C.3            1 S1                 0.0000
      6 ****        -1.8012   1.1300  -0.2065 C.3            1 S1                 0.0000
      7 ****        -0.6268   0.9122  -0.9901 O.3            1 S1                 0.0000
      8 ****        -0.2922  -0.4365  -0.9922 C.3            1 S1                 0.0000
      9 ****         1.1969  -0.5725  -0.9941 N.pl3          1 S1                 0.0000
     10 ****         2.0071  -1.4087  -1.7364 C.2            1 S1                 0.0000
     11 ****         1.4764  -2.5726  -2.9871 S.o2           1 S1                 0.0000
     12 ****         1.1783  -1.4675  -4.4259 C.3            1 S1                 0.0000
     13 ****         2.6234  -3.4479  -3.2749 O.2            1 S1                 0.0000
     14 ****         0.1968  -3.1427  -2.5393 O.2            1 S1                 0.0000
     15 ****         3.2955  -1.2613  -1.5850 N.2            1 S1                 0.0000
     16 ****         3.3877  -0.2820  -0.6064 C.ar           1 S1                 0.0000
     17 ****         4.4695   0.3525   0.0547 C.ar           1 S1                 0.0000
     18 ****         5.7532   0.0621  -0.1986 N.pl3          1 S1                 0.0000
     19 ****         4.1951   1.2977   0.9839 N.ar           1 S1                 0.0000
     20 ****         2.9227   1.6067   1.2533 C.ar           1 S1                 0.0000
     21 ****         1.8098   1.1006   0.7166 N.ar           1 S1                 0.0000
     22 ****         2.0857   0.1485  -0.2215 C.ar           1 S1                 0.0000
     23 ****        -0.8954  -1.0415   0.2659 C.3            1 S1                 0.0000
     24 ****        -1.1327  -2.4271   0.0670 O.3            1 S1                 0.0000
     25 ****        -1.1531  -3.2671   1.1133 C.2            1 S1                 0.0000
     26 ****        -1.4048  -4.7085   0.6924 C.3            1 S1                 0.0000
     27 ****        -0.9959  -2.9592   2.2947 O.2            1 S1                 0.0000
     28 ****        -2.1893  -0.2548   0.3538 C.3            1 S1                 0.0000
     29 ****        -2.6410  -0.2233   1.7025 O.3            1 S1                 0.0000
     30 ****        -3.9500  -0.0976   1.9756 C.2            1 S1                 0.0000
     31 ****        -4.2327  -0.1083   3.4717 C.3            1 S1                 0.0000
     32 ****        -4.8547   0.0232   1.1498 O.2            1 S1                 0.0000
     33 ****        -0.0382   5.2656  -1.0953 H              1 S1                 0.0000
     34 ****         0.9324   5.9584   0.2105 H              1 S1                 0.0000
     35 ****        -0.8165   6.2253   0.1726 H              1 S1                 0.0000
     36 ****        -0.6133   1.8041   1.4747 H              1 S1                 0.0000
     37 ****        -2.2828   2.3362   1.5391 H              1 S1                 0.0000
     38 ****        -2.6047   1.5115  -0.8373 H              1 S1                 0.0000
     39 ****        -0.6527  -0.8849  -1.9165 H              1 S1                 0.0000
     40 ****         0.8496  -2.0625  -5.2775 H              1 S1                 0.0000
     41 ****         2.1020  -0.9481  -4.6807 H              1 S1                 0.0000
     42 ****         0.4103  -0.7368  -4.1743 H              1 S1                 0.0000
     43 ****         5.9836  -0.6382  -0.8889 H              1 S1                 0.0000
     44 ****         6.4870   0.5424   0.3017 H              1 S1                 0.0000
     45 ****         2.7739   2.3701   2.0030 H              1 S1                 0.0000
     46 ****        -0.2404  -0.8277   1.1125 H              1 S1                 0.0000
     47 ****        -0.7711  -4.9734  -0.1543 H              1 S1                 0.0000
     48 ****        -2.4468  -4.8401   0.4006 H              1 S1                 0.0000
     49 ****        -1.1863  -5.3911   1.5137 H              1 S1                 0.0000
     50 ****        -2.9240  -0.7200  -0.3064 H              1 S1                 0.0000
     51 ****        -3.6709  -0.9049   3.9598 H              1 S1                 0.0000
     52 ****        -5.2943  -0.2697   3.6595 H              1 S1                 0.0000
     53 ****        -3.9428   0.8435   3.9168 H              1 S1                 0.0000
     54 ****         1.0037   4.7523   2.1900 LP             1 S1                 0.0000
     55 ****         0.2034   3.2289   2.3866 LP             1 S1                 0.0000
     56 ****         0.1301   1.4394  -0.6038 LP             1 S1                 0.0000
     57 ****        -0.7964   1.2116  -1.9291 LP             1 S1                 0.0000
     58 ****         4.0357  -1.7381  -2.0590 LP             1 S1                 0.0000
     59 ****         4.9388   1.7615   1.4653 LP             1 S1                 0.0000
     60 ****         0.8855   1.3849   0.9713 LP             1 S1                 0.0000
     61 ****        -0.8350  -2.0046   2.5454 LP             1 S1                 0.0000
     62 ****        -1.0292  -3.6636   3.0036 LP             1 S1                 0.0000
     63 ****        -4.6418   0.0340   0.1728 LP             1 S1                 0.0000
     64 ****        -5.8027   0.1106   1.4558 LP             1 S1                 0.0000
@<TRIPOS>BOND
    1    1    2 1     
    2    1   33 1     
    3    1   34 1     
    4    1   35 1     
    5    2    3 2     
    6    2    4 1     
    7    4    5 1     
    8    5    6 1     
    9    5   36 1     
   10    5   37 1     
   11    6   28 1     
   12    6    7 1     
   13    6   38 1     
   14    7    8 1     
   15    8    9 1     
   16    8   23 1     
   17    8   39 1     
   18    9   22 1     
   19    9   10 1     
   20   10   11 1     
   21   10   15 2     
   22   11   12 1     
   23   11   13 2     
   24   11   14 2     
   25   12   40 1     
   26   12   41 1     
   27   12   42 1     
   28   15   16 1     
   29   16   22 ar    
   30   16   17 ar    
   31   17   18 1     
   32   17   19 ar    
   33   18   43 1     
   34   18   44 1     
   35   19   20 ar    
   36   20   21 ar    
   37   20   45 1     
   38   21   22 ar    
   39   23   24 1     
   40   23   28 1     
   41   23   46 1     
   42   24   25 1     
   43   25   26 1     
   44   25   27 2     
   45   26   47 1     
   46   26   48 1     
   47   26   49 1     
   48   28   29 1     
   49   28   50 1     
   50   29   30 1     
   51   30   31 1     
   52   30   32 2     
   53   31   51 1     
   54   31   52 1     
   55   31   53 1     
   56    3   54 1     
   57    3   55 1     
   58    7   56 1     
   59    7   57 1     
   60   15   58 1     
   61   19   59 1     
   62   21   60 1     
   63   27   61 1     
   64   27   62 1     
   65   32   63 1     
   66   32   64 1     
@<TRIPOS>SUBSTRUCTURE
      1 S1             1
@<TRIPOS>SET
LONE_PAIRS      STATIC     ATOMS    <user>   **** ""
13 54 55 56 57 13 14 58 59 60 61 62 63 64
DONOR_HYDROGENS      STATIC     ATOMS    <user>   **** ""
2 43 44
ATOM$BLUE        STATIC     ATOMS    COLORGROUP SYSTEM
13 54 55 56 57 13 14 58 59 60 61 62 63 64
ATOM$RED        STATIC     ATOMS    COLORGROUP SYSTEM
2 43 44
