AV-unprocessed.smi:468|AV-procd|sdf|2652|dock5
  -GOLD-   2262023 63D 1   1.00000     0.00000
 Structure written by MMmdl.
 49 50  0  0  0  0  0  0  0  0  2 V2000
  149.1306  132.1160  157.8366 C   0  0  0  0  0  0  0  0  0  0  0  0
  149.8174  133.3410  158.0169 O   0  0  0  0  0  0  0  0  0  0  0  0
  149.1627  134.4334  157.3942 C   0  0  0  0  0  0  0  0  0  0  0  0
  147.9517  134.8543  158.2429 C   0  0  0  0  0  0  0  0  0  0  0  0
  148.2009  136.0834  159.0144 N   0  0  0  0  0  0  0  0  0  0  0  0
  147.8207  136.1807  160.3161 C   0  0  0  0  0  0  0  0  0  0  0  0
  148.1081  137.1628  161.0032 O   0  0  0  0  0  0  0  0  0  0  0  0
  146.9668  135.0539  160.9429 C   0  0  0  0  0  0  0  0  0  0  0  0
  145.5700  135.4671  161.4513 C   0  0  0  0  0  0  0  0  0  0  0  0
  145.8306  134.6348  162.7095 C   0  0  0  0  0  0  0  0  0  0  0  0
  147.3271  134.7358  162.4036 C   0  0  0  0  0  0  0  0  0  0  0  0
  148.8871  137.1196  158.3537 C   0  0  0  0  0  0  0  0  0  0  0  0
  148.3672  137.7736  157.2805 C   0  0  0  0  0  0  0  0  0  0  0  0
  147.1199  137.4365  156.7743 N   0  0  0  0  0  0  0  0  0  0  0  0
  149.1060  138.8142  156.6555 N   0  0  0  0  0  0  0  0  0  0  0  0
  148.5179  139.4982  155.4801 C   0  0  0  0  0  0  0  0  0  0  0  0
  148.5431  141.0425  155.5934 C   0  0  0  0  0  0  0  0  0  0  0  0
  147.7442  141.5734  156.7957 C   0  0  0  0  0  0  0  0  0  0  0  0
  148.0435  141.6848  154.2909 C   0  0  0  0  0  0  0  0  0  0  0  0
  150.3391  139.1759  157.1293 C   0  0  0  0  0  0  0  0  0  0  0  0
  150.9636  140.0760  156.5664 O   0  0  0  0  0  0  0  0  0  0  0  0
  150.8506  138.5248  158.2130 N   0  5  0  0  0  0  0  0  0  0  0  0
  150.2045  137.5190  158.8592 C   0  0  0  0  0  0  0  0  0  0  0  0
  150.6868  136.9536  159.8409 O   0  0  0  0  0  0  0  0  0  0  0  0
  149.6759  131.3159  158.3370 H   0  0  0  0  0  0  0  0  0  0  0  0
  149.0534  131.8599  156.7793 H   0  0  0  0  0  0  0  0  0  0  0  0
  148.1275  132.1594  158.2623 H   0  0  0  0  0  0  0  0  0  0  0  0
  149.8497  135.2693  157.2531 H   0  0  0  0  0  0  0  0  0  0  0  0
  148.8216  134.1248  156.4051 H   0  0  0  0  0  0  0  0  0  0  0  0
  147.0850  134.9989  157.5957 H   0  0  0  0  0  0  0  0  0  0  0  0
  147.6744  134.0339  158.9070 H   0  0  0  0  0  0  0  0  0  0  0  0
  146.8927  134.1541  160.3302 H   0  0  0  0  0  0  0  0  0  0  0  0
  145.4503  136.5275  161.6779 H   0  0  0  0  0  0  0  0  0  0  0  0
  144.7442  135.0986  160.8420 H   0  0  0  0  0  0  0  0  0  0  0  0
  145.5231  135.1085  163.6422 H   0  0  0  0  0  0  0  0  0  0  0  0
  145.4515  133.6149  162.6268 H   0  0  0  0  0  0  0  0  0  0  0  0
  147.8710  133.8005  162.5391 H   0  0  0  0  0  0  0  0  0  0  0  0
  147.8136  135.5611  162.9266 H   0  0  0  0  0  0  0  0  0  0  0  0
  146.5702  136.6988  157.1906 H   0  0  0  0  0  0  0  0  0  0  0  0
  146.8362  137.7342  155.8521 H   0  0  0  0  0  0  0  0  0  0  0  0
  149.0477  139.1850  154.5798 H   0  0  0  0  0  0  0  0  0  0  0  0
  147.4946  139.1714  155.2899 H   0  0  0  0  0  0  0  0  0  0  0  0
  149.5764  141.3623  155.7288 H   0  0  0  0  0  0  0  0  0  0  0  0
  146.7033  141.2517  156.7527 H   0  0  0  0  0  0  0  0  0  0  0  0
  147.7551  142.6632  156.8245 H   0  0  0  0  0  0  0  0  0  0  0  0
  148.1633  141.2246  157.7396 H   0  0  0  0  0  0  0  0  0  0  0  0
  147.0037  141.4220  154.0936 H   0  0  0  0  0  0  0  0  0  0  0  0
  148.6380  141.3569  153.4377 H   0  0  0  0  0  0  0  0  0  0  0  0
  148.1094  142.7721  154.3371 H   0  0  0  0  0  0  0  0  0  0  0  0
  1  2  1  0  0  0  0
  1 25  1  0  0  0  0
  1 26  1  0  0  0  0
  1 27  1  0  0  0  0
  2  3  1  0  0  0  0
  3  4  1  0  0  0  0
  3 28  1  0  0  0  0
  3 29  1  0  0  0  0
  4  5  1  0  0  0  0
  4 30  1  0  0  0  0
  4 31  1  0  0  0  0
  5  6  1  0  0  0  0
  5 12  1  0  0  0  0
  6  7  2  0  0  0  0
  6  8  1  0  0  0  0
  8 11  1  0  0  0  0
  8  9  1  0  0  0  0
  8 32  1  0  0  0  0
  9 10  1  0  0  0  0
  9 33  1  0  0  0  0
  9 34  1  0  0  0  0
 10 11  1  0  0  0  0
 10 35  1  0  0  0  0
 10 36  1  0  0  0  0
 11 37  1  0  0  0  0
 11 38  1  0  0  0  0
 12 23  1  0  0  0  0
 12 13  2  0  0  0  0
 13 14  1  0  0  0  0
 13 15  1  0  0  0  0
 14 39  1  0  0  0  0
 14 40  1  0  0  0  0
 15 16  1  0  0  0  0
 15 20  1  0  0  0  0
 16 17  1  0  0  0  0
 16 41  1  0  0  0  0
 16 42  1  0  0  0  0
 17 18  1  0  0  0  0
 17 19  1  0  0  0  0
 17 43  1  0  0  0  0
 18 44  1  0  0  0  0
 18 45  1  0  0  0  0
 18 46  1  0  0  0  0
 19 47  1  0  0  0  0
 19 48  1  0  0  0  0
 19 49  1  0  0  0  0
 20 21  2  0  0  0  0
 20 22  1  0  0  0  0
 22 23  1  0  0  0  0
 23 24  2  0  0  0  0
M  CHG  1  22  -1
M  END
> <s_m_source_file>
AV-unprocessed.smi

> <i_m_source_file_index>
468

> <i_lp_mmshare_version>
43012

> <i_f3d_flags>
0

> <s_epik_input>
W0NIMl0xW0NIMl1bQ0gyXVtDSF0xQyg9TylOKFtDSDJdW0NIMl1PW0NIM10pYzJjKFtOSDJdKW4oW0NIMl1bQ0hdKFtDSDNdKVtDSDNdKWMoPU8pW25IXWMyPU8=

> <s_epik_cmdline>
J2VwaWtfcHl0aG9uJywgJy1waCcsICc3LjAnLCAnLXRuJywgJzgnLCAnLW1hJywgJzIwMCcsICctbWV0YWxfYmluZGluZycsICctaW1hZScsICc8aW5maWxlLm1hZT4nLCAnLW9tYWUnLCAnPG91dGZpbGUubWFlPic=

> <r_lp_tautomer_probability>
1

> <r_epik_Ionization_Penalty>
5.91772

> <r_epik_Ionization_Penalty_Charging>
1.97379e-07

> <r_epik_Ionization_Penalty_Neutral>
5.91772

> <r_epik_State_Penalty>
5.91769

> <r_epik_Charging_Adjusted_Penalty>
5.91769

> <i_epik_Tot_Q>
-1

> <i_epik_Tot_abs_Q>
1

> <r_epik_Metal_State_Penalty>
1.85156

> <b_epik_Metal_Only>
1

> <s_lp_Force_Field>
OPLS_2005

> <r_lp_Energy>
46.8311

> <b_lp_Chiralities_Consistent>
1

> <s_lp_Variant>
AV-unprocessed.smi:468-2

> <Gold.Version>
5.8.1

> <Gold.Id.Protein>
6NUR|6NUR_protein|mol2

> <Gold.PLP.Fitness>
37.5008

> <Gold.PLP.PLP>
-28.0911

> <Gold.PLP.part.hbond>
-4.2715

> <Gold.PLP.part.metal>
0.0000

> <Gold.PLP.part.buried>
-5.0028

> <Gold.PLP.part.nonpolar>
-19.7990

> <Gold.PLP.part.repulsive>
0.0000

> <Gold.PLP.ligand.clash>
0.0000

> <Gold.PLP.ligand.torsion>
2.2155

> <Gold.PLP.Chemscore.Hbond>
3.7033

> <Gold.PLP.Chemscore.CHOScore>
0.0000

> <Gold.PLP.Chemscore.Metal>
0.0000

> <Gold.Chemscore.Hbonds>
donor molecule, donor type, donor heavy atom, donor atom, acceptor molecule, acceptor atom, score
      P1  H  6896  6907       L1     2  1.00
      P1  H  6896  6908       L1    24  1.00
      P1  H  6931  6943       L1     7  0.98
      P1  H  6934  6947       L1     7  0.61

> <Gold.PLP.Chemscore.Internal.Correction>
2.7309

> <Gold.Rescore>
     Score         DG    S(hbond)    S(metal)    S(lipo)     H(rot)  DE(clash)    DE(int)     intcor
     15.86     -18.16       3.63        0.00      49.20       2.04       0.01       2.29       ----

> <Gold.Chemscore.Fitness>
15.8554

> <Gold.Chemscore.DG>
-18.1565

> <Gold.Chemscore.ZeroCoef>
-5.4800

> <Gold.Chemscore.Hbond>
3.6325

> <Gold.Chemscore.Metal>
0.0000

> <Gold.Chemscore.Lipo>
49.2007

> <Gold.Chemscore.Internal_Hbond>
0.0000

> <Gold.Chemscore.DEClash>
0.0073

> <Gold.Chemscore.DEInternal>
2.2938

> <Gold.Chemscore.Rot>
2.0362

> <Gold.Chemscore.Internal.Correction>
   9.000000E+99

> <Gold.Chemscore.Hbonds>
donor molecule, donor type, donor heavy atom, donor atom, acceptor molecule, acceptor atom, score
      P1  H  6896  6907       L1     2  0.97
      P1  H  6896  6908       L1    24  1.00
      P1  H  6931  6943       L1     7  0.93
      P1  H  6934  6947       L1     7  0.59

> <Gold.Chemscore.Hbond.Weighted>
-12.1326

> <Gold.Chemscore.Metal.Weighted>
-0.0000

> <Gold.Chemscore.Lipo.Weighted>
-5.7565

> <Gold.Chemscore.Internal_Hbond.Weighted>
0.0000

> <Gold.Chemscore.DEClash.Weighted>
0.0073

> <Gold.Chemscore.DEInternal.Weighted>
2.2938

> <Gold.Chemscore.Rot.Weighted>
5.2126

> <Gold.Chemscore.Internal.Correction.Weighted>
   9.000000E+99

> <Gold.Protein.RotatedTorsions>
[ 6907 6896 6895 6894 ] final -138.18 input  -60.11 | X-H torsion
[ 7974 7965 7964 7962 ] final -160.55 input  175.53 | X-H torsion
[ 8008 7997 7996 7995 ] final   -0.15 input   59.86 | X-H torsion
[ 10167 10162 10161 10158 ] final   44.32 input  -65.29 | X-H torsion
[ 10718 10713 10712 10709 ] final  120.47 input   66.30 | X-H torsion
[ 10763 10752 10751 10750 ] final -158.15 input  -60.55 | X-H torsion
[ 11005 11000 10999 10996 ] final   26.75 input  -57.11 | X-H torsion

> <Gold.Protein.ActiveResidues>
 VAL166  LYS551  ARG553  GLY616  TRP617  ASP618  TYR619  PRO620  LYS621  CYS622 
 ASP623  PHE694  ASN695  SER759  ASP760  ASP761  ALA762  ILE779  LEU786  VAL792 
 PHE793  MET794  SER795  GLU796  ALA797  LYS798  CYS799  TRP800  GLU811  SER814 

> <Gold.Protein.RotatedAtoms>
  151.0318  133.5784  159.2659 H   0  0  0  0  0  0  0  0  0  0  0  0  # atno 6907 bound_to 6896
  151.2862  135.0728  159.9197 H   0  0  0  0  0  0  0  0  0  0  0  0  # atno 6908 bound_to 6896
  152.5346  134.0024  159.7955 H   0  0  0  0  0  0  0  0  0  0  0  0  # atno 6909 bound_to 6896
  144.7423  140.3525  143.6113 H   0  0  0  0  0  0  0  0  0  0  0  0  # atno 7974 bound_to 7965
  154.6613  140.2591  155.7105 H   0  0  0  0  0  0  0  0  0  0  0  0  # atno 8008 bound_to 7997
  156.2619  140.2848  156.1008 H   0  0  0  0  0  0  0  0  0  0  0  0  # atno 8009 bound_to 7997
  155.1304  140.0378  157.2763 H   0  0  0  0  0  0  0  0  0  0  0  0  # atno 8010 bound_to 7997
  140.3354  144.2536  150.6162 H   0  0  0  0  0  0  0  0  0  0  0  0  # atno 10167 bound_to 10162
  157.5888  131.1067  150.8040 H   0  0  0  0  0  0  0  0  0  0  0  0  # atno 10718 bound_to 10713
  154.7579  135.3110  154.8434 H   0  0  0  0  0  0  0  0  0  0  0  0  # atno 10763 bound_to 10752
  153.9203  135.6796  153.4752 H   0  0  0  0  0  0  0  0  0  0  0  0  # atno 10764 bound_to 10752
  153.1178  135.4836  154.9075 H   0  0  0  0  0  0  0  0  0  0  0  0  # atno 10765 bound_to 10752
  140.3337  134.2410  155.7699 H   0  0  0  0  0  0  0  0  0  0  0  0  # atno 11005 bound_to 11000
  145.7261  139.1723  143.2457 LP  0  0  0  0  0  0  0  0  0  0  0  0  # atno 17320 bound_to 7965
  146.1241  140.7271  142.9443 LP  0  0  0  0  0  0  0  0  0  0  0  0  # atno 17321 bound_to 7965
  140.5358  143.2233  151.8165 LP  0  0  0  0  0  0  0  0  0  0  0  0  # atno 17342 bound_to 10162
  139.4849  144.4663  151.9480 LP  0  0  0  0  0  0  0  0  0  0  0  0  # atno 17343 bound_to 10162
  156.8468  130.5066  149.5315 LP  0  0  0  0  0  0  0  0  0  0  0  0  # atno 17370 bound_to 10713
  156.0940  130.5918  150.9782 LP  0  0  0  0  0  0  0  0  0  0  0  0  # atno 17371 bound_to 10713
  141.2057  133.7854  157.0220 LP  0  0  0  0  0  0  0  0  0  0  0  0  # atno 17394 bound_to 11000
  140.0839  134.9632  157.1669 LP  0  0  0  0  0  0  0  0  0  0  0  0  # atno 17395 bound_to 11000

$$$$
