#       Name:                AV-unprocessed.smi:283
#       Creating user name   scv26
#       Creation time:       Thu Mar 26 21:47:12 2020


#       File generated by GOLD software.
#

@<TRIPOS>MOLECULE
AV-unprocessed.smi:283
    59    62     1
SMALL
NO_CHARGES


@<TRIPOS>ATOM
      1 ****        -5.2644   0.3593  -1.4557 C.3            1 S1                 0.0000
      2 ****        -3.9356   0.8493  -0.8654 C.3            1 S1                 0.0000
      3 ****        -2.8570  -0.0643  -1.2400 N.pl3          1 S1                 0.0000
      4 ****        -1.5663   0.2369  -0.9733 C.ar           1 S1                 0.0000
      5 ****        -1.2001   1.4883  -0.5911 N.ar           1 S1                 0.0000
      6 ****         0.0820   1.7595  -0.3314 C.ar           1 S1                 0.0000
      7 ****         1.1361   0.9426  -0.3930 N.ar           1 S1                 0.0000
      8 ****         0.7749  -0.3146  -0.7813 C.ar           1 S1                 0.0000
      9 ****        -0.5464  -0.7424  -1.0900 C.ar           1 S1                 0.0000
     10 ****        -0.5356  -2.0840  -1.4484 N.2            1 S1                 0.0000
     11 ****         0.7218  -2.4248  -1.3569 C.2            1 S1                 0.0000
     12 ****         1.5783  -1.4232  -0.9562 N.pl3          1 S1                 0.0000
     13 ****         3.0562  -1.5135  -0.7595 C.3            1 S1                 0.0000
     14 ****         3.6437  -0.4139  -1.3809 O.3            1 S1                 0.0000
     15 ****         4.7550   0.0464  -0.6196 C.3            1 S1                 0.0000
     16 ****         6.0208  -0.7142  -1.0616 C.3            1 S1                 0.0000
     17 ****         6.5354  -0.1442  -2.2456 O.3            1 S1                 0.0000
     18 ****         4.3511  -0.2605   0.8294 C.3            1 S1                 0.0000
     19 ****         3.6726   0.8562   1.3689 O.3            1 S1                 0.0000
     20 ****         3.4217  -1.4690   0.7333 C.3            1 S1                 0.0000
     21 ****         4.1253  -2.6338   1.1167 O.3            1 S1                 0.0000
     22 ****        -4.0734   1.0803   0.6414 C.ar           1 S1                 0.0000
     23 ****        -3.8768   0.0038   1.5378 C.ar           1 S1                 0.0000
     24 ****        -4.0008   0.1942   2.9268 C.ar           1 S1                 0.0000
     25 ****        -4.3302   1.4634   3.4353 C.ar           1 S1                 0.0000
     26 ****        -4.5394   2.5390   2.5525 C.ar           1 S1                 0.0000
     27 ****        -4.4158   2.3545   1.1606 C.ar           1 S1                 0.0000
     28 ****        -4.6964   3.7093   0.1234 Cl             1 S1                 0.0000
     29 ****         3.3527  -2.4377  -1.2584 H              1 S1                 0.0000
     30 ****         4.9048   1.1177  -0.7660 H              1 S1                 0.0000
     31 ****         5.2166  -0.4445   1.4679 H              1 S1                 0.0000
     32 ****         2.5338  -1.3634   1.3596 H              1 S1                 0.0000
     33 ****        -6.0660   1.0722  -1.2590 H              1 S1                 0.0000
     34 ****        -5.5598  -0.5998  -1.0288 H              1 S1                 0.0000
     35 ****        -5.1936   0.2360  -2.5369 H              1 S1                 0.0000
     36 ****        -3.7020   1.7983  -1.3468 H              1 S1                 0.0000
     37 ****        -3.1489  -0.9780  -1.5561 H              1 S1                 0.0000
     38 ****         0.2930   2.7754  -0.0313 H              1 S1                 0.0000
     39 ****         1.0607  -3.4266  -1.5777 H              1 S1                 0.0000
     40 ****         6.7967  -0.6287  -0.3003 H              1 S1                 0.0000
     41 ****         5.8308  -1.7780  -1.2073 H              1 S1                 0.0000
     42 ****         5.8749  -0.2053  -2.9190 H              1 S1                 0.0000
     43 ****         2.9244   1.0441   0.8212 H              1 S1                 0.0000
     44 ****         3.5413  -3.3736   1.0473 H              1 S1                 0.0000
     45 ****        -3.6280  -0.9785   1.1637 H              1 S1                 0.0000
     46 ****        -3.8442  -0.6343   3.6018 H              1 S1                 0.0000
     47 ****        -4.4260   1.6114   4.5010 H              1 S1                 0.0000
     48 ****        -4.7979   3.5110   2.9466 H              1 S1                 0.0000
     49 ****        -1.8905   2.2065  -0.5041 LP             1 S1                 0.0000
     50 ****         2.0738   1.2179  -0.1809 LP             1 S1                 0.0000
     51 ****        -1.3110  -2.6565  -1.7148 LP             1 S1                 0.0000
     52 ****         2.9696   0.3207  -1.4584 LP             1 S1                 0.0000
     53 ****         3.9554  -0.6779  -2.2936 LP             1 S1                 0.0000
     54 ****         7.3550  -0.6410  -2.5307 LP             1 S1                 0.0000
     55 ****         6.7663   0.8156  -2.0854 LP             1 S1                 0.0000
     56 ****         4.2847   1.6468   1.3874 LP             1 S1                 0.0000
     57 ****         3.3673   0.6493   2.2984 LP             1 S1                 0.0000
     58 ****         4.4417  -2.5412   2.0608 LP             1 S1                 0.0000
     59 ****         4.9115  -2.7669   0.5133 LP             1 S1                 0.0000
@<TRIPOS>BOND
    1    1    2 1     
    2    1   33 1     
    3    1   34 1     
    4    1   35 1     
    5    2    3 1     
    6    2   22 1     
    7    2   36 1     
    8    3    4 1     
    9    3   37 1     
   10    4    9 ar    
   11    4    5 ar    
   12    5    6 ar    
   13    6    7 ar    
   14    6   38 1     
   15    7    8 ar    
   16    8   12 1     
   17    8    9 ar    
   18    9   10 1     
   19   10   11 2     
   20   11   12 1     
   21   11   39 1     
   22   12   13 1     
   23   13   29 1     
   24   13   20 1     
   25   13   14 1     
   26   14   15 1     
   27   15   30 1     
   28   15   16 1     
   29   15   18 1     
   30   16   17 1     
   31   16   40 1     
   32   16   41 1     
   33   17   42 1     
   34   18   31 1     
   35   18   19 1     
   36   18   20 1     
   37   19   43 1     
   38   20   32 1     
   39   20   21 1     
   40   21   44 1     
   41   22   27 ar    
   42   22   23 ar    
   43   23   24 ar    
   44   23   45 1     
   45   24   25 ar    
   46   24   46 1     
   47   25   26 ar    
   48   25   47 1     
   49   26   27 ar    
   50   26   48 1     
   51   27   28 1     
   52    5   49 1     
   53    7   50 1     
   54   10   51 1     
   55   14   52 1     
   56   14   53 1     
   57   17   54 1     
   58   17   55 1     
   59   19   56 1     
   60   19   57 1     
   61   21   58 1     
   62   21   59 1     
@<TRIPOS>SUBSTRUCTURE
      1 S1             1
@<TRIPOS>SET
LONE_PAIRS      STATIC     ATOMS    <user>   **** ""
11 49 50 51 52 53 54 55 56 57 58 59
DONOR_HYDROGENS      STATIC     ATOMS    <user>   **** ""
4 37 42 43 44
ATOM$BLUE        STATIC     ATOMS    COLORGROUP SYSTEM
11 49 50 51 52 53 54 55 56 57 58 59
ATOM$RED        STATIC     ATOMS    COLORGROUP SYSTEM
4 37 42 43 44
