AV-unprocessed.smi:553|AV-procd|sdf|2905|dock1
  -GOLD-   2262023393D 1   1.00000     0.00000
 Structure written by MMmdl.
 43 45  0  0  0  0  0  0  0  0  1 V2000
  149.3308  135.6712  156.7756 O   0  0  0  0  0  0  0  0  0  0  0  0
  149.6561  135.9732  155.6296 C   0  0  0  0  0  0  0  0  0  0  0  0
  150.3016  137.1050  155.2856 N   0  0  0  0  0  0  0  0  0  0  0  0
  150.7790  138.1538  156.1175 C   0  0  0  0  0  0  0  0  0  0  0  0
  150.2287  138.4959  157.3760 C   0  0  0  0  0  0  0  0  0  0  0  0
  150.8103  139.5479  158.1094 C   0  0  0  0  0  0  0  0  0  0  0  0
  151.9256  140.2205  157.5696 C   0  0  0  0  0  0  0  0  0  0  0  0
  152.5063  141.2690  158.2970 N   0  0  0  0  0  0  0  0  0  0  0  0
  152.9493  140.8741  159.6283 C   0  0  0  0  0  0  0  0  0  0  0  0
  153.6882  142.0421  160.3044 C   0  0  0  0  0  0  0  0  0  0  0  0
  152.8444  143.1902  160.3320 O   0  0  0  0  0  0  0  0  0  0  0  0
  152.4730  143.6132  159.0228 C   0  0  0  0  0  0  0  0  0  0  0  0
  151.7023  142.4849  158.3157 C   0  0  0  0  0  0  0  0  0  0  0  0
  152.4637  139.8920  156.3714 N   0  0  0  0  0  0  0  0  0  0  0  0
  151.9015  138.8828  155.6733 C   0  0  0  0  0  0  0  0  0  0  0  0
  149.3537  135.1744  154.5902 N   0  0  0  0  0  0  0  0  0  0  0  0
  148.6625  133.8843  154.6087 C   0  0  1  0  0  0  0  0  0  0  0  0
  148.5054  133.3214  153.1838 C   0  0  0  0  0  0  0  0  0  0  0  0
  148.1040  131.8441  153.2804 C   0  0  0  0  0  0  0  0  0  0  0  0
  148.8695  131.2094  154.8205 S   0  0  0  0  0  0  0  0  0  0  0  0
  147.8105  130.6888  155.6982 O   0  0  0  0  0  0  0  0  0  0  0  0
  150.0481  130.3947  154.4886 O   0  0  0  0  0  0  0  0  0  0  0  0
  149.4253  132.8407  155.4409 C   0  0  0  0  0  0  0  0  0  0  0  0
  150.4318  137.2510  154.2953 H   0  0  0  0  0  0  0  0  0  0  0  0
  149.3875  137.9715  157.8008 H   0  0  0  0  0  0  0  0  0  0  0  0
  150.4079  139.8277  159.0722 H   0  0  0  0  0  0  0  0  0  0  0  0
  152.0889  140.5823  160.2324 H   0  0  0  0  0  0  0  0  0  0  0  0
  153.6050  140.0054  159.5579 H   0  0  0  0  0  0  0  0  0  0  0  0
  153.9590  141.7752  161.3261 H   0  0  0  0  0  0  0  0  0  0  0  0
  154.6159  142.2727  159.7781 H   0  0  0  0  0  0  0  0  0  0  0  0
  151.8498  144.5041  159.1001 H   0  0  0  0  0  0  0  0  0  0  0  0
  153.3615  143.8934  158.4543 H   0  0  0  0  0  0  0  0  0  0  0  0
  151.4552  142.7808  157.2953 H   0  0  0  0  0  0  0  0  0  0  0  0
  150.7614  142.2990  158.8360 H   0  0  0  0  0  0  0  0  0  0  0  0
  152.3639  138.6520  154.7245 H   0  0  0  0  0  0  0  0  0  0  0  0
  149.6187  135.5138  153.6767 H   0  0  0  0  0  0  0  0  0  0  0  0
  147.6594  134.0027  155.0229 H   0  0  0  0  0  0  0  0  0  0  0  0
  147.7848  133.8931  152.5981 H   0  0  0  0  0  0  0  0  0  0  0  0
  149.4624  133.3881  152.6640 H   0  0  0  0  0  0  0  0  0  0  0  0
  147.0229  131.7431  153.3768 H   0  0  0  0  0  0  0  0  0  0  0  0
  148.4337  131.2558  152.4238 H   0  0  0  0  0  0  0  0  0  0  0  0
  150.5004  132.9108  155.2709 H   0  0  0  0  0  0  0  0  0  0  0  0
  149.2368  132.9187  156.5117 H   0  0  0  0  0  0  0  0  0  0  0  0
  1  2  2  0  0  0  0
  2  3  1  0  0  0  0
  2 16  1  0  0  0  0
  3  4  1  0  0  0  0
  3 24  1  0  0  0  0
  4 15  1  0  0  0  0
  4  5  2  0  0  0  0
  5  6  1  0  0  0  0
  5 25  1  0  0  0  0
  6  7  2  0  0  0  0
  6 26  1  0  0  0  0
  7  8  1  0  0  0  0
  7 14  1  0  0  0  0
  8 13  1  0  0  0  0
  8  9  1  0  0  0  0
  9 10  1  0  0  0  0
  9 27  1  0  0  0  0
  9 28  1  0  0  0  0
 10 11  1  0  0  0  0
 10 29  1  0  0  0  0
 10 30  1  0  0  0  0
 11 12  1  0  0  0  0
 12 13  1  0  0  0  0
 12 31  1  0  0  0  0
 12 32  1  0  0  0  0
 13 33  1  0  0  0  0
 13 34  1  0  0  0  0
 14 15  2  0  0  0  0
 15 35  1  0  0  0  0
 16 17  1  0  0  0  0
 16 36  1  0  0  0  0
 17 23  1  0  0  0  0
 17 18  1  0  0  0  0
 17 37  1  0  0  0  0
 18 19  1  0  0  0  0
 18 38  1  0  0  0  0
 18 39  1  0  0  0  0
 19 20  1  0  0  0  0
 19 40  1  0  0  0  0
 19 41  1  0  0  0  0
 20 21  2  0  0  0  0
 20 22  2  0  0  0  0
 20 23  1  0  0  0  0
 23 42  1  0  0  0  0
 23 43  1  0  0  0  0
M  END
> <s_m_source_file>
AV-unprocessed.smi

> <i_m_source_file_index>
553

> <i_lp_mmshare_version>
43012

> <i_f3d_flags>
0

> <s_epik_input>
Tz1TMSg9TylbQ0gyXVtDSDJdW0NASF0oW0NIMl0xKVtOSF1DKD1PKVtOSF1jMltjSF1bY0hdYyhuW2NIXTIpTjNbQ0gyXVtDSDJdT1tDSDJdW0NIMl0z

> <s_epik_cmdline>
J2VwaWtfcHl0aG9uJywgJy1waCcsICc3LjAnLCAnLXRuJywgJzgnLCAnLW1hJywgJzIwMCcsICctbWV0YWxfYmluZGluZycsICctaW1hZScsICc8aW5maWxlLm1hZT4nLCAnLW9tYWUnLCAnPG91dGZpbGUubWFlPic=

> <r_lp_tautomer_probability>
1

> <r_epik_Ionization_Penalty>
0.00171806

> <r_epik_Ionization_Penalty_Charging>
0

> <r_epik_Ionization_Penalty_Neutral>
0.00171806

> <r_epik_State_Penalty>
0.00114322

> <r_epik_Charging_Adjusted_Penalty>
0.00114322

> <i_epik_Tot_Q>
0

> <i_epik_Tot_abs_Q>
0

> <r_epik_Metal_State_Penalty>
-0

> <b_epik_Metal_Only>
0

> <s_lp_Force_Field>
OPLS_2005

> <r_lp_Energy>
34.1165

> <b_lp_Chiralities_Consistent>
1

> <s_lp_Variant>
AV-unprocessed.smi:553-2

> <Gold.Version>
5.8.1

> <Gold.Id.Protein>
6NUR|6NUR_protein|mol2

> <Gold.PLP.Fitness>
38.9220

> <Gold.PLP.PLP>
-33.8902

> <Gold.PLP.part.hbond>
-2.0000

> <Gold.PLP.part.metal>
0.0000

> <Gold.PLP.part.buried>
-3.1571

> <Gold.PLP.part.nonpolar>
-28.0416

> <Gold.PLP.part.repulsive>
0.1587

> <Gold.PLP.ligand.clash>
0.0000

> <Gold.PLP.ligand.torsion>
0.3116

> <Gold.PLP.Chemscore.Hbond>
1.8500

> <Gold.PLP.Chemscore.CHOScore>
0.0000

> <Gold.PLP.Chemscore.Metal>
0.0000

> <Gold.Chemscore.Hbonds>
donor molecule, donor type, donor heavy atom, donor atom, acceptor molecule, acceptor atom, score
      L1  H    16    36       P1  7948  0.76
      P1  H  7997  8008       L1    14  1.00

> <Gold.PLP.Chemscore.Internal.Correction>
0.1050

> <Gold.Rescore>
     Score         DG    S(hbond)    S(metal)    S(lipo)     H(rot)  DE(clash)    DE(int)     intcor
     13.70     -14.95       0.92        0.00      82.57       1.27       0.02       1.22       ----

> <Gold.Chemscore.Fitness>
13.7046

> <Gold.Chemscore.DG>
-14.9528

> <Gold.Chemscore.ZeroCoef>
-5.4800

> <Gold.Chemscore.Hbond>
0.9175

> <Gold.Chemscore.Metal>
0.0000

> <Gold.Chemscore.Lipo>
82.5682

> <Gold.Chemscore.Internal_Hbond>
0.0000

> <Gold.Chemscore.DEClash>
0.0234

> <Gold.Chemscore.DEInternal>
1.2247

> <Gold.Chemscore.Rot>
1.2703

> <Gold.Chemscore.Internal.Correction>
   9.000000E+99

> <Gold.Chemscore.Hbonds>
donor molecule, donor type, donor heavy atom, donor atom, acceptor molecule, acceptor atom, score
      L1  H    16    36       P1  7948  0.10
      P1  H  7997  8008       L1    14  0.64

> <Gold.Chemscore.Hbond.Weighted>
-3.0643

> <Gold.Chemscore.Metal.Weighted>
-0.0000

> <Gold.Chemscore.Lipo.Weighted>
-9.6605

> <Gold.Chemscore.Internal_Hbond.Weighted>
0.0000

> <Gold.Chemscore.DEClash.Weighted>
0.0234

> <Gold.Chemscore.DEInternal.Weighted>
1.2247

> <Gold.Chemscore.Rot.Weighted>
3.2520

> <Gold.Chemscore.Internal.Correction.Weighted>
   9.000000E+99

> <Gold.Protein.RotatedTorsions>
[ 6907 6896 6895 6894 ] final   66.56 input  -60.11 | X-H torsion
[ 7974 7965 7964 7962 ] final  -77.96 input  175.53 | X-H torsion
[ 8008 7997 7996 7995 ] final  -53.42 input   59.86 | X-H torsion
[ 10167 10162 10161 10158 ] final  -48.91 input  -65.29 | X-H torsion
[ 10718 10713 10712 10709 ] final   -3.25 input   66.30 | X-H torsion
[ 10763 10752 10751 10750 ] final -134.74 input  -60.55 | X-H torsion
[ 11005 11000 10999 10996 ] final  156.36 input  -57.11 | X-H torsion

> <Gold.Protein.ActiveResidues>
 VAL166  LYS551  ARG553  GLY616  TRP617  ASP618  TYR619  PRO620  LYS621  CYS622 
 ASP623  PHE694  ASN695  SER759  ASP760  ASP761  ALA762  ILE779  LEU786  VAL792 
 PHE793  MET794  SER795  GLU796  ALA797  LYS798  CYS799  TRP800  GLU811  SER814 

> <Gold.Protein.RotatedAtoms>
  152.4490  134.5434  159.9845 H   0  0  0  0  0  0  0  0  0  0  0  0  # atno 6907 bound_to 6896
  151.5512  133.3411  159.2961 H   0  0  0  0  0  0  0  0  0  0  0  0  # atno 6908 bound_to 6896
  150.8413  134.7738  159.6998 H   0  0  0  0  0  0  0  0  0  0  0  0  # atno 6909 bound_to 6896
  145.5928  140.9425  143.1283 H   0  0  0  0  0  0  0  0  0  0  0  0  # atno 7974 bound_to 7965
  154.4133  140.1200  156.5151 H   0  0  0  0  0  0  0  0  0  0  0  0  # atno 8008 bound_to 7997
  155.6760  140.3496  155.4817 H   0  0  0  0  0  0  0  0  0  0  0  0  # atno 8009 bound_to 7997
  155.9593  140.1120  157.0900 H   0  0  0  0  0  0  0  0  0  0  0  0  # atno 8010 bound_to 7997
  140.6710  143.2720  151.4138 H   0  0  0  0  0  0  0  0  0  0  0  0  # atno 10167 bound_to 10162
  156.7788  130.5324  149.5754 H   0  0  0  0  0  0  0  0  0  0  0  0  # atno 10718 bound_to 10713
  154.8714  135.3725  154.4784 H   0  0  0  0  0  0  0  0  0  0  0  0  # atno 10763 bound_to 10752
  153.5439  135.7026  153.5628 H   0  0  0  0  0  0  0  0  0  0  0  0  # atno 10764 bound_to 10752
  153.3777  135.4004  155.1799 H   0  0  0  0  0  0  0  0  0  0  0  0  # atno 10765 bound_to 10752
  140.1668  134.8571  157.2641 H   0  0  0  0  0  0  0  0  0  0  0  0  # atno 11005 bound_to 11000
  144.7344  139.7630  143.7335 LP  0  0  0  0  0  0  0  0  0  0  0  0  # atno 17320 bound_to 7965
  146.1634  139.4756  142.9974 LP  0  0  0  0  0  0  0  0  0  0  0  0  # atno 17321 bound_to 7965
  139.5978  144.1360  152.2163 LP  0  0  0  0  0  0  0  0  0  0  0  0  # atno 17342 bound_to 10162
  140.0735  144.5760  150.7174 LP  0  0  0  0  0  0  0  0  0  0  0  0  # atno 17343 bound_to 10162
  156.1231  130.6124  151.0223 LP  0  0  0  0  0  0  0  0  0  0  0  0  # atno 17370 bound_to 10713
  157.6656  131.0872  150.7736 LP  0  0  0  0  0  0  0  0  0  0  0  0  # atno 17371 bound_to 10713
  140.2425  134.3779  155.7475 LP  0  0  0  0  0  0  0  0  0  0  0  0  # atno 17394 bound_to 11000
  141.2214  133.7272  156.8810 LP  0  0  0  0  0  0  0  0  0  0  0  0  # atno 17395 bound_to 11000

$$$$
