AV-unprocessed.smi:2819|AV-procd|sdf|10853|dock2
  -GOLD-   2272015293D 1   1.00000     0.00000
 Structure written by MMmdl.
 50 51  0  0  0  0  0  0  0  0  2 V2000
  151.4094  144.7476  159.6862 C   0  0  0  0  0  0  0  0  0  0  0  0
  152.1000  143.6581  160.3683 N   0  0  0  0  0  0  0  0  0  0  0  0
  152.5193  143.8092  161.7555 C   0  0  0  0  0  0  0  0  0  0  0  0
  152.3632  142.4551  159.6769 C   0  0  0  0  0  0  0  0  0  0  0  0
  151.8711  142.2135  158.3714 C   0  0  0  0  0  0  0  0  0  0  0  0
  152.1986  140.9744  157.7870 C   0  0  0  0  0  0  0  0  0  0  0  0
  152.9452  140.0550  158.4340 N   0  0  0  0  0  0  0  0  0  0  0  0
  153.3684  140.3676  159.6608 C   0  0  0  0  0  0  0  0  0  0  0  0
  154.1193  139.3861  160.2705 N   0  0  0  0  0  0  0  0  0  0  0  0
  153.8822  138.0701  160.4280 C   0  0  0  0  0  0  0  0  0  0  0  0
  152.8700  137.4754  160.0548 O   0  0  0  0  0  0  0  0  0  0  0  0
  154.9042  137.4628  161.0499 N   0  0  0  0  0  0  0  0  0  0  0  0
  154.9706  136.0391  161.3787 C   0  0  0  0  0  0  0  0  0  0  0  0
  155.2855  135.7586  162.8799 C   0  0  0  0  0  0  0  0  0  0  0  0
  156.7838  136.0132  163.1821 C   0  0  0  0  0  0  0  0  0  0  0  0
  154.4960  136.7500  163.7711 C   0  0  0  0  0  0  0  0  0  0  0  0
  154.9328  134.3425  163.2583 N   0  3  0  0  0  0  0  0  0  0  0  0
  155.6125  133.2709  162.4764 C   0  0  0  0  0  0  0  0  0  0  0  0
  155.0288  131.8918  162.8270 C   0  0  0  0  0  0  0  0  0  0  0  0
  155.1590  131.6563  164.2215 O   0  0  0  0  0  0  0  0  0  0  0  0
  154.4425  132.6165  164.9846 C   0  0  0  0  0  0  0  0  0  0  0  0
  155.0083  134.0202  164.7122 C   0  0  0  0  0  0  0  0  0  0  0  0
  153.1113  141.5150  160.3029 N   0  0  0  0  0  0  0  0  0  0  0  0
  151.9723  145.0682  158.8089 H   0  0  0  0  0  0  0  0  0  0  0  0
  151.2874  145.6124  160.3384 H   0  0  0  0  0  0  0  0  0  0  0  0
  150.4175  144.4297  159.3632 H   0  0  0  0  0  0  0  0  0  0  0  0
  153.6017  143.7090  161.8413 H   0  0  0  0  0  0  0  0  0  0  0  0
  152.0467  143.0531  162.3829 H   0  0  0  0  0  0  0  0  0  0  0  0
  152.2435  144.7877  162.1487 H   0  0  0  0  0  0  0  0  0  0  0  0
  151.2711  142.9278  157.8284 H   0  0  0  0  0  0  0  0  0  0  0  0
  151.8581  140.7191  156.7946 H   0  0  0  0  0  0  0  0  0  0  0  0
  154.9931  139.7143  160.6540 H   0  0  0  0  0  0  0  0  0  0  0  0
  155.6950  138.0282  161.3231 H   0  0  0  0  0  0  0  0  0  0  0  0
  154.0007  135.6214  161.1106 H   0  0  0  0  0  0  0  0  0  0  0  0
  155.6940  135.5482  160.7272 H   0  0  0  0  0  0  0  0  0  0  0  0
  157.0334  137.0735  163.1332 H   0  0  0  0  0  0  0  0  0  0  0  0
  157.4408  135.5149  162.4696 H   0  0  0  0  0  0  0  0  0  0  0  0
  157.0518  135.6713  164.1824 H   0  0  0  0  0  0  0  0  0  0  0  0
  154.8647  137.7708  163.6630 H   0  0  0  0  0  0  0  0  0  0  0  0
  154.5818  136.4907  164.8270 H   0  0  0  0  0  0  0  0  0  0  0  0
  153.4366  136.7845  163.5180 H   0  0  0  0  0  0  0  0  0  0  0  0
  155.4932  133.4189  161.4048 H   0  0  0  0  0  0  0  0  0  0  0  0
  156.6823  133.2714  162.6858 H   0  0  0  0  0  0  0  0  0  0  0  0
  153.9814  131.8238  162.5286 H   0  0  0  0  0  0  0  0  0  0  0  0
  155.5642  131.1097  162.2879 H   0  0  0  0  0  0  0  0  0  0  0  0
  153.3785  132.5711  164.7466 H   0  0  0  0  0  0  0  0  0  0  0  0
  154.5419  132.3709  166.0420 H   0  0  0  0  0  0  0  0  0  0  0  0
  156.0414  134.0637  165.0573 H   0  0  0  0  0  0  0  0  0  0  0  0
  154.4392  134.7271  165.3126 H   0  0  0  0  0  0  0  0  0  0  0  0
  153.9541  134.2572  163.0235 H   0  0  0  0  0  0  0  0  0  0  0  0
  1  2  1  0  0  0  0
  1 24  1  0  0  0  0
  1 25  1  0  0  0  0
  1 26  1  0  0  0  0
  2  3  1  0  0  0  0
  2  4  1  0  0  0  0
  3 27  1  0  0  0  0
  3 28  1  0  0  0  0
  3 29  1  0  0  0  0
  4 23  1  0  0  0  0
  4  5  2  0  0  0  0
  5  6  1  0  0  0  0
  5 30  1  0  0  0  0
  6  7  2  0  0  0  0
  6 31  1  0  0  0  0
  7  8  1  0  0  0  0
  8  9  1  0  0  0  0
  8 23  2  0  0  0  0
  9 10  1  0  0  0  0
  9 32  1  0  0  0  0
 10 11  2  0  0  0  0
 10 12  1  0  0  0  0
 12 13  1  0  0  0  0
 12 33  1  0  0  0  0
 13 14  1  0  0  0  0
 13 34  1  0  0  0  0
 13 35  1  0  0  0  0
 14 15  1  0  0  0  0
 14 16  1  0  0  0  0
 14 17  1  0  0  0  0
 15 36  1  0  0  0  0
 15 37  1  0  0  0  0
 15 38  1  0  0  0  0
 16 39  1  0  0  0  0
 16 40  1  0  0  0  0
 16 41  1  0  0  0  0
 17 22  1  0  0  0  0
 17 18  1  0  0  0  0
 17 50  1  0  0  0  0
 18 19  1  0  0  0  0
 18 42  1  0  0  0  0
 18 43  1  0  0  0  0
 19 20  1  0  0  0  0
 19 44  1  0  0  0  0
 19 45  1  0  0  0  0
 20 21  1  0  0  0  0
 21 22  1  0  0  0  0
 21 46  1  0  0  0  0
 21 47  1  0  0  0  0
 22 48  1  0  0  0  0
 22 49  1  0  0  0  0
M  CHG  1  17   1
M  END
> <s_m_source_file>
AV-unprocessed.smi

> <i_m_source_file_index>
2819

> <i_lp_mmshare_version>
43012

> <i_f3d_flags>
0

> <s_epik_input>
W0NIM11OKFtDSDNdKWMxW2NIXVtjSF1uYyhuMSlbTkhdQyg9TylbTkhdW0NIMl1DKFtDSDNdKShbQ0gzXSlOMltDSDJdW0NIMl1PW0NIMl1bQ0gyXTI=

> <s_epik_cmdline>
J2VwaWtfcHl0aG9uJywgJy1waCcsICc3LjAnLCAnLXRuJywgJzgnLCAnLW1hJywgJzIwMCcsICctbWV0YWxfYmluZGluZycsICctaW1hZScsICc8aW5maWxlLm1hZT4nLCAnLW9tYWUnLCAnPG91dGZpbGUubWFlPic=

> <r_epik_Ionization_Penalty>
1.64867

> <r_epik_Ionization_Penalty_Charging>
0.602531

> <r_epik_Ionization_Penalty_Neutral>
1.04614

> <r_epik_State_Penalty>
1.74763

> <r_epik_Charging_Adjusted_Penalty>
2.35016

> <i_epik_Tot_Q>
1

> <i_epik_Tot_abs_Q>
1

> <r_epik_Metal_State_Penalty>
1.04264

> <b_epik_Metal_Only>
0

> <s_lp_Force_Field>
OPLS_2005

> <r_lp_Energy>
22.1801

> <b_lp_Chiralities_Consistent>
1

> <s_lp_Variant>
AV-unprocessed.smi:2819-4

> <Gold.Version>
5.8.1

> <Gold.Id.Protein>
6NUR|6NUR_protein|mol2

> <Gold.PLP.Fitness>
42.2029

> <Gold.PLP.PLP>
-42.7291

> <Gold.PLP.part.hbond>
-0.4211

> <Gold.PLP.part.metal>
0.0000

> <Gold.PLP.part.buried>
-7.0050

> <Gold.PLP.part.nonpolar>
-33.9198

> <Gold.PLP.part.repulsive>
0.0976

> <Gold.PLP.ligand.clash>
0.0000

> <Gold.PLP.ligand.torsion>
0.7534

> <Gold.PLP.Chemscore.Hbond>
0.2730

> <Gold.PLP.Chemscore.CHOScore>
0.0000

> <Gold.PLP.Chemscore.Metal>
0.0000

> <Gold.Chemscore.Hbonds>
donor molecule, donor type, donor heavy atom, donor atom, acceptor molecule, acceptor atom, score
      P1  H  7997  8008       L1     7  0.58

> <Gold.PLP.Chemscore.Internal.Correction>
0.1616

> <Gold.Rescore>
     Score         DG    S(hbond)    S(metal)    S(lipo)     H(rot)  DE(clash)    DE(int)     intcor
     11.75     -12.56       0.12        0.00      91.05       1.55       0.07       0.74       ----

> <Gold.Chemscore.Fitness>
11.7496

> <Gold.Chemscore.DG>
-12.5581

> <Gold.Chemscore.ZeroCoef>
-5.4800

> <Gold.Chemscore.Hbond>
0.1183

> <Gold.Chemscore.Metal>
0.0000

> <Gold.Chemscore.Lipo>
91.0472

> <Gold.Chemscore.Internal_Hbond>
0.0000

> <Gold.Chemscore.DEClash>
0.0650

> <Gold.Chemscore.DEInternal>
0.7435

> <Gold.Chemscore.Rot>
1.5506

> <Gold.Chemscore.Internal.Correction>
   9.000000E+99

> <Gold.Chemscore.Hbonds>
donor molecule, donor type, donor heavy atom, donor atom, acceptor molecule, acceptor atom, score
      P1  H  7997  8008       L1     7  0.08

> <Gold.Chemscore.Hbond.Weighted>
-0.3950

> <Gold.Chemscore.Metal.Weighted>
-0.0000

> <Gold.Chemscore.Lipo.Weighted>
-10.6525

> <Gold.Chemscore.Internal_Hbond.Weighted>
0.0000

> <Gold.Chemscore.DEClash.Weighted>
0.0650

> <Gold.Chemscore.DEInternal.Weighted>
0.7435

> <Gold.Chemscore.Rot.Weighted>
3.9695

> <Gold.Chemscore.Internal.Correction.Weighted>
   9.000000E+99

> <Gold.Protein.RotatedTorsions>
[ 6907 6896 6895 6894 ] final -174.08 input  -60.11 | X-H torsion
[ 7974 7965 7964 7962 ] final -101.46 input  175.53 | X-H torsion
[ 8008 7997 7996 7995 ] final  -90.20 input   59.86 | X-H torsion
[ 10167 10162 10161 10158 ] final  142.56 input  -65.29 | X-H torsion
[ 10718 10713 10712 10709 ] final -152.10 input   66.30 | X-H torsion
[ 10763 10752 10751 10750 ] final -164.76 input  -60.55 | X-H torsion
[ 11005 11000 10999 10996 ] final  -10.85 input  -57.11 | X-H torsion

> <Gold.Protein.ActiveResidues>
 VAL166  LYS551  ARG553  GLY616  TRP617  ASP618  TYR619  PRO620  LYS621  CYS622 
 ASP623  PHE694  ASN695  SER759  ASP760  ASP761  ALA762  ILE779  LEU786  VAL792 
 PHE793  MET794  SER795  GLU796  ALA797  LYS798  CYS799  TRP800  GLU811  SER814 

> <Gold.Protein.RotatedAtoms>
  151.5666  133.3395  159.2981 H   0  0  0  0  0  0  0  0  0  0  0  0  # atno 6907 bound_to 6896
  150.8392  134.7680  159.6929 H   0  0  0  0  0  0  0  0  0  0  0  0  # atno 6908 bound_to 6896
  152.4462  134.5496  159.9914 H   0  0  0  0  0  0  0  0  0  0  0  0  # atno 6909 bound_to 6896
  145.2813  140.9327  143.2930 H   0  0  0  0  0  0  0  0  0  0  0  0  # atno 7974 bound_to 7965
  154.6957  140.0533  157.0408 H   0  0  0  0  0  0  0  0  0  0  0  0  # atno 8008 bound_to 7997
  155.0754  140.3204  155.4599 H   0  0  0  0  0  0  0  0  0  0  0  0  # atno 8009 bound_to 7997
  156.2743  140.2074  156.5881 H   0  0  0  0  0  0  0  0  0  0  0  0  # atno 8010 bound_to 7997
  139.4991  144.6099  151.6295 H   0  0  0  0  0  0  0  0  0  0  0  0  # atno 10167 bound_to 10162
  156.4679  130.8244  151.2474 H   0  0  0  0  0  0  0  0  0  0  0  0  # atno 10718 bound_to 10713
  154.6998  135.2986  154.9358 H   0  0  0  0  0  0  0  0  0  0  0  0  # atno 10763 bound_to 10752
  154.0294  135.6672  153.4783 H   0  0  0  0  0  0  0  0  0  0  0  0  # atno 10764 bound_to 10752
  153.0672  135.5081  154.8135 H   0  0  0  0  0  0  0  0  0  0  0  0  # atno 10765 bound_to 10752
  140.7491  133.8607  155.9030 H   0  0  0  0  0  0  0  0  0  0  0  0  # atno 11005 bound_to 11000
  144.9251  139.4365  143.6522 LP  0  0  0  0  0  0  0  0  0  0  0  0  # atno 17320 bound_to 7965
  146.3215  139.8131  142.8941 LP  0  0  0  0  0  0  0  0  0  0  0  0  # atno 17321 bound_to 7965
  140.5771  144.0010  150.6247 LP  0  0  0  0  0  0  0  0  0  0  0  0  # atno 17342 bound_to 10162
  140.3147  143.3175  152.0844 LP  0  0  0  0  0  0  0  0  0  0  0  0  # atno 17343 bound_to 10162
  157.7493  131.0086  150.3233 LP  0  0  0  0  0  0  0  0  0  0  0  0  # atno 17370 bound_to 10713
  156.3648  130.3853  149.7222 LP  0  0  0  0  0  0  0  0  0  0  0  0  # atno 17371 bound_to 10713
  140.9767  134.1459  157.4529 LP  0  0  0  0  0  0  0  0  0  0  0  0  # atno 17394 bound_to 11000
  139.8791  134.9997  156.5969 LP  0  0  0  0  0  0  0  0  0  0  0  0  # atno 17395 bound_to 11000

$$$$
