AV-unprocessed.smi:3185|AV-procd|sdf|12169|dock10
  -GOLD-   2272018 03D 1   1.00000     0.00000
 Structure written by MMmdl.
 37 38  0  0  0  0  0  0  0  0  1 V2000
  153.4838  142.1837  160.6388 N   0  0  0  0  0  0  0  0  0  0  0  0
  152.7187  142.8714  160.1096 C   0  0  0  0  0  0  0  0  0  0  0  0
  151.7467  143.7458  159.4369 C   0  0  0  0  0  0  0  0  0  0  0  0
  151.4972  143.3392  157.9783 C   0  0  0  0  0  0  0  0  0  0  0  0
  150.7831  141.9871  157.8571 C   0  0  0  0  0  0  0  0  0  0  0  0
  150.4554  141.7329  156.4627 N   0  0  0  0  0  0  0  0  0  0  0  0
  150.5748  140.3222  156.1070 C   0  0  2  0  0  0  0  0  0  0  0  0
  152.0131  139.8326  156.3875 C   0  0  0  0  0  0  0  0  0  0  0  0
  152.2223  138.3866  155.9132 C   0  0  0  0  0  0  0  0  0  0  0  0
  151.8806  138.2359  154.4242 C   0  0  0  0  0  0  0  0  0  0  0  0
  150.4436  138.6972  154.1425 C   0  0  0  0  0  0  0  0  0  0  0  0
  150.2142  140.1509  154.6081 C   0  0  1  0  0  0  0  0  0  0  0  0
  148.8480  140.5767  154.3233 N   0  0  0  0  0  0  0  0  0  0  0  0
  148.3349  141.8573  154.3442 C   0  0  0  0  0  0  0  0  0  0  0  0
  147.0094  141.7730  154.0276 C   0  0  0  0  0  0  0  0  0  0  0  0
  146.7983  140.3809  153.8257 C   0  0  0  0  0  0  0  0  0  0  0  0
  147.8984  139.6679  154.0028 N   0  0  0  0  0  0  0  0  0  0  0  0
  150.8175  143.7133  160.0060 H   0  0  0  0  0  0  0  0  0  0  0  0
  152.1251  144.7666  159.4940 H   0  0  0  0  0  0  0  0  0  0  0  0
  150.9277  144.1146  157.4642 H   0  0  0  0  0  0  0  0  0  0  0  0
  152.4570  143.2764  157.4646 H   0  0  0  0  0  0  0  0  0  0  0  0
  151.4302  141.1943  158.2322 H   0  0  0  0  0  0  0  0  0  0  0  0
  149.8787  141.9882  158.4667 H   0  0  0  0  0  0  0  0  0  0  0  0
  151.0237  142.3010  155.8510 H   0  0  0  0  0  0  0  0  0  0  0  0
  149.8713  139.7359  156.7005 H   0  0  0  0  0  0  0  0  0  0  0  0
  152.7310  140.4816  155.8837 H   0  0  0  0  0  0  0  0  0  0  0  0
  152.2384  139.8917  157.4526 H   0  0  0  0  0  0  0  0  0  0  0  0
  153.2547  138.0833  156.0893 H   0  0  0  0  0  0  0  0  0  0  0  0
  151.5974  137.7143  156.5023 H   0  0  0  0  0  0  0  0  0  0  0  0
  152.5791  138.8213  153.8251 H   0  0  0  0  0  0  0  0  0  0  0  0
  152.0039  137.1970  154.1172 H   0  0  0  0  0  0  0  0  0  0  0  0
  150.2337  138.6103  153.0758 H   0  0  0  0  0  0  0  0  0  0  0  0
  149.7488  138.0260  154.6493 H   0  0  0  0  0  0  0  0  0  0  0  0
  150.8772  140.7902  154.0219 H   0  0  0  0  0  0  0  0  0  0  0  0
  148.9487  142.7131  154.5838 H   0  0  0  0  0  0  0  0  0  0  0  0
  146.2988  142.5825  153.9526 H   0  0  0  0  0  0  0  0  0  0  0  0
  145.8849  139.8708  153.5583 H   0  0  0  0  0  0  0  0  0  0  0  0
  1  2  3  0  0  0  0
  2  3  1  0  0  0  0
  3  4  1  0  0  0  0
  3 18  1  0  0  0  0
  3 19  1  0  0  0  0
  4  5  1  0  0  0  0
  4 20  1  0  0  0  0
  4 21  1  0  0  0  0
  5  6  1  0  0  0  0
  5 22  1  0  0  0  0
  5 23  1  0  0  0  0
  6  7  1  0  0  0  0
  6 24  1  0  0  0  0
  7 12  1  0  0  0  0
  7  8  1  0  0  0  0
  7 25  1  0  0  0  0
  8  9  1  0  0  0  0
  8 26  1  0  0  0  0
  8 27  1  0  0  0  0
  9 10  1  0  0  0  0
  9 28  1  0  0  0  0
  9 29  1  0  0  0  0
 10 11  1  0  0  0  0
 10 30  1  0  0  0  0
 10 31  1  0  0  0  0
 11 12  1  0  0  0  0
 11 32  1  0  0  0  0
 11 33  1  0  0  0  0
 12 13  1  0  0  0  0
 12 34  1  0  0  0  0
 13 17  1  0  0  0  0
 13 14  1  0  0  0  0
 14 15  2  0  0  0  0
 14 35  1  0  0  0  0
 15 16  1  0  0  0  0
 15 36  1  0  0  0  0
 16 17  2  0  0  0  0
 16 37  1  0  0  0  0
M  END
> <s_m_source_file>
AV-unprocessed.smi

> <i_m_source_file_index>
3185

> <i_lp_mmshare_version>
43012

> <i_f3d_flags>
0

> <s_epik_input>
TiNDW0NIMl1bQ0gyXVtDSDJdW05IXVtDQEBIXTFbQ0gyXVtDSDJdW0NIMl1bQ0gyXVtDQEhdMW4yW2NIXVtjSF1bY0hdbjI=

> <s_epik_cmdline>
J2VwaWtfcHl0aG9uJywgJy1waCcsICc3LjAnLCAnLXRuJywgJzgnLCAnLW1hJywgJzIwMCcsICctbWV0YWxfYmluZGluZycsICctaW1hZScsICc8aW5maWxlLm1hZT4nLCAnLW9tYWUnLCAnPG91dGZpbGUubWFlPic=

> <r_lp_tautomer_probability>
1

> <r_epik_Ionization_Penalty>
2.21326

> <r_epik_Ionization_Penalty_Charging>
0

> <r_epik_Ionization_Penalty_Neutral>
2.21326

> <r_epik_State_Penalty>
2.35651

> <r_epik_Charging_Adjusted_Penalty>
2.35651

> <i_epik_Tot_Q>
0

> <i_epik_Tot_abs_Q>
0

> <r_epik_Metal_State_Penalty>
2.3555

> <b_epik_Metal_Only>
0

> <s_lp_Force_Field>
OPLS_2005

> <r_lp_Energy>
16.739

> <b_lp_Chiralities_Consistent>
1

> <s_lp_Variant>
AV-unprocessed.smi:3185-5

> <Gold.Version>
5.8.1

> <Gold.Id.Protein>
6NUR|6NUR_protein|mol2

> <Gold.PLP.Fitness>
42.6251

> <Gold.PLP.PLP>
-37.6306

> <Gold.PLP.part.hbond>
0.0000

> <Gold.PLP.part.metal>
0.0000

> <Gold.PLP.part.buried>
-2.2392

> <Gold.PLP.part.nonpolar>
-36.1422

> <Gold.PLP.part.repulsive>
0.1484

> <Gold.PLP.ligand.clash>
0.0006

> <Gold.PLP.ligand.torsion>
0.5195

> <Gold.PLP.Chemscore.Hbond>
0.0000

> <Gold.PLP.Chemscore.CHOScore>
1.9965

> <Gold.PLP.Chemscore.Metal>
0.0000

> <Gold.Chemscore.Hbonds>
donor molecule, donor type, donor heavy atom, donor atom, acceptor molecule, acceptor atom, score
      L1  C    14    35       P1  8028  1.00
      L1  C    16    37       P1 10175  1.00

> <Gold.PLP.Chemscore.Internal.Correction>
0.0446

> <Gold.Rescore>
     Score         DG    S(hbond)    S(metal)    S(lipo)     H(rot)  DE(clash)    DE(int)     intcor
     10.24     -11.36       0.00        0.00      89.90       1.81       0.23       0.89       ----

> <Gold.Chemscore.Fitness>
10.2447

> <Gold.Chemscore.DG>
-11.3626

> <Gold.Chemscore.ZeroCoef>
-5.4800

> <Gold.Chemscore.Hbond>
0.0000

> <Gold.Chemscore.Metal>
0.0000

> <Gold.Chemscore.Lipo>
89.9040

> <Gold.Chemscore.Internal_Hbond>
0.0000

> <Gold.Chemscore.DEClash>
0.2264

> <Gold.Chemscore.DEInternal>
0.8914

> <Gold.Chemscore.Rot>
1.8110

> <Gold.Chemscore.Internal.Correction>
   9.000000E+99

> <Gold.Chemscore.Hbond.Weighted>
-0.0000

> <Gold.Chemscore.Metal.Weighted>
-0.0000

> <Gold.Chemscore.Lipo.Weighted>
-10.5188

> <Gold.Chemscore.Internal_Hbond.Weighted>
0.0000

> <Gold.Chemscore.DEClash.Weighted>
0.2264

> <Gold.Chemscore.DEInternal.Weighted>
0.8914

> <Gold.Chemscore.Rot.Weighted>
4.6362

> <Gold.Chemscore.Internal.Correction.Weighted>
   9.000000E+99

> <Gold.Protein.RotatedTorsions>
[ 6907 6896 6895 6894 ] final -161.52 input  -60.11 | X-H torsion
[ 7974 7965 7964 7962 ] final  -62.84 input  175.53 | X-H torsion
[ 8008 7997 7996 7995 ] final  -61.34 input   59.86 | X-H torsion
[ 10167 10162 10161 10158 ] final -167.40 input  -65.29 | X-H torsion
[ 10718 10713 10712 10709 ] final   28.31 input   66.30 | X-H torsion
[ 10763 10752 10751 10750 ] final -105.15 input  -60.55 | X-H torsion
[ 11005 11000 10999 10996 ] final  -69.86 input  -57.11 | X-H torsion

> <Gold.Protein.ActiveResidues>
 VAL166  LYS551  ARG553  GLY616  TRP617  ASP618  TYR619  PRO620  LYS621  CYS622 
 ASP623  PHE694  ASN695  SER759  ASP760  ASP761  ALA762  ILE779  LEU786  VAL792 
 PHE793  MET794  SER795  GLU796  ALA797  LYS798  CYS799  TRP800  GLU811  SER814 

> <Gold.Protein.RotatedAtoms>
  151.3659  133.3872  159.2694 H   0  0  0  0  0  0  0  0  0  0  0  0  # atno 6907 bound_to 6896
  150.9689  134.9066  159.7786 H   0  0  0  0  0  0  0  0  0  0  0  0  # atno 6908 bound_to 6896
  152.5177  134.3621  159.9340 H   0  0  0  0  0  0  0  0  0  0  0  0  # atno 6909 bound_to 6896
  145.7864  140.8734  143.0304 H   0  0  0  0  0  0  0  0  0  0  0  0  # atno 7974 bound_to 7965
  154.4443  140.1020  156.6416 H   0  0  0  0  0  0  0  0  0  0  0  0  # atno 8008 bound_to 7997
  155.5495  140.3485  155.4447 H   0  0  0  0  0  0  0  0  0  0  0  0  # atno 8009 bound_to 7997
  156.0539  140.1310  157.0008 H   0  0  0  0  0  0  0  0  0  0  0  0  # atno 8010 bound_to 7997
  139.6052  144.0928  152.1785 H   0  0  0  0  0  0  0  0  0  0  0  0  # atno 10167 bound_to 10162
  157.2318  130.7027  149.6317 H   0  0  0  0  0  0  0  0  0  0  0  0  # atno 10718 bound_to 10713
  154.7927  135.4759  154.0090 H   0  0  0  0  0  0  0  0  0  0  0  0  # atno 10763 bound_to 10752
  153.1656  135.6816  153.8687 H   0  0  0  0  0  0  0  0  0  0  0  0  # atno 10764 bound_to 10752
  153.8287  135.3194  155.3394 H   0  0  0  0  0  0  0  0  0  0  0  0  # atno 10765 bound_to 10752
  141.1562  133.6775  156.6664 H   0  0  0  0  0  0  0  0  0  0  0  0  # atno 11005 bound_to 11000
  144.6788  140.0061  143.7484 LP  0  0  0  0  0  0  0  0  0  0  0  0  # atno 17320 bound_to 7965
  146.0022  139.3100  143.0921 LP  0  0  0  0  0  0  0  0  0  0  0  0  # atno 17321 bound_to 7965
  140.0533  144.5915  150.7319 LP  0  0  0  0  0  0  0  0  0  0  0  0  # atno 17342 bound_to 10162
  140.7279  143.2656  151.4055 LP  0  0  0  0  0  0  0  0  0  0  0  0  # atno 17343 bound_to 10162
  155.9675  130.4486  150.5627 LP  0  0  0  0  0  0  0  0  0  0  0  0  # atno 17370 bound_to 10713
  157.3470  131.0727  151.1743 LP  0  0  0  0  0  0  0  0  0  0  0  0  # atno 17371 bound_to 10713
  140.3208  134.8009  157.4251 LP  0  0  0  0  0  0  0  0  0  0  0  0  # atno 17394 bound_to 11000
  140.1098  134.5360  155.8276 LP  0  0  0  0  0  0  0  0  0  0  0  0  # atno 17395 bound_to 11000

$$$$
