AV-unprocessed.smi:3163|AV-procd|sdf|12077|dock1
  -GOLD-   2272017503D 1   1.00000     0.00000
 Structure written by MMmdl.
 37 38  0  0  0  0  0  0  0  0  3 V2000
  143.8347  132.7577  148.7282 C   0  0  0  0  0  0  0  0  0  0  0  0
  144.4292  132.8201  150.0800 N   0  3  1  0  0  0  0  0  0  0  0  0
  145.9034  132.7053  150.0992 C   0  0  0  0  0  0  0  0  0  0  0  0
  146.3605  133.5420  151.2916 C   0  0  0  0  0  0  0  0  0  0  0  0
  145.3684  134.7020  151.2850 C   0  0  2  0  0  0  0  0  0  0  0  0
  145.3072  135.4765  152.6157 C   0  0  0  0  0  0  0  0  0  0  0  0
  146.3904  136.4479  152.7387 N   0  0  0  0  0  0  0  0  0  0  0  0
  146.2809  137.6771  153.2636 C   0  0  0  0  0  0  0  0  0  0  0  0
  145.2219  138.1433  153.6824 O   0  0  0  0  0  0  0  0  0  0  0  0
  147.4607  138.3215  153.2459 N   0  0  0  0  0  0  0  0  0  0  0  0
  147.7648  139.6303  153.7116 C   0  0  0  0  0  0  0  0  0  0  0  0
  149.0218  139.8287  154.3255 C   0  0  0  0  0  0  0  0  0  0  0  0
  149.3637  141.1055  154.8157 C   0  0  0  0  0  0  0  0  0  0  0  0
  148.4860  142.1254  154.7048 N   0  3  0  0  0  0  0  0  0  0  0  0
  147.2679  141.9817  154.1400 C   0  0  0  0  0  0  0  0  0  0  0  0
  146.8703  140.7284  153.6312 C   0  0  0  0  0  0  0  0  0  0  0  0
  144.0561  134.0245  150.8583 C   0  0  0  0  0  0  0  0  0  0  0  0
  144.1607  133.5997  148.1163 H   0  0  0  0  0  0  0  0  0  0  0  0
  142.7463  132.7794  148.7894 H   0  0  0  0  0  0  0  0  0  0  0  0
  144.1253  131.8340  148.2267 H   0  0  0  0  0  0  0  0  0  0  0  0
  146.2233  131.6653  150.1686 H   0  0  0  0  0  0  0  0  0  0  0  0
  146.3224  133.1243  149.1825 H   0  0  0  0  0  0  0  0  0  0  0  0
  146.2645  132.9640  152.2122 H   0  0  0  0  0  0  0  0  0  0  0  0
  147.3971  133.8693  151.2044 H   0  0  0  0  0  0  0  0  0  0  0  0
  145.6707  135.3882  150.4916 H   0  0  0  0  0  0  0  0  0  0  0  0
  144.3360  135.9592  152.7385 H   0  0  0  0  0  0  0  0  0  0  0  0
  145.4034  134.7762  153.4458 H   0  0  0  0  0  0  0  0  0  0  0  0
  147.2996  136.1501  152.4155 H   0  0  0  0  0  0  0  0  0  0  0  0
  148.2234  137.8346  152.7978 H   0  0  0  0  0  0  0  0  0  0  0  0
  149.7242  139.0127  154.4178 H   0  0  0  0  0  0  0  0  0  0  0  0
  150.3051  141.3389  155.2915 H   0  0  0  0  0  0  0  0  0  0  0  0
  146.6485  142.8666  154.1171 H   0  0  0  0  0  0  0  0  0  0  0  0
  145.8843  140.6338  153.2031 H   0  0  0  0  0  0  0  0  0  0  0  0
  143.4154  134.7085  150.2999 H   0  0  0  0  0  0  0  0  0  0  0  0
  143.4942  133.6867  151.7295 H   0  0  0  0  0  0  0  0  0  0  0  0
  144.0711  132.0307  150.5987 H   0  0  0  0  0  0  0  0  0  0  0  0
  148.7517  143.0414  155.0677 H   0  0  0  0  0  0  0  0  0  0  0  0
  1  2  1  0  0  0  0
  1 18  1  0  0  0  0
  1 19  1  0  0  0  0
  1 20  1  0  0  0  0
  2 17  1  0  0  0  0
  2  3  1  0  0  0  0
  2 36  1  0  0  0  0
  3  4  1  0  0  0  0
  3 21  1  0  0  0  0
  3 22  1  0  0  0  0
  4  5  1  0  0  0  0
  4 23  1  0  0  0  0
  4 24  1  0  0  0  0
  5  6  1  0  0  0  0
  5 17  1  0  0  0  0
  5 25  1  0  0  0  0
  6  7  1  0  0  0  0
  6 26  1  0  0  0  0
  6 27  1  0  0  0  0
  7  8  1  0  0  0  0
  7 28  1  0  0  0  0
  8  9  2  0  0  0  0
  8 10  1  0  0  0  0
 10 11  1  0  0  0  0
 10 29  1  0  0  0  0
 11 16  1  0  0  0  0
 11 12  2  0  0  0  0
 12 13  1  0  0  0  0
 12 30  1  0  0  0  0
 13 14  2  0  0  0  0
 13 31  1  0  0  0  0
 14 15  1  0  0  0  0
 14 37  1  0  0  0  0
 15 16  2  0  0  0  0
 15 32  1  0  0  0  0
 16 33  1  0  0  0  0
 17 34  1  0  0  0  0
 17 35  1  0  0  0  0
M  CHG  1   2   1
M  CHG  1  14   1
M  END
> <s_m_source_file>
AV-unprocessed.smi

> <i_m_source_file_index>
3163

> <i_lp_mmshare_version>
43012

> <i_f3d_flags>
0

> <s_epik_input>
W0NIM11OMVtDSDJdW0NIMl1bQ0BIXShbQ0gyXTEpW0NIMl1bTkhdQyg9TylbTkhdYzJbY0hdW2NIXW5bY0hdW2NIXTI=

> <s_epik_cmdline>
J2VwaWtfcHl0aG9uJywgJy1waCcsICc3LjAnLCAnLXRuJywgJzgnLCAnLW1hJywgJzIwMCcsICctbWV0YWxfYmluZGluZycsICctaW1hZScsICc8aW5maWxlLm1hZT4nLCAnLW9tYWUnLCAnPG91dGZpbGUubWFlPic=

> <r_epik_Ionization_Penalty>
1.09034

> <r_epik_Ionization_Penalty_Charging>
1.09032

> <r_epik_Ionization_Penalty_Neutral>
1.86664e-05

> <r_epik_State_Penalty>
1.14521

> <r_epik_Charging_Adjusted_Penalty>
2.23553

> <i_epik_Tot_Q>
2

> <i_epik_Tot_abs_Q>
2

> <r_epik_Metal_State_Penalty>
1.23399

> <b_epik_Metal_Only>
0

> <s_lp_Force_Field>
OPLS_2005

> <r_lp_Energy>
39.8127

> <b_lp_Chiralities_Consistent>
1

> <s_lp_Variant>
AV-unprocessed.smi:3163-7

> <Gold.Version>
5.8.1

> <Gold.Id.Protein>
6NUR|6NUR_protein|mol2

> <Gold.PLP.Fitness>
42.9584

> <Gold.PLP.PLP>
-32.1538

> <Gold.PLP.part.hbond>
-3.0000

> <Gold.PLP.part.metal>
0.0000

> <Gold.PLP.part.buried>
-3.7765

> <Gold.PLP.part.nonpolar>
-26.6172

> <Gold.PLP.part.repulsive>
0.7064

> <Gold.PLP.ligand.clash>
0.0000

> <Gold.PLP.ligand.torsion>
0.6003

> <Gold.PLP.Chemscore.Hbond>
4.0000

> <Gold.PLP.Chemscore.CHOScore>
0.0000

> <Gold.PLP.Chemscore.Metal>
0.0000

> <Gold.Chemscore.Hbonds>
donor molecule, donor type, donor heavy atom, donor atom, acceptor molecule, acceptor atom, score
      L1  H     7    28       P1  7948  1.00
      L1  H    10    29       P1  7948  1.00
      L1  H    14    37       P1  8028  2.00

> <Gold.PLP.Chemscore.Internal.Correction>
0.0052

> <Gold.Rescore>
     Score         DG    S(hbond)    S(metal)    S(lipo)     H(rot)  DE(clash)    DE(int)     intcor
     20.51     -21.21       2.95        0.00      78.17       1.27       0.03       0.68       ----

> <Gold.Chemscore.Fitness>
20.5069

> <Gold.Chemscore.DG>
-21.2121

> <Gold.Chemscore.ZeroCoef>
-5.4800

> <Gold.Chemscore.Hbond>
2.9469

> <Gold.Chemscore.Metal>
0.0000

> <Gold.Chemscore.Lipo>
78.1719

> <Gold.Chemscore.Internal_Hbond>
0.0000

> <Gold.Chemscore.DEClash>
0.0270

> <Gold.Chemscore.DEInternal>
0.6783

> <Gold.Chemscore.Rot>
1.2721

> <Gold.Chemscore.Internal.Correction>
   9.000000E+99

> <Gold.Chemscore.Hbonds>
donor molecule, donor type, donor heavy atom, donor atom, acceptor molecule, acceptor atom, score
      L1  H     7    28       P1  7948  1.00
      L1  H    10    29       P1  7948  0.94
      L1  H    14    37       P1  8028  1.00

> <Gold.Chemscore.Hbond.Weighted>
-9.8425

> <Gold.Chemscore.Metal.Weighted>
-0.0000

> <Gold.Chemscore.Lipo.Weighted>
-9.1461

> <Gold.Chemscore.Internal_Hbond.Weighted>
0.0000

> <Gold.Chemscore.DEClash.Weighted>
0.0270

> <Gold.Chemscore.DEInternal.Weighted>
0.6783

> <Gold.Chemscore.Rot.Weighted>
3.2565

> <Gold.Chemscore.Internal.Correction.Weighted>
   9.000000E+99

> <Gold.Protein.RotatedTorsions>
[ 6907 6896 6895 6894 ] final  121.23 input  -60.11 | X-H torsion
[ 7974 7965 7964 7962 ] final -145.27 input  175.53 | X-H torsion
[ 8008 7997 7996 7995 ] final   59.14 input   59.86 | X-H torsion
[ 10167 10162 10161 10158 ] final -177.39 input  -65.29 | X-H torsion
[ 10718 10713 10712 10709 ] final -124.46 input   66.30 | X-H torsion
[ 10763 10752 10751 10750 ] final -131.12 input  -60.55 | X-H torsion
[ 11005 11000 10999 10996 ] final   98.42 input  -57.11 | X-H torsion

> <Gold.Protein.ActiveResidues>
 VAL166  LYS551  ARG553  GLY616  TRP617  ASP618  TYR619  PRO620  LYS621  CYS622 
 ASP623  PHE694  ASN695  SER759  ASP760  ASP761  ALA762  ILE779  LEU786  VAL792 
 PHE793  MET794  SER795  GLU796  ALA797  LYS798  CYS799  TRP800  GLU811  SER814 

> <Gold.Protein.RotatedAtoms>
  152.4337  133.7323  159.6594 H   0  0  0  0  0  0  0  0  0  0  0  0  # atno 6907 bound_to 6896
  150.8219  133.8228  159.3141 H   0  0  0  0  0  0  0  0  0  0  0  0  # atno 6908 bound_to 6896
  151.5908  135.1056  160.0090 H   0  0  0  0  0  0  0  0  0  0  0  0  # atno 6909 bound_to 6896
  144.8239  140.5605  143.5560 H   0  0  0  0  0  0  0  0  0  0  0  0  # atno 7974 bound_to 7965
  155.5614  140.3488  155.4492 H   0  0  0  0  0  0  0  0  0  0  0  0  # atno 8008 bound_to 7997
  156.0511  140.1318  157.0074 H   0  0  0  0  0  0  0  0  0  0  0  0  # atno 8009 bound_to 7997
  154.4435  140.1004  156.6363 H   0  0  0  0  0  0  0  0  0  0  0  0  # atno 8010 bound_to 7997
  139.5483  144.2178  152.1029 H   0  0  0  0  0  0  0  0  0  0  0  0  # atno 10167 bound_to 10162
  156.1590  130.6588  151.0022 H   0  0  0  0  0  0  0  0  0  0  0  0  # atno 10718 bound_to 10713
  154.8752  135.3840  154.4195 H   0  0  0  0  0  0  0  0  0  0  0  0  # atno 10763 bound_to 10752
  153.4900  135.7030  153.5894 H   0  0  0  0  0  0  0  0  0  0  0  0  # atno 10764 bound_to 10752
  153.4272  135.3887  155.2115 H   0  0  0  0  0  0  0  0  0  0  0  0  # atno 10765 bound_to 10752
  139.8772  134.9048  156.4454 H   0  0  0  0  0  0  0  0  0  0  0  0  # atno 11005 bound_to 11000
  145.5043  139.1482  143.3640 LP  0  0  0  0  0  0  0  0  0  0  0  0  # atno 17320 bound_to 7965
  146.2545  140.5183  142.8879 LP  0  0  0  0  0  0  0  0  0  0  0  0  # atno 17321 bound_to 7965
  140.1668  144.4973  150.6601 LP  0  0  0  0  0  0  0  0  0  0  0  0  # atno 17342 bound_to 10162
  140.6738  143.2296  151.5560 LP  0  0  0  0  0  0  0  0  0  0  0  0  # atno 17343 bound_to 10162
  157.6717  131.0860  150.7595 LP  0  0  0  0  0  0  0  0  0  0  0  0  # atno 17370 bound_to 10713
  156.7658  130.4813  149.5428 LP  0  0  0  0  0  0  0  0  0  0  0  0  # atno 17371 bound_to 10713
  140.8970  133.7807  155.9636 LP  0  0  0  0  0  0  0  0  0  0  0  0  # atno 17394 bound_to 11000
  140.8692  134.2747  157.5198 LP  0  0  0  0  0  0  0  0  0  0  0  0  # atno 17395 bound_to 11000

$$$$
