#       Name:                AV-unprocessed.smi:33
#       Creating user name   scv26
#       Creation time:       Thu Mar 26 15:50:44 2020


#       File generated by GOLD software.
#

@<TRIPOS>MOLECULE
AV-unprocessed.smi:33
    80    85     1
SMALL
NO_CHARGES


@<TRIPOS>ATOM
      1 ****        -7.4740   1.6318   1.8684 O.2            1 S1                 0.0000
      2 ****        -6.2688   1.8736   1.7772 C.2            1 S1                 0.0000
      3 ****        -5.4361   1.2118   0.9519 O.3            1 S1                 0.0000
      4 ****        -5.9273   0.1604   0.1374 C.3            1 S1                 0.0000
      5 ****        -4.7618  -0.4240  -0.6683 C.3            1 S1                 0.0000
      6 ****        -3.9110  -1.2104   0.1653 O.3            1 S1                 0.0000
      7 ****        -3.3042  -2.2233  -0.5847 C.3            1 S1                 0.0000
      8 ****        -1.8233  -2.0060  -0.5649 N.pl3          1 S1                 0.0000
      9 ****        -0.8600  -2.9157  -0.1874 C.2            1 S1                 0.0000
     10 ****         0.3726  -2.4917  -0.2558 N.2            1 S1                 0.0000
     11 ****         0.2510  -1.1829  -0.7015 C.ar           1 S1                 0.0000
     12 ****         1.1824  -0.1504  -0.9940 C.ar           1 S1                 0.0000
     13 ****         2.5203  -0.3107  -0.8654 N.am           1 S1                 0.0000
     14 ****         3.0486  -0.4426   0.4995 C.2            1 S1                 0.0000
     15 ****         2.4291   0.0530   1.4426 O.2            1 S1                 0.0000
     16 ****         4.3581  -1.1377   0.7430 C.ar           1 S1                 0.0000
     17 ****         5.3241  -0.5518   1.5900 C.ar           1 S1                 0.0000
     18 ****         6.5461  -1.2084   1.8336 C.ar           1 S1                 0.0000
     19 ****         6.8018  -2.4629   1.2479 C.ar           1 S1                 0.0000
     20 ****         5.8316  -3.0653   0.4247 C.ar           1 S1                 0.0000
     21 ****         4.6101  -2.4090   0.1794 C.ar           1 S1                 0.0000
     22 ****         3.3193  -0.3431  -2.0996 C.2            1 S1                 0.0000
     23 ****         2.7859  -0.6767  -3.1595 O.2            1 S1                 0.0000
     24 ****         4.7886  -0.0295  -2.0664 C.ar           1 S1                 0.0000
     25 ****         5.7055  -0.8705  -2.7347 C.ar           1 S1                 0.0000
     26 ****         7.0822  -0.5744  -2.7194 C.ar           1 S1                 0.0000
     27 ****         7.5492   0.5737  -2.0518 C.ar           1 S1                 0.0000
     28 ****         6.6378   1.4317  -1.4075 C.ar           1 S1                 0.0000
     29 ****         5.2610   1.1363  -1.4220 C.ar           1 S1                 0.0000
     30 ****         0.6983   1.0432  -1.4237 N.ar           1 S1                 0.0000
     31 ****        -0.6198   1.2131  -1.5588 C.ar           1 S1                 0.0000
     32 ****        -1.6017   0.3388  -1.3281 N.ar           1 S1                 0.0000
     33 ****        -1.1212  -0.8626  -0.8952 C.ar           1 S1                 0.0000
     34 ****        -3.8670  -2.1398  -2.0107 C.3            1 S1                 0.0000
     35 ****        -4.1080  -3.4006  -2.6024 O.3            1 S1                 0.0000
     36 ****        -5.1730  -1.4005  -1.7678 C.3            1 S1                 0.0000
     37 ****        -6.1071  -2.2266  -1.2865 F              1 S1                 0.0000
     38 ****        -5.5781   2.9312   2.5703 C.ar           1 S1                 0.0000
     39 ****        -6.3272   3.7198   3.4746 C.ar           1 S1                 0.0000
     40 ****        -5.7017   4.7244   4.2384 C.ar           1 S1                 0.0000
     41 ****        -4.3194   4.9522   4.1074 C.ar           1 S1                 0.0000
     42 ****        -3.5630   4.1746   3.2112 C.ar           1 S1                 0.0000
     43 ****        -4.1866   3.1697   2.4463 C.ar           1 S1                 0.0000
     44 ****        -6.4007  -0.6100   0.7478 H              1 S1                 0.0000
     45 ****        -6.6837   0.5593  -0.5400 H              1 S1                 0.0000
     46 ****        -4.1905   0.3870  -1.1188 H              1 S1                 0.0000
     47 ****        -3.4658  -3.1875  -0.1005 H              1 S1                 0.0000
     48 ****        -1.1017  -3.9171   0.1377 H              1 S1                 0.0000
     49 ****         5.1385   0.4105   2.0452 H              1 S1                 0.0000
     50 ****         7.2869  -0.7496   2.4715 H              1 S1                 0.0000
     51 ****         7.7387  -2.9661   1.4356 H              1 S1                 0.0000
     52 ****         6.0228  -4.0319  -0.0175 H              1 S1                 0.0000
     53 ****         3.8701  -2.8835  -0.4490 H              1 S1                 0.0000
     54 ****         5.3590  -1.7546  -3.2501 H              1 S1                 0.0000
     55 ****         7.7802  -1.2283  -3.2210 H              1 S1                 0.0000
     56 ****         8.6053   0.7996  -2.0398 H              1 S1                 0.0000
     57 ****         6.9941   2.3176  -0.9029 H              1 S1                 0.0000
     58 ****         4.5706   1.8051  -0.9284 H              1 S1                 0.0000
     59 ****        -0.9326   2.1875  -1.9037 H              1 S1                 0.0000
     60 ****        -3.2107  -1.5428  -2.6451 H              1 S1                 0.0000
     61 ****        -3.2804  -3.8446  -2.7088 H              1 S1                 0.0000
     62 ****        -5.5738  -0.9148  -2.6580 H              1 S1                 0.0000
     63 ****        -7.3898   3.5629   3.5925 H              1 S1                 0.0000
     64 ****        -6.2840   5.3200   4.9259 H              1 S1                 0.0000
     65 ****        -3.8396   5.7222   4.6936 H              1 S1                 0.0000
     66 ****        -2.5017   4.3482   3.1102 H              1 S1                 0.0000
     67 ****        -3.5761   2.5904   1.7690 H              1 S1                 0.0000
     68 ****        -7.8826   0.9095   1.3105 LP             1 S1                 0.0000
     69 ****        -8.0431   2.1579   2.5003 LP             1 S1                 0.0000
     70 ****        -4.4539  -1.6214   0.8977 LP             1 S1                 0.0000
     71 ****        -3.2044  -0.6248   0.5626 LP             1 S1                 0.0000
     72 ****         1.2099  -2.9932  -0.0378 LP             1 S1                 0.0000
     73 ****         1.5724   0.5413   1.2766 LP             1 S1                 0.0000
     74 ****         2.7832  -0.0332   2.3739 LP             1 S1                 0.0000
     75 ****         1.8168  -0.9228  -3.1758 LP             1 S1                 0.0000
     76 ****         3.3223  -0.7013  -4.0031 LP             1 S1                 0.0000
     77 ****         1.3257   1.7918  -1.6381 LP             1 S1                 0.0000
     78 ****        -2.5727   0.5401  -1.4570 LP             1 S1                 0.0000
     79 ****        -4.5418  -3.2771  -3.4949 LP             1 S1                 0.0000
     80 ****        -4.7075  -3.9413  -2.0122 LP             1 S1                 0.0000
@<TRIPOS>BOND
    1    1    2 2     
    2    2    3 1     
    3    2   38 1     
    4    3    4 1     
    5    4    5 1     
    6    4   44 1     
    7    4   45 1     
    8    5   36 1     
    9    5    6 1     
   10    5   46 1     
   11    6    7 1     
   12    7    8 1     
   13    7   34 1     
   14    7   47 1     
   15    8   33 1     
   16    8    9 1     
   17    9   10 2     
   18    9   48 1     
   19   10   11 1     
   20   11   33 ar    
   21   11   12 ar    
   22   12   13 1     
   23   12   30 ar    
   24   13   14 am    
   25   13   22 am    
   26   14   15 2     
   27   14   16 1     
   28   16   21 ar    
   29   16   17 ar    
   30   17   18 ar    
   31   17   49 1     
   32   18   19 ar    
   33   18   50 1     
   34   19   20 ar    
   35   19   51 1     
   36   20   21 ar    
   37   20   52 1     
   38   21   53 1     
   39   22   23 2     
   40   22   24 1     
   41   24   29 ar    
   42   24   25 ar    
   43   25   26 ar    
   44   25   54 1     
   45   26   27 ar    
   46   26   55 1     
   47   27   28 ar    
   48   27   56 1     
   49   28   29 ar    
   50   28   57 1     
   51   29   58 1     
   52   30   31 ar    
   53   31   32 ar    
   54   31   59 1     
   55   32   33 ar    
   56   34   35 1     
   57   34   36 1     
   58   34   60 1     
   59   35   61 1     
   60   36   37 1     
   61   36   62 1     
   62   38   43 ar    
   63   38   39 ar    
   64   39   40 ar    
   65   39   63 1     
   66   40   41 ar    
   67   40   64 1     
   68   41   42 ar    
   69   41   65 1     
   70   42   43 ar    
   71   42   66 1     
   72   43   67 1     
   73    1   68 1     
   74    1   69 1     
   75    6   70 1     
   76    6   71 1     
   77   10   72 1     
   78   15   73 1     
   79   15   74 1     
   80   23   75 1     
   81   23   76 1     
   82   30   77 1     
   83   32   78 1     
   84   35   79 1     
   85   35   80 1     
@<TRIPOS>SUBSTRUCTURE
      1 S1             1
@<TRIPOS>SET
LONE_PAIRS      STATIC     ATOMS    <user>   **** ""
13 68 69 70 71 72 73 74 75 76 77 78 79 80
DONOR_HYDROGENS      STATIC     ATOMS    <user>   **** ""
1 61
ATOM$BLUE        STATIC     ATOMS    COLORGROUP SYSTEM
13 68 69 70 71 72 73 74 75 76 77 78 79 80
ATOM$RED        STATIC     ATOMS    COLORGROUP SYSTEM
1 61
