AV-unprocessed.smi:598|AV-procd|sdf|3027|dock1
  -GOLD-   2262023533D 1   1.00000     0.00000
 Structure written by MMmdl.
 43 44  0  0  0  0  0  0  0  0  3 V2000
  152.1212  145.4544  160.2253 C   0  0  0  0  0  0  0  0  0  0  0  0
  151.7907  144.0241  159.7676 C   0  0  2  0  0  0  0  0  0  0  0  0
  153.0285  143.1059  159.8199 C   0  0  0  0  0  0  0  0  0  0  0  0
  152.6675  141.6553  159.4628 C   0  0  0  0  0  0  0  0  0  0  0  0
  151.9579  141.5664  158.1036 C   0  0  0  0  0  0  0  0  0  0  0  0
  150.7220  142.4894  158.0563 C   0  0  2  0  0  0  0  0  0  0  0  0
  150.0583  142.3996  156.7600 N   0  0  0  0  0  0  0  0  0  0  0  0
  149.8315  141.2779  156.0561 C   0  0  0  0  0  0  0  0  0  0  0  0
  150.1823  140.1641  156.4428 O   0  0  0  0  0  0  0  0  0  0  0  0
  149.1027  141.4083  154.7067 C   0  0  0  0  0  0  0  0  0  0  0  0
  147.6359  141.5257  154.8083 N   0  0  0  0  0  0  0  0  0  0  0  0
  147.0480  142.6739  154.2416 C   0  0  0  0  0  0  0  0  0  0  0  0
  145.7211  142.9009  154.2974 C   0  0  0  0  0  0  0  0  0  0  0  0
  145.1366  144.0921  153.7219 N   0  3  0  0  0  0  0  0  0  0  0  0
  144.2031  144.6313  154.3075 O   0  0  0  0  0  0  0  0  0  0  0  0
  145.5900  144.5284  152.6680 O   0  5  0  0  0  0  0  0  0  0  0  0
  144.8959  141.9127  154.9648 C   0  0  0  0  0  0  0  0  0  0  0  0
  145.4522  140.8139  155.5116 C   0  0  0  0  0  0  0  0  0  0  0  0
  146.8975  140.5728  155.4562 C   0  0  0  0  0  0  0  0  0  0  0  0
  147.4138  139.5808  155.9700 O   0  0  0  0  0  0  0  0  0  0  0  0
  151.0912  143.9603  158.3835 C   0  0  2  0  0  0  0  0  0  0  0  0
  151.8886  144.6564  157.2539 C   0  0  0  0  0  0  0  0  0  0  0  0
  152.9110  145.9018  159.6220 H   0  0  0  0  0  0  0  0  0  0  0  0
  152.4627  145.4607  161.2607 H   0  0  0  0  0  0  0  0  0  0  0  0
  151.2442  146.0995  160.1660 H   0  0  0  0  0  0  0  0  0  0  0  0
  151.0779  143.6341  160.4963 H   0  0  0  0  0  0  0  0  0  0  0  0
  153.7987  143.4718  159.1403 H   0  0  0  0  0  0  0  0  0  0  0  0
  153.4678  143.1313  160.8177 H   0  0  0  0  0  0  0  0  0  0  0  0
  153.5671  141.0393  159.4538 H   0  0  0  0  0  0  0  0  0  0  0  0
  152.0195  141.2422  160.2367 H   0  0  0  0  0  0  0  0  0  0  0  0
  152.6557  141.8287  157.3079 H   0  0  0  0  0  0  0  0  0  0  0  0
  151.6622  140.5329  157.9200 H   0  0  0  0  0  0  0  0  0  0  0  0
  150.0185  142.1512  158.8198 H   0  0  0  0  0  0  0  0  0  0  0  0
  149.7370  143.2707  156.3636 H   0  0  0  0  0  0  0  0  0  0  0  0
  149.5102  142.2765  154.1867 H   0  0  0  0  0  0  0  0  0  0  0  0
  149.3763  140.5560  154.0822 H   0  0  0  0  0  0  0  0  0  0  0  0
  147.7493  143.3518  153.7763 H   0  0  0  0  0  0  0  0  0  0  0  0
  143.8262  142.0463  155.0308 H   0  0  0  0  0  0  0  0  0  0  0  0
  144.8188  140.0909  156.0044 H   0  0  0  0  0  0  0  0  0  0  0  0
  150.1525  144.5094  158.4745 H   0  0  0  0  0  0  0  0  0  0  0  0
  152.8579  144.1879  157.0873 H   0  0  0  0  0  0  0  0  0  0  0  0
  152.0655  145.7074  157.4792 H   0  0  0  0  0  0  0  0  0  0  0  0
  151.3489  144.6366  156.3070 H   0  0  0  0  0  0  0  0  0  0  0  0
  1  2  1  0  0  0  0
  1 23  1  0  0  0  0
  1 24  1  0  0  0  0
  1 25  1  0  0  0  0
  2 21  1  0  0  0  0
  2  3  1  0  0  0  0
  2 26  1  0  0  0  0
  3  4  1  0  0  0  0
  3 27  1  0  0  0  0
  3 28  1  0  0  0  0
  4  5  1  0  0  0  0
  4 29  1  0  0  0  0
  4 30  1  0  0  0  0
  5  6  1  0  0  0  0
  5 31  1  0  0  0  0
  5 32  1  0  0  0  0
  6  7  1  0  0  0  0
  6 21  1  0  0  0  0
  6 33  1  0  0  0  0
  7  8  1  0  0  0  0
  7 34  1  0  0  0  0
  8  9  2  0  0  0  0
  8 10  1  0  0  0  0
 10 11  1  0  0  0  0
 10 35  1  0  0  0  0
 10 36  1  0  0  0  0
 11 19  1  0  0  0  0
 11 12  1  0  0  0  0
 12 13  2  0  0  0  0
 12 37  1  0  0  0  0
 13 14  1  0  0  0  0
 13 17  1  0  0  0  0
 14 15  2  0  0  0  0
 14 16  1  0  0  0  0
 17 18  2  0  0  0  0
 17 38  1  0  0  0  0
 18 19  1  0  0  0  0
 18 39  1  0  0  0  0
 19 20  2  0  0  0  0
 21 22  1  0  0  0  0
 21 40  1  0  0  0  0
 22 41  1  0  0  0  0
 22 42  1  0  0  0  0
 22 43  1  0  0  0  0
M  CHG  1  14   1
M  CHG  1  16  -1
M  END
> <s_m_source_file>
AV-unprocessed.smi

> <i_m_source_file_index>
598

> <i_lp_mmshare_version>
43012

> <i_f3d_flags>
0

> <s_epik_input>
W0NIM11bQ0BASF0xW0NIMl1bQ0gyXVtDSDJdW0NASF0oW0NASF0xW0NIM10pW05IXUMoPU8pW0NIMl1uMltjSF1jKFtOK10oPU8pW08tXSlbY0hdW2NIXWMyPU8=

> <s_epik_cmdline>
J2VwaWtfcHl0aG9uJywgJy1waCcsICc3LjAnLCAnLXRuJywgJzgnLCAnLW1hJywgJzIwMCcsICctbWV0YWxfYmluZGluZycsICctaW1hZScsICc8aW5maWxlLm1hZT4nLCAnLW9tYWUnLCAnPG91dGZpbGUubWFlPic=

> <r_lp_tautomer_probability>
1

> <r_epik_Ionization_Penalty>
1.91291e-08

> <r_epik_Ionization_Penalty_Charging>
8.21931e-11

> <r_epik_Ionization_Penalty_Neutral>
1.90469e-08

> <r_epik_State_Penalty>
-0

> <r_epik_Charging_Adjusted_Penalty>
8.21931e-11

> <i_epik_Tot_Q>
0

> <i_epik_Tot_abs_Q>
2

> <r_epik_Metal_State_Penalty>
-0

> <b_epik_Metal_Only>
0

> <s_lp_Force_Field>
OPLS_2005

> <r_lp_Energy>
25.0261

> <b_lp_Chiralities_Consistent>
1

> <s_lp_Variant>
AV-unprocessed.smi:598-7

> <Gold.Version>
5.8.1

> <Gold.Id.Protein>
6NUR|6NUR_protein|mol2

> <Gold.PLP.Fitness>
44.7441

> <Gold.PLP.PLP>
-42.1139

> <Gold.PLP.part.hbond>
-2.0000

> <Gold.PLP.part.metal>
0.0000

> <Gold.PLP.part.buried>
-3.7957

> <Gold.PLP.part.nonpolar>
-37.3295

> <Gold.PLP.part.repulsive>
0.3609

> <Gold.PLP.ligand.clash>
0.0000

> <Gold.PLP.ligand.torsion>
1.0511

> <Gold.PLP.Chemscore.Hbond>
1.0000

> <Gold.PLP.Chemscore.CHOScore>
0.5633

> <Gold.PLP.Chemscore.Metal>
0.0000

> <Gold.Chemscore.Hbonds>
donor molecule, donor type, donor heavy atom, donor atom, acceptor molecule, acceptor atom, score
      L1  H     7    34       P1  8028  1.00
      L1  C    12    37       P1  8028  0.56

> <Gold.PLP.Chemscore.Internal.Correction>
0.0425

> <Gold.Rescore>
     Score         DG    S(hbond)    S(metal)    S(lipo)     H(rot)  DE(clash)    DE(int)     intcor
     12.55     -17.31       0.99        0.00     106.52       1.54       0.19       4.57       ----

> <Gold.Chemscore.Fitness>
12.5523

> <Gold.Chemscore.DG>
-17.3141

> <Gold.Chemscore.ZeroCoef>
-5.4800

> <Gold.Chemscore.Hbond>
0.9918

> <Gold.Chemscore.Metal>
0.0000

> <Gold.Chemscore.Lipo>
106.5151

> <Gold.Chemscore.Internal_Hbond>
0.0000

> <Gold.Chemscore.DEClash>
0.1937

> <Gold.Chemscore.DEInternal>
4.5681

> <Gold.Chemscore.Rot>
1.5393

> <Gold.Chemscore.Internal.Correction>
   9.000000E+99

> <Gold.Chemscore.Hbonds>
donor molecule, donor type, donor heavy atom, donor atom, acceptor molecule, acceptor atom, score
      L1  H     7    34       P1  8028  1.00

> <Gold.Chemscore.Hbond.Weighted>
-3.3125

> <Gold.Chemscore.Metal.Weighted>
-0.0000

> <Gold.Chemscore.Lipo.Weighted>
-12.4623

> <Gold.Chemscore.Internal_Hbond.Weighted>
0.0000

> <Gold.Chemscore.DEClash.Weighted>
0.1937

> <Gold.Chemscore.DEInternal.Weighted>
4.5681

> <Gold.Chemscore.Rot.Weighted>
3.9407

> <Gold.Chemscore.Internal.Correction.Weighted>
   9.000000E+99

> <Gold.Protein.RotatedTorsions>
[ 6907 6896 6895 6894 ] final  155.98 input  -60.11 | X-H torsion
[ 7974 7965 7964 7962 ] final  -80.63 input  175.53 | X-H torsion
[ 8008 7997 7996 7995 ] final  169.23 input   59.86 | X-H torsion
[ 10167 10162 10161 10158 ] final    6.10 input  -65.29 | X-H torsion
[ 10718 10713 10712 10709 ] final -165.39 input   66.30 | X-H torsion
[ 10763 10752 10751 10750 ] final -102.27 input  -60.55 | X-H torsion
[ 11005 11000 10999 10996 ] final  -32.49 input  -57.11 | X-H torsion

> <Gold.Protein.ActiveResidues>
 VAL166  LYS551  ARG553  GLY616  TRP617  ASP618  TYR619  PRO620  LYS621  CYS622 
 ASP623  PHE694  ASN695  SER759  ASP760  ASP761  ALA762  ILE779  LEU786  VAL792 
 PHE793  MET794  SER795  GLU796  ALA797  LYS798  CYS799  TRP800  GLU811  SER814 

> <Gold.Protein.RotatedAtoms>
  152.0363  133.3958  159.4317 H   0  0  0  0  0  0  0  0  0  0  0  0  # atno 6907 bound_to 6896
  150.6878  134.3465  159.4900 H   0  0  0  0  0  0  0  0  0  0  0  0  # atno 6908 bound_to 6896
  152.1258  134.9171  160.0611 H   0  0  0  0  0  0  0  0  0  0  0  0  # atno 6909 bound_to 6896
  145.5574  140.9487  143.1466 H   0  0  0  0  0  0  0  0  0  0  0  0  # atno 7974 bound_to 7965
  156.1476  140.1569  156.8821 H   0  0  0  0  0  0  0  0  0  0  0  0  # atno 8008 bound_to 7997
  154.5042  140.0817  156.7898 H   0  0  0  0  0  0  0  0  0  0  0  0  # atno 8009 bound_to 7997
  155.3958  140.3412  155.4256 H   0  0  0  0  0  0  0  0  0  0  0  0  # atno 8010 bound_to 7997
  140.6446  143.7693  150.7479 H   0  0  0  0  0  0  0  0  0  0  0  0  # atno 10167 bound_to 10162
  156.6527  130.9014  151.3016 H   0  0  0  0  0  0  0  0  0  0  0  0  # atno 10718 bound_to 10713
  154.7721  135.4867  153.9670 H   0  0  0  0  0  0  0  0  0  0  0  0  # atno 10763 bound_to 10752
  153.1381  135.6767  153.9077 H   0  0  0  0  0  0  0  0  0  0  0  0  # atno 10764 bound_to 10752
  153.8760  135.3138  155.3422 H   0  0  0  0  0  0  0  0  0  0  0  0  # atno 10765 bound_to 10752
  140.9556  133.7194  156.1288 H   0  0  0  0  0  0  0  0  0  0  0  0  # atno 11005 bound_to 11000
  144.7499  139.7220  143.7277 LP  0  0  0  0  0  0  0  0  0  0  0  0  # atno 17320 bound_to 7965
  146.1875  139.5097  142.9827 LP  0  0  0  0  0  0  0  0  0  0  0  0  # atno 17321 bound_to 7965
  140.1331  143.4508  152.2241 LP  0  0  0  0  0  0  0  0  0  0  0  0  # atno 17342 bound_to 10162
  139.5656  144.7433  151.4032 LP  0  0  0  0  0  0  0  0  0  0  0  0  # atno 17343 bound_to 10162
  157.7135  130.9469  150.1174 LP  0  0  0  0  0  0  0  0  0  0  0  0  # atno 17370 bound_to 10713
  156.2072  130.3664  149.8715 LP  0  0  0  0  0  0  0  0  0  0  0  0  # atno 17371 bound_to 10713
  140.7540  134.4013  157.5537 LP  0  0  0  0  0  0  0  0  0  0  0  0  # atno 17394 bound_to 11000
  139.8861  134.8918  156.2603 LP  0  0  0  0  0  0  0  0  0  0  0  0  # atno 17395 bound_to 11000

$$$$
