AV-unprocessed.smi:1871|AV-procd|sdf|7601|dock1
  -GOLD-   22720 9313D 1   1.00000     0.00000
 Structure written by MMmdl.
 41 43  0  0  0  0  0  0  0  0  2 V2000
  148.8625  142.2137  154.2889 O   0  0  0  0  0  0  0  0  0  0  0  0
  149.5003  141.1505  154.9602 C   0  0  0  0  0  0  0  0  0  0  0  0
  150.3303  141.6202  156.1104 C   0  0  0  0  0  0  0  0  0  0  0  0
  150.4236  142.9112  156.5385 N   0  3  0  0  0  0  0  0  0  0  0  0
  151.2931  142.9885  157.6269 C   0  0  0  0  0  0  0  0  0  0  0  0
  151.7017  144.0764  158.3922 C   0  0  0  0  0  0  0  0  0  0  0  0
  152.6072  143.8087  159.4398 C   0  0  0  0  0  0  0  0  0  0  0  0
  153.0714  142.5014  159.6930 C   0  0  0  0  0  0  0  0  0  0  0  0
  152.6503  141.4065  158.9097 C   0  0  0  0  0  0  0  0  0  0  0  0
  151.7546  141.6803  157.8760 C   0  0  0  0  0  0  0  0  0  0  0  0
  151.1382  140.8694  156.9165 N   0  0  0  0  0  0  0  0  0  0  0  0
  151.4342  139.4275  156.9108 C   0  0  0  0  0  0  0  0  0  0  0  0
  150.4922  138.6163  157.8233 C   0  0  2  0  0  0  0  0  0  0  0  0
  150.9775  138.6351  159.1514 O   0  0  0  0  0  0  0  0  0  0  0  0
  150.3009  137.2026  157.2979 C   0  0  0  0  0  0  0  0  0  0  0  0
  150.9745  136.7680  156.1363 C   0  0  0  0  0  0  0  0  0  0  0  0
  150.7828  135.4596  155.6525 C   0  0  0  0  0  0  0  0  0  0  0  0
  149.9221  134.5660  156.3209 C   0  0  0  0  0  0  0  0  0  0  0  0
  149.7646  133.3055  155.7908 O   0  0  0  0  0  0  0  0  0  0  0  0
  149.4422  133.1720  154.4768 C   0  0  0  0  0  0  0  0  0  0  0  0
  149.2818  131.8639  154.1587 F   0  0  0  0  0  0  0  0  0  0  0  0
  148.2679  133.7999  154.2272 F   0  0  0  0  0  0  0  0  0  0  0  0
  149.2356  135.0088  157.4769 C   0  0  0  0  0  0  0  0  0  0  0  0
  149.4270  136.3171  157.9618 C   0  0  0  0  0  0  0  0  0  0  0  0
  148.6433  142.8813  154.9210 H   0  0  0  0  0  0  0  0  0  0  0  0
  148.7401  140.4597  155.3255 H   0  0  0  0  0  0  0  0  0  0  0  0
  150.1159  140.5957  154.2531 H   0  0  0  0  0  0  0  0  0  0  0  0
  151.3483  145.0789  158.1994 H   0  0  0  0  0  0  0  0  0  0  0  0
  152.9529  144.6220  160.0615 H   0  0  0  0  0  0  0  0  0  0  0  0
  153.7649  142.3346  160.5047 H   0  0  0  0  0  0  0  0  0  0  0  0
  153.0130  140.4094  159.1105 H   0  0  0  0  0  0  0  0  0  0  0  0
  151.3775  139.0714  155.8814 H   0  0  0  0  0  0  0  0  0  0  0  0
  152.4707  139.2918  157.2188 H   0  0  0  0  0  0  0  0  0  0  0  0
  149.5162  139.1020  157.8474 H   0  0  0  0  0  0  0  0  0  0  0  0
  151.7468  138.0881  159.1973 H   0  0  0  0  0  0  0  0  0  0  0  0
  151.6382  137.4378  155.6092 H   0  0  0  0  0  0  0  0  0  0  0  0
  151.3023  135.1387  154.7615 H   0  0  0  0  0  0  0  0  0  0  0  0
  150.2000  133.6132  153.8289 H   0  0  0  0  0  0  0  0  0  0  0  0
  148.5518  134.3562  157.9985 H   0  0  0  0  0  0  0  0  0  0  0  0
  148.8943  136.6389  158.8447 H   0  0  0  0  0  0  0  0  0  0  0  0
  149.9299  143.6827  156.1089 H   0  0  0  0  0  0  0  0  0  0  0  0
  1  2  1  0  0  0  0
  1 25  1  0  0  0  0
  2  3  1  0  0  0  0
  2 26  1  0  0  0  0
  2 27  1  0  0  0  0
  3 11  1  0  0  0  0
  3  4  2  0  0  0  0
  4  5  1  0  0  0  0
  4 41  1  0  0  0  0
  5 10  2  0  0  0  0
  5  6  1  0  0  0  0
  6  7  2  0  0  0  0
  6 28  1  0  0  0  0
  7  8  1  0  0  0  0
  7 29  1  0  0  0  0
  8  9  2  0  0  0  0
  8 30  1  0  0  0  0
  9 10  1  0  0  0  0
  9 31  1  0  0  0  0
 10 11  1  0  0  0  0
 11 12  1  0  0  0  0
 12 13  1  0  0  0  0
 12 32  1  0  0  0  0
 12 33  1  0  0  0  0
 13 14  1  0  0  0  0
 13 15  1  0  0  0  0
 13 34  1  0  0  0  0
 14 35  1  0  0  0  0
 15 24  1  0  0  0  0
 15 16  2  0  0  0  0
 16 17  1  0  0  0  0
 16 36  1  0  0  0  0
 17 18  2  0  0  0  0
 17 37  1  0  0  0  0
 18 19  1  0  0  0  0
 18 23  1  0  0  0  0
 19 20  1  0  0  0  0
 20 21  1  0  0  0  0
 20 22  1  0  0  0  0
 20 38  1  0  0  0  0
 23 24  2  0  0  0  0
 23 39  1  0  0  0  0
 24 40  1  0  0  0  0
M  CHG  1   4   1
M  END
> <s_m_source_file>
AV-unprocessed.smi

> <i_m_source_file_index>
1871

> <i_lp_mmshare_version>
43012

> <i_f3d_flags>
0

> <s_epik_input>
W2NIXTFbY0hdW2NIXVtjSF1jKGMxMiluKGMobjIpW0NIMl1bT0hdKVtDSDJdW0NASF0oW09IXSljM1tjSF1bY0hdYyhPW0NIXShGKUYpW2NIXVtjSF0z

> <s_epik_cmdline>
J2VwaWtfcHl0aG9uJywgJy1waCcsICc3LjAnLCAnLXRuJywgJzgnLCAnLW1hJywgJzIwMCcsICctbWV0YWxfYmluZGluZycsICctaW1hZScsICc8aW5maWxlLm1hZT4nLCAnLW9tYWUnLCAnPG91dGZpbGUubWFlPic=

> <r_lp_tautomer_probability>
1

> <r_epik_Ionization_Penalty>
1.35642

> <r_epik_Ionization_Penalty_Charging>
1.35557

> <r_epik_Ionization_Penalty_Neutral>
0.000856035

> <r_epik_State_Penalty>
1.43401

> <r_epik_Charging_Adjusted_Penalty>
2.78958

> <i_epik_Tot_Q>
1

> <i_epik_Tot_abs_Q>
1

> <r_epik_Metal_State_Penalty>
5.47166

> <b_epik_Metal_Only>
0

> <s_lp_Force_Field>
OPLS_2005

> <r_lp_Energy>
13.1026

> <b_lp_Chiralities_Consistent>
1

> <s_lp_Variant>
AV-unprocessed.smi:1871-3

> <Gold.Version>
5.8.1

> <Gold.Id.Protein>
6NUR|6NUR_protein|mol2

> <Gold.PLP.Fitness>
54.4239

> <Gold.PLP.PLP>
-46.0841

> <Gold.PLP.part.hbond>
-3.3398

> <Gold.PLP.part.metal>
0.0000

> <Gold.PLP.part.buried>
-6.4993

> <Gold.PLP.part.nonpolar>
-37.2495

> <Gold.PLP.part.repulsive>
0.0753

> <Gold.PLP.ligand.clash>
0.0000

> <Gold.PLP.ligand.torsion>
0.7759

> <Gold.PLP.Chemscore.Hbond>
3.2298

> <Gold.PLP.Chemscore.CHOScore>
0.0000

> <Gold.PLP.Chemscore.Metal>
0.0000

> <Gold.Chemscore.Hbonds>
donor molecule, donor type, donor heavy atom, donor atom, acceptor molecule, acceptor atom, score
      L1  H     1    25       P1  8028  1.00
      L1  H     4    41       P1  8028  2.00
      P1  H  8011  8017       L1     1  0.18

> <Gold.PLP.Chemscore.Internal.Correction>
0.2021

> <Gold.Rescore>
     Score         DG    S(hbond)    S(metal)    S(lipo)     H(rot)  DE(clash)    DE(int)     intcor
     15.93     -16.89       2.24        0.00     107.14       3.37       0.00       0.95       ----

> <Gold.Chemscore.Fitness>
15.9349

> <Gold.Chemscore.DG>
-16.8874

> <Gold.Chemscore.ZeroCoef>
-5.4800

> <Gold.Chemscore.Hbond>
2.2422

> <Gold.Chemscore.Metal>
0.0000

> <Gold.Chemscore.Lipo>
107.1390

> <Gold.Chemscore.Internal_Hbond>
0.0000

> <Gold.Chemscore.DEClash>
0.0029

> <Gold.Chemscore.DEInternal>
0.9496

> <Gold.Chemscore.Rot>
3.3659

> <Gold.Chemscore.Internal.Correction>
   9.000000E+99

> <Gold.Chemscore.Hbonds>
donor molecule, donor type, donor heavy atom, donor atom, acceptor molecule, acceptor atom, score
      L1  H     1    25       P1  8028  0.92
      L1  H     4    41       P1  8028  0.93
      P1  H  8011  8017       L1     1  0.12

> <Gold.Chemscore.Hbond.Weighted>
-7.4888

> <Gold.Chemscore.Metal.Weighted>
-0.0000

> <Gold.Chemscore.Lipo.Weighted>
-12.5353

> <Gold.Chemscore.Internal_Hbond.Weighted>
0.0000

> <Gold.Chemscore.DEClash.Weighted>
0.0029

> <Gold.Chemscore.DEInternal.Weighted>
0.9496

> <Gold.Chemscore.Rot.Weighted>
8.6167

> <Gold.Chemscore.Internal.Correction.Weighted>
   9.000000E+99

> <Gold.Protein.RotatedTorsions>
[ 6907 6896 6895 6894 ] final   83.86 input  -60.11 | X-H torsion
[ 7974 7965 7964 7962 ] final   33.29 input  175.53 | X-H torsion
[ 8008 7997 7996 7995 ] final   65.98 input   59.86 | X-H torsion
[ 10167 10162 10161 10158 ] final  106.61 input  -65.29 | X-H torsion
[ 10718 10713 10712 10709 ] final  178.92 input   66.30 | X-H torsion
[ 10763 10752 10751 10750 ] final -159.99 input  -60.55 | X-H torsion
[ 11005 11000 10999 10996 ] final -165.90 input  -57.11 | X-H torsion

> <Gold.Protein.ActiveResidues>
 VAL166  LYS551  ARG553  GLY616  TRP617  ASP618  TYR619  PRO620  LYS621  CYS622 
 ASP623  PHE694  ASN695  SER759  ASP760  ASP761  ALA762  ILE779  LEU786  VAL792 
 PHE793  MET794  SER795  GLU796  ALA797  LYS798  CYS799  TRP800  GLU811  SER814 

> <Gold.Protein.RotatedAtoms>
  152.5338  134.2830  159.9014 H   0  0  0  0  0  0  0  0  0  0  0  0  # atno 6907 bound_to 6896
  151.2784  133.4215  159.2633 H   0  0  0  0  0  0  0  0  0  0  0  0  # atno 6908 bound_to 6896
  151.0305  134.9551  159.8165 H   0  0  0  0  0  0  0  0  0  0  0  0  # atno 6909 bound_to 6896
  146.1430  139.6415  142.9150 H   0  0  0  0  0  0  0  0  0  0  0  0  # atno 7974 bound_to 7965
  155.6702  140.3497  155.4815 H   0  0  0  0  0  0  0  0  0  0  0  0  # atno 8008 bound_to 7997
  155.9694  140.1153  157.0848 H   0  0  0  0  0  0  0  0  0  0  0  0  # atno 8009 bound_to 7997
  154.4162  140.1160  156.5272 H   0  0  0  0  0  0  0  0  0  0  0  0  # atno 8010 bound_to 7997
  139.6995  144.7096  151.1210 H   0  0  0  0  0  0  0  0  0  0  0  0  # atno 10167 bound_to 10162
  156.8834  130.9823  151.3059 H   0  0  0  0  0  0  0  0  0  0  0  0  # atno 10718 bound_to 10713
  154.7428  135.3073  154.8697 H   0  0  0  0  0  0  0  0  0  0  0  0  # atno 10763 bound_to 10752
  153.9507  135.6764  153.4748 H   0  0  0  0  0  0  0  0  0  0  0  0  # atno 10764 bound_to 10752
  153.1026  135.4904  154.8819 H   0  0  0  0  0  0  0  0  0  0  0  0  # atno 10765 bound_to 10752
  140.5705  134.5243  157.5161 H   0  0  0  0  0  0  0  0  0  0  0  0  # atno 11005 bound_to 11000
  145.5003  141.0437  143.2544 LP  0  0  0  0  0  0  0  0  0  0  0  0  # atno 17320 bound_to 7965
  144.7814  139.6518  143.7153 LP  0  0  0  0  0  0  0  0  0  0  0  0  # atno 17321 bound_to 7965
  140.7705  143.5445  150.9275 LP  0  0  0  0  0  0  0  0  0  0  0  0  # atno 17342 bound_to 10162
  139.9126  143.6702  152.3112 LP  0  0  0  0  0  0  0  0  0  0  0  0  # atno 17343 bound_to 10162
  157.6127  130.8595  149.8977 LP  0  0  0  0  0  0  0  0  0  0  0  0  # atno 17370 bound_to 10713
  156.0666  130.3691  150.0866 LP  0  0  0  0  0  0  0  0  0  0  0  0  # atno 17371 bound_to 10713
  139.9364  134.7867  156.0792 LP  0  0  0  0  0  0  0  0  0  0  0  0  # atno 17394 bound_to 11000
  141.1059  133.6660  156.2863 LP  0  0  0  0  0  0  0  0  0  0  0  0  # atno 17395 bound_to 11000

$$$$
