AV-unprocessed.smi:233|AV-procd|sdf|1783|dock8
  -GOLD-   2262020333D 1   1.00000     0.00000
 Structure written by MMmdl.
 59 62  0  0  0  0  0  0  0  0  1 V2000
  152.9823  143.3866  160.0943 C   0  0  0  0  0  0  0  0  0  0  0  0
  152.2233  143.4450  158.7729 C   0  0  0  0  0  0  0  0  0  0  0  0
  152.3496  144.4184  158.0307 O   0  0  0  0  0  0  0  0  0  0  0  0
  151.4398  142.3924  158.4934 N   0  0  0  0  0  0  0  0  0  0  0  0
  150.6234  142.2398  157.2928 C   0  0  2  0  0  0  0  0  0  0  0  0
  149.1726  141.9172  157.6969 C   0  0  0  0  0  0  0  0  0  0  0  0
  148.2824  141.6759  156.4675 C   0  0  0  0  0  0  0  0  0  0  0  0
  148.8615  140.5604  155.5732 C   0  0  1  0  0  0  0  0  0  0  0  0
  147.9973  140.2650  154.4243 N   0  0  0  0  0  0  0  0  0  0  0  0
  147.2883  141.3522  153.7501 C   0  0  0  0  0  0  0  0  0  0  0  0
  147.3698  139.0607  154.4607 C   0  0  0  0  0  0  0  0  0  0  0  0
  147.2344  138.4079  155.6465 N   0  0  0  0  0  0  0  0  0  0  0  0
  146.6283  137.2183  155.6976 C   0  0  0  0  0  0  0  0  0  0  0  0
  146.0937  136.5112  154.7007 N   0  0  0  0  0  0  0  0  0  0  0  0
  146.2224  137.1610  153.5087 C   0  0  0  0  0  0  0  0  0  0  0  0
  146.8355  138.4292  153.3018 C   0  0  0  0  0  0  0  0  0  0  0  0
  146.7510  138.7803  151.9593 N   0  0  0  0  0  0  0  0  0  0  0  0
  146.1280  137.7762  151.4052 C   0  0  0  0  0  0  0  0  0  0  0  0
  145.7989  136.7469  152.2580 N   0  0  0  0  0  0  0  0  0  0  0  0
  145.0814  135.5507  151.9278 C   0  0  0  0  0  0  0  0  0  0  0  0
  145.7057  134.1710  152.1485 C   0  0  0  0  0  0  0  0  0  0  0  0
  144.9378  133.6345  150.9192 C   0  0  0  0  0  0  0  0  0  0  0  0
  145.7358  132.7006  149.9944 C   0  0  0  0  0  0  0  0  0  0  0  0
  146.1965  131.5617  150.6925 O   0  0  0  0  0  0  0  0  0  0  0  0
  143.5697  132.9936  151.2277 C   0  0  0  0  0  0  0  0  0  0  0  0
  142.8843  132.6440  150.0421 O   0  0  0  0  0  0  0  0  0  0  0  0
  144.8868  135.1131  150.4740 C   0  0  0  0  0  0  0  0  0  0  0  0
  150.3061  140.8985  155.1528 C   0  0  0  0  0  0  0  0  0  0  0  0
  151.1979  141.1346  156.3824 C   0  0  0  0  0  0  0  0  0  0  0  0
  152.2974  143.1977  160.9215 H   0  0  0  0  0  0  0  0  0  0  0  0
  153.4978  144.3281  160.2871 H   0  0  0  0  0  0  0  0  0  0  0  0
  153.7253  142.5888  160.0704 H   0  0  0  0  0  0  0  0  0  0  0  0
  151.4041  141.6388  159.1646 H   0  0  0  0  0  0  0  0  0  0  0  0
  150.6182  143.1826  156.7419 H   0  0  0  0  0  0  0  0  0  0  0  0
  149.1540  141.0305  158.3325 H   0  0  0  0  0  0  0  0  0  0  0  0
  148.7604  142.7325  158.2924 H   0  0  0  0  0  0  0  0  0  0  0  0
  147.2761  141.4119  156.7944 H   0  0  0  0  0  0  0  0  0  0  0  0
  148.1921  142.6042  155.9023 H   0  0  0  0  0  0  0  0  0  0  0  0
  148.9260  139.6677  156.1945 H   0  0  0  0  0  0  0  0  0  0  0  0
  146.8403  141.0030  152.8190 H   0  0  0  0  0  0  0  0  0  0  0  0
  147.9638  142.1672  153.4951 H   0  0  0  0  0  0  0  0  0  0  0  0
  146.4946  141.7517  154.3818 H   0  0  0  0  0  0  0  0  0  0  0  0
  146.5633  136.7682  156.6771 H   0  0  0  0  0  0  0  0  0  0  0  0
  145.8945  137.7594  150.3506 H   0  0  0  0  0  0  0  0  0  0  0  0
  144.1211  135.6253  152.4404 H   0  0  0  0  0  0  0  0  0  0  0  0
  146.7882  134.1787  152.0075 H   0  0  0  0  0  0  0  0  0  0  0  0
  145.4421  133.7069  153.0993 H   0  0  0  0  0  0  0  0  0  0  0  0
  145.1169  132.3544  149.1661 H   0  0  0  0  0  0  0  0  0  0  0  0
  146.5881  133.2100  149.5446 H   0  0  0  0  0  0  0  0  0  0  0  0
  147.1071  131.4269  150.4780 H   0  0  0  0  0  0  0  0  0  0  0  0
  143.6842  132.0877  151.8232 H   0  0  0  0  0  0  0  0  0  0  0  0
  142.9388  133.6616  151.8145 H   0  0  0  0  0  0  0  0  0  0  0  0
  142.1903  133.2697  149.9010 H   0  0  0  0  0  0  0  0  0  0  0  0
  143.9408  135.4255  150.0305 H   0  0  0  0  0  0  0  0  0  0  0  0
  145.7278  135.3917  149.8363 H   0  0  0  0  0  0  0  0  0  0  0  0
  150.7191  140.0884  154.5510 H   0  0  0  0  0  0  0  0  0  0  0  0
  150.3263  141.7925  154.5294 H   0  0  0  0  0  0  0  0  0  0  0  0
  152.2043  141.4003  156.0564 H   0  0  0  0  0  0  0  0  0  0  0  0
  151.2917  140.2043  156.9444 H   0  0  0  0  0  0  0  0  0  0  0  0
  1  2  1  0  0  0  0
  1 30  1  0  0  0  0
  1 31  1  0  0  0  0
  1 32  1  0  0  0  0
  2  3  2  0  0  0  0
  2  4  1  0  0  0  0
  4  5  1  0  0  0  0
  4 33  1  0  0  0  0
  5 29  1  0  0  0  0
  5  6  1  0  0  0  0
  5 34  1  0  0  0  0
  6  7  1  0  0  0  0
  6 35  1  0  0  0  0
  6 36  1  0  0  0  0
  7  8  1  0  0  0  0
  7 37  1  0  0  0  0
  7 38  1  0  0  0  0
  8  9  1  0  0  0  0
  8 28  1  0  0  0  0
  8 39  1  0  0  0  0
  9 10  1  0  0  0  0
  9 11  1  0  0  0  0
 10 40  1  0  0  0  0
 10 41  1  0  0  0  0
 10 42  1  0  0  0  0
 11 16  1  0  0  0  0
 11 12  2  0  0  0  0
 12 13  1  0  0  0  0
 13 14  2  0  0  0  0
 13 43  1  0  0  0  0
 14 15  1  0  0  0  0
 15 19  1  0  0  0  0
 15 16  2  0  0  0  0
 16 17  1  0  0  0  0
 17 18  2  0  0  0  0
 18 19  1  0  0  0  0
 18 44  1  0  0  0  0
 19 20  1  0  0  0  0
 20 27  1  0  0  0  0
 20 21  1  0  0  0  0
 20 45  1  0  0  0  0
 21 22  1  0  0  0  0
 21 46  1  0  0  0  0
 21 47  1  0  0  0  0
 22 23  1  0  0  0  0
 22 25  1  0  0  0  0
 22 27  1  0  0  0  0
 23 24  1  0  0  0  0
 23 48  1  0  0  0  0
 23 49  1  0  0  0  0
 24 50  1  0  0  0  0
 25 26  1  0  0  0  0
 25 51  1  0  0  0  0
 25 52  1  0  0  0  0
 26 53  1  0  0  0  0
 27 54  1  0  0  0  0
 27 55  1  0  0  0  0
 28 29  1  0  0  0  0
 28 56  1  0  0  0  0
 28 57  1  0  0  0  0
 29 58  1  0  0  0  0
 29 59  1  0  0  0  0
M  END
> <s_m_source_file>
AV-unprocessed.smi

> <i_m_source_file_index>
233

> <i_lp_mmshare_version>
43012

> <i_f3d_flags>
0

> <s_epik_input>
W0NIM11DKD1PKVtOSF1bQ0BASF0xW0NIMl1bQ0gyXVtDQEhdKFtDSDJdW0NIMl0xKU4oW0NIM10pYyhuW2NIXW4yKWMoYzIzKW5bY0hdbjNbQ0hdKFtDSDJdNClbQ0gyXUM0KFtDSDJdW09IXSlbQ0gyXVtPSF0=

> <s_epik_cmdline>
J2VwaWtfcHl0aG9uJywgJy1waCcsICc3LjAnLCAnLXRuJywgJzgnLCAnLW1hJywgJzIwMCcsICctbWV0YWxfYmluZGluZycsICctaW1hZScsICc8aW5maWxlLm1hZT4nLCAnLW9tYWUnLCAnPG91dGZpbGUubWFlPic=

> <r_lp_tautomer_probability>
1

> <r_epik_Ionization_Penalty>
0.0029036

> <r_epik_Ionization_Penalty_Charging>
0

> <r_epik_Ionization_Penalty_Neutral>
0.0029036

> <r_epik_State_Penalty>
0.00183591

> <r_epik_Charging_Adjusted_Penalty>
0.00183591

> <i_epik_Tot_Q>
0

> <i_epik_Tot_abs_Q>
0

> <r_epik_Metal_State_Penalty>
-0

> <b_epik_Metal_Only>
0

> <s_lp_Force_Field>
OPLS_2005

> <r_lp_Energy>
37.3152

> <b_lp_Chiralities_Consistent>
1

> <s_lp_Variant>
AV-unprocessed.smi:233-1

> <Gold.Version>
5.8.1

> <Gold.Id.Protein>
6NUR|6NUR_protein|mol2

> <Gold.PLP.Fitness>
53.1670

> <Gold.PLP.PLP>
-46.3304

> <Gold.PLP.part.hbond>
-2.7284

> <Gold.PLP.part.metal>
0.0000

> <Gold.PLP.part.buried>
-4.4705

> <Gold.PLP.part.nonpolar>
-39.8148

> <Gold.PLP.part.repulsive>
0.5200

> <Gold.PLP.ligand.clash>
0.0000

> <Gold.PLP.ligand.torsion>
1.4360

> <Gold.PLP.Chemscore.Hbond>
2.0000

> <Gold.PLP.Chemscore.CHOScore>
0.7390

> <Gold.PLP.Chemscore.Metal>
0.0000

> <Gold.Chemscore.Hbonds>
donor molecule, donor type, donor heavy atom, donor atom, acceptor molecule, acceptor atom, score
      L1  H    24    50       P1 10747  1.00
      L1  H    26    53       P1 10186  1.00
      L1  C    18    44       P1 10171  0.72

> <Gold.PLP.Chemscore.Internal.Correction>
1.4915

> <Gold.Rescore>
     Score         DG    S(hbond)    S(metal)    S(lipo)     H(rot)  DE(clash)    DE(int)     intcor
     11.79     -13.44       1.99        0.00      89.28       3.57       0.10       1.55       ----

> <Gold.Chemscore.Fitness>
11.7857

> <Gold.Chemscore.DG>
-13.4408

> <Gold.Chemscore.ZeroCoef>
-5.4800

> <Gold.Chemscore.Hbond>
1.9937

> <Gold.Chemscore.Metal>
0.0000

> <Gold.Chemscore.Lipo>
89.2795

> <Gold.Chemscore.Internal_Hbond>
0.0000

> <Gold.Chemscore.DEClash>
0.1020

> <Gold.Chemscore.DEInternal>
1.5531

> <Gold.Chemscore.Rot>
3.5719

> <Gold.Chemscore.Internal.Correction>
   9.000000E+99

> <Gold.Chemscore.Hbonds>
donor molecule, donor type, donor heavy atom, donor atom, acceptor molecule, acceptor atom, score
      L1  H    24    50       P1 10747  0.99
      L1  H    26    53       P1 10186  1.00

> <Gold.Chemscore.Hbond.Weighted>
-6.6591

> <Gold.Chemscore.Metal.Weighted>
-0.0000

> <Gold.Chemscore.Lipo.Weighted>
-10.4457

> <Gold.Chemscore.Internal_Hbond.Weighted>
0.0000

> <Gold.Chemscore.DEClash.Weighted>
0.1020

> <Gold.Chemscore.DEInternal.Weighted>
1.5531

> <Gold.Chemscore.Rot.Weighted>
9.1440

> <Gold.Chemscore.Internal.Correction.Weighted>
   9.000000E+99

> <Gold.Protein.RotatedTorsions>
[ 6907 6896 6895 6894 ] final -102.27 input  -60.11 | X-H torsion
[ 7974 7965 7964 7962 ] final   46.95 input  175.53 | X-H torsion
[ 8008 7997 7996 7995 ] final  135.35 input   59.86 | X-H torsion
[ 10167 10162 10161 10158 ] final  100.54 input  -65.29 | X-H torsion
[ 10718 10713 10712 10709 ] final  -39.13 input   66.30 | X-H torsion
[ 10763 10752 10751 10750 ] final  161.51 input  -60.55 | X-H torsion
[ 11005 11000 10999 10996 ] final -104.26 input  -57.11 | X-H torsion

> <Gold.Protein.ActiveResidues>
 VAL166  LYS551  ARG553  GLY616  TRP617  ASP618  TYR619  PRO620  LYS621  CYS622 
 ASP623  PHE694  ASN695  SER759  ASP760  ASP761  ALA762  ILE779  LEU786  VAL792 
 PHE793  MET794  SER795  GLU796  ALA797  LYS798  CYS799  TRP800  GLU811  SER814 

> <Gold.Protein.RotatedAtoms>
  150.7189  134.0606  159.3829 H   0  0  0  0  0  0  0  0  0  0  0  0  # atno 6907 bound_to 6896
  151.8586  135.0530  160.0476 H   0  0  0  0  0  0  0  0  0  0  0  0  # atno 6908 bound_to 6896
  152.2735  133.5368  159.5490 H   0  0  0  0  0  0  0  0  0  0  0  0  # atno 6909 bound_to 6896
  146.0343  139.4801  142.9818 H   0  0  0  0  0  0  0  0  0  0  0  0  # atno 7974 bound_to 7965
  156.3002  140.2473  156.3568 H   0  0  0  0  0  0  0  0  0  0  0  0  # atno 8008 bound_to 7997
  154.8915  140.0409  157.1860 H   0  0  0  0  0  0  0  0  0  0  0  0  # atno 8009 bound_to 7997
  154.8593  140.2918  155.5553 H   0  0  0  0  0  0  0  0  0  0  0  0  # atno 8010 bound_to 7997
  139.7518  144.6982  151.0421 H   0  0  0  0  0  0  0  0  0  0  0  0  # atno 10167 bound_to 10162
  156.2959  130.4234  149.8191 H   0  0  0  0  0  0  0  0  0  0  0  0  # atno 10718 bound_to 10713
  154.2641  135.2767  155.2766 H   0  0  0  0  0  0  0  0  0  0  0  0  # atno 10763 bound_to 10752
  154.5359  135.5716  153.6801 H   0  0  0  0  0  0  0  0  0  0  0  0  # atno 10764 bound_to 10752
  152.9957  135.6239  154.2792 H   0  0  0  0  0  0  0  0  0  0  0  0  # atno 10765 bound_to 10752
  141.1108  133.8708  157.1589 H   0  0  0  0  0  0  0  0  0  0  0  0  # atno 11005 bound_to 11000
  145.6990  141.0142  143.1514 LP  0  0  0  0  0  0  0  0  0  0  0  0  # atno 17320 bound_to 7965
  144.7044  139.8622  143.7434 LP  0  0  0  0  0  0  0  0  0  0  0  0  # atno 17321 bound_to 7965
  140.7798  143.4800  151.0031 LP  0  0  0  0  0  0  0  0  0  0  0  0  # atno 17342 bound_to 10162
  139.8488  143.7466  152.3178 LP  0  0  0  0  0  0  0  0  0  0  0  0  # atno 17343 bound_to 10162
  156.5587  130.8374  151.3322 LP  0  0  0  0  0  0  0  0  0  0  0  0  # atno 17370 bound_to 10713
  157.7355  130.9763  150.2086 LP  0  0  0  0  0  0  0  0  0  0  0  0  # atno 17371 bound_to 10713
  140.0002  135.0031  157.0172 LP  0  0  0  0  0  0  0  0  0  0  0  0  # atno 17394 bound_to 11000
  140.4779  134.1320  155.7212 LP  0  0  0  0  0  0  0  0  0  0  0  0  # atno 17395 bound_to 11000

$$$$
