AV-unprocessed.smi:111|AV-procd|sdf|1081|dock7
  -GOLD-   2262018173D 1   1.00000     0.00000
 Structure written by MMmdl.
 46 48  0  0  0  0  0  0  0  0  1 V2000
  149.1530  139.4125  155.9856 O   0  0  0  0  0  0  0  0  0  0  0  0
  148.9581  138.6922  156.9660 C   0  0  0  0  0  0  0  0  0  0  0  0
  147.6254  138.3313  157.4373 C   0  0  0  0  0  0  0  0  0  0  0  0
  146.5439  138.7685  156.7699 F   0  0  0  0  0  0  0  0  0  0  0  0
  147.4565  137.5685  158.5386 C   0  0  0  0  0  0  0  0  0  0  0  0
  148.5135  137.0775  159.2866 N   0  0  0  0  0  0  0  0  0  0  0  0
  148.2853  136.2354  160.5232 C   0  0  2  0  0  0  0  0  0  0  0  0
  147.4700  134.9869  160.1725 C   0  0  0  0  0  0  0  0  0  0  0  0
  146.0553  135.4675  160.4106 C   0  0  0  0  0  0  0  0  0  0  0  0
  146.2422  136.3983  161.6041 C   0  0  0  0  0  0  0  0  0  0  0  0
  147.5395  136.9711  161.4501 O   0  0  0  0  0  0  0  0  0  0  0  0
  149.8392  137.3536  158.8889 C   0  0  0  0  0  0  0  0  0  0  0  0
  150.7954  136.9051  159.5259 O   0  0  0  0  0  0  0  0  0  0  0  0
  150.0205  138.1606  157.7405 N   0  0  0  0  0  0  0  0  0  0  0  0
  151.3885  138.5032  157.3761 C   0  0  0  0  0  0  0  0  0  0  0  0
  152.1649  139.2465  158.4874 C   0  0  1  0  0  0  0  0  0  0  0  0
  153.5265  139.2992  158.1153 O   0  0  0  0  0  0  0  0  0  0  0  0
  151.6639  140.6815  158.7634 C   0  0  0  0  0  0  0  0  0  0  0  0
  152.5754  141.4935  159.7018 C   0  0  0  0  0  0  0  0  0  0  0  0
  152.1185  142.9343  159.8647 C   0  0  0  0  0  0  0  0  0  0  0  0
  151.8354  143.4460  161.1493 C   0  0  0  0  0  0  0  0  0  0  0  0
  151.4418  144.7889  161.3066 C   0  0  0  0  0  0  0  0  0  0  0  0
  151.3240  145.6247  160.1796 C   0  0  0  0  0  0  0  0  0  0  0  0
  151.6003  145.1171  158.8954 C   0  0  0  0  0  0  0  0  0  0  0  0
  151.9971  143.7748  158.7378 C   0  0  0  0  0  0  0  0  0  0  0  0
  146.4442  137.3366  158.8334 H   0  0  0  0  0  0  0  0  0  0  0  0
  149.2754  136.0231  160.9304 H   0  0  0  0  0  0  0  0  0  0  0  0
  147.6578  134.6357  159.1571 H   0  0  0  0  0  0  0  0  0  0  0  0
  147.7284  134.1938  160.8749 H   0  0  0  0  0  0  0  0  0  0  0  0
  145.6965  136.0259  159.5452 H   0  0  0  0  0  0  0  0  0  0  0  0
  145.3541  134.6564  160.6080 H   0  0  0  0  0  0  0  0  0  0  0  0
  145.4707  137.1663  161.6606 H   0  0  0  0  0  0  0  0  0  0  0  0
  146.2231  135.8289  162.5340 H   0  0  0  0  0  0  0  0  0  0  0  0
  151.8759  137.5607  157.1181 H   0  0  0  0  0  0  0  0  0  0  0  0
  151.3783  139.0738  156.4472 H   0  0  0  0  0  0  0  0  0  0  0  0
  152.1122  138.6563  159.4012 H   0  0  0  0  0  0  0  0  0  0  0  0
  153.8867  138.4273  158.1702 H   0  0  0  0  0  0  0  0  0  0  0  0
  151.5342  141.2131  157.8201 H   0  0  0  0  0  0  0  0  0  0  0  0
  150.6754  140.6499  159.2184 H   0  0  0  0  0  0  0  0  0  0  0  0
  152.6331  141.0095  160.6775 H   0  0  0  0  0  0  0  0  0  0  0  0
  153.5915  141.5007  159.3061 H   0  0  0  0  0  0  0  0  0  0  0  0
  151.9276  142.8118  162.0186 H   0  0  0  0  0  0  0  0  0  0  0  0
  151.2317  145.1780  162.2918 H   0  0  0  0  0  0  0  0  0  0  0  0
  151.0223  146.6548  160.2996 H   0  0  0  0  0  0  0  0  0  0  0  0
  151.5112  145.7587  158.0311 H   0  0  0  0  0  0  0  0  0  0  0  0
  152.2165  143.3962  157.7503 H   0  0  0  0  0  0  0  0  0  0  0  0
  1  2  2  0  0  0  0
  2 14  1  0  0  0  0
  2  3  1  0  0  0  0
  3  4  1  0  0  0  0
  3  5  2  0  0  0  0
  5  6  1  0  0  0  0
  5 26  1  0  0  0  0
  6  7  1  0  0  0  0
  6 12  1  0  0  0  0
  7 11  1  0  0  0  0
  7  8  1  0  0  0  0
  7 27  1  0  0  0  0
  8  9  1  0  0  0  0
  8 28  1  0  0  0  0
  8 29  1  0  0  0  0
  9 10  1  0  0  0  0
  9 30  1  0  0  0  0
  9 31  1  0  0  0  0
 10 11  1  0  0  0  0
 10 32  1  0  0  0  0
 10 33  1  0  0  0  0
 12 13  2  0  0  0  0
 12 14  1  0  0  0  0
 14 15  1  0  0  0  0
 15 16  1  0  0  0  0
 15 34  1  0  0  0  0
 15 35  1  0  0  0  0
 16 17  1  0  0  0  0
 16 18  1  0  0  0  0
 16 36  1  0  0  0  0
 17 37  1  0  0  0  0
 18 19  1  0  0  0  0
 18 38  1  0  0  0  0
 18 39  1  0  0  0  0
 19 20  1  0  0  0  0
 19 40  1  0  0  0  0
 19 41  1  0  0  0  0
 20 25  1  0  0  0  0
 20 21  2  0  0  0  0
 21 22  1  0  0  0  0
 21 42  1  0  0  0  0
 22 23  2  0  0  0  0
 22 43  1  0  0  0  0
 23 24  1  0  0  0  0
 23 44  1  0  0  0  0
 24 25  2  0  0  0  0
 24 45  1  0  0  0  0
 25 46  1  0  0  0  0
M  END
> <s_m_source_file>
AV-unprocessed.smi

> <i_m_source_file_index>
111

> <i_lp_mmshare_version>
43012

> <i_f3d_flags>
0

> <s_epik_input>
TzFbQ0gyXVtDSDJdW0NIMl1bQ0BIXTFuKFtjSF1jKEYpYzI9TyljKD1PKW4yW0NIMl1bQ0BIXShbT0hdKVtDSDJdW0NIMl1jM1tjSF1bY0hdW2NIXVtjSF1bY0hdMw==

> <s_epik_cmdline>
J2VwaWtfcHl0aG9uJywgJy1waCcsICc3LjAnLCAnLXRuJywgJzgnLCAnLW1hJywgJzIwMCcsICctbWV0YWxfYmluZGluZycsICctaW1hZScsICc8aW5maWxlLm1hZT4nLCAnLW9tYWUnLCAnPG91dGZpbGUubWFlPic=

> <r_lp_tautomer_probability>
1

> <r_epik_Ionization_Penalty>
1.88248e-07

> <r_epik_Ionization_Penalty_Charging>
4.03974e-08

> <r_epik_Ionization_Penalty_Neutral>
1.47851e-07

> <r_epik_State_Penalty>
-0

> <r_epik_Charging_Adjusted_Penalty>
4.03974e-08

> <i_epik_Tot_Q>
0

> <i_epik_Tot_abs_Q>
0

> <r_epik_Metal_State_Penalty>
-0

> <b_epik_Metal_Only>
0

> <s_epik_Chemistry_Notes>
This compound contains an acetal/aminal-like group ( X-CH(R)-Y where X, Y are N, S, or O) that may be acid/base labile, releasing an aldehyde.

> <s_lp_Force_Field>
OPLS_2005

> <r_lp_Energy>
35.2037

> <b_lp_Chiralities_Consistent>
1

> <s_lp_Variant>
AV-unprocessed.smi:111-3

> <Gold.Version>
5.8.1

> <Gold.Id.Protein>
6NUR|6NUR_protein|mol2

> <Gold.PLP.Fitness>
57.9299

> <Gold.PLP.PLP>
-46.7396

> <Gold.PLP.part.hbond>
-4.0000

> <Gold.PLP.part.metal>
0.0000

> <Gold.PLP.part.buried>
-5.6548

> <Gold.PLP.part.nonpolar>
-37.5995

> <Gold.PLP.part.repulsive>
0.0069

> <Gold.PLP.ligand.clash>
0.0000

> <Gold.PLP.ligand.torsion>
0.1162

> <Gold.PLP.Chemscore.Hbond>
3.7835

> <Gold.PLP.Chemscore.CHOScore>
0.0000

> <Gold.PLP.Chemscore.Metal>
0.0000

> <Gold.Chemscore.Hbonds>
donor molecule, donor type, donor heavy atom, donor atom, acceptor molecule, acceptor atom, score
      P1  H  6896  6908       L1    13  1.00
      P1  H  6931  6943       L1    11  0.75
      P1  H  6934  6947       L1    11  0.64
      P1  H  7997  8009       L1    17  1.00

> <Gold.PLP.Chemscore.Internal.Correction>
0.0722

> <Gold.Rescore>
     Score         DG    S(hbond)    S(metal)    S(lipo)     H(rot)  DE(clash)    DE(int)     intcor
     20.53     -21.75       2.87        0.00     115.62       2.67       0.03       1.19       ----

> <Gold.Chemscore.Fitness>
20.5263

> <Gold.Chemscore.DG>
-21.7491

> <Gold.Chemscore.ZeroCoef>
-5.4800

> <Gold.Chemscore.Hbond>
2.8706

> <Gold.Chemscore.Metal>
0.0000

> <Gold.Chemscore.Lipo>
115.6211

> <Gold.Chemscore.Internal_Hbond>
0.0000

> <Gold.Chemscore.DEClash>
0.0293

> <Gold.Chemscore.DEInternal>
1.1936

> <Gold.Chemscore.Rot>
2.6743

> <Gold.Chemscore.Internal.Correction>
   9.000000E+99

> <Gold.Chemscore.Hbonds>
donor molecule, donor type, donor heavy atom, donor atom, acceptor molecule, acceptor atom, score
      P1  H  6896  6908       L1    13  0.97
      P1  H  6931  6943       L1    11  0.09
      P1  H  6934  6947       L1    11  0.29
      P1  H  7997  8009       L1    17  0.43

> <Gold.Chemscore.Hbond.Weighted>
-9.5877

> <Gold.Chemscore.Metal.Weighted>
-0.0000

> <Gold.Chemscore.Lipo.Weighted>
-13.5277

> <Gold.Chemscore.Internal_Hbond.Weighted>
0.0000

> <Gold.Chemscore.DEClash.Weighted>
0.0293

> <Gold.Chemscore.DEInternal.Weighted>
1.1936

> <Gold.Chemscore.Rot.Weighted>
6.8463

> <Gold.Chemscore.Internal.Correction.Weighted>
   9.000000E+99

> <Gold.Protein.RotatedTorsions>
[ 6907 6896 6895 6894 ] final -156.95 input  -60.11 | X-H torsion
[ 7974 7965 7964 7962 ] final  122.43 input  175.53 | X-H torsion
[ 8008 7997 7996 7995 ] final  170.90 input   59.86 | X-H torsion
[ 10167 10162 10161 10158 ] final -171.51 input  -65.29 | X-H torsion
[ 10718 10713 10712 10709 ] final  128.10 input   66.30 | X-H torsion
[ 10763 10752 10751 10750 ] final   47.85 input  -60.55 | X-H torsion
[ 11005 11000 10999 10996 ] final  -37.98 input  -57.11 | X-H torsion

> <Gold.Protein.ActiveResidues>
 VAL166  LYS551  ARG553  GLY616  TRP617  ASP618  TYR619  PRO620  LYS621  CYS622 
 ASP623  PHE694  ASN695  SER759  ASP760  ASP761  ALA762  ILE779  LEU786  VAL792 
 PHE793  MET794  SER795  GLU796  ALA797  LYS798  CYS799  TRP800  GLU811  SER814 

> <Gold.Protein.RotatedAtoms>
  151.2954  133.4146  159.2635 H   0  0  0  0  0  0  0  0  0  0  0  0  # atno 6907 bound_to 6896
  151.0241  134.9491  159.8086 H   0  0  0  0  0  0  0  0  0  0  0  0  # atno 6908 bound_to 6896
  152.5331  134.2917  159.9098 H   0  0  0  0  0  0  0  0  0  0  0  0  # atno 6909 bound_to 6896
  145.1077  139.3474  143.4779 H   0  0  0  0  0  0  0  0  0  0  0  0  # atno 7974 bound_to 7965
  156.1322  140.1526  156.9048 H   0  0  0  0  0  0  0  0  0  0  0  0  # atno 8008 bound_to 7997
  154.4918  140.0849  156.7651 H   0  0  0  0  0  0  0  0  0  0  0  0  # atno 8009 bound_to 7997
  155.4234  140.3424  155.4275 H   0  0  0  0  0  0  0  0  0  0  0  0  # atno 8010 bound_to 7997
  139.5798  144.1449  152.1500 H   0  0  0  0  0  0  0  0  0  0  0  0  # atno 10167 bound_to 10162
  157.5274  131.1098  150.9061 H   0  0  0  0  0  0  0  0  0  0  0  0  # atno 10718 bound_to 10713
  152.9796  135.5963  154.3830 H   0  0  0  0  0  0  0  0  0  0  0  0  # atno 10763 bound_to 10752
  154.3493  135.2767  155.2382 H   0  0  0  0  0  0  0  0  0  0  0  0  # atno 10764 bound_to 10752
  154.4429  135.6009  153.6196 H   0  0  0  0  0  0  0  0  0  0  0  0  # atno 10765 bound_to 10752
  140.9993  133.6963  156.1993 H   0  0  0  0  0  0  0  0  0  0  0  0  # atno 11005 bound_to 11000
  146.3527  140.0982  142.8609 LP  0  0  0  0  0  0  0  0  0  0  0  0  # atno 17320 bound_to 7965
  145.0883  140.9267  143.4784 LP  0  0  0  0  0  0  0  0  0  0  0  0  # atno 17321 bound_to 7965
  140.1000  144.5548  150.6995 LP  0  0  0  0  0  0  0  0  0  0  0  0  # atno 17342 bound_to 10162
  140.7077  143.2481  151.4676 LP  0  0  0  0  0  0  0  0  0  0  0  0  # atno 17343 bound_to 10162
  156.9653  130.5470  149.5288 LP  0  0  0  0  0  0  0  0  0  0  0  0  # atno 17370 bound_to 10713
  156.0397  130.5481  150.8741 LP  0  0  0  0  0  0  0  0  0  0  0  0  # atno 17371 bound_to 10713
  140.6914  134.4661  157.5588 LP  0  0  0  0  0  0  0  0  0  0  0  0  # atno 17394 bound_to 11000
  139.9031  134.8511  156.1816 LP  0  0  0  0  0  0  0  0  0  0  0  0  # atno 17395 bound_to 11000

$$$$
