AV-unprocessed.smi:1805|AV-procd|sdf|7298|dock10
  -GOLD-   22720 8553D 1   1.00000     0.00000
 Structure written by MMmdl.
 29 30  0  0  0  0  0  0  0  0  1 V2000
  153.0701  139.3398  157.6470 O   0  0  0  0  0  0  0  0  0  0  0  0
  152.1502  140.1389  157.4710 C   0  0  0  0  0  0  0  0  0  0  0  0
  151.9870  141.2560  158.1941 N   0  0  0  0  0  0  0  0  0  0  0  0
  152.8534  141.6930  159.2844 C   0  0  0  0  0  0  0  0  0  0  0  0
  152.4329  143.0669  159.8331 C   0  0  1  0  0  0  0  0  0  0  0  0
  152.5189  144.2209  158.8331 C   0  0  0  0  0  0  0  0  0  0  0  0
  151.5195  145.1963  159.4106 C   0  0  0  0  0  0  0  0  0  0  0  0
  150.4193  144.2584  159.8985 C   0  0  0  0  0  0  0  0  0  0  0  0
  151.0675  143.0356  160.2407 O   0  0  0  0  0  0  0  0  0  0  0  0
  151.1836  140.0116  156.5474 N   0  0  0  0  0  0  0  0  0  0  0  0
  151.0306  138.9683  155.5994 C   0  0  0  0  0  0  0  0  0  0  0  0
  151.8909  137.8424  155.4892 C   0  0  0  0  0  0  0  0  0  0  0  0
  151.5028  137.0305  154.5160 N   0  0  0  0  0  0  0  0  0  0  0  0
  150.4016  137.6265  154.0056 N   0  0  0  0  0  0  0  0  0  0  0  0
  150.0764  138.8083  154.6339 C   0  0  0  0  0  0  0  0  0  0  0  0
  149.8877  137.2183  153.2377 H   0  0  0  0  0  0  0  0  0  0  0  0
  151.2003  141.8501  157.9775 H   0  0  0  0  0  0  0  0  0  0  0  0
  152.8827  140.9534  160.0862 H   0  0  0  0  0  0  0  0  0  0  0  0
  153.8689  141.7559  158.8929 H   0  0  0  0  0  0  0  0  0  0  0  0
  153.0273  143.3129  160.7147 H   0  0  0  0  0  0  0  0  0  0  0  0
  153.5228  144.6373  158.7457 H   0  0  0  0  0  0  0  0  0  0  0  0
  152.1938  143.8985  157.8428 H   0  0  0  0  0  0  0  0  0  0  0  0
  151.9609  145.7297  160.2535 H   0  0  0  0  0  0  0  0  0  0  0  0
  151.1655  145.9304  158.6866 H   0  0  0  0  0  0  0  0  0  0  0  0
  149.8692  144.6688  160.7455 H   0  0  0  0  0  0  0  0  0  0  0  0
  149.7070  144.0582  159.0970 H   0  0  0  0  0  0  0  0  0  0  0  0
  150.4831  140.7379  156.5183 H   0  0  0  0  0  0  0  0  0  0  0  0
  152.7664  137.5922  156.0703 H   0  0  0  0  0  0  0  0  0  0  0  0
  149.2226  139.4020  154.3428 H   0  0  0  0  0  0  0  0  0  0  0  0
  1  2  2  0  0  0  0
  2  3  1  0  0  0  0
  2 10  1  0  0  0  0
  3  4  1  0  0  0  0
  3 17  1  0  0  0  0
  4  5  1  0  0  0  0
  4 18  1  0  0  0  0
  4 19  1  0  0  0  0
  5  9  1  0  0  0  0
  5  6  1  0  0  0  0
  5 20  1  0  0  0  0
  6  7  1  0  0  0  0
  6 21  1  0  0  0  0
  6 22  1  0  0  0  0
  7  8  1  0  0  0  0
  7 23  1  0  0  0  0
  7 24  1  0  0  0  0
  8  9  1  0  0  0  0
  8 25  1  0  0  0  0
  8 26  1  0  0  0  0
 10 11  1  0  0  0  0
 10 27  1  0  0  0  0
 11 15  2  0  0  0  0
 11 12  1  0  0  0  0
 12 13  2  0  0  0  0
 12 28  1  0  0  0  0
 13 14  1  0  0  0  0
 14 16  1  0  0  0  0
 14 15  1  0  0  0  0
 15 29  1  0  0  0  0
M  END
> <s_m_source_file>
AV-unprocessed.smi

> <i_m_source_file_index>
1805

> <i_lp_mmshare_version>
43012

> <i_f3d_flags>
0

> <s_epik_input>
W2NIXTFbbkhdbltjSF1jMVtOSF1DKD1PKVtOSF1bQ0gyXVtDQEBIXTJbQ0gyXVtDSDJdW0NIMl1PMg==

> <s_epik_cmdline>
J2VwaWtfcHl0aG9uJywgJy1waCcsICc3LjAnLCAnLXRuJywgJzgnLCAnLW1hJywgJzIwMCcsICctbWV0YWxfYmluZGluZycsICctaW1hZScsICc8aW5maWxlLm1hZT4nLCAnLW9tYWUnLCAnPG91dGZpbGUubWFlPic=

> <r_lp_tautomer_probability>
1

> <r_epik_Ionization_Penalty>
4.81496e-05

> <r_epik_Ionization_Penalty_Charging>
0

> <r_epik_Ionization_Penalty_Neutral>
4.81496e-05

> <r_epik_State_Penalty>
-0

> <r_epik_Charging_Adjusted_Penalty>
0

> <i_epik_Tot_Q>
0

> <i_epik_Tot_abs_Q>
0

> <r_epik_Metal_State_Penalty>
-0

> <b_epik_Metal_Only>
0

> <s_lp_Force_Field>
OPLS_2005

> <r_lp_Energy>
19.2876

> <b_lp_Chiralities_Consistent>
1

> <s_lp_Variant>
AV-unprocessed.smi:1805-2

> <Gold.Version>
5.8.1

> <Gold.Id.Protein>
6NUR|6NUR_protein|mol2

> <Gold.PLP.Fitness>
42.7531

> <Gold.PLP.PLP>
-33.9908

> <Gold.PLP.part.hbond>
-4.7523

> <Gold.PLP.part.metal>
0.0000

> <Gold.PLP.part.buried>
-5.3199

> <Gold.PLP.part.nonpolar>
-25.3485

> <Gold.PLP.part.repulsive>
0.5270

> <Gold.PLP.ligand.clash>
0.0000

> <Gold.PLP.ligand.torsion>
0.0144

> <Gold.PLP.Chemscore.Hbond>
2.8500

> <Gold.PLP.Chemscore.CHOScore>
0.0801

> <Gold.PLP.Chemscore.Metal>
0.0000

> <Gold.Chemscore.Hbonds>
donor molecule, donor type, donor heavy atom, donor atom, acceptor molecule, acceptor atom, score
      L1  H    14    16       P1  7948  1.00
      P1  H  7997  8010       L1     1  1.00
      P1  H 10752 10764       L1    13  1.00

> <Gold.PLP.Chemscore.Internal.Correction>
0.0008

> <Gold.Rescore>
     Score         DG    S(hbond)    S(metal)    S(lipo)     H(rot)  DE(clash)    DE(int)     intcor
     17.32     -18.66       2.29        0.00      76.41       1.33       0.03       1.31       ----

> <Gold.Chemscore.Fitness>
17.3196

> <Gold.Chemscore.DG>
-18.6593

> <Gold.Chemscore.ZeroCoef>
-5.4800

> <Gold.Chemscore.Hbond>
2.2892

> <Gold.Chemscore.Metal>
0.0000

> <Gold.Chemscore.Lipo>
76.4070

> <Gold.Chemscore.Internal_Hbond>
0.0000

> <Gold.Chemscore.DEClash>
0.0344

> <Gold.Chemscore.DEInternal>
1.3053

> <Gold.Chemscore.Rot>
1.3306

> <Gold.Chemscore.Internal.Correction>
   9.000000E+99

> <Gold.Chemscore.Hbonds>
donor molecule, donor type, donor heavy atom, donor atom, acceptor molecule, acceptor atom, score
      L1  H    14    16       P1  7948  0.35
      P1  H  7997  8010       L1     1  0.77
      P1  H 10752 10764       L1    13  0.65

> <Gold.Chemscore.Hbond.Weighted>
-7.6460

> <Gold.Chemscore.Metal.Weighted>
-0.0000

> <Gold.Chemscore.Lipo.Weighted>
-8.9396

> <Gold.Chemscore.Internal_Hbond.Weighted>
0.0000

> <Gold.Chemscore.DEClash.Weighted>
0.0344

> <Gold.Chemscore.DEInternal.Weighted>
1.3053

> <Gold.Chemscore.Rot.Weighted>
3.4063

> <Gold.Chemscore.Internal.Correction.Weighted>
   9.000000E+99

> <Gold.Protein.RotatedTorsions>
[ 6907 6896 6895 6894 ] final -111.46 input  -60.11 | X-H torsion
[ 7974 7965 7964 7962 ] final  125.74 input  175.53 | X-H torsion
[ 8008 7997 7996 7995 ] final   28.68 input   59.86 | X-H torsion
[ 10167 10162 10161 10158 ] final   77.20 input  -65.29 | X-H torsion
[ 10718 10713 10712 10709 ] final -136.65 input   66.30 | X-H torsion
[ 10763 10752 10751 10750 ] final  -85.48 input  -60.55 | X-H torsion
[ 11005 11000 10999 10996 ] final  -41.47 input  -57.11 | X-H torsion

> <Gold.Protein.ActiveResidues>
 VAL166  LYS551  ARG553  GLY616  TRP617  ASP618  TYR619  PRO620  LYS621  CYS622 
 ASP623  PHE694  ASN695  SER759  ASP760  ASP761  ALA762  ILE779  LEU786  VAL792 
 PHE793  MET794  SER795  GLU796  ALA797  LYS798  CYS799  TRP800  GLU811  SER814 

> <Gold.Protein.RotatedAtoms>
  150.7692  133.9232  159.3404 H   0  0  0  0  0  0  0  0  0  0  0  0  # atno 6907 bound_to 6896
  151.7122  135.0908  160.0279 H   0  0  0  0  0  0  0  0  0  0  0  0  # atno 6908 bound_to 6896
  152.3702  133.6371  159.6117 H   0  0  0  0  0  0  0  0  0  0  0  0  # atno 6909 bound_to 6896
  145.0695  139.3741  143.4965 H   0  0  0  0  0  0  0  0  0  0  0  0  # atno 7974 bound_to 7965
  155.0625  140.3191  155.4656 H   0  0  0  0  0  0  0  0  0  0  0  0  # atno 8008 bound_to 7997
  156.2809  140.2126  156.5697 H   0  0  0  0  0  0  0  0  0  0  0  0  # atno 8009 bound_to 7997
  154.7120  140.0497  157.0547 H   0  0  0  0  0  0  0  0  0  0  0  0  # atno 8010 bound_to 7997
  139.9841  144.5805  150.7875 H   0  0  0  0  0  0  0  0  0  0  0  0  # atno 10167 bound_to 10162
  156.2794  130.7311  151.1304 H   0  0  0  0  0  0  0  0  0  0  0  0  # atno 10718 bound_to 10713
  154.6115  135.5483  153.7478 H   0  0  0  0  0  0  0  0  0  0  0  0  # atno 10763 bound_to 10752
  153.0197  135.6391  154.1571 H   0  0  0  0  0  0  0  0  0  0  0  0  # atno 10764 bound_to 10752
  154.1508  135.2903  155.3116 H   0  0  0  0  0  0  0  0  0  0  0  0  # atno 10765 bound_to 10752
  141.0248  133.6846  156.2462 H   0  0  0  0  0  0  0  0  0  0  0  0  # atno 11005 bound_to 11000
  146.3528  140.0433  142.8641 LP  0  0  0  0  0  0  0  0  0  0  0  0  # atno 17320 bound_to 7965
  145.1310  140.9517  143.4545 LP  0  0  0  0  0  0  0  0  0  0  0  0  # atno 17321 bound_to 7965
  140.7478  143.2913  151.3324 LP  0  0  0  0  0  0  0  0  0  0  0  0  # atno 17342 bound_to 10162
  139.6388  144.0579  152.2538 LP  0  0  0  0  0  0  0  0  0  0  0  0  # atno 17343 bound_to 10162
  157.7309  131.0612  150.5702 LP  0  0  0  0  0  0  0  0  0  0  0  0  # atno 17370 bound_to 10713
  156.5806  130.4303  149.5979 LP  0  0  0  0  0  0  0  0  0  0  0  0  # atno 17371 bound_to 10713
  140.6510  134.5067  157.5577 LP  0  0  0  0  0  0  0  0  0  0  0  0  # atno 17394 bound_to 11000
  139.9169  134.8228  156.1337 LP  0  0  0  0  0  0  0  0  0  0  0  0  # atno 17395 bound_to 11000

$$$$
