AV-unprocessed.smi:896|AV-procd|sdf|4078|dock4
  -GOLD-   22720 1563D 1   1.00000     0.00000
 Structure written by MMmdl.
 49 50  0  0  0  0  0  0  0  0  2 V2000
  151.9938  142.9880  158.9042 C   0  0  0  0  0  0  0  0  0  0  0  0
  152.5735  141.8613  158.2553 O   0  0  0  0  0  0  0  0  0  0  0  0
  151.8248  141.1957  157.3063 C   0  0  0  0  0  0  0  0  0  0  0  0
  150.4388  141.4372  157.2485 C   0  0  0  0  0  0  0  0  0  0  0  0
  149.6710  140.7623  156.2813 C   0  0  0  0  0  0  0  0  0  0  0  0
  150.3145  139.8703  155.3906 C   0  0  0  0  0  0  0  0  0  0  0  0
  149.6154  139.1287  154.3987 N   0  0  0  0  0  0  0  0  0  0  0  0
  148.3514  139.3001  153.9771 C   0  0  0  0  0  0  0  0  0  0  0  0
  147.5729  140.1578  154.3953 O   0  0  0  0  0  0  0  0  0  0  0  0
  148.0391  138.4285  153.0073 N   0  0  0  0  0  0  0  0  0  0  0  0
  146.7571  138.3793  152.3145 C   0  0  0  0  0  0  0  0  0  0  0  0
  146.4340  136.9512  151.8365 C   0  0  0  0  0  0  0  0  0  0  0  0
  145.6917  136.0848  152.8794 C   0  0  2  0  0  0  0  0  0  0  0  0
  146.6110  135.0126  153.4968 C   0  0  0  0  0  0  0  0  0  0  0  0
  146.9164  133.8696  152.5109 C   0  0  0  0  0  0  0  0  0  0  0  0
  145.6668  133.2500  152.0037 N   0  3  2  0  0  0  0  0  0  0  0  0
  145.9316  132.0858  151.1314 C   0  0  0  0  0  0  0  0  0  0  0  0
  144.7664  134.2412  151.3640 C   0  0  0  0  0  0  0  0  0  0  0  0
  144.4272  135.3876  152.3336 C   0  0  0  0  0  0  0  0  0  0  0  0
  151.7100  139.6839  155.5394 C   0  0  0  0  0  0  0  0  0  0  0  0
  152.4819  138.7338  154.6408 C   0  0  0  0  0  0  0  0  0  0  0  0
  152.4477  140.3313  156.4679 N   0  0  0  0  0  0  0  0  0  0  0  0
  152.7045  143.3960  159.6229 H   0  0  0  0  0  0  0  0  0  0  0  0
  151.0913  142.7127  159.4520 H   0  0  0  0  0  0  0  0  0  0  0  0
  151.7534  143.7786  158.1919 H   0  0  0  0  0  0  0  0  0  0  0  0
  149.9710  142.1249  157.9378 H   0  0  0  0  0  0  0  0  0  0  0  0
  148.6049  140.9282  156.2488 H   0  0  0  0  0  0  0  0  0  0  0  0
  150.1660  138.4486  153.8953 H   0  0  0  0  0  0  0  0  0  0  0  0
  148.7383  137.7575  152.7240 H   0  0  0  0  0  0  0  0  0  0  0  0
  145.9849  138.7268  153.0012 H   0  0  0  0  0  0  0  0  0  0  0  0
  146.7728  139.0834  151.4824 H   0  0  0  0  0  0  0  0  0  0  0  0
  145.8624  136.9955  150.9099 H   0  0  0  0  0  0  0  0  0  0  0  0
  147.3738  136.4609  151.5787 H   0  0  0  0  0  0  0  0  0  0  0  0
  145.3842  136.7526  153.6854 H   0  0  0  0  0  0  0  0  0  0  0  0
  147.5406  135.4638  153.8452 H   0  0  0  0  0  0  0  0  0  0  0  0
  146.1299  134.5961  154.3827 H   0  0  0  0  0  0  0  0  0  0  0  0
  147.5124  134.2349  151.6736 H   0  0  0  0  0  0  0  0  0  0  0  0
  147.5172  133.1107  153.0137 H   0  0  0  0  0  0  0  0  0  0  0  0
  146.4650  132.3871  150.2287 H   0  0  0  0  0  0  0  0  0  0  0  0
  144.9981  131.6073  150.8334 H   0  0  0  0  0  0  0  0  0  0  0  0
  146.5345  131.3421  151.6533 H   0  0  0  0  0  0  0  0  0  0  0  0
  145.2288  134.6300  150.4558 H   0  0  0  0  0  0  0  0  0  0  0  0
  143.8447  133.7456  151.0564 H   0  0  0  0  0  0  0  0  0  0  0  0
  143.8594  134.9807  153.1715 H   0  0  0  0  0  0  0  0  0  0  0  0
  143.7607  136.1009  151.8507 H   0  0  0  0  0  0  0  0  0  0  0  0
  152.3616  139.0179  153.5949 H   0  0  0  0  0  0  0  0  0  0  0  0
  152.1178  137.7138  154.7660 H   0  0  0  0  0  0  0  0  0  0  0  0
  153.5484  138.7413  154.8701 H   0  0  0  0  0  0  0  0  0  0  0  0
  145.1748  132.8961  152.8118 H   0  0  0  0  0  0  0  0  0  0  0  0
  1  2  1  0  0  0  0
  1 23  1  0  0  0  0
  1 24  1  0  0  0  0
  1 25  1  0  0  0  0
  2  3  1  0  0  0  0
  3 22  1  0  0  0  0
  3  4  2  0  0  0  0
  4  5  1  0  0  0  0
  4 26  1  0  0  0  0
  5  6  2  0  0  0  0
  5 27  1  0  0  0  0
  6  7  1  0  0  0  0
  6 20  1  0  0  0  0
  7  8  1  0  0  0  0
  7 28  1  0  0  0  0
  8  9  2  0  0  0  0
  8 10  1  0  0  0  0
 10 11  1  0  0  0  0
 10 29  1  0  0  0  0
 11 12  1  0  0  0  0
 11 30  1  0  0  0  0
 11 31  1  0  0  0  0
 12 13  1  0  0  0  0
 12 32  1  0  0  0  0
 12 33  1  0  0  0  0
 13 19  1  0  0  0  0
 13 14  1  0  0  0  0
 13 34  1  0  0  0  0
 14 15  1  0  0  0  0
 14 35  1  0  0  0  0
 14 36  1  0  0  0  0
 15 16  1  0  0  0  0
 15 37  1  0  0  0  0
 15 38  1  0  0  0  0
 16 17  1  0  0  0  0
 16 18  1  0  0  0  0
 16 49  1  0  0  0  0
 17 39  1  0  0  0  0
 17 40  1  0  0  0  0
 17 41  1  0  0  0  0
 18 19  1  0  0  0  0
 18 42  1  0  0  0  0
 18 43  1  0  0  0  0
 19 44  1  0  0  0  0
 19 45  1  0  0  0  0
 20 21  1  0  0  0  0
 20 22  2  0  0  0  0
 21 46  1  0  0  0  0
 21 47  1  0  0  0  0
 21 48  1  0  0  0  0
M  CHG  1  16   1
M  END
> <s_m_source_file>
AV-unprocessed.smi

> <i_m_source_file_index>
896

> <i_lp_mmshare_version>
43012

> <i_f3d_flags>
0

> <s_epik_input>
W0NIM11PYzFbY0hdW2NIXWMoYyhuMSlbQ0gzXSlbTkhdQyg9TylbTkhdW0NIMl1bQ0gyXVtDSF0yW0NIMl1bQ0gyXU4oW0NIM10pW0NIMl1bQ0gyXTI=

> <s_epik_cmdline>
J2VwaWtfcHl0aG9uJywgJy1waCcsICc3LjAnLCAnLXRuJywgJzgnLCAnLW1hJywgJzIwMCcsICctbWV0YWxfYmluZGluZycsICctaW1hZScsICc8aW5maWxlLm1hZT4nLCAnLW9tYWUnLCAnPG91dGZpbGUubWFlPic=

> <r_lp_tautomer_probability>
1

> <r_epik_Ionization_Penalty>
0.000968128

> <r_epik_Ionization_Penalty_Charging>
0.000718523

> <r_epik_Ionization_Penalty_Neutral>
0.000249604

> <r_epik_State_Penalty>
0.00045807

> <r_epik_Charging_Adjusted_Penalty>
0.00117659

> <i_epik_Tot_Q>
1

> <i_epik_Tot_abs_Q>
1

> <r_epik_Metal_State_Penalty>
-0

> <b_epik_Metal_Only>
0

> <s_lp_Force_Field>
OPLS_2005

> <r_lp_Energy>
21.0963

> <b_lp_Chiralities_Consistent>
1

> <s_lp_Variant>
AV-unprocessed.smi:896-2

> <Gold.Version>
5.8.1

> <Gold.Id.Protein>
6NUR|6NUR_protein|mol2

> <Gold.PLP.Fitness>
40.3622

> <Gold.PLP.PLP>
-36.8176

> <Gold.PLP.part.hbond>
-3.4739

> <Gold.PLP.part.metal>
0.0000

> <Gold.PLP.part.buried>
2.7292

> <Gold.PLP.part.nonpolar>
-35.1313

> <Gold.PLP.part.repulsive>
0.2742

> <Gold.PLP.ligand.clash>
0.0000

> <Gold.PLP.ligand.torsion>
1.2576

> <Gold.PLP.Chemscore.Hbond>
2.0000

> <Gold.PLP.Chemscore.CHOScore>
0.0000

> <Gold.PLP.Chemscore.Metal>
0.0000

> <Gold.Chemscore.Hbonds>
donor molecule, donor type, donor heavy atom, donor atom, acceptor molecule, acceptor atom, score
      L1  H    10    29       P1  7948  0.88
      P1  H  7997  8010       L1    22  1.00

> <Gold.PLP.Chemscore.Internal.Correction>
0.0597

> <Gold.Rescore>
     Score         DG    S(hbond)    S(metal)    S(lipo)     H(rot)  DE(clash)    DE(int)     intcor
     14.50     -17.21       1.89        0.00      82.44       1.65       0.60       2.12       ----

> <Gold.Chemscore.Fitness>
14.4964

> <Gold.Chemscore.DG>
-17.2093

> <Gold.Chemscore.ZeroCoef>
-5.4800

> <Gold.Chemscore.Hbond>
1.8903

> <Gold.Chemscore.Metal>
0.0000

> <Gold.Chemscore.Lipo>
82.4368

> <Gold.Chemscore.Internal_Hbond>
0.0000

> <Gold.Chemscore.DEClash>
0.5976

> <Gold.Chemscore.DEInternal>
2.1154

> <Gold.Chemscore.Rot>
1.6521

> <Gold.Chemscore.Internal.Correction>
   9.000000E+99

> <Gold.Chemscore.Hbonds>
donor molecule, donor type, donor heavy atom, donor atom, acceptor molecule, acceptor atom, score
      L1  H    10    29       P1  7948  0.87
      P1  H  7997  8010       L1    22  0.91

> <Gold.Chemscore.Hbond.Weighted>
-6.3136

> <Gold.Chemscore.Metal.Weighted>
-0.0000

> <Gold.Chemscore.Lipo.Weighted>
-9.6451

> <Gold.Chemscore.Internal_Hbond.Weighted>
0.0000

> <Gold.Chemscore.DEClash.Weighted>
0.5976

> <Gold.Chemscore.DEInternal.Weighted>
2.1154

> <Gold.Chemscore.Rot.Weighted>
4.2294

> <Gold.Chemscore.Internal.Correction.Weighted>
   9.000000E+99

> <Gold.Protein.RotatedTorsions>
[ 6907 6896 6895 6894 ] final  119.83 input  -60.11 | X-H torsion
[ 7974 7965 7964 7962 ] final  166.18 input  175.53 | X-H torsion
[ 8008 7997 7996 7995 ] final   75.52 input   59.86 | X-H torsion
[ 10167 10162 10161 10158 ] final -147.54 input  -65.29 | X-H torsion
[ 10718 10713 10712 10709 ] final -169.36 input   66.30 | X-H torsion
[ 10763 10752 10751 10750 ] final   89.49 input  -60.55 | X-H torsion
[ 11005 11000 10999 10996 ] final   81.92 input  -57.11 | X-H torsion

> <Gold.Protein.ActiveResidues>
 VAL166  LYS551  ARG553  GLY616  TRP617  ASP618  TYR619  PRO620  LYS621  CYS622 
 ASP623  PHE694  ASN695  SER759  ASP760  ASP761  ALA762  ILE779  LEU786  VAL792 
 PHE793  MET794  SER795  GLU796  ALA797  LYS798  CYS799  TRP800  GLU811  SER814 

> <Gold.Protein.RotatedAtoms>
  152.4443  133.7507  159.6692 H   0  0  0  0  0  0  0  0  0  0  0  0  # atno 6907 bound_to 6896
  150.8340  133.8034  159.3093 H   0  0  0  0  0  0  0  0  0  0  0  0  # atno 6908 bound_to 6896
  151.5679  135.1066  160.0040 H   0  0  0  0  0  0  0  0  0  0  0  0  # atno 6909 bound_to 6896
  144.7473  139.8578  143.6378 H   0  0  0  0  0  0  0  0  0  0  0  0  # atno 7974 bound_to 7965
  155.8141  140.3472  155.5475 H   0  0  0  0  0  0  0  0  0  0  0  0  # atno 8008 bound_to 7997
  155.8410  140.0941  157.1755 H   0  0  0  0  0  0  0  0  0  0  0  0  # atno 8009 bound_to 7997
  154.4005  140.1394  156.3716 H   0  0  0  0  0  0  0  0  0  0  0  0  # atno 8010 bound_to 7997
  139.7613  143.8373  152.2607 H   0  0  0  0  0  0  0  0  0  0  0  0  # atno 10167 bound_to 10162
  156.7104  130.9231  151.3088 H   0  0  0  0  0  0  0  0  0  0  0  0  # atno 10718 bound_to 10713
  153.1876  135.4468  155.0108 H   0  0  0  0  0  0  0  0  0  0  0  0  # atno 10763 bound_to 10752
  154.8070  135.3278  154.7408 H   0  0  0  0  0  0  0  0  0  0  0  0  # atno 10764 bound_to 10752
  153.7865  135.6973  153.4934 H   0  0  0  0  0  0  0  0  0  0  0  0  # atno 10765 bound_to 10752
  139.9081  134.8033  156.2105 H   0  0  0  0  0  0  0  0  0  0  0  0  # atno 11005 bound_to 11000
  146.1370  139.4418  143.0133 LP  0  0  0  0  0  0  0  0  0  0  0  0  # atno 17320 bound_to 7965
  145.7076  141.0116  143.1470 LP  0  0  0  0  0  0  0  0  0  0  0  0  # atno 17321 bound_to 7965
  139.8380  144.7223  150.9367 LP  0  0  0  0  0  0  0  0  0  0  0  0  # atno 17342 bound_to 10162
  140.7807  143.4009  151.1150 LP  0  0  0  0  0  0  0  0  0  0  0  0  # atno 17343 bound_to 10162
  157.6938  130.9261  150.0588 LP  0  0  0  0  0  0  0  0  0  0  0  0  # atno 17370 bound_to 10713
  156.1665  130.3645  149.9225 LP  0  0  0  0  0  0  0  0  0  0  0  0  # atno 17371 bound_to 10713
  141.0468  133.6909  156.1698 LP  0  0  0  0  0  0  0  0  0  0  0  0  # atno 17394 bound_to 11000
  140.6871  134.4705  157.5589 LP  0  0  0  0  0  0  0  0  0  0  0  0  # atno 17395 bound_to 11000

$$$$
