#       Name:                AV-unprocessed.smi:1106
#       Creating user name   scv26
#       Creation time:       Fri Mar 27 03:32:05 2020


#       File generated by GOLD software.
#

@<TRIPOS>MOLECULE
AV-unprocessed.smi:1106
    55    56     1
SMALL
NO_CHARGES


@<TRIPOS>ATOM
      1 ****        -5.3292   1.8632   1.0776 C.3            1 S1                 0.0000
      2 ****        -3.8298   2.1841   1.1697 C.3            1 S1                 0.0000
      3 ****        -3.1234   1.9282  -0.0588 N.am           1 S1                 0.0000
      4 ****        -2.8307   2.9403  -0.9522 C.2            1 S1                 0.0000
      5 ****        -2.1733   2.7260  -2.1123 C.2            1 S1                 0.0000
      6 ****        -1.8794   3.7888  -3.0160 C.1            1 S1                 0.0000
      7 ****        -1.6444   4.6663  -3.7329 N.1            1 S1                 0.0000
      8 ****        -1.7313   1.3868  -2.4940 C.2            1 S1                 0.0000
      9 ****        -1.1122   1.1408  -3.5310 O.2            1 S1                 0.0000
     10 ****        -2.0634   0.3691  -1.5645 N.am           1 S1                 0.0000
     11 ****        -1.6566  -0.9903  -1.8907 C.3            1 S1                 0.0000
     12 ****        -0.1721  -1.2953  -1.5891 C.3            1 S1                 0.0000
     13 ****         0.1083  -2.5808  -2.1043 O.3            1 S1                 0.0000
     14 ****         0.1687  -1.2863  -0.0836 C.3            1 S1                 0.0000
     15 ****         1.6151  -1.5038   0.1731 N.4            1 S1                 1.0000
     16 ****         1.8665  -2.0984   1.5108 C.3            1 S1                 0.0000
     17 ****         3.3548  -2.4446   1.6967 C.3            1 S1                 0.0000
     18 ****         4.2703  -1.2288   1.4647 C.3            1 S1                 0.0000
     19 ****         4.2210  -0.2159   2.6221 C.3            1 S1                 0.0000
     20 ****         3.9395  -0.5927   0.1025 C.3            1 S1                 0.0000
     21 ****         2.4389  -0.2854  -0.0483 C.3            1 S1                 0.0000
     22 ****        -2.7457   0.5950  -0.3436 C.2            1 S1                 0.0000
     23 ****        -2.9920  -0.3223   0.4443 O.2            1 S1                 0.0000
     24 ****        -5.8330   2.1066   2.0131 H              1 S1                 0.0000
     25 ****        -5.5035   0.8062   0.8752 H              1 S1                 0.0000
     26 ****        -5.8067   2.4394   0.2845 H              1 S1                 0.0000
     27 ****        -3.6761   3.2416   1.3892 H              1 S1                 0.0000
     28 ****        -3.3283   1.6247   1.9616 H              1 S1                 0.0000
     29 ****        -3.1396   3.9481  -0.7135 H              1 S1                 0.0000
     30 ****        -2.3215  -1.6891  -1.3811 H              1 S1                 0.0000
     31 ****        -1.8801  -1.1300  -2.9504 H              1 S1                 0.0000
     32 ****         0.4529  -0.5846  -2.1279 H              1 S1                 0.0000
     33 ****        -0.0957  -2.5861  -3.0278 H              1 S1                 0.0000
     34 ****        -0.1271  -0.3452   0.3804 H              1 S1                 0.0000
     35 ****        -0.4199  -2.0638   0.4063 H              1 S1                 0.0000
     36 ****         1.5317  -1.4096   2.2877 H              1 S1                 0.0000
     37 ****         1.2763  -3.0087   1.6233 H              1 S1                 0.0000
     38 ****         3.5216  -2.8594   2.6913 H              1 S1                 0.0000
     39 ****         3.6236  -3.2331   0.9924 H              1 S1                 0.0000
     40 ****         5.2977  -1.5930   1.4179 H              1 S1                 0.0000
     41 ****         3.2271   0.2102   2.7552 H              1 S1                 0.0000
     42 ****         4.9119   0.6092   2.4475 H              1 S1                 0.0000
     43 ****         4.5063  -0.6852   3.5640 H              1 S1                 0.0000
     44 ****         4.5243   0.3165  -0.0416 H              1 S1                 0.0000
     45 ****         4.2418  -1.2748  -0.6934 H              1 S1                 0.0000
     46 ****         2.2633   0.1145  -1.0461 H              1 S1                 0.0000
     47 ****         2.1380   0.4933   0.6538 H              1 S1                 0.0000
     48 ****         1.9171  -2.1936  -0.5005 H              1 S1                 0.0000
     49 ****        -1.4414   5.4246  -4.3524 LP             1 S1                 0.0000
     50 ****        -0.8860   1.8799  -4.1655 LP             1 S1                 0.0000
     51 ****        -0.8362   0.2022  -3.7379 LP             1 S1                 0.0000
     52 ****        -0.4503  -3.2625  -1.6318 LP             1 S1                 0.0000
     53 ****         1.0764  -2.7932  -1.9718 LP             1 S1                 0.0000
     54 ****        -3.4671  -0.1298   1.3029 LP             1 S1                 0.0000
     55 ****        -2.7165  -1.2580   0.2241 LP             1 S1                 0.0000
@<TRIPOS>BOND
    1    1    2 1     
    2    1   24 1     
    3    1   25 1     
    4    1   26 1     
    5    2    3 1     
    6    2   27 1     
    7    2   28 1     
    8    3   22 am    
    9    3    4 1     
   10    4    5 2     
   11    4   29 1     
   12    5    6 1     
   13    5    8 1     
   14    6    7 3     
   15    8    9 2     
   16    8   10 am    
   17   10   11 1     
   18   10   22 am    
   19   11   12 1     
   20   11   30 1     
   21   11   31 1     
   22   12   13 1     
   23   12   14 1     
   24   12   32 1     
   25   13   33 1     
   26   14   15 1     
   27   14   34 1     
   28   14   35 1     
   29   15   21 1     
   30   15   16 1     
   31   15   48 1     
   32   16   17 1     
   33   16   36 1     
   34   16   37 1     
   35   17   18 1     
   36   17   38 1     
   37   17   39 1     
   38   18   19 1     
   39   18   20 1     
   40   18   40 1     
   41   19   41 1     
   42   19   42 1     
   43   19   43 1     
   44   20   21 1     
   45   20   44 1     
   46   20   45 1     
   47   21   46 1     
   48   21   47 1     
   49   22   23 2     
   50    7   49 1     
   51    9   50 1     
   52    9   51 1     
   53   13   52 1     
   54   13   53 1     
   55   23   54 1     
   56   23   55 1     
@<TRIPOS>SUBSTRUCTURE
      1 S1             1
@<TRIPOS>SET
LONE_PAIRS      STATIC     ATOMS    <user>   **** ""
7 49 50 51 52 53 54 55
DONOR_HYDROGENS      STATIC     ATOMS    <user>   **** ""
2 33 48
ATOM$BLUE        STATIC     ATOMS    COLORGROUP SYSTEM
7 49 50 51 52 53 54 55
ATOM$RED        STATIC     ATOMS    COLORGROUP SYSTEM
2 33 48
