AV-unprocessed.smi:2943|AV-procd|sdf|11268|dock4
  -GOLD-   2272016163D 1   1.00000     0.00000
 Structure written by MMmdl.
 36 38  0  0  0  0  0  0  0  0  1 V2000
  148.0411  138.6936  153.8274 C   0  0  0  0  0  0  0  0  0  0  0  0
  149.1926  139.3547  154.5257 C   0  0  0  0  0  0  0  0  0  0  0  0
  149.2705  140.6765  154.9006 C   0  0  0  0  0  0  0  0  0  0  0  0
  148.2473  141.7547  154.7105 C   0  0  0  0  0  0  0  0  0  0  0  0
  150.4999  140.9239  155.5151 N   0  0  0  0  0  0  0  0  0  0  0  0
  150.9518  142.2056  156.0393 C   0  0  0  0  0  0  0  0  0  0  0  0
  150.9727  142.2270  157.5769 C   0  0  2  0  0  0  0  0  0  0  0  0
  151.4296  143.5598  158.1690 C   0  0  0  0  0  0  0  0  0  0  0  0
  151.9715  143.1285  159.5124 C   0  0  0  0  0  0  0  0  0  0  0  0
  152.6452  141.8067  159.1589 C   0  0  0  0  0  0  0  0  0  0  0  0
  151.8732  141.2513  158.0984 O   0  0  0  0  0  0  0  0  0  0  0  0
  151.2269  139.7431  155.5521 C   0  0  0  0  0  0  0  0  0  0  0  0
  152.4774  139.5592  156.0733 N   0  0  0  0  0  0  0  0  0  0  0  0
  152.8867  138.2939  155.9545 C   0  0  0  0  0  0  0  0  0  0  0  0
  152.2436  137.2564  155.4119 N   0  0  0  0  0  0  0  0  0  0  0  0
  151.0084  137.4470  154.8960 C   0  0  0  0  0  0  0  0  0  0  0  0
  150.3719  136.3382  154.3425 N   0  0  0  0  0  0  0  0  0  0  0  0
  150.4238  138.7402  154.9415 C   0  0  0  0  0  0  0  0  0  0  0  0
  147.5050  139.3912  153.1841 H   0  0  0  0  0  0  0  0  0  0  0  0
  147.3281  138.2881  154.5455 H   0  0  0  0  0  0  0  0  0  0  0  0
  148.3754  137.8737  153.1923 H   0  0  0  0  0  0  0  0  0  0  0  0
  147.2689  141.3398  154.4700 H   0  0  0  0  0  0  0  0  0  0  0  0
  148.5367  142.4217  153.8984 H   0  0  0  0  0  0  0  0  0  0  0  0
  148.1274  142.3527  155.6132 H   0  0  0  0  0  0  0  0  0  0  0  0
  151.9492  142.4092  155.6476 H   0  0  0  0  0  0  0  0  0  0  0  0
  150.3092  142.9978  155.6549 H   0  0  0  0  0  0  0  0  0  0  0  0
  149.9829  141.9898  157.9686 H   0  0  0  0  0  0  0  0  0  0  0  0
  152.2307  143.9947  157.5693 H   0  0  0  0  0  0  0  0  0  0  0  0
  150.6235  144.2899  158.2452 H   0  0  0  0  0  0  0  0  0  0  0  0
  152.6566  143.8528  159.9540 H   0  0  0  0  0  0  0  0  0  0  0  0
  151.1514  142.9599  160.2117 H   0  0  0  0  0  0  0  0  0  0  0  0
  153.6579  141.9814  158.7935 H   0  0  0  0  0  0  0  0  0  0  0  0
  152.7037  141.1267  160.0089 H   0  0  0  0  0  0  0  0  0  0  0  0
  153.8691  138.0807  156.3490 H   0  0  0  0  0  0  0  0  0  0  0  0
  150.8135  135.4304  154.3268 H   0  0  0  0  0  0  0  0  0  0  0  0
  149.4488  136.4087  153.9391 H   0  0  0  0  0  0  0  0  0  0  0  0
  1  2  1  0  0  0  0
  1 19  1  0  0  0  0
  1 20  1  0  0  0  0
  1 21  1  0  0  0  0
  2 18  1  0  0  0  0
  2  3  2  0  0  0  0
  3  4  1  0  0  0  0
  3  5  1  0  0  0  0
  4 22  1  0  0  0  0
  4 23  1  0  0  0  0
  4 24  1  0  0  0  0
  5  6  1  0  0  0  0
  5 12  1  0  0  0  0
  6  7  1  0  0  0  0
  6 25  1  0  0  0  0
  6 26  1  0  0  0  0
  7 11  1  0  0  0  0
  7  8  1  0  0  0  0
  7 27  1  0  0  0  0
  8  9  1  0  0  0  0
  8 28  1  0  0  0  0
  8 29  1  0  0  0  0
  9 10  1  0  0  0  0
  9 30  1  0  0  0  0
  9 31  1  0  0  0  0
 10 11  1  0  0  0  0
 10 32  1  0  0  0  0
 10 33  1  0  0  0  0
 12 18  1  0  0  0  0
 12 13  2  0  0  0  0
 13 14  1  0  0  0  0
 14 15  2  0  0  0  0
 14 34  1  0  0  0  0
 15 16  1  0  0  0  0
 16 17  1  0  0  0  0
 16 18  2  0  0  0  0
 17 35  1  0  0  0  0
 17 36  1  0  0  0  0
M  END
> <s_m_source_file>
AV-unprocessed.smi

> <i_m_source_file_index>
2943

> <i_lp_mmshare_version>
43012

> <i_f3d_flags>
0

> <s_epik_input>
bjFbY0hdbmMoW05IMl0pYyhjMTIpYyhbQ0gzXSljKFtDSDNdKW4yW0NIMl1bQ0BASF0zW0NIMl1bQ0gyXVtDSDJdTzM=

> <s_epik_cmdline>
J2VwaWtfcHl0aG9uJywgJy1waCcsICc3LjAnLCAnLXRuJywgJzgnLCAnLW1hJywgJzIwMCcsICctbWV0YWxfYmluZGluZycsICctaW1hZScsICc8aW5maWxlLm1hZT4nLCAnLW9tYWUnLCAnPG91dGZpbGUubWFlPic=

> <r_epik_Ionization_Penalty>
0.0115167

> <r_epik_Ionization_Penalty_Charging>
0

> <r_epik_Ionization_Penalty_Neutral>
0.0115167

> <r_epik_State_Penalty>
0.00863248

> <r_epik_Charging_Adjusted_Penalty>
0.00863248

> <i_epik_Tot_Q>
0

> <i_epik_Tot_abs_Q>
0

> <r_epik_Metal_State_Penalty>
0.00847169

> <b_epik_Metal_Only>
0

> <s_lp_Force_Field>
OPLS_2005

> <r_lp_Energy>
17.4576

> <b_lp_Chiralities_Consistent>
1

> <s_lp_Variant>
AV-unprocessed.smi:2943-1

> <Gold.Version>
5.8.1

> <Gold.Id.Protein>
6NUR|6NUR_protein|mol2

> <Gold.PLP.Fitness>
40.8510

> <Gold.PLP.PLP>
-35.8124

> <Gold.PLP.part.hbond>
-4.0000

> <Gold.PLP.part.metal>
0.0000

> <Gold.PLP.part.buried>
-1.6236

> <Gold.PLP.part.nonpolar>
-30.6175

> <Gold.PLP.part.repulsive>
0.1223

> <Gold.PLP.ligand.clash>
0.0000

> <Gold.PLP.ligand.torsion>
0.1268

> <Gold.PLP.Chemscore.Hbond>
1.7639

> <Gold.PLP.Chemscore.CHOScore>
0.0000

> <Gold.PLP.Chemscore.Metal>
0.0000

> <Gold.Chemscore.Hbonds>
donor molecule, donor type, donor heavy atom, donor atom, acceptor molecule, acceptor atom, score
      L1  H    17    36       P1  7948  0.39
      P1  H  7997  8010       L1    13  0.50
      P1  H 10752 10763       L1    15  0.69

> <Gold.PLP.Chemscore.Internal.Correction>
0.0004

> <Gold.Rescore>
     Score         DG    S(hbond)    S(metal)    S(lipo)     H(rot)  DE(clash)    DE(int)     intcor
     12.37     -14.45       0.89        0.00      78.84       1.26       0.53       1.55       ----

> <Gold.Chemscore.Fitness>
12.3660

> <Gold.Chemscore.DG>
-14.4458

> <Gold.Chemscore.ZeroCoef>
-5.4800

> <Gold.Chemscore.Hbond>
0.8891

> <Gold.Chemscore.Metal>
0.0000

> <Gold.Chemscore.Lipo>
78.8360

> <Gold.Chemscore.Internal_Hbond>
0.0000

> <Gold.Chemscore.DEClash>
0.5255

> <Gold.Chemscore.DEInternal>
1.5543

> <Gold.Chemscore.Rot>
1.2607

> <Gold.Chemscore.Internal.Correction>
   9.000000E+99

> <Gold.Chemscore.Hbonds>
donor molecule, donor type, donor heavy atom, donor atom, acceptor molecule, acceptor atom, score
      L1  H    17    36       P1  7948  0.31
      P1  H  7997  8010       L1    13  0.02
      P1  H 10752 10763       L1    15  0.33

> <Gold.Chemscore.Hbond.Weighted>
-2.9694

> <Gold.Chemscore.Metal.Weighted>
-0.0000

> <Gold.Chemscore.Lipo.Weighted>
-9.2238

> <Gold.Chemscore.Internal_Hbond.Weighted>
0.0000

> <Gold.Chemscore.DEClash.Weighted>
0.5255

> <Gold.Chemscore.DEInternal.Weighted>
1.5543

> <Gold.Chemscore.Rot.Weighted>
3.2274

> <Gold.Chemscore.Internal.Correction.Weighted>
   9.000000E+99

> <Gold.Protein.RotatedTorsions>
[ 6907 6896 6895 6894 ] final   61.77 input  -60.11 | X-H torsion
[ 7974 7965 7964 7962 ] final   21.28 input  175.53 | X-H torsion
[ 8008 7997 7996 7995 ] final   91.54 input   59.86 | X-H torsion
[ 10167 10162 10161 10158 ] final  130.42 input  -65.29 | X-H torsion
[ 10718 10713 10712 10709 ] final   27.98 input   66.30 | X-H torsion
[ 10763 10752 10751 10750 ] final   50.44 input  -60.55 | X-H torsion
[ 11005 11000 10999 10996 ] final  174.11 input  -57.11 | X-H torsion

> <Gold.Protein.ActiveResidues>
 VAL166  LYS551  ARG553  GLY616  TRP617  ASP618  TYR619  PRO620  LYS621  CYS622 
 ASP623  PHE694  ASN695  SER759  ASP760  ASP761  ALA762  ILE779  LEU786  VAL792 
 PHE793  MET794  SER795  GLU796  ALA797  LYS798  CYS799  TRP800  GLU811  SER814 

> <Gold.Protein.RotatedAtoms>
  152.4117  134.6113  160.0026 H   0  0  0  0  0  0  0  0  0  0  0  0  # atno 6907 bound_to 6896
  151.6288  133.3328  159.3112 H   0  0  0  0  0  0  0  0  0  0  0  0  # atno 6908 bound_to 6896
  150.8007  134.7139  159.6664 H   0  0  0  0  0  0  0  0  0  0  0  0  # atno 6909 bound_to 6896
  146.2078  139.8050  142.8712 H   0  0  0  0  0  0  0  0  0  0  0  0  # atno 7974 bound_to 7965
  156.0250  140.3336  155.7078 H   0  0  0  0  0  0  0  0  0  0  0  0  # atno 8008 bound_to 7997
  155.5968  140.0651  157.2761 H   0  0  0  0  0  0  0  0  0  0  0  0  # atno 8009 bound_to 7997
  154.4330  140.1817  156.1119 H   0  0  0  0  0  0  0  0  0  0  0  0  # atno 8010 bound_to 7997
  139.5431  144.6749  151.4560 H   0  0  0  0  0  0  0  0  0  0  0  0  # atno 10167 bound_to 10162
  157.2274  130.7008  149.6298 H   0  0  0  0  0  0  0  0  0  0  0  0  # atno 10718 bound_to 10713
  152.9785  135.5879  154.4253 H   0  0  0  0  0  0  0  0  0  0  0  0  # atno 10763 bound_to 10752
  154.3873  135.2767  155.2178 H   0  0  0  0  0  0  0  0  0  0  0  0  # atno 10764 bound_to 10752
  154.4065  135.6091  153.5982 H   0  0  0  0  0  0  0  0  0  0  0  0  # atno 10765 bound_to 10752
  140.3478  134.7221  157.4247 H   0  0  0  0  0  0  0  0  0  0  0  0  # atno 11005 bound_to 11000
  145.3256  141.0254  143.3475 LP  0  0  0  0  0  0  0  0  0  0  0  0  # atno 17320 bound_to 7965
  144.8835  139.4871  143.6711 LP  0  0  0  0  0  0  0  0  0  0  0  0  # atno 17321 bound_to 7965
  140.6669  143.8379  150.6952 LP  0  0  0  0  0  0  0  0  0  0  0  0  # atno 17342 bound_to 10162
  140.1791  143.4130  152.1946 LP  0  0  0  0  0  0  0  0  0  0  0  0  # atno 17343 bound_to 10162
  155.9678  130.4500  150.5679 LP  0  0  0  0  0  0  0  0  0  0  0  0  # atno 17370 bound_to 10713
  157.3513  131.0734  151.1711 LP  0  0  0  0  0  0  0  0  0  0  0  0  # atno 17371 bound_to 10713
  140.0728  134.5839  155.8623 LP  0  0  0  0  0  0  0  0  0  0  0  0  # atno 17394 bound_to 11000
  141.2021  133.6622  156.5985 LP  0  0  0  0  0  0  0  0  0  0  0  0  # atno 17395 bound_to 11000

$$$$
