AV-unprocessed.smi:212|AV-procd|sdf|1629|dock3
  -GOLD-   2262019573D 1   1.00000     0.00000
 Structure written by MMmdl.
 65 68  0  0  0  0  0  0  0  0  2 V2000
  147.8107  134.3517  154.3438 C   0  0  0  0  0  0  0  0  0  0  0  0
  146.3531  134.4723  153.8591 C   0  0  2  0  0  0  0  0  0  0  0  0
  146.2121  134.4534  152.3209 C   0  0  0  0  0  0  0  0  0  0  0  0
  144.7837  134.5081  151.9134 N   0  3  2  0  0  0  0  0  0  0  0  0
  144.5929  134.4253  150.4409 C   0  0  0  0  0  0  0  0  0  0  0  0
  144.5832  132.9683  149.9211 C   0  0  0  0  0  0  0  0  0  0  0  0
  145.9752  132.3369  150.0923 C   0  0  0  0  0  0  0  0  0  0  0  0
  143.5174  132.1051  150.6217 C   0  0  0  0  0  0  0  0  0  0  0  0
  144.3118  132.9713  148.5334 O   0  0  0  0  0  0  0  0  0  0  0  0
  144.0575  135.6454  152.5380 C   0  0  0  0  0  0  0  0  0  0  0  0
  144.2045  135.6225  154.0709 C   0  0  0  0  0  0  0  0  0  0  0  0
  145.6123  135.5909  154.4563 N   0  0  0  0  0  0  0  0  0  0  0  0
  146.1585  136.8313  154.5406 C   0  0  0  0  0  0  0  0  0  0  0  0
  145.7625  137.8249  153.7022 N   0  0  0  0  0  0  0  0  0  0  0  0
  146.2842  139.0502  153.8160 C   0  0  0  0  0  0  0  0  0  0  0  0
  147.1904  139.4937  154.6897 N   0  0  0  0  0  0  0  0  0  0  0  0
  147.5824  138.5023  155.5398 C   0  0  0  0  0  0  0  0  0  0  0  0
  147.1216  137.1564  155.5339 C   0  0  0  0  0  0  0  0  0  0  0  0
  147.7452  136.4344  156.5439 N   0  0  0  0  0  0  0  0  0  0  0  0
  148.5289  137.3062  157.1182 C   0  0  0  0  0  0  0  0  0  0  0  0
  148.4859  138.5748  156.5844 N   0  0  0  0  0  0  0  0  0  0  0  0
  149.2381  139.7344  157.0287 C   0  0  0  0  0  0  0  0  0  0  0  0
  150.1869  140.3218  155.9496 C   0  0  1  0  0  0  0  0  0  0  0  0
  149.4226  141.1052  154.8510 C   0  0  0  0  0  0  0  0  0  0  0  0
  149.8534  140.7529  153.5519 O   0  0  0  0  0  0  0  0  0  0  0  0
  151.2727  141.2103  156.6113 C   0  0  1  0  0  0  0  0  0  0  0  0
  150.7410  142.4092  157.3796 C   0  0  0  0  0  0  0  0  0  0  0  0
  151.9266  142.7753  158.2629 C   0  0  0  0  0  0  0  0  0  0  0  0
  152.5329  141.5361  158.6034 O   0  0  0  0  0  0  0  0  0  0  0  0
  152.0932  140.5180  157.7091 C   0  0  0  0  0  0  0  0  0  0  0  0
  148.2525  133.4158  154.0009 H   0  0  0  0  0  0  0  0  0  0  0  0
  147.8622  134.3564  155.4329 H   0  0  0  0  0  0  0  0  0  0  0  0
  148.4440  135.1577  153.9746 H   0  0  0  0  0  0  0  0  0  0  0  0
  145.8496  133.5771  154.2271 H   0  0  0  0  0  0  0  0  0  0  0  0
  146.7519  135.2838  151.8657 H   0  0  0  0  0  0  0  0  0  0  0  0
  146.6593  133.5387  151.9293 H   0  0  0  0  0  0  0  0  0  0  0  0
  143.6783  134.9457  150.1502 H   0  0  0  0  0  0  0  0  0  0  0  0
  145.4000  134.9592  149.9362 H   0  0  0  0  0  0  0  0  0  0  0  0
  146.2608  132.2905  151.1440 H   0  0  0  0  0  0  0  0  0  0  0  0
  146.7414  132.9110  149.5695 H   0  0  0  0  0  0  0  0  0  0  0  0
  146.0032  131.3192  149.7009 H   0  0  0  0  0  0  0  0  0  0  0  0
  143.6769  132.0817  151.7003 H   0  0  0  0  0  0  0  0  0  0  0  0
  143.5452  131.0750  150.2644 H   0  0  0  0  0  0  0  0  0  0  0  0
  142.5087  132.4805  150.4457 H   0  0  0  0  0  0  0  0  0  0  0  0
  144.8200  133.6579  148.1281 H   0  0  0  0  0  0  0  0  0  0  0  0
  144.4448  136.5847  152.1400 H   0  0  0  0  0  0  0  0  0  0  0  0
  143.0009  135.6048  152.2748 H   0  0  0  0  0  0  0  0  0  0  0  0
  143.6940  136.4817  154.5087 H   0  0  0  0  0  0  0  0  0  0  0  0
  143.7146  134.7373  154.4782 H   0  0  0  0  0  0  0  0  0  0  0  0
  145.9221  139.7808  153.1077 H   0  0  0  0  0  0  0  0  0  0  0  0
  149.1561  137.0489  157.9592 H   0  0  0  0  0  0  0  0  0  0  0  0
  148.5312  140.4965  157.3594 H   0  0  0  0  0  0  0  0  0  0  0  0
  149.8004  139.4321  157.9121 H   0  0  0  0  0  0  0  0  0  0  0  0
  150.7044  139.4906  155.4674 H   0  0  0  0  0  0  0  0  0  0  0  0
  148.3473  140.9451  154.9378 H   0  0  0  0  0  0  0  0  0  0  0  0
  149.5865  142.1778  154.9427 H   0  0  0  0  0  0  0  0  0  0  0  0
  149.1793  140.2316  153.1428 H   0  0  0  0  0  0  0  0  0  0  0  0
  151.9583  141.5746  155.8441 H   0  0  0  0  0  0  0  0  0  0  0  0
  150.4359  143.2351  156.7368 H   0  0  0  0  0  0  0  0  0  0  0  0
  149.8882  142.1215  157.9966 H   0  0  0  0  0  0  0  0  0  0  0  0
  152.6466  143.3744  157.7037 H   0  0  0  0  0  0  0  0  0  0  0  0
  151.6327  143.3362  159.1506 H   0  0  0  0  0  0  0  0  0  0  0  0
  151.4770  139.8158  158.2720 H   0  0  0  0  0  0  0  0  0  0  0  0
  152.9446  139.9692  157.3062 H   0  0  0  0  0  0  0  0  0  0  0  0
  144.3641  133.6702  152.2901 H   0  0  0  0  0  0  0  0  0  0  0  0
  1  2  1  0  0  0  0
  1 31  1  0  0  0  0
  1 32  1  0  0  0  0
  1 33  1  0  0  0  0
  2 12  1  0  0  0  0
  2  3  1  0  0  0  0
  2 34  1  0  0  0  0
  3  4  1  0  0  0  0
  3 35  1  0  0  0  0
  3 36  1  0  0  0  0
  4  5  1  0  0  0  0
  4 10  1  0  0  0  0
  4 65  1  0  0  0  0
  5  6  1  0  0  0  0
  5 37  1  0  0  0  0
  5 38  1  0  0  0  0
  6  7  1  0  0  0  0
  6  8  1  0  0  0  0
  6  9  1  0  0  0  0
  7 39  1  0  0  0  0
  7 40  1  0  0  0  0
  7 41  1  0  0  0  0
  8 42  1  0  0  0  0
  8 43  1  0  0  0  0
  8 44  1  0  0  0  0
  9 45  1  0  0  0  0
 10 11  1  0  0  0  0
 10 46  1  0  0  0  0
 10 47  1  0  0  0  0
 11 12  1  0  0  0  0
 11 48  1  0  0  0  0
 11 49  1  0  0  0  0
 12 13  1  0  0  0  0
 13 18  1  0  0  0  0
 13 14  2  0  0  0  0
 14 15  1  0  0  0  0
 15 16  2  0  0  0  0
 15 50  1  0  0  0  0
 16 17  1  0  0  0  0
 17 21  1  0  0  0  0
 17 18  2  0  0  0  0
 18 19  1  0  0  0  0
 19 20  2  0  0  0  0
 20 21  1  0  0  0  0
 20 51  1  0  0  0  0
 21 22  1  0  0  0  0
 22 23  1  0  0  0  0
 22 52  1  0  0  0  0
 22 53  1  0  0  0  0
 23 24  1  0  0  0  0
 23 26  1  0  0  0  0
 23 54  1  0  0  0  0
 24 25  1  0  0  0  0
 24 55  1  0  0  0  0
 24 56  1  0  0  0  0
 25 57  1  0  0  0  0
 26 30  1  0  0  0  0
 26 27  1  0  0  0  0
 26 58  1  0  0  0  0
 27 28  1  0  0  0  0
 27 59  1  0  0  0  0
 27 60  1  0  0  0  0
 28 29  1  0  0  0  0
 28 61  1  0  0  0  0
 28 62  1  0  0  0  0
 29 30  1  0  0  0  0
 30 63  1  0  0  0  0
 30 64  1  0  0  0  0
M  CHG  1   4   1
M  END
> <s_m_source_file>
AV-unprocessed.smi

> <i_m_source_file_index>
212

> <i_lp_mmshare_version>
43012

> <i_f3d_flags>
0

> <s_epik_input>
W0NIM11bQ0BASF0xW0NIMl1OKFtDSDJdQyhbQ0gzXSkoW0NIM10pW09IXSlbQ0gyXVtDSDJdTjFjKG5bY0hdbjIpYyhjMjMpbltjSF1uM1tDSDJdW0NASF0oW0NIMl1bT0hdKVtDQEBIXTRbQ0gyXVtDSDJdT1tDSDJdNA==

> <s_epik_cmdline>
J2VwaWtfcHl0aG9uJywgJy1waCcsICc3LjAnLCAnLXRuJywgJzgnLCAnLW1hJywgJzIwMCcsICctbWV0YWxfYmluZGluZycsICctaW1hZScsICc8aW5maWxlLm1hZT4nLCAnLW9tYWUnLCAnPG91dGZpbGUubWFlPic=

> <r_lp_tautomer_probability>
1

> <r_epik_Ionization_Penalty>
0.00182193

> <r_epik_Ionization_Penalty_Charging>
0.00173996

> <r_epik_Ionization_Penalty_Neutral>
8.19718e-05

> <r_epik_State_Penalty>
-0

> <r_epik_Charging_Adjusted_Penalty>
0.00173996

> <i_epik_Tot_Q>
1

> <i_epik_Tot_abs_Q>
1

> <r_epik_Metal_State_Penalty>
-0

> <b_epik_Metal_Only>
0

> <s_lp_Force_Field>
OPLS_2005

> <r_lp_Energy>
57.8479

> <b_lp_Chiralities_Consistent>
1

> <s_lp_Variant>
AV-unprocessed.smi:212-13

> <Gold.Version>
5.8.1

> <Gold.Id.Protein>
6NUR|6NUR_protein|mol2

> <Gold.PLP.Fitness>
45.2811

> <Gold.PLP.PLP>
-36.7795

> <Gold.PLP.part.hbond>
-4.0796

> <Gold.PLP.part.metal>
0.0000

> <Gold.PLP.part.buried>
-4.4568

> <Gold.PLP.part.nonpolar>
-28.2343

> <Gold.PLP.part.repulsive>
0.2953

> <Gold.PLP.ligand.clash>
0.0000

> <Gold.PLP.ligand.torsion>
1.7143

> <Gold.PLP.Chemscore.Hbond>
2.5440

> <Gold.PLP.Chemscore.CHOScore>
1.0000

> <Gold.PLP.Chemscore.Metal>
0.0000

> <Gold.Chemscore.Hbonds>
donor molecule, donor type, donor heavy atom, donor atom, acceptor molecule, acceptor atom, score
      L1  H     9    45       P1  7921  1.00
      L1  H    25    57       P1  7957  0.17
      P1  H  7989  7998       L1    25  0.40
      P1  H  8011  8017       L1    25  0.94
      L1  C    15    50       P1 10175  1.00

> <Gold.PLP.Chemscore.Internal.Correction>
1.2982

> <Gold.Rescore>
     Score         DG    S(hbond)    S(metal)    S(lipo)     H(rot)  DE(clash)    DE(int)     intcor
     10.02     -14.35       2.06        0.00      97.55       3.68       0.04       4.28       ----

> <Gold.Chemscore.Fitness>
10.0229

> <Gold.Chemscore.DG>
-14.3514

> <Gold.Chemscore.ZeroCoef>
-5.4800

> <Gold.Chemscore.Hbond>
2.0606

> <Gold.Chemscore.Metal>
0.0000

> <Gold.Chemscore.Lipo>
97.5476

> <Gold.Chemscore.Internal_Hbond>
0.0000

> <Gold.Chemscore.DEClash>
0.0438

> <Gold.Chemscore.DEInternal>
4.2847

> <Gold.Chemscore.Rot>
3.6812

> <Gold.Chemscore.Internal.Correction>
   9.000000E+99

> <Gold.Chemscore.Hbonds>
donor molecule, donor type, donor heavy atom, donor atom, acceptor molecule, acceptor atom, score
      L1  H     9    45       P1  7921  0.93
      L1  H    25    57       P1  7957  0.17
      P1  H  7989  7998       L1    25  0.30
      P1  H  8011  8017       L1    25  0.17

> <Gold.Chemscore.Hbond.Weighted>
-6.8823

> <Gold.Chemscore.Metal.Weighted>
-0.0000

> <Gold.Chemscore.Lipo.Weighted>
-11.4131

> <Gold.Chemscore.Internal_Hbond.Weighted>
0.0000

> <Gold.Chemscore.DEClash.Weighted>
0.0438

> <Gold.Chemscore.DEInternal.Weighted>
4.2847

> <Gold.Chemscore.Rot.Weighted>
9.4239

> <Gold.Chemscore.Internal.Correction.Weighted>
   9.000000E+99

> <Gold.Protein.RotatedTorsions>
[ 6907 6896 6895 6894 ] final -107.77 input  -60.11 | X-H torsion
[ 7974 7965 7964 7962 ] final -134.53 input  175.53 | X-H torsion
[ 8008 7997 7996 7995 ] final   79.78 input   59.86 | X-H torsion
[ 10167 10162 10161 10158 ] final   28.83 input  -65.29 | X-H torsion
[ 10718 10713 10712 10709 ] final  -47.02 input   66.30 | X-H torsion
[ 10763 10752 10751 10750 ] final  161.76 input  -60.55 | X-H torsion
[ 11005 11000 10999 10996 ] final   69.84 input  -57.11 | X-H torsion

> <Gold.Protein.ActiveResidues>
 VAL166  LYS551  ARG553  GLY616  TRP617  ASP618  TYR619  PRO620  LYS621  CYS622 
 ASP623  PHE694  ASN695  SER759  ASP760  ASP761  ALA762  ILE779  LEU786  VAL792 
 PHE793  MET794  SER795  GLU796  ALA797  LYS798  CYS799  TRP800  GLU811  SER814 

> <Gold.Protein.RotatedAtoms>
  150.7463  133.9777  159.3565 H   0  0  0  0  0  0  0  0  0  0  0  0  # atno 6907 bound_to 6896
  151.7715  135.0783  160.0370 H   0  0  0  0  0  0  0  0  0  0  0  0  # atno 6908 bound_to 6896
  152.3336  133.5949  159.5863 H   0  0  0  0  0  0  0  0  0  0  0  0  # atno 6909 bound_to 6896
  144.9094  140.6876  143.5034 H   0  0  0  0  0  0  0  0  0  0  0  0  # atno 7974 bound_to 7965
  155.8744  140.3447  155.5844 H   0  0  0  0  0  0  0  0  0  0  0  0  # atno 8008 bound_to 7997
  155.7790  140.0856  157.2088 H   0  0  0  0  0  0  0  0  0  0  0  0  # atno 8009 bound_to 7997
  154.4019  140.1504  156.3018 H   0  0  0  0  0  0  0  0  0  0  0  0  # atno 8010 bound_to 7997
  140.4818  144.0604  150.6268 H   0  0  0  0  0  0  0  0  0  0  0  0  # atno 10167 bound_to 10162
  156.2125  130.4161  149.9096 H   0  0  0  0  0  0  0  0  0  0  0  0  # atno 10718 bound_to 10713
  154.2679  135.2766  155.2751 H   0  0  0  0  0  0  0  0  0  0  0  0  # atno 10763 bound_to 10752
  154.5327  135.5725  153.6776 H   0  0  0  0  0  0  0  0  0  0  0  0  # atno 10764 bound_to 10752
  152.9950  135.6232  154.2832 H   0  0  0  0  0  0  0  0  0  0  0  0  # atno 10765 bound_to 10752
  139.9631  134.7027  156.0603 H   0  0  0  0  0  0  0  0  0  0  0  0  # atno 11005 bound_to 11000
  145.3479  139.1714  143.4450 LP  0  0  0  0  0  0  0  0  0  0  0  0  # atno 17320 bound_to 7965
  146.3151  140.3528  142.8657 LP  0  0  0  0  0  0  0  0  0  0  0  0  # atno 17321 bound_to 7965
  140.3848  143.2783  152.0129 LP  0  0  0  0  0  0  0  0  0  0  0  0  # atno 17342 bound_to 10162
  139.4835  144.6125  151.7406 LP  0  0  0  0  0  0  0  0  0  0  0  0  # atno 17343 bound_to 10162
  156.6769  130.8843  151.3570 LP  0  0  0  0  0  0  0  0  0  0  0  0  # atno 17370 bound_to 10713
  157.7046  130.9370  150.0890 LP  0  0  0  0  0  0  0  0  0  0  0  0  # atno 17371 bound_to 10713
  141.1309  133.6586  156.3463 LP  0  0  0  0  0  0  0  0  0  0  0  0  # atno 17394 bound_to 11000
  140.5456  134.6078  157.5393 LP  0  0  0  0  0  0  0  0  0  0  0  0  # atno 17395 bound_to 11000

$$$$
