AV-unprocessed.smi:3042|AV-procd|sdf|11600|dock4
  -GOLD-   2272016573D 1   1.00000     0.00000
 Structure written by MMmdl.
 33 34  0  0  0  0  0  0  0  0  2 V2000
  147.1622  138.9243  151.8778 N   0  3  0  0  0  0  0  0  0  0  0  0
  146.8881  139.2434  153.2909 C   0  0  0  0  0  0  0  0  0  0  0  0
  147.7003  140.4699  153.7811 C   0  0  1  0  0  0  0  0  0  0  0  0
  146.7550  141.4259  154.5078 C   0  0  0  0  0  0  0  0  0  0  0  0
  146.5496  142.7466  154.0504 C   0  0  0  0  0  0  0  0  0  0  0  0
  145.6741  143.5861  154.7650 C   0  0  0  0  0  0  0  0  0  0  0  0
  145.0339  143.0698  155.9087 C   0  0  0  0  0  0  0  0  0  0  0  0
  145.2210  141.8096  156.3563 N   0  0  0  0  0  0  0  0  0  0  0  0
  146.0607  141.0102  155.6651 C   0  0  0  0  0  0  0  0  0  0  0  0
  148.8734  140.1326  154.6146 N   0  0  0  0  0  0  0  0  0  0  0  0
  149.6662  141.3211  154.9519 C   0  0  0  0  0  0  0  0  0  0  0  0
  150.8907  140.9871  155.8206 C   0  0  0  0  0  0  0  0  0  0  0  0
  151.7024  140.0324  155.1492 O   0  0  0  0  0  0  0  0  0  0  0  0
  150.9955  138.8351  154.8539 C   0  0  0  0  0  0  0  0  0  0  0  0
  149.7674  139.1570  153.9841 C   0  0  0  0  0  0  0  0  0  0  0  0
  147.4089  137.9486  151.7931 H   0  0  0  0  0  0  0  0  0  0  0  0
  147.9258  139.4950  151.5443 H   0  0  0  0  0  0  0  0  0  0  0  0
  145.8178  139.4138  153.4123 H   0  0  0  0  0  0  0  0  0  0  0  0
  147.1362  138.3464  153.8563 H   0  0  0  0  0  0  0  0  0  0  0  0
  148.0622  140.9897  152.8923 H   0  0  0  0  0  0  0  0  0  0  0  0
  147.0545  143.1110  153.1678 H   0  0  0  0  0  0  0  0  0  0  0  0
  145.4956  144.6016  154.4435 H   0  0  0  0  0  0  0  0  0  0  0  0
  144.3553  143.6858  156.4798 H   0  0  0  0  0  0  0  0  0  0  0  0
  146.1863  140.0096  156.0520 H   0  0  0  0  0  0  0  0  0  0  0  0
  150.0003  141.8130  154.0370 H   0  0  0  0  0  0  0  0  0  0  0  0
  149.0604  142.0493  155.4905 H   0  0  0  0  0  0  0  0  0  0  0  0
  151.4789  141.8858  156.0063 H   0  0  0  0  0  0  0  0  0  0  0  0
  150.5824  140.5984  156.7925 H   0  0  0  0  0  0  0  0  0  0  0  0
  151.6612  138.1493  154.3299 H   0  0  0  0  0  0  0  0  0  0  0  0
  150.6946  138.3433  155.7805 H   0  0  0  0  0  0  0  0  0  0  0  0
  149.2456  138.2189  153.8035 H   0  0  0  0  0  0  0  0  0  0  0  0
  150.0982  139.5301  153.0137 H   0  0  0  0  0  0  0  0  0  0  0  0
  146.3367  139.1124  151.3268 H   0  0  0  0  0  0  0  0  0  0  0  0
  1  2  1  0  0  0  0
  1 16  1  0  0  0  0
  1 17  1  0  0  0  0
  1 33  1  0  0  0  0
  2  3  1  0  0  0  0
  2 18  1  0  0  0  0
  2 19  1  0  0  0  0
  3  4  1  0  0  0  0
  3 10  1  0  0  0  0
  3 20  1  0  0  0  0
  4  9  1  0  0  0  0
  4  5  2  0  0  0  0
  5  6  1  0  0  0  0
  5 21  1  0  0  0  0
  6  7  2  0  0  0  0
  6 22  1  0  0  0  0
  7  8  1  0  0  0  0
  7 23  1  0  0  0  0
  8  9  2  0  0  0  0
  9 24  1  0  0  0  0
 10 15  1  0  0  0  0
 10 11  1  0  0  0  0
 11 12  1  0  0  0  0
 11 25  1  0  0  0  0
 11 26  1  0  0  0  0
 12 13  1  0  0  0  0
 12 27  1  0  0  0  0
 12 28  1  0  0  0  0
 13 14  1  0  0  0  0
 14 15  1  0  0  0  0
 14 29  1  0  0  0  0
 14 30  1  0  0  0  0
 15 31  1  0  0  0  0
 15 32  1  0  0  0  0
M  CHG  1   1   1
M  END
> <s_m_source_file>
AV-unprocessed.smi

> <i_m_source_file_index>
3042

> <i_lp_mmshare_version>
43012

> <i_f3d_flags>
0

> <s_epik_input>
W0NIMl0xW0NIMl1PW0NIMl1bQ0gyXU4xW0NASF0oW0NIMl1bTkgyXSljMltjSF1bY0hdW2NIXW5bY0hdMg==

> <s_epik_cmdline>
J2VwaWtfcHl0aG9uJywgJy1waCcsICc3LjAnLCAnLXRuJywgJzgnLCAnLW1hJywgJzIwMCcsICctbWV0YWxfYmluZGluZycsICctaW1hZScsICc8aW5maWxlLm1hZT4nLCAnLW9tYWUnLCAnPG91dGZpbGUubWFlPic=

> <r_epik_Ionization_Penalty>
0.0112597

> <r_epik_Ionization_Penalty_Charging>
0.00794922

> <r_epik_Ionization_Penalty_Neutral>
0.00331052

> <r_epik_State_Penalty>
0.00596555

> <r_epik_Charging_Adjusted_Penalty>
0.0139148

> <i_epik_Tot_Q>
1

> <i_epik_Tot_abs_Q>
1

> <r_epik_Metal_State_Penalty>
0.00603286

> <b_epik_Metal_Only>
0

> <s_lp_Force_Field>
OPLS_2005

> <r_lp_Energy>
28.2789

> <b_lp_Chiralities_Consistent>
1

> <s_lp_Variant>
AV-unprocessed.smi:3042-2

> <Gold.Version>
5.8.1

> <Gold.Id.Protein>
6NUR|6NUR_protein|mol2

> <Gold.PLP.Fitness>
40.8657

> <Gold.PLP.PLP>
-30.8590

> <Gold.PLP.part.hbond>
-3.0000

> <Gold.PLP.part.metal>
0.0000

> <Gold.PLP.part.buried>
-4.2452

> <Gold.PLP.part.nonpolar>
-23.9204

> <Gold.PLP.part.repulsive>
0.2813

> <Gold.PLP.ligand.clash>
0.0000

> <Gold.PLP.ligand.torsion>
0.7048

> <Gold.PLP.Chemscore.Hbond>
3.7798

> <Gold.PLP.Chemscore.CHOScore>
0.0000

> <Gold.PLP.Chemscore.Metal>
0.0000

> <Gold.Chemscore.Hbonds>
donor molecule, donor type, donor heavy atom, donor atom, acceptor molecule, acceptor atom, score
      L1  H     1    16       P1  7948  0.75
      L1  H     1    17       P1  7957  1.00
      P1  H  7989  7998       L1    13  0.78

> <Gold.PLP.Chemscore.Internal.Correction>
0.0771

> <Gold.Rescore>
     Score         DG    S(hbond)    S(metal)    S(lipo)     H(rot)  DE(clash)    DE(int)     intcor
     15.46     -16.25       1.98        0.00      68.16       1.48       0.02       0.77       ----

> <Gold.Chemscore.Fitness>
15.4554

> <Gold.Chemscore.DG>
-16.2518

> <Gold.Chemscore.ZeroCoef>
-5.4800

> <Gold.Chemscore.Hbond>
1.9752

> <Gold.Chemscore.Metal>
0.0000

> <Gold.Chemscore.Lipo>
68.1632

> <Gold.Chemscore.Internal_Hbond>
0.0000

> <Gold.Chemscore.DEClash>
0.0224

> <Gold.Chemscore.DEInternal>
0.7740

> <Gold.Chemscore.Rot>
1.4846

> <Gold.Chemscore.Internal.Correction>
   9.000000E+99

> <Gold.Chemscore.Hbonds>
donor molecule, donor type, donor heavy atom, donor atom, acceptor molecule, acceptor atom, score
      L1  H     1    16       P1  7948  0.35
      L1  H     1    17       P1  7957  0.99
      P1  H  7989  7998       L1    13  0.03

> <Gold.Chemscore.Hbond.Weighted>
-6.5972

> <Gold.Chemscore.Metal.Weighted>
-0.0000

> <Gold.Chemscore.Lipo.Weighted>
-7.9751

> <Gold.Chemscore.Internal_Hbond.Weighted>
0.0000

> <Gold.Chemscore.DEClash.Weighted>
0.0224

> <Gold.Chemscore.DEInternal.Weighted>
0.7740

> <Gold.Chemscore.Rot.Weighted>
3.8005

> <Gold.Chemscore.Internal.Correction.Weighted>
   9.000000E+99

> <Gold.Protein.RotatedTorsions>
[ 6907 6896 6895 6894 ] final   96.71 input  -60.11 | X-H torsion
[ 7974 7965 7964 7962 ] final -121.17 input  175.53 | X-H torsion
[ 8008 7997 7996 7995 ] final   69.64 input   59.86 | X-H torsion
[ 10167 10162 10161 10158 ] final   83.95 input  -65.29 | X-H torsion
[ 10718 10713 10712 10709 ] final  117.60 input   66.30 | X-H torsion
[ 10763 10752 10751 10750 ] final  -15.95 input  -60.55 | X-H torsion
[ 11005 11000 10999 10996 ] final -154.48 input  -57.11 | X-H torsion

> <Gold.Protein.ActiveResidues>
 VAL166  LYS551  ARG553  GLY616  TRP617  ASP618  TYR619  PRO620  LYS621  CYS622 
 ASP623  PHE694  ASN695  SER759  ASP760  ASP761  ALA762  ILE779  LEU786  VAL792 
 PHE793  MET794  SER795  GLU796  ALA797  LYS798  CYS799  TRP800  GLU811  SER814 

> <Gold.Protein.RotatedAtoms>
  152.5432  134.0844  159.8249 H   0  0  0  0  0  0  0  0  0  0  0  0  # atno 6907 bound_to 6896
  151.0942  133.5285  159.2620 H   0  0  0  0  0  0  0  0  0  0  0  0  # atno 6908 bound_to 6896
  151.2065  135.0473  159.8948 H   0  0  0  0  0  0  0  0  0  0  0  0  # atno 6909 bound_to 6896
  145.0432  140.8161  143.4253 H   0  0  0  0  0  0  0  0  0  0  0  0  # atno 7974 bound_to 7965
  155.7266  140.3492  155.5040 H   0  0  0  0  0  0  0  0  0  0  0  0  # atno 8008 bound_to 7997
  155.9221  140.1069  157.1220 H   0  0  0  0  0  0  0  0  0  0  0  0  # atno 8009 bound_to 7997
  154.4071  140.1247  156.4679 H   0  0  0  0  0  0  0  0  0  0  0  0  # atno 8010 bound_to 7997
  139.9131  144.6259  150.8517 H   0  0  0  0  0  0  0  0  0  0  0  0  # atno 10167 bound_to 10162
  157.6085  131.1039  150.7638 H   0  0  0  0  0  0  0  0  0  0  0  0  # atno 10718 bound_to 10713
  153.5512  135.7011  153.5590 H   0  0  0  0  0  0  0  0  0  0  0  0  # atno 10763 bound_to 10752
  153.3514  135.3994  155.1648 H   0  0  0  0  0  0  0  0  0  0  0  0  # atno 10764 bound_to 10752
  154.8661  135.3766  154.5023 H   0  0  0  0  0  0  0  0  0  0  0  0  # atno 10765 bound_to 10752
  140.6969  134.3980  157.5214 H   0  0  0  0  0  0  0  0  0  0  0  0  # atno 11005 bound_to 11000
  145.1620  139.2453  143.5386 LP  0  0  0  0  0  0  0  0  0  0  0  0  # atno 17320 bound_to 7965
  146.3511  140.1350  142.8596 LP  0  0  0  0  0  0  0  0  0  0  0  0  # atno 17321 bound_to 7965
  140.7680  143.3351  151.2326 LP  0  0  0  0  0  0  0  0  0  0  0  0  # atno 17342 bound_to 10162
  139.6925  143.9667  152.2866 LP  0  0  0  0  0  0  0  0  0  0  0  0  # atno 17343 bound_to 10162
  156.8021  130.4924  149.5368 LP  0  0  0  0  0  0  0  0  0  0  0  0  # atno 17370 bound_to 10713
  156.1180  130.6089  151.0150 LP  0  0  0  0  0  0  0  0  0  0  0  0  # atno 17371 bound_to 10713
  139.8908  134.8796  156.2353 LP  0  0  0  0  0  0  0  0  0  0  0  0  # atno 17394 bound_to 11000
  141.0196  133.7049  156.1246 LP  0  0  0  0  0  0  0  0  0  0  0  0  # atno 17395 bound_to 11000

$$$$
