AV-unprocessed.smi:920|AV-procd|sdf|4168|dock2
  -GOLD-   22720 2 73D 1   1.00000     0.00000
 Structure written by MMmdl.
 37 38  0  0  0  0  0  0  0  0  1 V2000
  155.2173  133.3185  161.2586 C   0  0  0  0  0  0  0  0  0  0  0  0
  155.3582  134.4697  162.0840 O   0  0  0  0  0  0  0  0  0  0  0  0
  154.9171  135.6828  161.5962 C   0  0  0  0  0  0  0  0  0  0  0  0
  155.1334  136.8401  162.3705 C   0  0  0  0  0  0  0  0  0  0  0  0
  154.6846  138.0816  161.8808 C   0  0  0  0  0  0  0  0  0  0  0  0
  154.0227  138.1243  160.6308 C   0  0  0  0  0  0  0  0  0  0  0  0
  153.5434  139.3150  160.0214 N   0  0  0  0  0  0  0  0  0  0  0  0
  153.6780  140.5827  160.4467 C   0  0  0  0  0  0  0  0  0  0  0  0
  154.2247  140.9248  161.4951 O   0  0  0  0  0  0  0  0  0  0  0  0
  153.1151  141.4415  159.5843 N   0  0  0  0  0  0  0  0  0  0  0  0
  153.0611  142.8937  159.7323 C   0  0  0  0  0  0  0  0  0  0  0  0
  152.3806  143.2573  161.0661 C   0  0  0  0  0  0  0  0  0  0  0  0
  152.2188  144.7785  161.2201 C   0  0  0  0  0  0  0  0  0  0  0  0
  151.4584  145.3827  160.0292 C   0  0  0  0  0  0  0  0  0  0  0  0
  152.1428  145.0298  158.6993 C   0  0  0  0  0  0  0  0  0  0  0  0
  152.3024  143.5089  158.5407 C   0  0  0  0  0  0  0  0  0  0  0  0
  153.8690  136.9118  159.9274 C   0  0  0  0  0  0  0  0  0  0  0  0
  154.2972  135.7189  160.3909 N   0  0  0  0  0  0  0  0  0  0  0  0
  155.6062  132.4472  161.7853 H   0  0  0  0  0  0  0  0  0  0  0  0
  155.7809  133.4230  160.3303 H   0  0  0  0  0  0  0  0  0  0  0  0
  154.1708  133.1216  161.0219 H   0  0  0  0  0  0  0  0  0  0  0  0
  155.6399  136.7779  163.3224 H   0  0  0  0  0  0  0  0  0  0  0  0
  154.8691  138.9712  162.4628 H   0  0  0  0  0  0  0  0  0  0  0  0
  152.9884  139.1819  159.1888 H   0  0  0  0  0  0  0  0  0  0  0  0
  152.6855  141.0597  158.7544 H   0  0  0  0  0  0  0  0  0  0  0  0
  154.0692  143.3123  159.7403 H   0  0  0  0  0  0  0  0  0  0  0  0
  151.3991  142.7840  161.1222 H   0  0  0  0  0  0  0  0  0  0  0  0
  152.9618  142.8639  161.9010 H   0  0  0  0  0  0  0  0  0  0  0  0
  151.6947  145.0046  162.1492 H   0  0  0  0  0  0  0  0  0  0  0  0
  153.2022  145.2436  161.2990 H   0  0  0  0  0  0  0  0  0  0  0  0
  150.4326  145.0116  160.0229 H   0  0  0  0  0  0  0  0  0  0  0  0
  151.3949  146.4656  160.1389 H   0  0  0  0  0  0  0  0  0  0  0  0
  151.5665  145.4321  157.8659 H   0  0  0  0  0  0  0  0  0  0  0  0
  153.1231  145.5061  158.6555 H   0  0  0  0  0  0  0  0  0  0  0  0
  152.8285  143.2905  157.6106 H   0  0  0  0  0  0  0  0  0  0  0  0
  151.3160  143.0508  158.4529 H   0  0  0  0  0  0  0  0  0  0  0  0
  153.3828  136.8955  158.9629 H   0  0  0  0  0  0  0  0  0  0  0  0
  1  2  1  0  0  0  0
  1 19  1  0  0  0  0
  1 20  1  0  0  0  0
  1 21  1  0  0  0  0
  2  3  1  0  0  0  0
  3 18  1  0  0  0  0
  3  4  2  0  0  0  0
  4  5  1  0  0  0  0
  4 22  1  0  0  0  0
  5  6  2  0  0  0  0
  5 23  1  0  0  0  0
  6  7  1  0  0  0  0
  6 17  1  0  0  0  0
  7  8  1  0  0  0  0
  7 24  1  0  0  0  0
  8  9  2  0  0  0  0
  8 10  1  0  0  0  0
 10 11  1  0  0  0  0
 10 25  1  0  0  0  0
 11 16  1  0  0  0  0
 11 12  1  0  0  0  0
 11 26  1  0  0  0  0
 12 13  1  0  0  0  0
 12 27  1  0  0  0  0
 12 28  1  0  0  0  0
 13 14  1  0  0  0  0
 13 29  1  0  0  0  0
 13 30  1  0  0  0  0
 14 15  1  0  0  0  0
 14 31  1  0  0  0  0
 14 32  1  0  0  0  0
 15 16  1  0  0  0  0
 15 33  1  0  0  0  0
 15 34  1  0  0  0  0
 16 35  1  0  0  0  0
 16 36  1  0  0  0  0
 17 18  2  0  0  0  0
 17 37  1  0  0  0  0
M  END
> <s_m_source_file>
AV-unprocessed.smi

> <i_m_source_file_index>
920

> <i_lp_mmshare_version>
43012

> <i_f3d_flags>
0

> <s_epik_input>
W0NIM11PYzFbY0hdW2NIXWMoW2NIXW4xKVtOSF1DKD1PKVtOSF1bQ0hdMltDSDJdW0NIMl1bQ0gyXVtDSDJdW0NIMl0y

> <s_epik_cmdline>
J2VwaWtfcHl0aG9uJywgJy1waCcsICc3LjAnLCAnLXRuJywgJzgnLCAnLW1hJywgJzIwMCcsICctbWV0YWxfYmluZGluZycsICctaW1hZScsICc8aW5maWxlLm1hZT4nLCAnLW9tYWUnLCAnPG91dGZpbGUubWFlPic=

> <r_lp_tautomer_probability>
1

> <r_epik_Ionization_Penalty>
9.99378e-05

> <r_epik_Ionization_Penalty_Charging>
0

> <r_epik_Ionization_Penalty_Neutral>
9.99378e-05

> <r_epik_State_Penalty>
-0

> <r_epik_Charging_Adjusted_Penalty>
0

> <i_epik_Tot_Q>
0

> <i_epik_Tot_abs_Q>
0

> <r_epik_Metal_State_Penalty>
-0

> <b_epik_Metal_Only>
0

> <s_lp_Force_Field>
OPLS_2005

> <r_lp_Energy>
12.0005

> <b_lp_Chiralities_Consistent>
1

> <s_lp_Variant>
AV-unprocessed.smi:920-1

> <Gold.Version>
5.8.1

> <Gold.Id.Protein>
6NUR|6NUR_protein|mol2

> <Gold.PLP.Fitness>
41.6268

> <Gold.PLP.PLP>
-38.6791

> <Gold.PLP.part.hbond>
-1.0000

> <Gold.PLP.part.metal>
0.0000

> <Gold.PLP.part.buried>
-5.0484

> <Gold.PLP.part.nonpolar>
-32.5470

> <Gold.PLP.part.repulsive>
0.1552

> <Gold.PLP.ligand.clash>
0.0000

> <Gold.PLP.ligand.torsion>
0.0287

> <Gold.PLP.Chemscore.Hbond>
1.0000

> <Gold.PLP.Chemscore.CHOScore>
0.0000

> <Gold.PLP.Chemscore.Metal>
0.0000

> <Gold.Chemscore.Hbonds>
donor molecule, donor type, donor heavy atom, donor atom, acceptor molecule, acceptor atom, score
      P1  H  6896  6907       L1    18  0.61

> <Gold.PLP.Chemscore.Internal.Correction>
0.0051

> <Gold.Rescore>
     Score         DG    S(hbond)    S(metal)    S(lipo)     H(rot)  DE(clash)    DE(int)     intcor
     15.00     -16.32       0.66        0.00     100.55       1.23       0.03       1.29       ----

> <Gold.Chemscore.Fitness>
14.9989

> <Gold.Chemscore.DG>
-16.3176

> <Gold.Chemscore.ZeroCoef>
-5.4800

> <Gold.Chemscore.Hbond>
0.6613

> <Gold.Chemscore.Metal>
0.0000

> <Gold.Chemscore.Lipo>
100.5548

> <Gold.Chemscore.Internal_Hbond>
0.0000

> <Gold.Chemscore.DEClash>
0.0270

> <Gold.Chemscore.DEInternal>
1.2917

> <Gold.Chemscore.Rot>
1.2250

> <Gold.Chemscore.Internal.Correction>
   9.000000E+99

> <Gold.Chemscore.Hbonds>
donor molecule, donor type, donor heavy atom, donor atom, acceptor molecule, acceptor atom, score
      P1  H  6896  6907       L1    18  0.12

> <Gold.Chemscore.Hbond.Weighted>
-2.2087

> <Gold.Chemscore.Metal.Weighted>
-0.0000

> <Gold.Chemscore.Lipo.Weighted>
-11.7649

> <Gold.Chemscore.Internal_Hbond.Weighted>
0.0000

> <Gold.Chemscore.DEClash.Weighted>
0.0270

> <Gold.Chemscore.DEInternal.Weighted>
1.2917

> <Gold.Chemscore.Rot.Weighted>
3.1360

> <Gold.Chemscore.Internal.Correction.Weighted>
   9.000000E+99

> <Gold.Protein.RotatedTorsions>
[ 6907 6896 6895 6894 ] final   65.44 input  -60.11 | X-H torsion
[ 7974 7965 7964 7962 ] final  113.60 input  175.53 | X-H torsion
[ 8008 7997 7996 7995 ] final  171.82 input   59.86 | X-H torsion
[ 10167 10162 10161 10158 ] final   -4.43 input  -65.29 | X-H torsion
[ 10718 10713 10712 10709 ] final   14.51 input   66.30 | X-H torsion
[ 10763 10752 10751 10750 ] final  120.75 input  -60.55 | X-H torsion
[ 11005 11000 10999 10996 ] final -107.98 input  -57.11 | X-H torsion

> <Gold.Protein.ActiveResidues>
 VAL166  LYS551  ARG553  GLY616  TRP617  ASP618  TYR619  PRO620  LYS621  CYS622 
 ASP623  PHE694  ASN695  SER759  ASP760  ASP761  ALA762  ILE779  LEU786  VAL792 
 PHE793  MET794  SER795  GLU796  ALA797  LYS798  CYS799  TRP800  GLU811  SER814 

> <Gold.Protein.RotatedAtoms>
  152.4408  134.5595  159.9889 H   0  0  0  0  0  0  0  0  0  0  0  0  # atno 6907 bound_to 6896
  151.5693  133.3386  159.2994 H   0  0  0  0  0  0  0  0  0  0  0  0  # atno 6908 bound_to 6896
  150.8313  134.7602  159.6920 H   0  0  0  0  0  0  0  0  0  0  0  0  # atno 6909 bound_to 6896
  145.2149  139.2889  143.4249 H   0  0  0  0  0  0  0  0  0  0  0  0  # atno 7974 bound_to 7965
  156.1234  140.1502  156.9171 H   0  0  0  0  0  0  0  0  0  0  0  0  # atno 8008 bound_to 7997
  154.4853  140.0867  156.7513 H   0  0  0  0  0  0  0  0  0  0  0  0  # atno 8009 bound_to 7997
  155.4387  140.3430  155.4290 H   0  0  0  0  0  0  0  0  0  0  0  0  # atno 8010 bound_to 7997
  140.6927  143.6424  150.8423 H   0  0  0  0  0  0  0  0  0  0  0  0  # atno 10167 bound_to 10162
  157.0402  130.6228  149.5749 H   0  0  0  0  0  0  0  0  0  0  0  0  # atno 10718 bound_to 10713
  153.6034  135.3444  155.2953 H   0  0  0  0  0  0  0  0  0  0  0  0  # atno 10763 bound_to 10752
  154.8632  135.4233  154.2388 H   0  0  0  0  0  0  0  0  0  0  0  0  # atno 10764 bound_to 10752
  153.3221  135.7039  153.7093 H   0  0  0  0  0  0  0  0  0  0  0  0  # atno 10765 bound_to 10752
  141.0926  133.9029  157.2040 H   0  0  0  0  0  0  0  0  0  0  0  0  # atno 11005 bound_to 11000
  146.3389  140.2436  142.8596 LP  0  0  0  0  0  0  0  0  0  0  0  0  # atno 17320 bound_to 7965
  144.9820  140.8468  143.5391 LP  0  0  0  0  0  0  0  0  0  0  0  0  # atno 17321 bound_to 7965
  140.0139  143.5613  152.2828 LP  0  0  0  0  0  0  0  0  0  0  0  0  # atno 17342 bound_to 10162
  139.6347  144.7648  151.2462 LP  0  0  0  0  0  0  0  0  0  0  0  0  # atno 17343 bound_to 10162
  156.0040  130.5124  150.7766 LP  0  0  0  0  0  0  0  0  0  0  0  0  # atno 17370 bound_to 10713
  157.5110  131.0925  151.0198 LP  0  0  0  0  0  0  0  0  0  0  0  0  # atno 17371 bound_to 10713
  139.9755  135.0115  156.9619 LP  0  0  0  0  0  0  0  0  0  0  0  0  # atno 17394 bound_to 11000
  140.5217  134.0901  155.7293 LP  0  0  0  0  0  0  0  0  0  0  0  0  # atno 17395 bound_to 11000

$$$$
