AV-unprocessed.smi:102|AV-procd|sdf|966|dock9
  -GOLD-   2262017513D 1   1.00000     0.00000
 Structure written by MMmdl.
 43 44  0  0  0  0  0  0  0  0  2 V2000
  148.5748  135.2227  162.3495 C   0  0  0  0  0  0  0  0  0  0  0  0
  148.5849  135.7286  160.9130 C   0  0  0  0  0  0  0  0  0  0  0  0
  149.1413  136.7828  160.6054 O   0  0  0  0  0  0  0  0  0  0  0  0
  147.9349  134.9071  160.0789 O   0  0  0  0  0  0  0  0  0  0  0  0
  148.3299  134.8160  158.7186 C   0  0  0  0  0  0  0  0  0  0  0  0
  147.8671  136.0591  157.9413 C   0  0  1  0  0  0  0  0  0  0  0  0
  148.9240  136.9887  157.7819 O   0  0  0  0  0  0  0  0  0  0  0  0
  148.5881  137.8622  156.7521 C   0  0  1  0  0  0  0  0  0  0  0  0
  149.8617  138.3172  156.0783 N   0  0  0  0  0  0  0  0  0  0  0  0
  151.0520  137.6906  156.3997 C   0  0  0  0  0  0  0  0  0  0  0  0
  152.2093  138.0324  155.7977 C   0  0  0  0  0  0  0  0  0  0  0  0
  153.3502  137.4071  156.1359 F   0  0  0  0  0  0  0  0  0  0  0  0
  152.2112  139.0791  154.7775 C   0  0  0  0  0  0  0  0  0  0  0  0
  153.2714  139.3967  154.2407 O   0  0  0  0  0  0  0  0  0  0  0  0
  151.0194  139.6623  154.4603 N   0  5  0  0  0  0  0  0  0  0  0  0
  149.8431  139.3113  155.0582 C   0  0  0  0  0  0  0  0  0  0  0  0
  148.7630  139.8136  154.7503 O   0  0  0  0  0  0  0  0  0  0  0  0
  147.6248  137.1364  155.7924 C   0  0  2  0  0  0  0  0  0  0  0  0
  146.4682  137.9330  155.5706 O   0  0  0  0  0  0  0  0  0  0  0  0
  145.7499  138.3849  156.6137 C   0  0  0  0  0  0  0  0  0  0  0  0
  144.4470  139.0429  156.1794 C   0  0  0  0  0  0  0  0  0  0  0  0
  146.0678  138.3104  157.8007 O   0  0  0  0  0  0  0  0  0  0  0  0
  147.2726  135.8499  156.5373 C   0  0  1  0  0  0  0  0  0  0  0  0
  147.8230  134.7533  155.8156 O   0  0  0  0  0  0  0  0  0  0  0  0
  147.4801  134.5237  154.5367 C   0  0  0  0  0  0  0  0  0  0  0  0
  148.3013  133.4051  153.9101 C   0  0  0  0  0  0  0  0  0  0  0  0
  146.6045  135.1108  153.9010 O   0  0  0  0  0  0  0  0  0  0  0  0
  147.6532  134.6781  162.5572 H   0  0  0  0  0  0  0  0  0  0  0  0
  148.6467  136.0568  163.0474 H   0  0  0  0  0  0  0  0  0  0  0  0
  149.4182  134.5535  162.5193 H   0  0  0  0  0  0  0  0  0  0  0  0
  149.4135  134.7175  158.6407 H   0  0  0  0  0  0  0  0  0  0  0  0
  147.8895  133.9185  158.2831 H   0  0  0  0  0  0  0  0  0  0  0  0
  147.1057  136.5627  158.5389 H   0  0  0  0  0  0  0  0  0  0  0  0
  148.1395  138.7555  157.1898 H   0  0  0  0  0  0  0  0  0  0  0  0
  151.0633  136.9124  157.1486 H   0  0  0  0  0  0  0  0  0  0  0  0
  148.1277  136.9288  154.8467 H   0  0  0  0  0  0  0  0  0  0  0  0
  143.9177  138.4079  155.4688 H   0  0  0  0  0  0  0  0  0  0  0  0
  144.6496  140.0029  155.7041 H   0  0  0  0  0  0  0  0  0  0  0  0
  143.7992  139.2128  157.0395 H   0  0  0  0  0  0  0  0  0  0  0  0
  146.1893  135.7434  156.6115 H   0  0  0  0  0  0  0  0  0  0  0  0
  148.5595  132.6546  154.6578 H   0  0  0  0  0  0  0  0  0  0  0  0
  149.2230  133.8058  153.4883 H   0  0  0  0  0  0  0  0  0  0  0  0
  147.7375  132.9184  153.1141 H   0  0  0  0  0  0  0  0  0  0  0  0
  1  2  1  0  0  0  0
  1 28  1  0  0  0  0
  1 29  1  0  0  0  0
  1 30  1  0  0  0  0
  2  3  2  0  0  0  0
  2  4  1  0  0  0  0
  4  5  1  0  0  0  0
  5  6  1  0  0  0  0
  5 31  1  0  0  0  0
  5 32  1  0  0  0  0
  6 23  1  0  0  0  0
  6  7  1  0  0  0  0
  6 33  1  0  0  0  0
  7  8  1  0  0  0  0
  8  9  1  0  0  0  0
  8 18  1  0  0  0  0
  8 34  1  0  0  0  0
  9 16  1  0  0  0  0
  9 10  1  0  0  0  0
 10 11  2  0  0  0  0
 10 35  1  0  0  0  0
 11 12  1  0  0  0  0
 11 13  1  0  0  0  0
 13 14  2  0  0  0  0
 13 15  1  0  0  0  0
 15 16  1  0  0  0  0
 16 17  2  0  0  0  0
 18 19  1  0  0  0  0
 18 23  1  0  0  0  0
 18 36  1  0  0  0  0
 19 20  1  0  0  0  0
 20 21  1  0  0  0  0
 20 22  2  0  0  0  0
 21 37  1  0  0  0  0
 21 38  1  0  0  0  0
 21 39  1  0  0  0  0
 23 24  1  0  0  0  0
 23 40  1  0  0  0  0
 24 25  1  0  0  0  0
 25 26  1  0  0  0  0
 25 27  2  0  0  0  0
 26 41  1  0  0  0  0
 26 42  1  0  0  0  0
 26 43  1  0  0  0  0
M  CHG  1  15  -1
M  END
> <s_m_source_file>
AV-unprocessed.smi

> <i_m_source_file_index>
102

> <i_lp_mmshare_version>
43012

> <i_f3d_flags>
0

> <s_epik_input>
W0NIM11DKD1PKU9bQ0gyXVtDQEBIXTFPW0NASF0oW0NAQEhdKE9DKD1PKVtDSDNdKVtDQEhdMU9DKD1PKVtDSDNdKW4yW2NIXWMoRiljKD1PKVtuSF1jMj1P

> <s_epik_cmdline>
J2VwaWtfcHl0aG9uJywgJy1waCcsICc3LjAnLCAnLXRuJywgJzgnLCAnLW1hJywgJzIwMCcsICctbWV0YWxfYmluZGluZycsICctaW1hZScsICc8aW5maWxlLm1hZT4nLCAnLW9tYWUnLCAnPG91dGZpbGUubWFlPic=

> <r_epik_Ionization_Penalty>
1.40304

> <r_epik_Ionization_Penalty_Charging>
1.43915e-08

> <r_epik_Ionization_Penalty_Neutral>
1.40304

> <r_epik_State_Penalty>
1.48536

> <r_epik_Charging_Adjusted_Penalty>
1.48536

> <i_epik_Tot_Q>
-1

> <i_epik_Tot_abs_Q>
1

> <r_epik_Metal_State_Penalty>
0.00663881

> <b_epik_Metal_Only>
0

> <s_epik_Chemistry_Notes>
This compound has an ester and may undergo hydrolysis at high or low pH. This compound contains an acetal/aminal-like group ( X-CH(R)-Y where X, Y are N, S, or O) that may be acid/base labile, releasing an aldehyde.

> <s_lp_Force_Field>
OPLS_2005

> <r_lp_Energy>
16.3749

> <b_lp_Chiralities_Consistent>
1

> <s_lp_Variant>
AV-unprocessed.smi:102-22

> <Gold.Version>
5.8.1

> <Gold.Id.Protein>
6NUR|6NUR_protein|mol2

> <Gold.PLP.Fitness>
34.1138

> <Gold.PLP.PLP>
-26.7568

> <Gold.PLP.part.hbond>
-5.0000

> <Gold.PLP.part.metal>
0.0000

> <Gold.PLP.part.buried>
-3.6997

> <Gold.PLP.part.nonpolar>
-18.0538

> <Gold.PLP.part.repulsive>
1.2417

> <Gold.PLP.ligand.clash>
0.0000

> <Gold.PLP.ligand.torsion>
1.2623

> <Gold.PLP.Chemscore.Hbond>
3.2455

> <Gold.PLP.Chemscore.CHOScore>
0.0000

> <Gold.PLP.Chemscore.Metal>
0.0000

> <Gold.Chemscore.Hbonds>
donor molecule, donor type, donor heavy atom, donor atom, acceptor molecule, acceptor atom, score
      P1  H  6931  6943       L1     3  0.77
      P1  H  7989  7998       L1    15  0.85
      P1  H  7997  8010       L1    14  0.57

> <Gold.PLP.Chemscore.Internal.Correction>
0.1453

> <Gold.Rescore>
     Score         DG    S(hbond)    S(metal)    S(lipo)     H(rot)  DE(clash)    DE(int)     intcor
      2.87      -7.98       2.80        0.00      28.83       4.00       0.00       5.11       ----

> <Gold.Chemscore.Fitness>
2.8715

> <Gold.Chemscore.DG>
-7.9799

> <Gold.Chemscore.ZeroCoef>
-5.4800

> <Gold.Chemscore.Hbond>
2.8008

> <Gold.Chemscore.Metal>
0.0000

> <Gold.Chemscore.Lipo>
28.8263

> <Gold.Chemscore.Internal_Hbond>
0.0000

> <Gold.Chemscore.DEClash>
0.0000

> <Gold.Chemscore.DEInternal>
5.1085

> <Gold.Chemscore.Rot>
3.9951

> <Gold.Chemscore.Internal.Correction>
   9.000000E+99

> <Gold.Chemscore.Hbonds>
donor molecule, donor type, donor heavy atom, donor atom, acceptor molecule, acceptor atom, score
      P1  H  6931  6943       L1     3  0.72
      P1  H  7989  7998       L1    15  0.15
      P1  H  7997  8010       L1    14  0.19

> <Gold.Chemscore.Hbond.Weighted>
-9.3547

> <Gold.Chemscore.Metal.Weighted>
-0.0000

> <Gold.Chemscore.Lipo.Weighted>
-3.3727

> <Gold.Chemscore.Internal_Hbond.Weighted>
0.0000

> <Gold.Chemscore.DEClash.Weighted>
0.0000

> <Gold.Chemscore.DEInternal.Weighted>
5.1085

> <Gold.Chemscore.Rot.Weighted>
10.2274

> <Gold.Chemscore.Internal.Correction.Weighted>
   9.000000E+99

> <Gold.Protein.RotatedTorsions>
[ 6907 6896 6895 6894 ] final  179.07 input  -60.11 | X-H torsion
[ 7974 7965 7964 7962 ] final   29.14 input  175.53 | X-H torsion
[ 8008 7997 7996 7995 ] final   99.20 input   59.86 | X-H torsion
[ 10167 10162 10161 10158 ] final -116.63 input  -65.29 | X-H torsion
[ 10718 10713 10712 10709 ] final  -78.72 input   66.30 | X-H torsion
[ 10763 10752 10751 10750 ] final  -85.89 input  -60.55 | X-H torsion
[ 11005 11000 10999 10996 ] final -161.47 input  -57.11 | X-H torsion

> <Gold.Protein.ActiveResidues>
 VAL166  LYS551  ARG553  GLY616  TRP617  ASP618  TYR619  PRO620  LYS621  CYS622 
 ASP623  PHE694  ASN695  SER759  ASP760  ASP761  ALA762  ILE779  LEU786  VAL792 
 PHE793  MET794  SER795  GLU796  ALA797  LYS798  CYS799  TRP800  GLU811  SER814 

> <Gold.Protein.RotatedAtoms>
  151.6777  133.3312  159.3211 H   0  0  0  0  0  0  0  0  0  0  0  0  # atno 6907 bound_to 6896
  150.7838  134.6808  159.6452 H   0  0  0  0  0  0  0  0  0  0  0  0  # atno 6908 bound_to 6896
  152.3902  134.6457  160.0162 H   0  0  0  0  0  0  0  0  0  0  0  0  # atno 6909 bound_to 6896
  146.1689  139.6961  142.8982 H   0  0  0  0  0  0  0  0  0  0  0  0  # atno 7974 bound_to 7965
  156.1081  140.3232  155.8034 H   0  0  0  0  0  0  0  0  0  0  0  0  # atno 8008 bound_to 7997
  155.4721  140.0547  157.2995 H   0  0  0  0  0  0  0  0  0  0  0  0  # atno 8009 bound_to 7997
  154.4741  140.2024  155.9935 H   0  0  0  0  0  0  0  0  0  0  0  0  # atno 8010 bound_to 7997
  140.0771  143.4823  152.1947 H   0  0  0  0  0  0  0  0  0  0  0  0  # atno 10167 bound_to 10162
  156.0110  130.4526  150.3540 H   0  0  0  0  0  0  0  0  0  0  0  0  # atno 10718 bound_to 10713
  154.6162  135.5469  153.7526 H   0  0  0  0  0  0  0  0  0  0  0  0  # atno 10763 bound_to 10752
  153.0217  135.6401  154.1506 H   0  0  0  0  0  0  0  0  0  0  0  0  # atno 10764 bound_to 10752
  154.1442  135.2906  155.3132 H   0  0  0  0  0  0  0  0  0  0  0  0  # atno 10765 bound_to 10752
  140.6200  134.4760  157.5223 H   0  0  0  0  0  0  0  0  0  0  0  0  # atno 11005 bound_to 11000
  145.4394  141.0421  143.2866 LP  0  0  0  0  0  0  0  0  0  0  0  0  # atno 17320 bound_to 7965
  144.8133  139.5923  143.7020 LP  0  0  0  0  0  0  0  0  0  0  0  0  # atno 17321 bound_to 7965
  139.5801  144.7506  151.3661 LP  0  0  0  0  0  0  0  0  0  0  0  0  # atno 17342 bound_to 10162
  140.7097  143.7423  150.7544 LP  0  0  0  0  0  0  0  0  0  0  0  0  # atno 17343 bound_to 10162
  157.1631  131.0350  151.2831 LP  0  0  0  0  0  0  0  0  0  0  0  0  # atno 17370 bound_to 10713
  157.4294  130.7482  149.6977 LP  0  0  0  0  0  0  0  0  0  0  0  0  # atno 17371 bound_to 10713
  139.9157  134.8251  156.1374 LP  0  0  0  0  0  0  0  0  0  0  0  0  # atno 17394 bound_to 11000
  141.0749  133.6780  156.2216 LP  0  0  0  0  0  0  0  0  0  0  0  0  # atno 17395 bound_to 11000

$$$$
