AV-unprocessed.smi:2368|AV-procd|sdf|9428|dock3
  -GOLD-   2272013 63D 1   1.00000     0.00000
 Structure written by MMmdl.
 35 36  0  0  0  0  0  0  0  0  1 V2000
  151.8353  140.2031  155.7894 C   0  0  0  0  0  0  0  0  0  0  0  0
  150.4230  140.2342  155.2365 C   0  0  0  0  0  0  0  0  0  0  0  0
  149.7555  141.3970  155.4024 N   0  0  0  0  0  0  0  0  0  0  0  0
  148.4926  141.4756  154.9360 C   0  0  0  0  0  0  0  0  0  0  0  0
  147.8403  140.4126  154.2826 C   0  0  0  0  0  0  0  0  0  0  0  0
  148.5423  139.1982  154.0918 C   0  0  0  0  0  0  0  0  0  0  0  0
  147.9743  138.0552  153.4622 N   0  0  0  0  0  0  0  0  0  0  0  0
  146.6804  137.7057  153.3606 C   0  0  0  0  0  0  0  0  0  0  0  0
  145.7302  138.3434  153.8144 O   0  0  0  0  0  0  0  0  0  0  0  0
  146.5410  136.5625  152.6747 N   0  0  0  0  0  0  0  0  0  0  0  0
  145.2659  135.9201  152.3774 C   0  0  1  0  0  0  0  0  0  0  0  0
  145.0748  135.7882  150.8915 C   0  0  0  0  0  0  0  0  0  0  0  0
  144.8286  134.5357  150.5143 C   0  0  0  0  0  0  0  0  0  0  0  0
  144.8096  133.5691  151.6692 C   0  0  1  0  0  0  0  0  0  0  0  0
  145.7516  132.3755  151.4410 C   0  0  0  0  0  0  0  0  0  0  0  0
  147.0763  132.8281  151.2572 O   0  0  0  0  0  0  0  0  0  0  0  0
  145.1978  134.4548  152.8824 C   0  0  0  0  0  0  0  0  0  0  0  0
  149.8618  139.1055  154.5940 C   0  0  0  0  0  0  0  0  0  0  0  0
  150.7753  137.6438  154.4203 Cl  0  0  0  0  0  0  0  0  0  0  0  0
  144.4398  136.5102  152.7777 H   0  0  0  0  0  0  0  0  0  0  0  0
  143.7838  133.2144  151.7788 H   0  0  0  0  0  0  0  0  0  0  0  0
  152.5515  140.0156  154.9891 H   0  0  0  0  0  0  0  0  0  0  0  0
  151.9337  139.4124  156.5333 H   0  0  0  0  0  0  0  0  0  0  0  0
  152.1014  141.1478  156.2650 H   0  0  0  0  0  0  0  0  0  0  0  0
  147.9816  142.4136  155.0946 H   0  0  0  0  0  0  0  0  0  0  0  0
  146.8206  140.5463  153.9562 H   0  0  0  0  0  0  0  0  0  0  0  0
  148.6301  137.4703  152.9654 H   0  0  0  0  0  0  0  0  0  0  0  0
  147.3732  136.1040  152.3337 H   0  0  0  0  0  0  0  0  0  0  0  0
  145.1205  136.6385  150.2269 H   0  0  0  0  0  0  0  0  0  0  0  0
  144.6466  134.2188  149.4978 H   0  0  0  0  0  0  0  0  0  0  0  0
  145.7328  131.7052  152.3008 H   0  0  0  0  0  0  0  0  0  0  0  0
  145.4434  131.7944  150.5711 H   0  0  0  0  0  0  0  0  0  0  0  0
  147.6442  132.0761  151.1866 H   0  0  0  0  0  0  0  0  0  0  0  0
  146.1599  134.1411  153.2909 H   0  0  0  0  0  0  0  0  0  0  0  0
  144.4710  134.3532  153.6890 H   0  0  0  0  0  0  0  0  0  0  0  0
  1  2  1  0  0  0  0
  1 22  1  0  0  0  0
  1 23  1  0  0  0  0
  1 24  1  0  0  0  0
  2 18  1  0  0  0  0
  2  3  2  0  0  0  0
  3  4  1  0  0  0  0
  4  5  2  0  0  0  0
  4 25  1  0  0  0  0
  5  6  1  0  0  0  0
  5 26  1  0  0  0  0
  6  7  1  0  0  0  0
  6 18  2  0  0  0  0
  7  8  1  0  0  0  0
  7 27  1  0  0  0  0
  8  9  2  0  0  0  0
  8 10  1  0  0  0  0
 10 11  1  0  0  0  0
 10 28  1  0  0  0  0
 11 20  1  0  0  0  0
 11 17  1  0  0  0  0
 11 12  1  0  0  0  0
 12 13  2  0  0  0  0
 12 29  1  0  0  0  0
 13 14  1  0  0  0  0
 13 30  1  0  0  0  0
 14 21  1  0  0  0  0
 14 15  1  0  0  0  0
 14 17  1  0  0  0  0
 15 16  1  0  0  0  0
 15 31  1  0  0  0  0
 15 32  1  0  0  0  0
 16 33  1  0  0  0  0
 17 34  1  0  0  0  0
 17 35  1  0  0  0  0
 18 19  1  0  0  0  0
M  END
> <s_m_source_file>
AV-unprocessed.smi

> <i_m_source_file_index>
2368

> <i_lp_mmshare_version>
43012

> <i_f3d_flags>
0

> <s_epik_input>
W0NIM11jMW5bY0hdW2NIXWMoYzFDbClbTkhdQyg9TylbTkhdW0NAQEhdMltDSF09W0NIXVtDQEBIXShbQ0gyXTIpW0NIMl1bT0hd

> <s_epik_cmdline>
J2VwaWtfcHl0aG9uJywgJy1waCcsICc3LjAnLCAnLXRuJywgJzgnLCAnLW1hJywgJzIwMCcsICctbWV0YWxfYmluZGluZycsICctaW1hZScsICc8aW5maWxlLm1hZT4nLCAnLW9tYWUnLCAnPG91dGZpbGUubWFlPic=

> <r_epik_Ionization_Penalty>
0.00964582

> <r_epik_Ionization_Penalty_Charging>
0

> <r_epik_Ionization_Penalty_Neutral>
0.00964582

> <r_epik_State_Penalty>
0.00730775

> <r_epik_Charging_Adjusted_Penalty>
0.00730775

> <i_epik_Tot_Q>
0

> <i_epik_Tot_abs_Q>
0

> <r_epik_Metal_State_Penalty>
0.00719079

> <b_epik_Metal_Only>
0

> <s_lp_Force_Field>
OPLS_2005

> <r_lp_Energy>
21.5673

> <b_lp_Chiralities_Consistent>
1

> <s_lp_Variant>
AV-unprocessed.smi:2368-4

> <Gold.Version>
5.8.1

> <Gold.Id.Protein>
6NUR|6NUR_protein|mol2

> <Gold.PLP.Fitness>
43.4357

> <Gold.PLP.PLP>
-31.7512

> <Gold.PLP.part.hbond>
-3.0000

> <Gold.PLP.part.metal>
0.0000

> <Gold.PLP.part.buried>
-2.4876

> <Gold.PLP.part.nonpolar>
-26.9266

> <Gold.PLP.part.repulsive>
0.3202

> <Gold.PLP.ligand.clash>
0.0000

> <Gold.PLP.ligand.torsion>
0.1553

> <Gold.PLP.Chemscore.Hbond>
2.9920

> <Gold.PLP.Chemscore.CHOScore>
1.0000

> <Gold.PLP.Chemscore.Metal>
0.0000

> <Gold.Chemscore.Hbonds>
donor molecule, donor type, donor heavy atom, donor atom, acceptor molecule, acceptor atom, score
      L1  H     7    27       P1  7948  1.00
      L1  H    10    28       P1  7948  0.98
      L1  H    16    33       P1 10747  1.00
      L1  C     4    25       P1  8028  1.00

> <Gold.PLP.Chemscore.Internal.Correction>
0.0191

> <Gold.Rescore>
     Score         DG    S(hbond)    S(metal)    S(lipo)     H(rot)  DE(clash)    DE(int)     intcor
     18.24     -19.47       2.94        0.00      74.48       1.78       0.03       1.21       ----

> <Gold.Chemscore.Fitness>
18.2366

> <Gold.Chemscore.DG>
-19.4703

> <Gold.Chemscore.ZeroCoef>
-5.4800

> <Gold.Chemscore.Hbond>
2.9437

> <Gold.Chemscore.Metal>
0.0000

> <Gold.Chemscore.Lipo>
74.4808

> <Gold.Chemscore.Internal_Hbond>
0.0000

> <Gold.Chemscore.DEClash>
0.0259

> <Gold.Chemscore.DEInternal>
1.2078

> <Gold.Chemscore.Rot>
1.7796

> <Gold.Chemscore.Internal.Correction>
   9.000000E+99

> <Gold.Chemscore.Hbonds>
donor molecule, donor type, donor heavy atom, donor atom, acceptor molecule, acceptor atom, score
      L1  H     7    27       P1  7948  0.96
      L1  H    10    28       P1  7948  0.93
      L1  H    16    33       P1 10747  0.93

> <Gold.Chemscore.Hbond.Weighted>
-9.8319

> <Gold.Chemscore.Metal.Weighted>
-0.0000

> <Gold.Chemscore.Lipo.Weighted>
-8.7143

> <Gold.Chemscore.Internal_Hbond.Weighted>
0.0000

> <Gold.Chemscore.DEClash.Weighted>
0.0259

> <Gold.Chemscore.DEInternal.Weighted>
1.2078

> <Gold.Chemscore.Rot.Weighted>
4.5558

> <Gold.Chemscore.Internal.Correction.Weighted>
   9.000000E+99

> <Gold.Protein.RotatedTorsions>
[ 6907 6896 6895 6894 ] final -145.20 input  -60.11 | X-H torsion
[ 7974 7965 7964 7962 ] final  -64.68 input  175.53 | X-H torsion
[ 8008 7997 7996 7995 ] final  -18.08 input   59.86 | X-H torsion
[ 10167 10162 10161 10158 ] final  -58.08 input  -65.29 | X-H torsion
[ 10718 10713 10712 10709 ] final  -52.89 input   66.30 | X-H torsion
[ 10763 10752 10751 10750 ] final   60.96 input  -60.55 | X-H torsion
[ 11005 11000 10999 10996 ] final  -38.27 input  -57.11 | X-H torsion

> <Gold.Protein.ActiveResidues>
 VAL166  LYS551  ARG553  GLY616  TRP617  ASP618  TYR619  PRO620  LYS621  CYS622 
 ASP623  PHE694  ASN695  SER759  ASP760  ASP761  ALA762  ILE779  LEU786  VAL792 
 PHE793  MET794  SER795  GLU796  ALA797  LYS798  CYS799  TRP800  GLU811  SER814 

> <Gold.Protein.RotatedAtoms>
  151.1245  133.5080  159.2600 H   0  0  0  0  0  0  0  0  0  0  0  0  # atno 6907 bound_to 6896
  151.1825  135.0367  159.8808 H   0  0  0  0  0  0  0  0  0  0  0  0  # atno 6908 bound_to 6896
  152.5457  134.1095  159.8406 H   0  0  0  0  0  0  0  0  0  0  0  0  # atno 6909 bound_to 6896
  145.7637  140.8848  143.0416 H   0  0  0  0  0  0  0  0  0  0  0  0  # atno 7974 bound_to 7965
  154.4932  140.2125  155.9503 H   0  0  0  0  0  0  0  0  0  0  0  0  # atno 8008 bound_to 7997
  156.1334  140.3193  155.8352 H   0  0  0  0  0  0  0  0  0  0  0  0  # atno 8009 bound_to 7997
  155.4254  140.0500  157.3013 H   0  0  0  0  0  0  0  0  0  0  0  0  # atno 8010 bound_to 7997
  140.6219  143.2423  151.5459 H   0  0  0  0  0  0  0  0  0  0  0  0  # atno 10167 bound_to 10162
  156.1582  130.4150  149.9835 H   0  0  0  0  0  0  0  0  0  0  0  0  # atno 10718 bound_to 10713
  152.9936  135.5518  154.5957 H   0  0  0  0  0  0  0  0  0  0  0  0  # atno 10763 bound_to 10752
  154.5309  135.2813  155.1183 H   0  0  0  0  0  0  0  0  0  0  0  0  # atno 10764 bound_to 10752
  154.2499  135.6401  153.5289 H   0  0  0  0  0  0  0  0  0  0  0  0  # atno 10765 bound_to 10752
  141.0015  133.6953  156.2031 H   0  0  0  0  0  0  0  0  0  0  0  0  # atno 11005 bound_to 11000
  144.6825  139.9758  143.7483 LP  0  0  0  0  0  0  0  0  0  0  0  0  # atno 17320 bound_to 7965
  146.0239  139.3275  143.0796 LP  0  0  0  0  0  0  0  0  0  0  0  0  # atno 17321 bound_to 7965
  139.5446  144.2555  152.1417 LP  0  0  0  0  0  0  0  0  0  0  0  0  # atno 17342 bound_to 10162
  140.1777  144.4874  150.6545 LP  0  0  0  0  0  0  0  0  0  0  0  0  # atno 17343 bound_to 10162
  156.7672  130.9173  151.3643 LP  0  0  0  0  0  0  0  0  0  0  0  0  # atno 17370 bound_to 10713
  157.6712  130.9052  150.0044 LP  0  0  0  0  0  0  0  0  0  0  0  0  # atno 17371 bound_to 10713
  140.6882  134.4695  157.5589 LP  0  0  0  0  0  0  0  0  0  0  0  0  # atno 17394 bound_to 11000
  139.9041  134.8489  156.1776 LP  0  0  0  0  0  0  0  0  0  0  0  0  # atno 17395 bound_to 11000

$$$$
