AV-unprocessed.smi:2355|AV-procd|sdf|9388|dock7
  -GOLD-   2272013 23D 1   1.00000     0.00000
 Structure written by MMmdl.
 48 49  0  0  0  0  0  0  0  0  1 V2000
  145.8847  129.1374  152.4619 C   0  0  0  0  0  0  0  0  0  0  0  0
  145.8564  130.5634  151.9532 C   0  0  0  0  0  0  0  0  0  0  0  0
  145.0071  130.9373  150.8941 C   0  0  0  0  0  0  0  0  0  0  0  0
  145.0279  132.2797  150.4679 C   0  0  0  0  0  0  0  0  0  0  0  0
  144.1385  132.7523  149.3372 C   0  0  0  0  0  0  0  0  0  0  0  0
  145.8218  133.2181  151.0267 N   0  0  0  0  0  0  0  0  0  0  0  0
  146.6448  132.8692  152.0467 C   0  0  0  0  0  0  0  0  0  0  0  0
  147.5209  133.7774  152.6984 N   0  0  0  0  0  0  0  0  0  0  0  0
  147.9221  133.7692  153.9817 C   0  0  0  0  0  0  0  0  0  0  0  0
  147.6015  132.9282  154.8223 O   0  0  0  0  0  0  0  0  0  0  0  0
  148.7275  134.8094  154.2416 N   0  0  0  0  0  0  0  0  0  0  0  0
  149.3157  135.1333  155.5414 C   0  0  1  0  0  0  0  0  0  0  0  0
  150.8277  134.8454  155.5133 C   0  0  0  0  0  0  0  0  0  0  0  0
  148.9377  136.5862  155.9704 C   0  0  1  0  0  0  0  0  0  0  0  0
  149.1819  136.7668  157.4913 C   0  0  0  0  0  0  0  0  0  0  0  0
  149.5982  137.6401  155.1586 N   0  0  0  0  0  0  0  0  0  0  0  0
  148.9137  138.9373  155.2288 C   0  0  0  0  0  0  0  0  0  0  0  0
  149.6166  140.0295  154.4047 C   0  0  0  0  0  0  0  0  0  0  0  0
  150.9623  140.1656  154.8387 O   0  0  0  0  0  0  0  0  0  0  0  0
  151.6873  138.9506  154.7118 C   0  0  0  0  0  0  0  0  0  0  0  0
  151.0011  137.8477  155.5363 C   0  0  0  0  0  0  0  0  0  0  0  0
  146.6845  131.5441  152.5353 C   0  0  0  0  0  0  0  0  0  0  0  0
  145.2103  128.4982  151.8914 H   0  0  0  0  0  0  0  0  0  0  0  0
  145.5826  129.1046  153.5088 H   0  0  0  0  0  0  0  0  0  0  0  0
  146.8919  128.7278  152.3813 H   0  0  0  0  0  0  0  0  0  0  0  0
  144.3573  130.2152  150.4213 H   0  0  0  0  0  0  0  0  0  0  0  0
  143.6169  131.9172  148.8689 H   0  0  0  0  0  0  0  0  0  0  0  0
  144.7301  133.2556  148.5719 H   0  0  0  0  0  0  0  0  0  0  0  0
  143.3925  133.4534  149.7121 H   0  0  0  0  0  0  0  0  0  0  0  0
  147.8718  134.5292  152.1239 H   0  0  0  0  0  0  0  0  0  0  0  0
  148.9313  135.4481  153.4870 H   0  0  0  0  0  0  0  0  0  0  0  0
  148.9408  134.4478  156.2998 H   0  0  0  0  0  0  0  0  0  0  0  0
  151.3071  135.1659  156.4386 H   0  0  0  0  0  0  0  0  0  0  0  0
  151.3309  135.3380  154.6818 H   0  0  0  0  0  0  0  0  0  0  0  0
  151.0114  133.7759  155.4046 H   0  0  0  0  0  0  0  0  0  0  0  0
  147.8616  136.6809  155.8164 H   0  0  0  0  0  0  0  0  0  0  0  0
  148.7245  135.9754  158.0818 H   0  0  0  0  0  0  0  0  0  0  0  0
  148.7399  137.6857  157.8733 H   0  0  0  0  0  0  0  0  0  0  0  0
  150.2462  136.7836  157.7280 H   0  0  0  0  0  0  0  0  0  0  0  0
  147.9005  138.8614  154.8397 H   0  0  0  0  0  0  0  0  0  0  0  0
  148.8342  139.2594  156.2681 H   0  0  0  0  0  0  0  0  0  0  0  0
  149.5907  139.7869  153.3411 H   0  0  0  0  0  0  0  0  0  0  0  0
  149.1048  140.9840  154.5270 H   0  0  0  0  0  0  0  0  0  0  0  0
  151.7529  138.6639  153.6609 H   0  0  0  0  0  0  0  0  0  0  0  0
  152.7067  139.1076  155.0645 H   0  0  0  0  0  0  0  0  0  0  0  0
  151.0654  138.0960  156.5968 H   0  0  0  0  0  0  0  0  0  0  0  0
  151.5782  136.9370  155.3884 H   0  0  0  0  0  0  0  0  0  0  0  0
  147.3444  131.2788  153.3489 H   0  0  0  0  0  0  0  0  0  0  0  0
  1  2  1  0  0  0  0
  1 23  1  0  0  0  0
  1 24  1  0  0  0  0
  1 25  1  0  0  0  0
  2 22  1  0  0  0  0
  2  3  2  0  0  0  0
  3  4  1  0  0  0  0
  3 26  1  0  0  0  0
  4  5  1  0  0  0  0
  4  6  2  0  0  0  0
  5 27  1  0  0  0  0
  5 28  1  0  0  0  0
  5 29  1  0  0  0  0
  6  7  1  0  0  0  0
  7  8  1  0  0  0  0
  7 22  2  0  0  0  0
  8  9  1  0  0  0  0
  8 30  1  0  0  0  0
  9 10  2  0  0  0  0
  9 11  1  0  0  0  0
 11 12  1  0  0  0  0
 11 31  1  0  0  0  0
 12 13  1  0  0  0  0
 12 14  1  0  0  0  0
 12 32  1  0  0  0  0
 13 33  1  0  0  0  0
 13 34  1  0  0  0  0
 13 35  1  0  0  0  0
 14 15  1  0  0  0  0
 14 16  1  0  0  0  0
 14 36  1  0  0  0  0
 15 37  1  0  0  0  0
 15 38  1  0  0  0  0
 15 39  1  0  0  0  0
 16 21  1  0  0  0  0
 16 17  1  0  0  0  0
 17 18  1  0  0  0  0
 17 40  1  0  0  0  0
 17 41  1  0  0  0  0
 18 19  1  0  0  0  0
 18 42  1  0  0  0  0
 18 43  1  0  0  0  0
 19 20  1  0  0  0  0
 20 21  1  0  0  0  0
 20 44  1  0  0  0  0
 20 45  1  0  0  0  0
 21 46  1  0  0  0  0
 21 47  1  0  0  0  0
 22 48  1  0  0  0  0
M  END
> <s_m_source_file>
AV-unprocessed.smi

> <i_m_source_file_index>
2355

> <i_lp_mmshare_version>
43012

> <i_f3d_flags>
0

> <s_epik_input>
W0NIM11jMVtjSF1jKFtDSDNdKW5jKFtjSF0xKVtOSF1DKD1PKVtOSF1bQ0BIXShbQ0gzXSlbQ0BIXShbQ0gzXSlOMltDSDJdW0NIMl1PW0NIMl1bQ0gyXTI=

> <s_epik_cmdline>
J2VwaWtfcHl0aG9uJywgJy1waCcsICc3LjAnLCAnLXRuJywgJzgnLCAnLW1hJywgJzIwMCcsICctbWV0YWxfYmluZGluZycsICctaW1hZScsICc8aW5maWxlLm1hZT4nLCAnLW9tYWUnLCAnPG91dGZpbGUubWFlPic=

> <r_epik_Ionization_Penalty>
0.266238

> <r_epik_Ionization_Penalty_Charging>
0

> <r_epik_Ionization_Penalty_Neutral>
0.266238

> <r_epik_State_Penalty>
0.257924

> <r_epik_Charging_Adjusted_Penalty>
0.257924

> <i_epik_Tot_Q>
0

> <i_epik_Tot_abs_Q>
0

> <r_epik_Metal_State_Penalty>
0.257904

> <b_epik_Metal_Only>
0

> <s_lp_Force_Field>
OPLS_2005

> <r_lp_Energy>
36.8304

> <b_lp_Chiralities_Consistent>
1

> <s_lp_Variant>
AV-unprocessed.smi:2355-4

> <Gold.Version>
5.8.1

> <Gold.Id.Protein>
6NUR|6NUR_protein|mol2

> <Gold.PLP.Fitness>
41.7379

> <Gold.PLP.PLP>
-34.5884

> <Gold.PLP.part.hbond>
-3.0000

> <Gold.PLP.part.metal>
0.0000

> <Gold.PLP.part.buried>
-5.1252

> <Gold.PLP.part.nonpolar>
-26.2359

> <Gold.PLP.part.repulsive>
0.3556

> <Gold.PLP.ligand.clash>
0.0000

> <Gold.PLP.ligand.torsion>
0.6716

> <Gold.PLP.Chemscore.Hbond>
2.8000

> <Gold.PLP.Chemscore.CHOScore>
0.0000

> <Gold.PLP.Chemscore.Metal>
0.0000

> <Gold.Chemscore.Hbonds>
donor molecule, donor type, donor heavy atom, donor atom, acceptor molecule, acceptor atom, score
      L1  H     8    30       P1  7948  1.00
      L1  H    11    31       P1  7948  1.00
      P1  H  7989  7998       L1    19  0.75

> <Gold.PLP.Chemscore.Internal.Correction>
0.0926

> <Gold.Rescore>
     Score         DG    S(hbond)    S(metal)    S(lipo)     H(rot)  DE(clash)    DE(int)     intcor
     15.67     -18.17       1.63        0.00      92.63       1.40       0.21       2.29       ----

> <Gold.Chemscore.Fitness>
15.6659

> <Gold.Chemscore.DG>
-18.1703

> <Gold.Chemscore.ZeroCoef>
-5.4800

> <Gold.Chemscore.Hbond>
1.6289

> <Gold.Chemscore.Metal>
0.0000

> <Gold.Chemscore.Lipo>
92.6286

> <Gold.Chemscore.Internal_Hbond>
0.0000

> <Gold.Chemscore.DEClash>
0.2100

> <Gold.Chemscore.DEInternal>
2.2944

> <Gold.Chemscore.Rot>
1.4015

> <Gold.Chemscore.Internal.Correction>
   9.000000E+99

> <Gold.Chemscore.Hbonds>
donor molecule, donor type, donor heavy atom, donor atom, acceptor molecule, acceptor atom, score
      L1  H     8    30       P1  7948  0.33
      L1  H    11    31       P1  7948  0.74
      P1  H  7989  7998       L1    19  0.02

> <Gold.Chemscore.Hbond.Weighted>
-5.4405

> <Gold.Chemscore.Metal.Weighted>
-0.0000

> <Gold.Chemscore.Lipo.Weighted>
-10.8375

> <Gold.Chemscore.Internal_Hbond.Weighted>
0.0000

> <Gold.Chemscore.DEClash.Weighted>
0.2100

> <Gold.Chemscore.DEInternal.Weighted>
2.2944

> <Gold.Chemscore.Rot.Weighted>
3.5878

> <Gold.Chemscore.Internal.Correction.Weighted>
   9.000000E+99

> <Gold.Protein.RotatedTorsions>
[ 6907 6896 6895 6894 ] final   96.39 input  -60.11 | X-H torsion
[ 7974 7965 7964 7962 ] final  128.18 input  175.53 | X-H torsion
[ 8008 7997 7996 7995 ] final  152.21 input   59.86 | X-H torsion
[ 10167 10162 10161 10158 ] final  -85.94 input  -65.29 | X-H torsion
[ 10718 10713 10712 10709 ] final   70.61 input   66.30 | X-H torsion
[ 10763 10752 10751 10750 ] final   87.74 input  -60.55 | X-H torsion
[ 11005 11000 10999 10996 ] final  -20.43 input  -57.11 | X-H torsion

> <Gold.Protein.ActiveResidues>
 VAL166  LYS551  ARG553  GLY616  TRP617  ASP618  TYR619  PRO620  LYS621  CYS622 
 ASP623  PHE694  ASN695  SER759  ASP760  ASP761  ALA762  ILE779  LEU786  VAL792 
 PHE793  MET794  SER795  GLU796  ALA797  LYS798  CYS799  TRP800  GLU811  SER814 

> <Gold.Protein.RotatedAtoms>
  152.5435  134.0893  159.8269 H   0  0  0  0  0  0  0  0  0  0  0  0  # atno 6907 bound_to 6896
  151.0985  133.5254  159.2618 H   0  0  0  0  0  0  0  0  0  0  0  0  # atno 6908 bound_to 6896
  151.2018  135.0455  159.8930 H   0  0  0  0  0  0  0  0  0  0  0  0  # atno 6909 bound_to 6896
  145.0424  139.3952  143.5095 H   0  0  0  0  0  0  0  0  0  0  0  0  # atno 7974 bound_to 7965
  156.2639  140.2027  156.6298 H   0  0  0  0  0  0  0  0  0  0  0  0  # atno 8008 bound_to 7997
  154.6692  140.0552  157.0171 H   0  0  0  0  0  0  0  0  0  0  0  0  # atno 8009 bound_to 7997
  155.1162  140.3220  155.4511 H   0  0  0  0  0  0  0  0  0  0  0  0  # atno 8010 bound_to 7997
  140.3989  143.2671  151.9168 H   0  0  0  0  0  0  0  0  0  0  0  0  # atno 10167 bound_to 10162
  157.6409  130.9486  150.0674 H   0  0  0  0  0  0  0  0  0  0  0  0  # atno 10718 bound_to 10713
  153.1698  135.4532  154.9887 H   0  0  0  0  0  0  0  0  0  0  0  0  # atno 10763 bound_to 10752
  154.7958  135.3237  154.7673 H   0  0  0  0  0  0  0  0  0  0  0  0  # atno 10764 bound_to 10752
  153.8150  135.6951  153.4890 H   0  0  0  0  0  0  0  0  0  0  0  0  # atno 10765 bound_to 10752
  140.8463  133.7889  155.9917 H   0  0  0  0  0  0  0  0  0  0  0  0  # atno 11005 bound_to 11000
  146.3510  140.0032  142.8674 LP  0  0  0  0  0  0  0  0  0  0  0  0  # atno 17320 bound_to 7965
  145.1631  140.9683  143.4365 LP  0  0  0  0  0  0  0  0  0  0  0  0  # atno 17321 bound_to 7965
  139.4785  144.5653  151.8174 LP  0  0  0  0  0  0  0  0  0  0  0  0  # atno 17342 bound_to 10162
  140.4761  144.1517  150.5925 LP  0  0  0  0  0  0  0  0  0  0  0  0  # atno 17343 bound_to 10162
  156.1688  130.3646  149.9194 LP  0  0  0  0  0  0  0  0  0  0  0  0  # atno 17370 bound_to 10713
  156.7174  130.8993  151.3615 LP  0  0  0  0  0  0  0  0  0  0  0  0  # atno 17371 bound_to 10713
  140.8839  134.2577  157.5130 LP  0  0  0  0  0  0  0  0  0  0  0  0  # atno 17394 bound_to 11000
  139.8703  134.9628  156.4443 LP  0  0  0  0  0  0  0  0  0  0  0  0  # atno 17395 bound_to 11000

$$$$
