AV-unprocessed.smi:2079|AV-procd|sdf|8480|dock2
  -GOLD-   2272011183D 1   1.00000     0.00000
 Structure written by MMmdl.
 41 42  0  0  0  0  0  0  0  0  3 V2000
  151.6889  140.2392  158.7037 C   0  0  0  0  0  0  0  0  0  0  0  0
  151.4562  139.9020  157.2706 C   0  0  0  0  0  0  0  0  0  0  0  0
  150.3822  139.3859  156.6027 C   0  0  0  0  0  0  0  0  0  0  0  0
  150.8361  139.3229  155.2571 C   0  0  0  0  0  0  0  0  0  0  0  0
  150.1330  138.8640  154.2102 N   0  5  0  0  0  0  0  0  0  0  0  0
  148.8230  138.5590  154.3510 C   0  0  0  0  0  0  0  0  0  0  0  0
  148.2763  138.1211  155.3659 O   0  0  0  0  0  0  0  0  0  0  0  0
  148.1000  138.7698  153.2435 N   0  0  0  0  0  0  0  0  0  0  0  0
  146.6736  138.5092  153.1120 C   0  0  0  0  0  0  0  0  0  0  0  0
  146.3304  137.1262  153.6891 C   0  0  0  0  0  0  0  0  0  0  0  0
  146.0534  136.0998  152.6478 N   0  3  1  0  0  0  0  0  0  0  0  0
  145.9831  134.7311  153.2282 C   0  0  0  0  0  0  0  0  0  0  0  0
  145.9083  133.6562  152.1325 C   0  0  0  0  0  0  0  0  0  0  0  0
  144.7236  133.9090  151.1948 C   0  0  0  0  0  0  0  0  0  0  0  0
  144.8115  135.3286  150.6193 C   0  0  0  0  0  0  0  0  0  0  0  0
  144.9148  136.4030  151.7231 C   0  0  1  0  0  0  0  0  0  0  0  0
  143.5702  136.6248  152.4483 C   0  0  0  0  0  0  0  0  0  0  0  0
  152.0810  139.7482  155.1227 N   0  0  0  0  0  0  0  0  0  0  0  0
  152.4837  140.1283  156.4085 O   0  0  0  0  0  0  0  0  0  0  0  0
  151.5481  139.3607  159.3334 H   0  0  0  0  0  0  0  0  0  0  0  0
  150.9923  141.0087  159.0362 H   0  0  0  0  0  0  0  0  0  0  0  0
  152.7022  140.6093  158.8623 H   0  0  0  0  0  0  0  0  0  0  0  0
  149.4240  139.1006  157.0102 H   0  0  0  0  0  0  0  0  0  0  0  0
  148.5830  139.1326  152.4346 H   0  0  0  0  0  0  0  0  0  0  0  0
  146.1328  139.2945  153.6406 H   0  0  0  0  0  0  0  0  0  0  0  0
  146.3922  138.5649  152.0595 H   0  0  0  0  0  0  0  0  0  0  0  0
  147.1814  136.7886  154.2829 H   0  0  0  0  0  0  0  0  0  0  0  0
  145.4916  137.1966  154.3824 H   0  0  0  0  0  0  0  0  0  0  0  0
  146.8683  134.5474  153.8385 H   0  0  0  0  0  0  0  0  0  0  0  0
  145.1252  134.6523  153.8965 H   0  0  0  0  0  0  0  0  0  0  0  0
  146.8362  133.6531  151.5587 H   0  0  0  0  0  0  0  0  0  0  0  0
  145.8212  132.6678  152.5847 H   0  0  0  0  0  0  0  0  0  0  0  0
  144.7210  133.1761  150.3875 H   0  0  0  0  0  0  0  0  0  0  0  0
  143.7855  133.7783  151.7354 H   0  0  0  0  0  0  0  0  0  0  0  0
  145.6889  135.3944  149.9744 H   0  0  0  0  0  0  0  0  0  0  0  0
  143.9520  135.5252  149.9775 H   0  0  0  0  0  0  0  0  0  0  0  0
  145.1493  137.3301  151.2016 H   0  0  0  0  0  0  0  0  0  0  0  0
  142.7737  136.8179  151.7294 H   0  0  0  0  0  0  0  0  0  0  0  0
  143.6067  137.4883  153.1121 H   0  0  0  0  0  0  0  0  0  0  0  0
  143.2701  135.7607  153.0398 H   0  0  0  0  0  0  0  0  0  0  0  0
  146.8755  136.0940  152.0608 H   0  0  0  0  0  0  0  0  0  0  0  0
  1  2  1  0  0  0  0
  1 20  1  0  0  0  0
  1 21  1  0  0  0  0
  1 22  1  0  0  0  0
  2 19  1  0  0  0  0
  2  3  2  0  0  0  0
  3  4  1  0  0  0  0
  3 23  1  0  0  0  0
  4  5  1  0  0  0  0
  4 18  2  0  0  0  0
  5  6  1  0  0  0  0
  6  7  2  0  0  0  0
  6  8  1  0  0  0  0
  8  9  1  0  0  0  0
  8 24  1  0  0  0  0
  9 10  1  0  0  0  0
  9 25  1  0  0  0  0
  9 26  1  0  0  0  0
 10 11  1  0  0  0  0
 10 27  1  0  0  0  0
 10 28  1  0  0  0  0
 11 16  1  0  0  0  0
 11 12  1  0  0  0  0
 11 41  1  0  0  0  0
 12 13  1  0  0  0  0
 12 29  1  0  0  0  0
 12 30  1  0  0  0  0
 13 14  1  0  0  0  0
 13 31  1  0  0  0  0
 13 32  1  0  0  0  0
 14 15  1  0  0  0  0
 14 33  1  0  0  0  0
 14 34  1  0  0  0  0
 15 16  1  0  0  0  0
 15 35  1  0  0  0  0
 15 36  1  0  0  0  0
 16 17  1  0  0  0  0
 16 37  1  0  0  0  0
 17 38  1  0  0  0  0
 17 39  1  0  0  0  0
 17 40  1  0  0  0  0
 18 19  1  0  0  0  0
M  CHG  1   5  -1
M  CHG  1  11   1
M  END
> <s_m_source_file>
AV-unprocessed.smi

> <i_m_source_file_index>
2079

> <i_lp_mmshare_version>
43012

> <i_f3d_flags>
0

> <s_epik_input>
W0NIM11jMVtjSF1jKG5vMSlbTkhdQyg9TylbTkhdW0NIMl1bQ0gyXU4yW0NIMl1bQ0gyXVtDSDJdW0NIMl1bQ0BIXTJbQ0gzXQ==

> <s_epik_cmdline>
J2VwaWtfcHl0aG9uJywgJy1waCcsICc3LjAnLCAnLXRuJywgJzgnLCAnLW1hJywgJzIwMCcsICctbWV0YWxfYmluZGluZycsICctaW1hZScsICc8aW5maWxlLm1hZT4nLCAnLW9tYWUnLCAnPG91dGZpbGUubWFlPic=

> <r_epik_Ionization_Penalty>
6.22371

> <r_epik_Ionization_Penalty_Charging>
6.22362

> <r_epik_Ionization_Penalty_Neutral>
9.40454e-05

> <r_epik_State_Penalty>
6.22363

> <r_epik_Charging_Adjusted_Penalty>
12.4472

> <i_epik_Tot_Q>
0

> <i_epik_Tot_abs_Q>
2

> <r_epik_Metal_State_Penalty>
2.16675

> <b_epik_Metal_Only>
1

> <s_lp_Force_Field>
OPLS_2005

> <r_lp_Energy>
9.70106

> <b_lp_Chiralities_Consistent>
1

> <s_lp_Variant>
AV-unprocessed.smi:2079-6

> <Gold.Version>
5.8.1

> <Gold.Id.Protein>
6NUR|6NUR_protein|mol2

> <Gold.PLP.Fitness>
39.6387

> <Gold.PLP.PLP>
-27.1247

> <Gold.PLP.part.hbond>
-5.0000

> <Gold.PLP.part.metal>
0.0000

> <Gold.PLP.part.buried>
-1.8172

> <Gold.PLP.part.nonpolar>
-20.4084

> <Gold.PLP.part.repulsive>
0.3468

> <Gold.PLP.ligand.clash>
0.0000

> <Gold.PLP.ligand.torsion>
0.6590

> <Gold.PLP.Chemscore.Hbond>
4.5824

> <Gold.PLP.Chemscore.CHOScore>
0.0000

> <Gold.PLP.Chemscore.Metal>
0.0000

> <Gold.Chemscore.Hbonds>
donor molecule, donor type, donor heavy atom, donor atom, acceptor molecule, acceptor atom, score
      L1  H     8    24       P1  7957  1.00
      L1  H    11    41       P1  7948  1.82
      P1  H  7989  7998       L1    18  0.59
      P1  H  7997  8009       L1    19  1.00

> <Gold.PLP.Chemscore.Internal.Correction>
0.0849

> <Gold.Rescore>
     Score         DG    S(hbond)    S(metal)    S(lipo)     H(rot)  DE(clash)    DE(int)     intcor
     14.83     -18.68       3.36        0.00      50.63       1.54       0.20       3.66       ----

> <Gold.Chemscore.Fitness>
14.8260

> <Gold.Chemscore.DG>
-18.6838

> <Gold.Chemscore.ZeroCoef>
-5.4800

> <Gold.Chemscore.Hbond>
3.3609

> <Gold.Chemscore.Metal>
0.0000

> <Gold.Chemscore.Lipo>
50.6254

> <Gold.Chemscore.Internal_Hbond>
0.0000

> <Gold.Chemscore.DEClash>
0.2020

> <Gold.Chemscore.DEInternal>
3.6558

> <Gold.Chemscore.Rot>
1.5409

> <Gold.Chemscore.Internal.Correction>
   9.000000E+99

> <Gold.Chemscore.Hbonds>
donor molecule, donor type, donor heavy atom, donor atom, acceptor molecule, acceptor atom, score
      L1  H     8    24       P1  7957  1.00
      L1  H    11    41       P1  7948  0.83
      P1  H  7989  7998       L1    18  0.06
      P1  H  7997  8009       L1    19  0.60

> <Gold.Chemscore.Hbond.Weighted>
-11.2253

> <Gold.Chemscore.Metal.Weighted>
-0.0000

> <Gold.Chemscore.Lipo.Weighted>
-5.9232

> <Gold.Chemscore.Internal_Hbond.Weighted>
0.0000

> <Gold.Chemscore.DEClash.Weighted>
0.2020

> <Gold.Chemscore.DEInternal.Weighted>
3.6558

> <Gold.Chemscore.Rot.Weighted>
3.9446

> <Gold.Chemscore.Internal.Correction.Weighted>
   9.000000E+99

> <Gold.Protein.RotatedTorsions>
[ 6907 6896 6895 6894 ] final  157.79 input  -60.11 | X-H torsion
[ 7974 7965 7964 7962 ] final   18.32 input  175.53 | X-H torsion
[ 8008 7997 7996 7995 ] final -168.04 input   59.86 | X-H torsion
[ 10167 10162 10161 10158 ] final   63.69 input  -65.29 | X-H torsion
[ 10718 10713 10712 10709 ] final    9.34 input   66.30 | X-H torsion
[ 10763 10752 10751 10750 ] final  146.34 input  -60.55 | X-H torsion
[ 11005 11000 10999 10996 ] final  130.11 input  -57.11 | X-H torsion

> <Gold.Protein.ActiveResidues>
 VAL166  LYS551  ARG553  GLY616  TRP617  ASP618  TYR619  PRO620  LYS621  CYS622 
 ASP623  PHE694  ASN695  SER759  ASP760  ASP761  ALA762  ILE779  LEU786  VAL792 
 PHE793  MET794  SER795  GLU796  ALA797  LYS798  CYS799  TRP800  GLU811  SER814 

> <Gold.Protein.RotatedAtoms>
  152.0099  133.3857  159.4215 H   0  0  0  0  0  0  0  0  0  0  0  0  # atno 6907 bound_to 6896
  150.6900  134.3742  159.5014 H   0  0  0  0  0  0  0  0  0  0  0  0  # atno 6908 bound_to 6896
  152.1501  134.8995  160.0599 H   0  0  0  0  0  0  0  0  0  0  0  0  # atno 6909 bound_to 6896
  146.2189  139.8474  142.8629 H   0  0  0  0  0  0  0  0  0  0  0  0  # atno 7974 bound_to 7965
  155.8860  140.1017  157.1452 H   0  0  0  0  0  0  0  0  0  0  0  0  # atno 8008 bound_to 7997
  154.4010  140.1320  156.4319 H   0  0  0  0  0  0  0  0  0  0  0  0  # atno 8009 bound_to 7997
  155.7589  140.3463  155.5190 H   0  0  0  0  0  0  0  0  0  0  0  0  # atno 8010 bound_to 7997
  140.1303  144.4649  150.6869 H   0  0  0  0  0  0  0  0  0  0  0  0  # atno 10167 bound_to 10162
  156.9649  130.5947  149.5664 H   0  0  0  0  0  0  0  0  0  0  0  0  # atno 10718 bound_to 10713
  154.0203  135.2906  155.3382 H   0  0  0  0  0  0  0  0  0  0  0  0  # atno 10763 bound_to 10752
  154.7050  135.5173  153.8585 H   0  0  0  0  0  0  0  0  0  0  0  0  # atno 10764 bound_to 10752
  153.0684  135.6639  154.0425 H   0  0  0  0  0  0  0  0  0  0  0  0  # atno 10765 bound_to 10752
  139.9653  134.9592  156.9246 H   0  0  0  0  0  0  0  0  0  0  0  0  # atno 11005 bound_to 11000
  145.2836  141.0146  143.3703 LP  0  0  0  0  0  0  0  0  0  0  0  0  # atno 17320 bound_to 7965
  144.9131  139.4504  143.6577 LP  0  0  0  0  0  0  0  0  0  0  0  0  # atno 17321 bound_to 7965
  140.6821  143.2332  151.5357 LP  0  0  0  0  0  0  0  0  0  0  0  0  # atno 17342 bound_to 10162
  139.5523  144.2364  152.1552 LP  0  0  0  0  0  0  0  0  0  0  0  0  # atno 17343 bound_to 10162
  156.0307  130.5398  150.8525 LP  0  0  0  0  0  0  0  0  0  0  0  0  # atno 17370 bound_to 10713
  157.5632  131.0946  150.9528 LP  0  0  0  0  0  0  0  0  0  0  0  0  # atno 17371 bound_to 10713
  140.5410  134.0720  155.7341 LP  0  0  0  0  0  0  0  0  0  0  0  0  # atno 17394 bound_to 11000
  141.1333  133.9265  157.2489 LP  0  0  0  0  0  0  0  0  0  0  0  0  # atno 17395 bound_to 11000

$$$$
