AV-unprocessed.smi:1258|AV-procd|sdf|5290|dock1
  -GOLD-   22720 4413D 1   1.00000     0.00000
 Structure written by MMmdl.
 33 34  0  0  0  0  0  0  0  0  1 V2000
  153.2136  142.6175  162.5275 C   0  0  0  0  0  0  0  0  0  0  0  0
  152.5100  142.9825  161.2125 C   0  0  1  0  0  0  0  0  0  0  0  0
  151.9590  144.4207  161.2522 C   0  0  0  0  0  0  0  0  0  0  0  0
  151.2602  144.7951  159.9362 C   0  0  0  0  0  0  0  0  0  0  0  0
  152.2013  144.6110  158.7344 C   0  0  0  0  0  0  0  0  0  0  0  0
  152.7823  143.1820  158.6650 C   0  0  2  0  0  0  0  0  0  0  0  0
  151.7608  142.1999  158.3038 N   0  0  0  0  0  0  0  0  0  0  0  0
  151.9639  140.8817  158.1552 C   0  0  0  0  0  0  0  0  0  0  0  0
  153.0632  140.3461  158.3017 O   0  0  0  0  0  0  0  0  0  0  0  0
  150.7387  140.0460  157.7733 C   0  0  0  0  0  0  0  0  0  0  0  0
  150.5038  140.0588  156.3409 N   0  0  0  0  0  0  0  0  0  0  0  0
  151.2756  139.6753  155.3217 C   0  0  0  0  0  0  0  0  0  0  0  0
  150.6701  139.8509  154.1570 N   0  0  0  0  0  0  0  0  0  0  0  0
  149.4416  140.3792  154.5175 N   0  0  0  0  0  0  0  0  0  0  0  0
  149.3369  140.5045  155.8122 N   0  0  0  0  0  0  0  0  0  0  0  0
  153.4479  142.7937  160.0008 C   0  0  0  0  0  0  0  0  0  0  0  0
  154.0700  143.2665  162.7129 H   0  0  0  0  0  0  0  0  0  0  0  0
  153.5737  141.5885  162.5082 H   0  0  0  0  0  0  0  0  0  0  0  0
  152.5346  142.7125  163.3754 H   0  0  0  0  0  0  0  0  0  0  0  0
  151.6649  142.3024  161.0976 H   0  0  0  0  0  0  0  0  0  0  0  0
  151.2579  144.5295  162.0805 H   0  0  0  0  0  0  0  0  0  0  0  0
  152.7720  145.1225  161.4427 H   0  0  0  0  0  0  0  0  0  0  0  0
  150.3686  144.1807  159.8056 H   0  0  0  0  0  0  0  0  0  0  0  0
  150.9165  145.8290  159.9811 H   0  0  0  0  0  0  0  0  0  0  0  0
  151.6803  144.8619  157.8099 H   0  0  0  0  0  0  0  0  0  0  0  0
  153.0229  145.3235  158.8167 H   0  0  0  0  0  0  0  0  0  0  0  0
  153.5531  143.1586  157.8924 H   0  0  0  0  0  0  0  0  0  0  0  0
  150.8255  142.5528  158.1610 H   0  0  0  0  0  0  0  0  0  0  0  0
  150.8562  139.0123  158.1038 H   0  0  0  0  0  0  0  0  0  0  0  0
  149.8590  140.4483  158.2763 H   0  0  0  0  0  0  0  0  0  0  0  0
  152.2701  139.2691  155.4329 H   0  0  0  0  0  0  0  0  0  0  0  0
  154.3391  143.4073  160.1406 H   0  0  0  0  0  0  0  0  0  0  0  0
  153.7985  141.7618  159.9545 H   0  0  0  0  0  0  0  0  0  0  0  0
  1  2  1  0  0  0  0
  1 17  1  0  0  0  0
  1 18  1  0  0  0  0
  1 19  1  0  0  0  0
  2 16  1  0  0  0  0
  2  3  1  0  0  0  0
  2 20  1  0  0  0  0
  3  4  1  0  0  0  0
  3 21  1  0  0  0  0
  3 22  1  0  0  0  0
  4  5  1  0  0  0  0
  4 23  1  0  0  0  0
  4 24  1  0  0  0  0
  5  6  1  0  0  0  0
  5 25  1  0  0  0  0
  5 26  1  0  0  0  0
  6  7  1  0  0  0  0
  6 16  1  0  0  0  0
  6 27  1  0  0  0  0
  7  8  1  0  0  0  0
  7 28  1  0  0  0  0
  8  9  2  0  0  0  0
  8 10  1  0  0  0  0
 10 11  1  0  0  0  0
 10 29  1  0  0  0  0
 10 30  1  0  0  0  0
 11 15  1  0  0  0  0
 11 12  1  0  0  0  0
 12 13  2  0  0  0  0
 12 31  1  0  0  0  0
 13 14  1  0  0  0  0
 14 15  2  0  0  0  0
 16 32  1  0  0  0  0
 16 33  1  0  0  0  0
M  END
> <s_m_source_file>
AV-unprocessed.smi

> <i_m_source_file_index>
1258

> <i_lp_mmshare_version>
43012

> <i_f3d_flags>
0

> <s_epik_input>
W0NIM11bQ0BASF0xW0NIMl1bQ0gyXVtDSDJdW0NASF0oW0NIMl0xKVtOSF1DKD1PKVtDSDJdbjJbY0hdbm5uMg==

> <s_epik_cmdline>
J2VwaWtfcHl0aG9uJywgJy1waCcsICc3LjAnLCAnLXRuJywgJzgnLCAnLW1hJywgJzIwMCcsICctbWV0YWxfYmluZGluZycsICctaW1hZScsICc8aW5maWxlLm1hZT4nLCAnLW9tYWUnLCAnPG91dGZpbGUubWFlPic=

> <r_lp_tautomer_probability>
1

> <r_epik_Ionization_Penalty>
5.03816e-07

> <r_epik_Ionization_Penalty_Charging>
0

> <r_epik_Ionization_Penalty_Neutral>
5.03816e-07

> <r_epik_State_Penalty>
-0

> <r_epik_Charging_Adjusted_Penalty>
0

> <i_epik_Tot_Q>
0

> <i_epik_Tot_abs_Q>
0

> <r_epik_Metal_State_Penalty>
-0

> <b_epik_Metal_Only>
0

> <s_lp_Force_Field>
OPLS_2005

> <r_lp_Energy>
10.3289

> <b_lp_Chiralities_Consistent>
1

> <s_lp_Variant>
AV-unprocessed.smi:1258-4

> <Gold.Version>
5.8.1

> <Gold.Id.Protein>
6NUR|6NUR_protein|mol2

> <Gold.PLP.Fitness>
43.1838

> <Gold.PLP.PLP>
-38.1335

> <Gold.PLP.part.hbond>
-2.0082

> <Gold.PLP.part.metal>
0.0000

> <Gold.PLP.part.buried>
-3.3771

> <Gold.PLP.part.nonpolar>
-32.0070

> <Gold.PLP.part.repulsive>
0.3851

> <Gold.PLP.ligand.clash>
0.0000

> <Gold.PLP.ligand.torsion>
0.3477

> <Gold.PLP.Chemscore.Hbond>
1.9120

> <Gold.PLP.Chemscore.CHOScore>
0.0000

> <Gold.PLP.Chemscore.Metal>
0.0000

> <Gold.Chemscore.Hbonds>
donor molecule, donor type, donor heavy atom, donor atom, acceptor molecule, acceptor atom, score
      P1  H  7989  7998       L1    13  1.00
      P1  H  7997  8010       L1     9  0.88

> <Gold.PLP.Chemscore.Internal.Correction>
0.0097

> <Gold.Rescore>
     Score         DG    S(hbond)    S(metal)    S(lipo)     H(rot)  DE(clash)    DE(int)     intcor
     14.16     -16.08       1.49        0.00      89.98       1.92       0.24       1.68       ----

> <Gold.Chemscore.Fitness>
14.1630

> <Gold.Chemscore.DG>
-16.0839

> <Gold.Chemscore.ZeroCoef>
-5.4800

> <Gold.Chemscore.Hbond>
1.4920

> <Gold.Chemscore.Metal>
0.0000

> <Gold.Chemscore.Lipo>
89.9809

> <Gold.Chemscore.Internal_Hbond>
0.0000

> <Gold.Chemscore.DEClash>
0.2376

> <Gold.Chemscore.DEInternal>
1.6832

> <Gold.Chemscore.Rot>
1.9169

> <Gold.Chemscore.Internal.Correction>
   9.000000E+99

> <Gold.Chemscore.Hbonds>
donor molecule, donor type, donor heavy atom, donor atom, acceptor molecule, acceptor atom, score
      P1  H  7989  7998       L1    13  0.25
      P1  H  7997  8010       L1     9  0.82

> <Gold.Chemscore.Hbond.Weighted>
-4.9834

> <Gold.Chemscore.Metal.Weighted>
-0.0000

> <Gold.Chemscore.Lipo.Weighted>
-10.5278

> <Gold.Chemscore.Internal_Hbond.Weighted>
0.0000

> <Gold.Chemscore.DEClash.Weighted>
0.2376

> <Gold.Chemscore.DEInternal.Weighted>
1.6832

> <Gold.Chemscore.Rot.Weighted>
4.9073

> <Gold.Chemscore.Internal.Correction.Weighted>
   9.000000E+99

> <Gold.Protein.RotatedTorsions>
[ 6907 6896 6895 6894 ] final   81.09 input  -60.11 | X-H torsion
[ 7974 7965 7964 7962 ] final   40.94 input  175.53 | X-H torsion
[ 8008 7997 7996 7995 ] final   37.84 input   59.86 | X-H torsion
[ 10167 10162 10161 10158 ] final  -42.89 input  -65.29 | X-H torsion
[ 10718 10713 10712 10709 ] final  -64.58 input   66.30 | X-H torsion
[ 10763 10752 10751 10750 ] final  178.01 input  -60.55 | X-H torsion
[ 11005 11000 10999 10996 ] final   20.75 input  -57.11 | X-H torsion

> <Gold.Protein.ActiveResidues>
 VAL166  LYS551  ARG553  GLY616  TRP617  ASP618  TYR619  PRO620  LYS621  CYS622 
 ASP623  PHE694  ASN695  SER759  ASP760  ASP761  ALA762  ILE779  LEU786  VAL792 
 PHE793  MET794  SER795  GLU796  ALA797  LYS798  CYS799  TRP800  GLU811  SER814 

> <Gold.Protein.RotatedAtoms>
  152.5257  134.3258  159.9164 H   0  0  0  0  0  0  0  0  0  0  0  0  # atno 6907 bound_to 6896
  151.3207  133.4035  159.2662 H   0  0  0  0  0  0  0  0  0  0  0  0  # atno 6908 bound_to 6896
  150.9962  134.9302  159.7985 H   0  0  0  0  0  0  0  0  0  0  0  0  # atno 6909 bound_to 6896
  146.0864  139.5474  142.9504 H   0  0  0  0  0  0  0  0  0  0  0  0  # atno 7974 bound_to 7965
  155.2103  140.3323  155.4330 H   0  0  0  0  0  0  0  0  0  0  0  0  # atno 8008 bound_to 7997
  156.2373  140.1878  156.7134 H   0  0  0  0  0  0  0  0  0  0  0  0  # atno 8009 bound_to 7997
  154.6082  140.0613  156.9444 H   0  0  0  0  0  0  0  0  0  0  0  0  # atno 8010 bound_to 7997
  140.6953  143.3013  151.3274 H   0  0  0  0  0  0  0  0  0  0  0  0  # atno 10167 bound_to 10162
  156.0721  130.4235  150.1440 H   0  0  0  0  0  0  0  0  0  0  0  0  # atno 10718 bound_to 10713
  154.5020  135.2784  155.1413 H   0  0  0  0  0  0  0  0  0  0  0  0  # atno 10763 bound_to 10752
  154.3043  135.6242  153.5441 H   0  0  0  0  0  0  0  0  0  0  0  0  # atno 10764 bound_to 10752
  152.9904  135.5704  154.5465 H   0  0  0  0  0  0  0  0  0  0  0  0  # atno 10765 bound_to 10752
  140.3992  134.1736  155.7663 H   0  0  0  0  0  0  0  0  0  0  0  0  # atno 11005 bound_to 11000
  145.6121  141.0337  143.1961 LP  0  0  0  0  0  0  0  0  0  0  0  0  # atno 17320 bound_to 7965
  144.7329  139.7672  143.7340 LP  0  0  0  0  0  0  0  0  0  0  0  0  # atno 17321 bound_to 7965
  139.6401  144.0555  152.2548 LP  0  0  0  0  0  0  0  0  0  0  0  0  # atno 17342 bound_to 10162
  140.0058  144.6260  150.7690 LP  0  0  0  0  0  0  0  0  0  0  0  0  # atno 17343 bound_to 10162
  156.9489  130.9768  151.3502 LP  0  0  0  0  0  0  0  0  0  0  0  0  # atno 17370 bound_to 10713
  157.5797  130.8367  149.8505 LP  0  0  0  0  0  0  0  0  0  0  0  0  # atno 17371 bound_to 10713
  141.1863  133.8305  157.1074 LP  0  0  0  0  0  0  0  0  0  0  0  0  # atno 17394 bound_to 11000
  140.0349  134.9883  157.0851 LP  0  0  0  0  0  0  0  0  0  0  0  0  # atno 17395 bound_to 11000

$$$$
