AV-unprocessed.smi:2468|AV-procd|sdf|9731|dock2
  -GOLD-   2272013373D 1   1.00000     0.00000
 Structure written by MMmdl.
 32 33  0  0  0  0  0  0  0  0  1 V2000
  152.0762  144.8247  159.6022 C   0  0  0  0  0  0  0  0  0  0  0  0
  152.2740  143.3316  159.4182 C   0  0  0  0  0  0  0  0  0  0  0  0
  152.7900  142.6753  160.4803 N   0  0  0  0  0  0  0  0  0  0  0  0
  152.9770  141.3439  160.3736 C   0  0  0  0  0  0  0  0  0  0  0  0
  152.6684  140.6084  159.2135 C   0  0  0  0  0  0  0  0  0  0  0  0
  152.1431  141.2950  158.0922 C   0  0  0  0  0  0  0  0  0  0  0  0
  151.7811  140.6525  156.8753 N   0  0  0  0  0  0  0  0  0  0  0  0
  152.2652  139.5183  156.3369 C   0  0  0  0  0  0  0  0  0  0  0  0
  153.1277  138.8091  156.8553 O   0  0  0  0  0  0  0  0  0  0  0  0
  151.6663  139.1251  154.9757 C   0  0  2  0  0  0  0  0  0  0  0  0
  150.7913  140.1795  154.5703 O   0  0  0  0  0  0  0  0  0  0  0  0
  149.4557  139.7035  154.4243 C   0  0  0  0  0  0  0  0  0  0  0  0
  149.3988  138.4053  155.2203 C   0  0  0  0  0  0  0  0  0  0  0  0
  150.7886  137.8536  154.9760 C   0  0  2  0  0  0  0  0  0  0  0  0
  151.1988  136.7101  155.9220 C   0  0  0  0  0  0  0  0  0  0  0  0
  151.9294  142.6891  158.2056 C   0  0  0  0  0  0  0  0  0  0  0  0
  151.2648  143.5932  156.8859 Cl  0  0  0  0  0  0  0  0  0  0  0  0
  152.6084  145.3779  158.8281 H   0  0  0  0  0  0  0  0  0  0  0  0
  152.4468  145.1625  160.5710 H   0  0  0  0  0  0  0  0  0  0  0  0
  151.0171  145.0762  159.5401 H   0  0  0  0  0  0  0  0  0  0  0  0
  153.3794  140.8467  161.2437 H   0  0  0  0  0  0  0  0  0  0  0  0
  152.8284  139.5417  159.2145 H   0  0  0  0  0  0  0  0  0  0  0  0
  151.1240  141.1620  156.3020 H   0  0  0  0  0  0  0  0  0  0  0  0
  152.4662  139.0224  154.2403 H   0  0  0  0  0  0  0  0  0  0  0  0
  148.7292  140.4397  154.7687 H   0  0  0  0  0  0  0  0  0  0  0  0
  149.2674  139.5096  153.3675 H   0  0  0  0  0  0  0  0  0  0  0  0
  149.2428  138.6144  156.2793 H   0  0  0  0  0  0  0  0  0  0  0  0
  148.6066  137.7365  154.8828 H   0  0  0  0  0  0  0  0  0  0  0  0
  150.8092  137.4523  153.9612 H   0  0  0  0  0  0  0  0  0  0  0  0
  151.1204  136.9959  156.9711 H   0  0  0  0  0  0  0  0  0  0  0  0
  152.2262  136.3973  155.7341 H   0  0  0  0  0  0  0  0  0  0  0  0
  150.5572  135.8411  155.7752 H   0  0  0  0  0  0  0  0  0  0  0  0
  1  2  1  0  0  0  0
  1 18  1  0  0  0  0
  1 19  1  0  0  0  0
  1 20  1  0  0  0  0
  2 16  1  0  0  0  0
  2  3  2  0  0  0  0
  3  4  1  0  0  0  0
  4  5  2  0  0  0  0
  4 21  1  0  0  0  0
  5  6  1  0  0  0  0
  5 22  1  0  0  0  0
  6  7  1  0  0  0  0
  6 16  2  0  0  0  0
  7  8  1  0  0  0  0
  7 23  1  0  0  0  0
  8  9  2  0  0  0  0
  8 10  1  0  0  0  0
 10 14  1  0  0  0  0
 10 11  1  0  0  0  0
 10 24  1  0  0  0  0
 11 12  1  0  0  0  0
 12 13  1  0  0  0  0
 12 25  1  0  0  0  0
 12 26  1  0  0  0  0
 13 14  1  0  0  0  0
 13 27  1  0  0  0  0
 13 28  1  0  0  0  0
 14 15  1  0  0  0  0
 14 29  1  0  0  0  0
 15 30  1  0  0  0  0
 15 31  1  0  0  0  0
 15 32  1  0  0  0  0
 16 17  1  0  0  0  0
M  END
> <s_m_source_file>
AV-unprocessed.smi

> <i_m_source_file_index>
2468

> <i_lp_mmshare_version>
43012

> <i_f3d_flags>
0

> <s_epik_input>
W0NIM11jMW5bY0hdW2NIXWMoYzFDbClbTkhdQyg9TylbQ0BASF0yT1tDSDJdW0NIMl1bQ0BIXTJbQ0gzXQ==

> <s_epik_cmdline>
J2VwaWtfcHl0aG9uJywgJy1waCcsICc3LjAnLCAnLXRuJywgJzgnLCAnLW1hJywgJzIwMCcsICctbWV0YWxfYmluZGluZycsICctaW1hZScsICc8aW5maWxlLm1hZT4nLCAnLW9tYWUnLCAnPG91dGZpbGUubWFlPic=

> <r_epik_Ionization_Penalty>
0.000361027

> <r_epik_Ionization_Penalty_Charging>
0

> <r_epik_Ionization_Penalty_Neutral>
0.000361027

> <r_epik_State_Penalty>
0.000217849

> <r_epik_Charging_Adjusted_Penalty>
0.000217849

> <i_epik_Tot_Q>
0

> <i_epik_Tot_abs_Q>
0

> <r_epik_Metal_State_Penalty>
-0

> <b_epik_Metal_Only>
0

> <s_lp_Force_Field>
OPLS_2005

> <r_lp_Energy>
25.639

> <b_lp_Chiralities_Consistent>
1

> <s_lp_Variant>
AV-unprocessed.smi:2468-3

> <Gold.Version>
5.8.1

> <Gold.Id.Protein>
6NUR|6NUR_protein|mol2

> <Gold.PLP.Fitness>
39.0485

> <Gold.PLP.PLP>
-33.5083

> <Gold.PLP.part.hbond>
-1.9754

> <Gold.PLP.part.metal>
0.0000

> <Gold.PLP.part.buried>
-1.6314

> <Gold.PLP.part.nonpolar>
-29.5495

> <Gold.PLP.part.repulsive>
0.2222

> <Gold.PLP.ligand.clash>
0.0000

> <Gold.PLP.ligand.torsion>
0.2354

> <Gold.PLP.Chemscore.Hbond>
2.0000

> <Gold.PLP.Chemscore.CHOScore>
0.0000

> <Gold.PLP.Chemscore.Metal>
0.0000

> <Gold.Chemscore.Hbonds>
donor molecule, donor type, donor heavy atom, donor atom, acceptor molecule, acceptor atom, score
      P1  H  7989  7998       L1    11  0.99
      P1  H  7997  8009       L1     9  0.90

> <Gold.PLP.Chemscore.Internal.Correction>
0.0109

> <Gold.Rescore>
     Score         DG    S(hbond)    S(metal)    S(lipo)     H(rot)  DE(clash)    DE(int)     intcor
     14.77     -17.69       0.95        0.00      99.23       1.00       0.65       2.26       ----

> <Gold.Chemscore.Fitness>
14.7735

> <Gold.Chemscore.DG>
-17.6878

> <Gold.Chemscore.ZeroCoef>
-5.4800

> <Gold.Chemscore.Hbond>
0.9454

> <Gold.Chemscore.Metal>
0.0000

> <Gold.Chemscore.Lipo>
99.2316

> <Gold.Chemscore.Internal_Hbond>
0.0000

> <Gold.Chemscore.DEClash>
0.6530

> <Gold.Chemscore.DEInternal>
2.2612

> <Gold.Chemscore.Rot>
1.0000

> <Gold.Chemscore.Internal.Correction>
   9.000000E+99

> <Gold.Chemscore.Hbonds>
donor molecule, donor type, donor heavy atom, donor atom, acceptor molecule, acceptor atom, score
      P1  H  7989  7998       L1    11  0.32
      P1  H  7997  8009       L1     9  0.17

> <Gold.Chemscore.Hbond.Weighted>
-3.1577

> <Gold.Chemscore.Metal.Weighted>
-0.0000

> <Gold.Chemscore.Lipo.Weighted>
-11.6101

> <Gold.Chemscore.Internal_Hbond.Weighted>
0.0000

> <Gold.Chemscore.DEClash.Weighted>
0.6530

> <Gold.Chemscore.DEInternal.Weighted>
2.2612

> <Gold.Chemscore.Rot.Weighted>
2.5600

> <Gold.Chemscore.Internal.Correction.Weighted>
   9.000000E+99

> <Gold.Protein.RotatedTorsions>
[ 6907 6896 6895 6894 ] final    4.61 input  -60.11 | X-H torsion
[ 7974 7965 7964 7962 ] final   52.67 input  175.53 | X-H torsion
[ 8008 7997 7996 7995 ] final  163.62 input   59.86 | X-H torsion
[ 10167 10162 10161 10158 ] final  178.61 input  -65.29 | X-H torsion
[ 10718 10713 10712 10709 ] final    0.89 input   66.30 | X-H torsion
[ 10763 10752 10751 10750 ] final   76.27 input  -60.55 | X-H torsion
[ 11005 11000 10999 10996 ] final   24.52 input  -57.11 | X-H torsion

> <Gold.Protein.ActiveResidues>
 VAL166  LYS551  ARG553  GLY616  TRP617  ASP618  TYR619  PRO620  LYS621  CYS622 
 ASP623  PHE694  ASN695  SER759  ASP760  ASP761  ALA762  ILE779  LEU786  VAL792 
 PHE793  MET794  SER795  GLU796  ALA797  LYS798  CYS799  TRP800  GLU811  SER814 

> <Gold.Protein.RotatedAtoms>
  151.6442  135.1009  160.0147 H   0  0  0  0  0  0  0  0  0  0  0  0  # atno 6907 bound_to 6896
  152.4037  133.6852  159.6347 H   0  0  0  0  0  0  0  0  0  0  0  0  # atno 6908 bound_to 6896
  150.7934  133.8663  159.3287 H   0  0  0  0  0  0  0  0  0  0  0  0  # atno 6909 bound_to 6896
  145.9789  139.4223  143.0144 H   0  0  0  0  0  0  0  0  0  0  0  0  # atno 7974 bound_to 7965
  156.1943  140.1718  156.8030 H   0  0  0  0  0  0  0  0  0  0  0  0  # atno 8008 bound_to 7997
  154.5510  140.0718  156.8698 H   0  0  0  0  0  0  0  0  0  0  0  0  # atno 8009 bound_to 7997
  155.3029  140.3362  155.4249 H   0  0  0  0  0  0  0  0  0  0  0  0  # atno 8010 bound_to 7997
  139.5301  144.2660  152.0668 H   0  0  0  0  0  0  0  0  0  0  0  0  # atno 10167 bound_to 10162
  156.8400  130.5518  149.5678 H   0  0  0  0  0  0  0  0  0  0  0  0  # atno 10718 bound_to 10713
  153.0713  135.4957  154.8311 H   0  0  0  0  0  0  0  0  0  0  0  0  # atno 10763 bound_to 10752
  154.7027  135.3004  154.9319 H   0  0  0  0  0  0  0  0  0  0  0  0  # atno 10764 bound_to 10752
  154.0038  135.6763  153.4814 H   0  0  0  0  0  0  0  0  0  0  0  0  # atno 10765 bound_to 10752
  140.3578  134.2158  155.7674 H   0  0  0  0  0  0  0  0  0  0  0  0  # atno 11005 bound_to 11000
  145.7798  140.9861  143.1105 LP  0  0  0  0  0  0  0  0  0  0  0  0  # atno 17320 bound_to 7965
  144.6856  139.9550  143.7479 LP  0  0  0  0  0  0  0  0  0  0  0  0  # atno 17321 bound_to 7965
  140.2122  144.4551  150.6380 LP  0  0  0  0  0  0  0  0  0  0  0  0  # atno 17342 bound_to 10162
  140.6473  143.2216  151.6157 LP  0  0  0  0  0  0  0  0  0  0  0  0  # atno 17343 bound_to 10162
  156.0886  130.5878  150.9692 LP  0  0  0  0  0  0  0  0  0  0  0  0  # atno 17370 bound_to 10713
  157.6361  131.0916  150.8346 LP  0  0  0  0  0  0  0  0  0  0  0  0  # atno 17371 bound_to 10713
  141.1993  133.8015  157.0543 LP  0  0  0  0  0  0  0  0  0  0  0  0  # atno 17394 bound_to 11000
  140.0651  134.9733  157.1371 LP  0  0  0  0  0  0  0  0  0  0  0  0  # atno 17395 bound_to 11000

$$$$
