AV-unprocessed.smi:874|AV-procd|sdf|4017|dock4
  -GOLD-   22720 1503D 1   1.00000     0.00000
 Structure written by MMmdl.
 39 41  0  0  0  0  0  0  0  0  1 V2000
  153.6564  139.9566  160.3029 C   0  0  0  0  0  0  0  0  0  0  0  0
  152.9172  140.9697  159.5592 N   0  0  0  0  0  0  0  0  0  0  0  0
  152.4880  140.8899  158.2784 C   0  0  0  0  0  0  0  0  0  0  0  0
  152.6589  139.9380  157.5169 O   0  0  0  0  0  0  0  0  0  0  0  0
  151.8388  142.0417  157.9786 N   0  0  0  0  0  0  0  0  0  0  0  0
  151.2225  142.3936  156.6959 C   0  0  0  0  0  0  0  0  0  0  0  0
  150.1800  141.3652  156.1757 C   0  0  0  0  0  0  0  0  0  0  0  0
  149.3613  142.0415  155.2392 O   0  0  0  0  0  0  0  0  0  0  0  0
  150.9142  140.2432  155.4012 C   0  0  0  0  0  0  0  0  0  0  0  0
  149.9726  139.1353  154.8961 C   0  0  0  0  0  0  0  0  0  0  0  0
  149.1453  138.5434  156.0447 C   0  0  0  0  0  0  0  0  0  0  0  0
  148.3564  139.6412  156.7706 C   0  0  0  0  0  0  0  0  0  0  0  0
  149.2843  140.7562  157.2854 C   0  0  0  0  0  0  0  0  0  0  0  0
  151.8817  142.8923  159.0942 C   0  0  0  0  0  0  0  0  0  0  0  0
  151.3863  144.1937  159.2892 C   0  0  0  0  0  0  0  0  0  0  0  0
  151.5998  144.7854  160.5562 C   0  0  0  0  0  0  0  0  0  0  0  0
  152.2902  144.0844  161.5790 C   0  0  0  0  0  0  0  0  0  0  0  0
  152.7828  142.7774  161.3556 C   0  0  0  0  0  0  0  0  0  0  0  0
  152.5558  142.2143  160.0881 C   0  0  0  0  0  0  0  0  0  0  0  0
  153.7588  139.0276  159.7405 H   0  0  0  0  0  0  0  0  0  0  0  0
  153.1448  139.7269  161.2379 H   0  0  0  0  0  0  0  0  0  0  0  0
  154.6564  140.3201  160.5404 H   0  0  0  0  0  0  0  0  0  0  0  0
  150.7790  143.3881  156.7637 H   0  0  0  0  0  0  0  0  0  0  0  0
  152.0230  142.4926  155.9610 H   0  0  0  0  0  0  0  0  0  0  0  0
  149.0871  142.8617  155.6204 H   0  0  0  0  0  0  0  0  0  0  0  0
  151.4684  140.6642  154.5610 H   0  0  0  0  0  0  0  0  0  0  0  0
  151.6606  139.7866  156.0529 H   0  0  0  0  0  0  0  0  0  0  0  0
  149.3058  139.5339  154.1306 H   0  0  0  0  0  0  0  0  0  0  0  0
  150.5537  138.3481  154.4151 H   0  0  0  0  0  0  0  0  0  0  0  0
  148.4622  137.7856  155.6597 H   0  0  0  0  0  0  0  0  0  0  0  0
  149.8050  138.0370  156.7505 H   0  0  0  0  0  0  0  0  0  0  0  0
  147.6105  140.0629  156.0959 H   0  0  0  0  0  0  0  0  0  0  0  0
  147.8034  139.2085  157.6047 H   0  0  0  0  0  0  0  0  0  0  0  0
  149.9187  140.3445  158.0712 H   0  0  0  0  0  0  0  0  0  0  0  0
  148.6765  141.5295  157.7561 H   0  0  0  0  0  0  0  0  0  0  0  0
  150.8633  144.7249  158.5079 H   0  0  0  0  0  0  0  0  0  0  0  0
  151.2331  145.7833  160.7469 H   0  0  0  0  0  0  0  0  0  0  0  0
  152.4433  144.5555  162.5388 H   0  0  0  0  0  0  0  0  0  0  0  0
  153.3128  142.2385  162.1271 H   0  0  0  0  0  0  0  0  0  0  0  0
  1  2  1  0  0  0  0
  1 20  1  0  0  0  0
  1 21  1  0  0  0  0
  1 22  1  0  0  0  0
  2 19  1  0  0  0  0
  2  3  1  0  0  0  0
  3  4  2  0  0  0  0
  3  5  1  0  0  0  0
  5  6  1  0  0  0  0
  5 14  1  0  0  0  0
  6  7  1  0  0  0  0
  6 23  1  0  0  0  0
  6 24  1  0  0  0  0
  7 13  1  0  0  0  0
  7  8  1  0  0  0  0
  7  9  1  0  0  0  0
  8 25  1  0  0  0  0
  9 10  1  0  0  0  0
  9 26  1  0  0  0  0
  9 27  1  0  0  0  0
 10 11  1  0  0  0  0
 10 28  1  0  0  0  0
 10 29  1  0  0  0  0
 11 12  1  0  0  0  0
 11 30  1  0  0  0  0
 11 31  1  0  0  0  0
 12 13  1  0  0  0  0
 12 32  1  0  0  0  0
 12 33  1  0  0  0  0
 13 34  1  0  0  0  0
 13 35  1  0  0  0  0
 14 19  2  0  0  0  0
 14 15  1  0  0  0  0
 15 16  2  0  0  0  0
 15 36  1  0  0  0  0
 16 17  1  0  0  0  0
 16 37  1  0  0  0  0
 17 18  2  0  0  0  0
 17 38  1  0  0  0  0
 18 19  1  0  0  0  0
 18 39  1  0  0  0  0
M  END
> <s_m_source_file>
AV-unprocessed.smi

> <i_m_source_file_index>
874

> <i_lp_mmshare_version>
43012

> <i_f3d_flags>
0

> <s_epik_input>
W2NIXTFbY0hdW2NIXVtjSF1jKGMxMiluKFtDSDNdKWMoPU8pbjJbQ0gyXUMzKFtPSF0pW0NIMl1bQ0gyXVtDSDJdW0NIMl1bQ0gyXTM=

> <s_epik_cmdline>
J2VwaWtfcHl0aG9uJywgJy1waCcsICc3LjAnLCAnLXRuJywgJzgnLCAnLW1hJywgJzIwMCcsICctbWV0YWxfYmluZGluZycsICctaW1hZScsICc8aW5maWxlLm1hZT4nLCAnLW9tYWUnLCAnPG91dGZpbGUubWFlPic=

> <r_lp_tautomer_probability>
1

> <r_epik_Ionization_Penalty>
4.84563e-08

> <r_epik_Ionization_Penalty_Charging>
4.2068e-09

> <r_epik_Ionization_Penalty_Neutral>
4.42495e-08

> <r_epik_State_Penalty>
-0

> <r_epik_Charging_Adjusted_Penalty>
4.2068e-09

> <i_epik_Tot_Q>
0

> <i_epik_Tot_abs_Q>
0

> <r_epik_Metal_State_Penalty>
-0

> <b_epik_Metal_Only>
0

> <s_lp_Force_Field>
OPLS_2005

> <r_lp_Energy>
48.1274

> <b_lp_Chiralities_Consistent>
1

> <s_lp_Variant>
AV-unprocessed.smi:874-1

> <Gold.Version>
5.8.1

> <Gold.Id.Protein>
6NUR|6NUR_protein|mol2

> <Gold.PLP.Fitness>
47.1339

> <Gold.PLP.PLP>
-41.8526

> <Gold.PLP.part.hbond>
-2.0000

> <Gold.PLP.part.metal>
0.0000

> <Gold.PLP.part.buried>
-5.3249

> <Gold.PLP.part.nonpolar>
-34.6710

> <Gold.PLP.part.repulsive>
0.0000

> <Gold.PLP.ligand.clash>
0.0000

> <Gold.PLP.ligand.torsion>
0.3794

> <Gold.PLP.Chemscore.Hbond>
2.0000

> <Gold.PLP.Chemscore.CHOScore>
0.0000

> <Gold.PLP.Chemscore.Metal>
0.0000

> <Gold.Chemscore.Hbonds>
donor molecule, donor type, donor heavy atom, donor atom, acceptor molecule, acceptor atom, score
      L1  H     8    25       P1  8028  1.00
      P1  H  7997  8008       L1     4  1.00

> <Gold.PLP.Chemscore.Internal.Correction>
0.0401

> <Gold.Rescore>
     Score         DG    S(hbond)    S(metal)    S(lipo)     H(rot)  DE(clash)    DE(int)     intcor
     18.92     -20.96       1.89        0.00     112.72       1.58       0.26       1.78       ----

> <Gold.Chemscore.Fitness>
18.9215

> <Gold.Chemscore.DG>
-20.9604

> <Gold.Chemscore.ZeroCoef>
-5.4800

> <Gold.Chemscore.Hbond>
1.8939

> <Gold.Chemscore.Metal>
0.0000

> <Gold.Chemscore.Lipo>
112.7225

> <Gold.Chemscore.Internal_Hbond>
0.0000

> <Gold.Chemscore.DEClash>
0.2560

> <Gold.Chemscore.DEInternal>
1.7829

> <Gold.Chemscore.Rot>
1.5757

> <Gold.Chemscore.Internal.Correction>
   9.000000E+99

> <Gold.Chemscore.Hbonds>
donor molecule, donor type, donor heavy atom, donor atom, acceptor molecule, acceptor atom, score
      L1  H     8    25       P1  8028  0.98
      P1  H  7997  8008       L1     4  0.69

> <Gold.Chemscore.Hbond.Weighted>
-6.3257

> <Gold.Chemscore.Metal.Weighted>
-0.0000

> <Gold.Chemscore.Lipo.Weighted>
-13.1885

> <Gold.Chemscore.Internal_Hbond.Weighted>
0.0000

> <Gold.Chemscore.DEClash.Weighted>
0.2560

> <Gold.Chemscore.DEInternal.Weighted>
1.7829

> <Gold.Chemscore.Rot.Weighted>
4.0338

> <Gold.Chemscore.Internal.Correction.Weighted>
   9.000000E+99

> <Gold.Protein.RotatedTorsions>
[ 6907 6896 6895 6894 ] final   80.50 input  -60.11 | X-H torsion
[ 7974 7965 7964 7962 ] final -125.74 input  175.53 | X-H torsion
[ 8008 7997 7996 7995 ] final  -64.43 input   59.86 | X-H torsion
[ 10167 10162 10161 10158 ] final   45.06 input  -65.29 | X-H torsion
[ 10718 10713 10712 10709 ] final   16.54 input   66.30 | X-H torsion
[ 10763 10752 10751 10750 ] final -166.52 input  -60.55 | X-H torsion
[ 11005 11000 10999 10996 ] final -176.17 input  -57.11 | X-H torsion

> <Gold.Protein.ActiveResidues>
 VAL166  LYS551  ARG553  GLY616  TRP617  ASP618  TYR619  PRO620  LYS621  CYS622 
 ASP623  PHE694  ASN695  SER759  ASP760  ASP761  ALA762  ILE779  LEU786  VAL792 
 PHE793  MET794  SER795  GLU796  ALA797  LYS798  CYS799  TRP800  GLU811  SER814 

> <Gold.Protein.RotatedAtoms>
  152.5237  134.3348  159.9195 H   0  0  0  0  0  0  0  0  0  0  0  0  # atno 6907 bound_to 6896
  151.3297  133.3999  159.2669 H   0  0  0  0  0  0  0  0  0  0  0  0  # atno 6908 bound_to 6896
  150.9891  134.9247  159.7946 H   0  0  0  0  0  0  0  0  0  0  0  0  # atno 6909 bound_to 6896
  144.9944  140.7762  143.4534 H   0  0  0  0  0  0  0  0  0  0  0  0  # atno 7974 bound_to 7965
  154.4611  140.0954  156.6895 H   0  0  0  0  0  0  0  0  0  0  0  0  # atno 8008 bound_to 7997
  155.4991  140.3473  155.4349 H   0  0  0  0  0  0  0  0  0  0  0  0  # atno 8009 bound_to 7997
  156.0872  140.1388  156.9627 H   0  0  0  0  0  0  0  0  0  0  0  0  # atno 8010 bound_to 7997
  140.3279  144.2624  150.6172 H   0  0  0  0  0  0  0  0  0  0  0  0  # atno 10167 bound_to 10162
  157.0694  130.6342  149.5802 H   0  0  0  0  0  0  0  0  0  0  0  0  # atno 10718 bound_to 10713
  154.6824  135.2957  154.9594 H   0  0  0  0  0  0  0  0  0  0  0  0  # atno 10763 bound_to 10752
  154.0584  135.6635  153.4813 H   0  0  0  0  0  0  0  0  0  0  0  0  # atno 10764 bound_to 10752
  153.0556  135.5146  154.7875 H   0  0  0  0  0  0  0  0  0  0  0  0  # atno 10765 bound_to 10752
  140.4551  134.6307  157.4818 H   0  0  0  0  0  0  0  0  0  0  0  0  # atno 11005 bound_to 11000
  145.2240  139.2146  143.5078 LP  0  0  0  0  0  0  0  0  0  0  0  0  # atno 17320 bound_to 7965
  146.3438  140.2103  142.8590 LP  0  0  0  0  0  0  0  0  0  0  0  0  # atno 17321 bound_to 7965
  140.5424  143.2221  151.8063 LP  0  0  0  0  0  0  0  0  0  0  0  0  # atno 17342 bound_to 10162
  139.4862  144.4583  151.9571 LP  0  0  0  0  0  0  0  0  0  0  0  0  # atno 17343 bound_to 10162
  155.9955  130.5022  150.7460 LP  0  0  0  0  0  0  0  0  0  0  0  0  # atno 17370 bound_to 10713
  157.4890  131.0909  151.0448 LP  0  0  0  0  0  0  0  0  0  0  0  0  # atno 17371 bound_to 10713
  139.9981  134.6879  155.9575 LP  0  0  0  0  0  0  0  0  0  0  0  0  # atno 17394 bound_to 11000
  141.1647  133.6537  156.4437 LP  0  0  0  0  0  0  0  0  0  0  0  0  # atno 17395 bound_to 11000

$$$$
