#       Name:                AV-unprocessed.smi:109
#       Creating user name   scv26
#       Creation time:       Thu Mar 26 18:10:24 2020


#       File generated by GOLD software.
#

@<TRIPOS>MOLECULE
AV-unprocessed.smi:109
    71    74     1
SMALL
NO_CHARGES


@<TRIPOS>ATOM
      1 ****        -1.9056   2.8636  -3.8392 O.3            1 S1                 0.0000
      2 ****        -1.5222   2.3240  -2.5929 C.3            1 S1                 0.0000
      3 ****        -2.7579   2.1612  -1.6908 C.3            1 S1                 0.0000
      4 ****        -2.4390   1.6538  -0.2627 C.3            1 S1                 0.0000
      5 ****        -1.8129   0.3319  -0.3453 N.pl3          1 S1                 0.0000
      6 ****        -0.4770   0.1553  -0.2341 C.ar           1 S1                 0.0000
      7 ****         0.3544   1.1873   0.0626 N.ar           1 S1                 0.0000
      8 ****         1.6702   0.9788   0.1617 C.ar           1 S1                 0.0000
      9 ****         2.3474  -0.1603   0.0058 N.ar           1 S1                 0.0000
     10 ****         1.5190  -1.2023  -0.2937 C.ar           1 S1                 0.0000
     11 ****         0.1046  -1.1239  -0.4304 C.ar           1 S1                 0.0000
     12 ****        -0.4088  -2.3751  -0.7439 N.2            1 S1                 0.0000
     13 ****         0.6445  -3.1455  -0.7886 C.2            1 S1                 0.0000
     14 ****         1.8463  -2.5235  -0.5321 N.pl3          1 S1                 0.0000
     15 ****         3.2052  -3.1578  -0.5126 C.3            1 S1                 0.0000
     16 ****         3.9541  -2.6186   0.5363 O.3            1 S1                 0.0000
     17 ****         5.1445  -2.0131   0.0391 C.3            1 S1                 0.0000
     18 ****         6.2680  -2.0758   1.0884 C.3            1 S1                 0.0000
     19 ****         7.4094  -1.3827   0.6302 O.3            1 S1                 0.0000
     20 ****         5.4046  -2.7053  -1.3069 C.3            1 S1                 0.0000
     21 ****         6.0966  -3.9286  -1.1371 O.3            1 S1                 0.0000
     22 ****         3.9967  -2.9585  -1.8224 C.3            1 S1                 0.0000
     23 ****         3.5480  -1.8679  -2.6078 O.3            1 S1                 0.0000
     24 ****        -3.6863   1.5770   0.6644 C.3            1 S1                 0.0000
     25 ****        -4.4468   2.9220   0.7807 C.3            1 S1                 0.0000
     26 ****        -5.6514   2.8364   1.7326 C.3            1 S1                 0.0000
     27 ****        -5.2346   2.3498   3.1256 C.3            1 S1                 0.0000
     28 ****        -4.5039   1.0053   3.0309 C.3            1 S1                 0.0000
     29 ****        -3.2954   1.0961   2.0860 C.3            1 S1                 0.0000
     30 ****         3.0139  -4.2098  -0.2965 H              1 S1                 0.0000
     31 ****         4.9113  -0.9665  -0.1591 H              1 S1                 0.0000
     32 ****         5.9906  -2.0783  -1.9805 H              1 S1                 0.0000
     33 ****         3.9298  -3.8604  -2.4323 H              1 S1                 0.0000
     34 ****        -2.5030   2.2619  -4.2564 H              1 S1                 0.0000
     35 ****        -1.0305   1.3672  -2.7685 H              1 S1                 0.0000
     36 ****        -0.7922   2.9879  -2.1291 H              1 S1                 0.0000
     37 ****        -3.2363   3.1376  -1.6378 H              1 S1                 0.0000
     38 ****        -3.4758   1.4916  -2.1666 H              1 S1                 0.0000
     39 ****        -1.7608   2.3735   0.1950 H              1 S1                 0.0000
     40 ****        -2.4447  -0.4325  -0.5364 H              1 S1                 0.0000
     41 ****         2.2654   1.8479   0.3995 H              1 S1                 0.0000
     42 ****         0.5731  -4.1998  -1.0132 H              1 S1                 0.0000
     43 ****         5.9334  -1.6084   2.0147 H              1 S1                 0.0000
     44 ****         6.5340  -3.1044   1.3322 H              1 S1                 0.0000
     45 ****         8.0617  -1.3946   1.3139 H              1 S1                 0.0000
     46 ****         6.9564  -3.7375  -0.7938 H              1 S1                 0.0000
     47 ****         2.6339  -1.9993  -2.8072 H              1 S1                 0.0000
     48 ****        -4.3757   0.8447   0.2407 H              1 S1                 0.0000
     49 ****        -3.7655   3.7021   1.1228 H              1 S1                 0.0000
     50 ****        -4.8232   3.2407  -0.1898 H              1 S1                 0.0000
     51 ****        -6.1325   3.8120   1.8106 H              1 S1                 0.0000
     52 ****        -6.3970   2.1573   1.3168 H              1 S1                 0.0000
     53 ****        -4.5849   3.0897   3.5949 H              1 S1                 0.0000
     54 ****        -6.1117   2.2546   3.7663 H              1 S1                 0.0000
     55 ****        -4.1767   0.6916   4.0226 H              1 S1                 0.0000
     56 ****        -5.1911   0.2371   2.6742 H              1 S1                 0.0000
     57 ****        -2.8195   0.1161   2.0464 H              1 S1                 0.0000
     58 ****        -2.5554   1.7761   2.5102 H              1 S1                 0.0000
     59 ****        -1.0976   2.9899  -4.4147 LP             1 S1                 0.0000
     60 ****        -2.3570   3.7450  -3.7003 LP             1 S1                 0.0000
     61 ****        -0.0186   2.1038   0.2070 LP             1 S1                 0.0000
     62 ****         3.3400  -0.2405   0.0973 LP             1 S1                 0.0000
     63 ****        -1.3638  -2.6278  -0.8994 LP             1 S1                 0.0000
     64 ****         4.1980  -3.3479   1.1756 LP             1 S1                 0.0000
     65 ****         3.4072  -1.9287   1.0106 LP             1 S1                 0.0000
     66 ****         7.1656  -0.4376   0.4130 LP             1 S1                 0.0000
     67 ****         7.7701  -1.8304  -0.1880 LP             1 S1                 0.0000
     68 ****         6.1800  -4.3952  -2.0176 LP             1 S1                 0.0000
     69 ****         5.5987  -4.5128  -0.4962 LP             1 S1                 0.0000
     70 ****         4.0756  -1.8233  -3.4561 LP             1 S1                 0.0000
     71 ****         3.6632  -1.0151  -2.0984 LP             1 S1                 0.0000
@<TRIPOS>BOND
    1    1    2 1     
    2    1   34 1     
    3    2    3 1     
    4    2   35 1     
    5    2   36 1     
    6    3    4 1     
    7    3   37 1     
    8    3   38 1     
    9    4    5 1     
   10    4   24 1     
   11    4   39 1     
   12    5    6 1     
   13    5   40 1     
   14    6   11 ar    
   15    6    7 ar    
   16    7    8 ar    
   17    8    9 ar    
   18    8   41 1     
   19    9   10 ar    
   20   10   14 1     
   21   10   11 ar    
   22   11   12 1     
   23   12   13 2     
   24   13   14 1     
   25   13   42 1     
   26   14   15 1     
   27   15   30 1     
   28   15   22 1     
   29   15   16 1     
   30   16   17 1     
   31   17   31 1     
   32   17   18 1     
   33   17   20 1     
   34   18   19 1     
   35   18   43 1     
   36   18   44 1     
   37   19   45 1     
   38   20   32 1     
   39   20   21 1     
   40   20   22 1     
   41   21   46 1     
   42   22   33 1     
   43   22   23 1     
   44   23   47 1     
   45   24   29 1     
   46   24   25 1     
   47   24   48 1     
   48   25   26 1     
   49   25   49 1     
   50   25   50 1     
   51   26   27 1     
   52   26   51 1     
   53   26   52 1     
   54   27   28 1     
   55   27   53 1     
   56   27   54 1     
   57   28   29 1     
   58   28   55 1     
   59   28   56 1     
   60   29   57 1     
   61   29   58 1     
   62    1   59 1     
   63    1   60 1     
   64    7   61 1     
   65    9   62 1     
   66   12   63 1     
   67   16   64 1     
   68   16   65 1     
   69   19   66 1     
   70   19   67 1     
   71   21   68 1     
   72   21   69 1     
   73   23   70 1     
   74   23   71 1     
@<TRIPOS>SUBSTRUCTURE
      1 S1             1
@<TRIPOS>SET
LONE_PAIRS      STATIC     ATOMS    <user>   **** ""
13 59 60 61 62 63 64 65 66 67 68 69 70 71
DONOR_HYDROGENS      STATIC     ATOMS    <user>   **** ""
5 34 40 45 46 47
ATOM$BLUE        STATIC     ATOMS    COLORGROUP SYSTEM
13 59 60 61 62 63 64 65 66 67 68 69 70 71
ATOM$RED        STATIC     ATOMS    COLORGROUP SYSTEM
5 34 40 45 46 47
