AV-unprocessed.smi:447|AV-procd|sdf|2604|dock5
  -GOLD-   2262023 03D 1   1.00000     0.00000
 Structure written by MMmdl.
 46 48  0  0  0  0  0  0  0  0  2 V2000
  146.1769  143.1830  153.8278 C   0  0  0  0  0  0  0  0  0  0  0  0
  146.8090  141.9334  154.4299 C   0  0  0  0  0  0  0  0  0  0  0  0
  146.2042  140.8635  154.4047 O   0  0  0  0  0  0  0  0  0  0  0  0
  148.0238  142.0894  154.9787 N   0  0  0  0  0  0  0  0  0  0  0  0
  148.8557  141.0349  155.5603 C   0  0  1  0  0  0  0  0  0  0  0  0
  149.5209  140.2550  154.4162 C   0  0  0  0  0  0  0  0  0  0  0  0
  149.8965  141.5410  156.5235 C   0  0  0  0  0  0  0  0  0  0  0  0
  150.2546  142.8462  156.6992 N   0  3  0  0  0  0  0  0  0  0  0  0
  151.2768  142.9399  157.6407 C   0  0  0  0  0  0  0  0  0  0  0  0
  151.9519  144.0487  158.1413 C   0  0  0  0  0  0  0  0  0  0  0  0
  152.9642  143.7977  159.0902 C   0  0  0  0  0  0  0  0  0  0  0  0
  153.2735  142.4855  159.5018 C   0  0  0  0  0  0  0  0  0  0  0  0
  152.5809  141.3707  158.9857 C   0  0  0  0  0  0  0  0  0  0  0  0
  151.5735  141.6262  158.0546 C   0  0  0  0  0  0  0  0  0  0  0  0
  150.6908  140.7941  157.3507 N   0  0  0  0  0  0  0  0  0  0  0  0
  150.7713  139.3320  157.5496 C   0  0  0  0  0  0  0  0  0  0  0  0
  152.0791  138.6708  157.0535 C   0  0  1  0  0  0  0  0  0  0  0  0
  152.8343  139.5684  156.2636 O   0  0  0  0  0  0  0  0  0  0  0  0
  152.8874  138.0328  158.1761 C   0  0  0  0  0  0  0  0  0  0  0  0
  154.1109  137.3723  157.9221 C   0  0  0  0  0  0  0  0  0  0  0  0
  154.8290  136.7777  158.9779 C   0  0  0  0  0  0  0  0  0  0  0  0
  154.3389  136.8510  160.2951 C   0  0  0  0  0  0  0  0  0  0  0  0
  153.1247  137.5130  160.5562 C   0  0  0  0  0  0  0  0  0  0  0  0
  152.4006  138.0984  159.4998 C   0  0  0  0  0  0  0  0  0  0  0  0
  146.0265  143.9415  154.5964 H   0  0  0  0  0  0  0  0  0  0  0  0
  145.2091  142.9520  153.3815 H   0  0  0  0  0  0  0  0  0  0  0  0
  146.8197  143.5987  153.0512 H   0  0  0  0  0  0  0  0  0  0  0  0
  148.4289  143.0141  154.9522 H   0  0  0  0  0  0  0  0  0  0  0  0
  148.1933  140.3572  156.0971 H   0  0  0  0  0  0  0  0  0  0  0  0
  150.1068  139.4148  154.7870 H   0  0  0  0  0  0  0  0  0  0  0  0
  150.1915  140.8937  153.8399 H   0  0  0  0  0  0  0  0  0  0  0  0
  148.7748  139.8524  153.7303 H   0  0  0  0  0  0  0  0  0  0  0  0
  151.7193  145.0540  157.8226 H   0  0  0  0  0  0  0  0  0  0  0  0
  153.5158  144.6272  159.5085 H   0  0  0  0  0  0  0  0  0  0  0  0
  154.0570  142.3297  160.2292 H   0  0  0  0  0  0  0  0  0  0  0  0
  152.8255  140.3709  159.3124 H   0  0  0  0  0  0  0  0  0  0  0  0
  150.6362  139.1274  158.6109 H   0  0  0  0  0  0  0  0  0  0  0  0
  149.9116  138.8773  157.0566 H   0  0  0  0  0  0  0  0  0  0  0  0
  151.7972  137.8605  156.3799 H   0  0  0  0  0  0  0  0  0  0  0  0
  152.6130  139.4250  155.3559 H   0  0  0  0  0  0  0  0  0  0  0  0
  154.5104  137.3181  156.9202 H   0  0  0  0  0  0  0  0  0  0  0  0
  155.7635  136.2745  158.7777 H   0  0  0  0  0  0  0  0  0  0  0  0
  154.8946  136.4002  161.1042 H   0  0  0  0  0  0  0  0  0  0  0  0
  152.7468  137.5692  161.5663 H   0  0  0  0  0  0  0  0  0  0  0  0
  151.4683  138.6020  159.7095 H   0  0  0  0  0  0  0  0  0  0  0  0
  149.8213  143.6169  156.2076 H   0  0  0  0  0  0  0  0  0  0  0  0
  1  2  1  0  0  0  0
  1 25  1  0  0  0  0
  1 26  1  0  0  0  0
  1 27  1  0  0  0  0
  2  3  2  0  0  0  0
  2  4  1  0  0  0  0
  4  5  1  0  0  0  0
  4 28  1  0  0  0  0
  5  6  1  0  0  0  0
  5  7  1  0  0  0  0
  5 29  1  0  0  0  0
  6 30  1  0  0  0  0
  6 31  1  0  0  0  0
  6 32  1  0  0  0  0
  7 15  1  0  0  0  0
  7  8  2  0  0  0  0
  8  9  1  0  0  0  0
  8 46  1  0  0  0  0
  9 14  2  0  0  0  0
  9 10  1  0  0  0  0
 10 11  2  0  0  0  0
 10 33  1  0  0  0  0
 11 12  1  0  0  0  0
 11 34  1  0  0  0  0
 12 13  2  0  0  0  0
 12 35  1  0  0  0  0
 13 14  1  0  0  0  0
 13 36  1  0  0  0  0
 14 15  1  0  0  0  0
 15 16  1  0  0  0  0
 16 17  1  0  0  0  0
 16 37  1  0  0  0  0
 16 38  1  0  0  0  0
 17 18  1  0  0  0  0
 17 19  1  0  0  0  0
 17 39  1  0  0  0  0
 18 40  1  0  0  0  0
 19 24  1  0  0  0  0
 19 20  2  0  0  0  0
 20 21  1  0  0  0  0
 20 41  1  0  0  0  0
 21 22  2  0  0  0  0
 21 42  1  0  0  0  0
 22 23  1  0  0  0  0
 22 43  1  0  0  0  0
 23 24  2  0  0  0  0
 23 44  1  0  0  0  0
 24 45  1  0  0  0  0
M  CHG  1   8   1
M  END
> <s_m_source_file>
AV-unprocessed.smi

> <i_m_source_file_index>
447

> <i_lp_mmshare_version>
43012

> <i_f3d_flags>
0

> <s_epik_input>
W0NIM11DKD1PKVtOSF1bQ0BIXShbQ0gzXSljKG4xKW4oYyhjMTIpW2NIXVtjSF1bY0hdW2NIXTIpW0NIMl1bQ0BIXShbT0hdKWMzW2NIXVtjSF1bY0hdW2NIXVtjSF0z

> <s_epik_cmdline>
J2VwaWtfcHl0aG9uJywgJy1waCcsICc3LjAnLCAnLXRuJywgJzgnLCAnLW1hJywgJzIwMCcsICctbWV0YWxfYmluZGluZycsICctaW1hZScsICc8aW5maWxlLm1hZT4nLCAnLW9tYWUnLCAnPG91dGZpbGUubWFlPic=

> <r_epik_Ionization_Penalty>
0.950381

> <r_epik_Ionization_Penalty_Charging>
0.950379

> <r_epik_Ionization_Penalty_Neutral>
1.42115e-06

> <r_epik_State_Penalty>
0.994584

> <r_epik_Charging_Adjusted_Penalty>
1.94496

> <i_epik_Tot_Q>
1

> <i_epik_Tot_abs_Q>
1

> <r_epik_Metal_State_Penalty>
1.10485

> <b_epik_Metal_Only>
0

> <s_lp_Force_Field>
OPLS_2005

> <r_lp_Energy>
11.8

> <b_lp_Chiralities_Consistent>
1

> <s_lp_Variant>
AV-unprocessed.smi:447-8

> <Gold.Version>
5.8.1

> <Gold.Id.Protein>
6NUR|6NUR_protein|mol2

> <Gold.PLP.Fitness>
56.4259

> <Gold.PLP.PLP>
-46.8117

> <Gold.PLP.part.hbond>
-2.9983

> <Gold.PLP.part.metal>
0.0000

> <Gold.PLP.part.buried>
-6.9339

> <Gold.PLP.part.nonpolar>
-37.1158

> <Gold.PLP.part.repulsive>
0.3309

> <Gold.PLP.ligand.clash>
0.0000

> <Gold.PLP.ligand.torsion>
1.2645

> <Gold.PLP.Chemscore.Hbond>
4.0000

> <Gold.PLP.Chemscore.CHOScore>
0.0000

> <Gold.PLP.Chemscore.Metal>
0.0000

> <Gold.Chemscore.Hbonds>
donor molecule, donor type, donor heavy atom, donor atom, acceptor molecule, acceptor atom, score
      L1  H     4    28       P1  8028  1.00
      L1  H     8    46       P1  8028  2.00
      P1  H  7997  8010       L1    18  1.00

> <Gold.PLP.Chemscore.Internal.Correction>
0.1431

> <Gold.Rescore>
     Score         DG    S(hbond)    S(metal)    S(lipo)     H(rot)  DE(clash)    DE(int)     intcor
     21.70     -22.96       2.95        0.00     117.85       2.41       0.01       1.25       ----

> <Gold.Chemscore.Fitness>
21.6986

> <Gold.Chemscore.DG>
-22.9556

> <Gold.Chemscore.ZeroCoef>
-5.4800

> <Gold.Chemscore.Hbond>
2.9520

> <Gold.Chemscore.Metal>
0.0000

> <Gold.Chemscore.Lipo>
117.8510

> <Gold.Chemscore.Internal_Hbond>
0.0000

> <Gold.Chemscore.DEClash>
0.0063

> <Gold.Chemscore.DEInternal>
1.2507

> <Gold.Chemscore.Rot>
2.4112

> <Gold.Chemscore.Internal.Correction>
   9.000000E+99

> <Gold.Chemscore.Hbonds>
donor molecule, donor type, donor heavy atom, donor atom, acceptor molecule, acceptor atom, score
      L1  H     4    28       P1  8028  0.98
      L1  H     8    46       P1  8028  0.94
      P1  H  7997  8010       L1    18  0.25

> <Gold.Chemscore.Hbond.Weighted>
-9.8597

> <Gold.Chemscore.Metal.Weighted>
-0.0000

> <Gold.Chemscore.Lipo.Weighted>
-13.7886

> <Gold.Chemscore.Internal_Hbond.Weighted>
0.0000

> <Gold.Chemscore.DEClash.Weighted>
0.0063

> <Gold.Chemscore.DEInternal.Weighted>
1.2507

> <Gold.Chemscore.Rot.Weighted>
6.1727

> <Gold.Chemscore.Internal.Correction.Weighted>
   9.000000E+99

> <Gold.Protein.RotatedTorsions>
[ 6907 6896 6895 6894 ] final  162.04 input  -60.11 | X-H torsion
[ 7974 7965 7964 7962 ] final    0.96 input  175.53 | X-H torsion
[ 8008 7997 7996 7995 ] final   93.99 input   59.86 | X-H torsion
[ 10167 10162 10161 10158 ] final  108.69 input  -65.29 | X-H torsion
[ 10718 10713 10712 10709 ] final  -47.67 input   66.30 | X-H torsion
[ 10763 10752 10751 10750 ] final  133.30 input  -60.55 | X-H torsion
[ 11005 11000 10999 10996 ] final  -50.20 input  -57.11 | X-H torsion

> <Gold.Protein.ActiveResidues>
 VAL166  LYS551  ARG553  GLY616  TRP617  ASP618  TYR619  PRO620  LYS621  CYS622 
 ASP623  PHE694  ASN695  SER759  ASP760  ASP761  ALA762  ILE779  LEU786  VAL792 
 PHE793  MET794  SER795  GLU796  ALA797  LYS798  CYS799  TRP800  GLU811  SER814 

> <Gold.Protein.RotatedAtoms>
  151.9464  133.3653  159.3983 H   0  0  0  0  0  0  0  0  0  0  0  0  # atno 6907 bound_to 6896
  150.6988  134.4385  159.5290 H   0  0  0  0  0  0  0  0  0  0  0  0  # atno 6908 bound_to 6896
  152.2051  134.8552  160.0554 H   0  0  0  0  0  0  0  0  0  0  0  0  # atno 6909 bound_to 6896
  146.2437  140.1059  142.8346 H   0  0  0  0  0  0  0  0  0  0  0  0  # atno 7974 bound_to 7965
  156.0529  140.3305  155.7372 H   0  0  0  0  0  0  0  0  0  0  0  0  # atno 8008 bound_to 7997
  155.5573  140.0615  157.2854 H   0  0  0  0  0  0  0  0  0  0  0  0  # atno 8009 bound_to 7997
  154.4444  140.1883  156.0735 H   0  0  0  0  0  0  0  0  0  0  0  0  # atno 8010 bound_to 7997
  139.6826  144.7117  151.1489 H   0  0  0  0  0  0  0  0  0  0  0  0  # atno 10167 bound_to 10162
  156.2062  130.4158  149.9175 H   0  0  0  0  0  0  0  0  0  0  0  0  # atno 10718 bound_to 10713
  153.8049  135.3137  155.3394 H   0  0  0  0  0  0  0  0  0  0  0  0  # atno 10763 bound_to 10752
  154.8074  135.4689  154.0431 H   0  0  0  0  0  0  0  0  0  0  0  0  # atno 10764 bound_to 10752
  153.1791  135.6890  153.8591 H   0  0  0  0  0  0  0  0  0  0  0  0  # atno 10765 bound_to 10752
  141.0802  133.6655  156.3696 H   0  0  0  0  0  0  0  0  0  0  0  0  # atno 11005 bound_to 11000
  145.0528  140.9031  143.4985 LP  0  0  0  0  0  0  0  0  0  0  0  0  # atno 17320 bound_to 7965
  145.1160  139.2725  143.5613 LP  0  0  0  0  0  0  0  0  0  0  0  0  # atno 17321 bound_to 7965
  140.7657  143.5677  150.9030 LP  0  0  0  0  0  0  0  0  0  0  0  0  # atno 17342 bound_to 10162
  139.9349  143.6449  152.3067 LP  0  0  0  0  0  0  0  0  0  0  0  0  # atno 17343 bound_to 10162
  156.6869  130.8880  151.3583 LP  0  0  0  0  0  0  0  0  0  0  0  0  # atno 17370 bound_to 10713
  157.7013  130.9336  150.0794 LP  0  0  0  0  0  0  0  0  0  0  0  0  # atno 17371 bound_to 10713
  140.5484  134.6052  157.5400 LP  0  0  0  0  0  0  0  0  0  0  0  0  # atno 17394 bound_to 11000
  139.9616  134.7443  156.0225 LP  0  0  0  0  0  0  0  0  0  0  0  0  # atno 17395 bound_to 11000

$$$$
