AV-unprocessed.smi:3351|AV-procd|sdf|12950|dock1
  -GOLD-   2272019383D 1   1.00000     0.00000
 Structure written by MMmdl.
 34 35  0  0  0  0  0  0  0  0  1 V2000
  146.2650  132.7973  153.8046 C   0  0  0  0  0  0  0  0  0  0  0  0
  147.2316  133.0123  152.6284 C   0  0  1  0  0  0  0  0  0  0  0  0
  146.5927  133.7773  151.4492 C   0  0  0  0  0  0  0  0  0  0  0  0
  145.4554  133.0806  150.8784 N   0  0  0  0  0  0  0  0  0  0  0  0
  144.1148  133.4137  151.0193 C   0  0  0  0  0  0  0  0  0  0  0  0
  143.3998  132.4742  150.3111 C   0  0  0  0  0  0  0  0  0  0  0  0
  144.2745  131.5561  149.7346 N   0  0  0  0  0  0  0  0  0  0  0  0
  145.4729  131.9779  150.1168 C   0  0  0  0  0  0  0  0  0  0  0  0
  148.4152  133.7214  153.1065 N   0  0  0  0  0  0  0  0  0  0  0  0
  149.2748  133.2645  154.0300 C   0  0  0  0  0  0  0  0  0  0  0  0
  149.1658  132.1617  154.5678 O   0  0  0  0  0  0  0  0  0  0  0  0
  150.4496  134.1892  154.3728 C   0  0  0  0  0  0  0  0  0  0  0  0
  150.0202  135.5145  154.8230 N   0  0  0  0  0  0  0  0  0  0  0  0
  148.6815  135.6820  155.3750 C   0  0  0  0  0  0  0  0  0  0  0  0
  148.6276  137.0421  156.0735 C   0  0  0  0  0  0  0  0  0  0  0  0
  149.9149  138.0792  155.3523 S   0  0  0  0  0  0  0  0  0  0  0  0
  150.7900  136.6618  154.6821 C   0  0  0  0  0  0  0  0  0  0  0  0
  151.9087  136.7574  154.1806 O   0  0  0  0  0  0  0  0  0  0  0  0
  145.4118  132.1838  153.5144 H   0  0  0  0  0  0  0  0  0  0  0  0
  145.8808  133.7459  154.1805 H   0  0  0  0  0  0  0  0  0  0  0  0
  146.7615  132.2877  154.6311 H   0  0  0  0  0  0  0  0  0  0  0  0
  147.5387  132.0250  152.2776 H   0  0  0  0  0  0  0  0  0  0  0  0
  146.2670  134.7672  151.7728 H   0  0  0  0  0  0  0  0  0  0  0  0
  147.3229  133.9337  150.6539 H   0  0  0  0  0  0  0  0  0  0  0  0
  143.7903  134.2688  151.5941 H   0  0  0  0  0  0  0  0  0  0  0  0
  142.3320  132.3879  150.1748 H   0  0  0  0  0  0  0  0  0  0  0  0
  146.3855  131.4749  149.8320 H   0  0  0  0  0  0  0  0  0  0  0  0
  148.5854  134.6366  152.7149 H   0  0  0  0  0  0  0  0  0  0  0  0
  151.0491  133.7097  155.1476 H   0  0  0  0  0  0  0  0  0  0  0  0
  151.1010  134.2986  153.5040 H   0  0  0  0  0  0  0  0  0  0  0  0
  147.9650  135.6514  154.5532 H   0  0  0  0  0  0  0  0  0  0  0  0
  148.4274  134.8767  156.0652 H   0  0  0  0  0  0  0  0  0  0  0  0
  147.6477  137.5116  155.9868 H   0  0  0  0  0  0  0  0  0  0  0  0
  148.8478  136.9240  157.1349 H   0  0  0  0  0  0  0  0  0  0  0  0
  1  2  1  0  0  0  0
  1 19  1  0  0  0  0
  1 20  1  0  0  0  0
  1 21  1  0  0  0  0
  2  3  1  0  0  0  0
  2  9  1  0  0  0  0
  2 22  1  0  0  0  0
  3  4  1  0  0  0  0
  3 23  1  0  0  0  0
  3 24  1  0  0  0  0
  4  8  1  0  0  0  0
  4  5  1  0  0  0  0
  5  6  2  0  0  0  0
  5 25  1  0  0  0  0
  6  7  1  0  0  0  0
  6 26  1  0  0  0  0
  7  8  2  0  0  0  0
  8 27  1  0  0  0  0
  9 10  1  0  0  0  0
  9 28  1  0  0  0  0
 10 11  2  0  0  0  0
 10 12  1  0  0  0  0
 12 13  1  0  0  0  0
 12 29  1  0  0  0  0
 12 30  1  0  0  0  0
 13 17  1  0  0  0  0
 13 14  1  0  0  0  0
 14 15  1  0  0  0  0
 14 31  1  0  0  0  0
 14 32  1  0  0  0  0
 15 16  1  0  0  0  0
 15 33  1  0  0  0  0
 15 34  1  0  0  0  0
 16 17  1  0  0  0  0
 17 18  2  0  0  0  0
M  END
> <s_m_source_file>
AV-unprocessed.smi

> <i_m_source_file_index>
3351

> <i_lp_mmshare_version>
43012

> <i_f3d_flags>
0

> <s_epik_input>
W2NIXTFuW2NIXVtjSF1uMVtDSDJdW0NAQEhdKFtDSDNdKVtOSF1DKD1PKVtDSDJdTjJbQ0gyXVtDSDJdU0MyPU8=

> <s_epik_cmdline>
J2VwaWtfcHl0aG9uJywgJy1waCcsICc3LjAnLCAnLXRuJywgJzgnLCAnLW1hJywgJzIwMCcsICctbWV0YWxfYmluZGluZycsICctaW1hZScsICc8aW5maWxlLm1hZT4nLCAnLW9tYWUnLCAnPG91dGZpbGUubWFlPic=

> <r_lp_tautomer_probability>
1

> <r_epik_Ionization_Penalty>
0.618163

> <r_epik_Ionization_Penalty_Charging>
0.618163

> <r_epik_Ionization_Penalty_Neutral>
6.6929e-08

> <r_epik_State_Penalty>
0.633954

> <r_epik_Charging_Adjusted_Penalty>
1.25212

> <i_epik_Tot_Q>
0

> <i_epik_Tot_abs_Q>
0

> <r_epik_Metal_State_Penalty>
0.305924

> <b_epik_Metal_Only>
0

> <s_lp_Force_Field>
OPLS_2005

> <r_lp_Energy>
4.61171

> <b_lp_Chiralities_Consistent>
1

> <s_lp_Variant>
AV-unprocessed.smi:3351-4

> <Gold.Version>
5.8.1

> <Gold.Id.Protein>
6NUR|6NUR_protein|mol2

> <Gold.PLP.Fitness>
42.5070

> <Gold.PLP.PLP>
-28.1475

> <Gold.PLP.part.hbond>
-3.0000

> <Gold.PLP.part.metal>
0.0000

> <Gold.PLP.part.buried>
-3.8005

> <Gold.PLP.part.nonpolar>
-22.2946

> <Gold.PLP.part.repulsive>
0.3849

> <Gold.PLP.ligand.clash>
0.0000

> <Gold.PLP.ligand.torsion>
0.5448

> <Gold.PLP.Chemscore.Hbond>
2.4758

> <Gold.PLP.Chemscore.CHOScore>
2.6534

> <Gold.PLP.Chemscore.Metal>
0.0000

> <Gold.Chemscore.Hbonds>
donor molecule, donor type, donor heavy atom, donor atom, acceptor molecule, acceptor atom, score
      L1  H     9    28       P1  7948  0.85
      P1  H 10752 10765       L1    18  0.98
      P1  H 10785 10796       L1     7  0.56
      L1  C     6    26       P1 10186  0.80
      L1  C     6    26       P1 10952  0.83
      L1  C     8    27       P1 10747  0.61

> <Gold.PLP.Chemscore.Internal.Correction>
0.0615

> <Gold.Rescore>
     Score         DG    S(hbond)    S(metal)    S(lipo)     H(rot)  DE(clash)    DE(int)     intcor
      9.31     -11.14       2.02        0.00      41.75       2.33       0.21       1.61       ----

> <Gold.Chemscore.Fitness>
9.3103

> <Gold.Chemscore.DG>
-11.1369

> <Gold.Chemscore.ZeroCoef>
-5.4800

> <Gold.Chemscore.Hbond>
2.0183

> <Gold.Chemscore.Metal>
0.0000

> <Gold.Chemscore.Lipo>
41.7533

> <Gold.Chemscore.Internal_Hbond>
0.0000

> <Gold.Chemscore.DEClash>
0.2135

> <Gold.Chemscore.DEInternal>
1.6131

> <Gold.Chemscore.Rot>
2.3317

> <Gold.Chemscore.Internal.Correction>
   9.000000E+99

> <Gold.Chemscore.Hbonds>
donor molecule, donor type, donor heavy atom, donor atom, acceptor molecule, acceptor atom, score
      L1  H     9    28       P1  7948  0.15
      P1  H 10752 10765       L1    18  0.91
      P1  H 10785 10796       L1     7  0.39

> <Gold.Chemscore.Hbond.Weighted>
-6.7410

> <Gold.Chemscore.Metal.Weighted>
-0.0000

> <Gold.Chemscore.Lipo.Weighted>
-4.8851

> <Gold.Chemscore.Internal_Hbond.Weighted>
0.0000

> <Gold.Chemscore.DEClash.Weighted>
0.2135

> <Gold.Chemscore.DEInternal.Weighted>
1.6131

> <Gold.Chemscore.Rot.Weighted>
5.9692

> <Gold.Chemscore.Internal.Correction.Weighted>
   9.000000E+99

> <Gold.Protein.RotatedTorsions>
[ 6907 6896 6895 6894 ] final   90.56 input  -60.11 | X-H torsion
[ 7974 7965 7964 7962 ] final  175.25 input  175.53 | X-H torsion
[ 8008 7997 7996 7995 ] final   11.17 input   59.86 | X-H torsion
[ 10167 10162 10161 10158 ] final   11.50 input  -65.29 | X-H torsion
[ 10718 10713 10712 10709 ] final   73.39 input   66.30 | X-H torsion
[ 10763 10752 10751 10750 ] final  148.33 input  -60.55 | X-H torsion
[ 11005 11000 10999 10996 ] final  135.85 input  -57.11 | X-H torsion

> <Gold.Protein.ActiveResidues>
 VAL166  LYS551  ARG553  GLY616  TRP617  ASP618  TYR619  PRO620  LYS621  CYS622 
 ASP623  PHE694  ASN695  SER759  ASP760  ASP761  ALA762  ILE779  LEU786  VAL792 
 PHE793  MET794  SER795  GLU796  ALA797  LYS798  CYS799  TRP800  GLU811  SER814 

> <Gold.Protein.RotatedAtoms>
  152.5445  134.1792  159.8628 H   0  0  0  0  0  0  0  0  0  0  0  0  # atno 6907 bound_to 6896
  151.1796  133.4726  159.2601 H   0  0  0  0  0  0  0  0  0  0  0  0  # atno 6908 bound_to 6896
  151.1192  135.0081  159.8585 H   0  0  0  0  0  0  0  0  0  0  0  0  # atno 6909 bound_to 6896
  144.7205  139.9918  143.6440 H   0  0  0  0  0  0  0  0  0  0  0  0  # atno 7974 bound_to 7965
  154.8033  140.2856  155.5905 H   0  0  0  0  0  0  0  0  0  0  0  0  # atno 8008 bound_to 7997
  156.2980  140.2582  156.2836 H   0  0  0  0  0  0  0  0  0  0  0  0  # atno 8009 bound_to 7997
  154.9532  140.0379  157.2144 H   0  0  0  0  0  0  0  0  0  0  0  0  # atno 8010 bound_to 7997
  140.6127  143.8373  150.7084 H   0  0  0  0  0  0  0  0  0  0  0  0  # atno 10167 bound_to 10162
  157.6546  130.9626  150.1063 H   0  0  0  0  0  0  0  0  0  0  0  0  # atno 10718 bound_to 10713
  154.0530  135.2880  155.3337 H   0  0  0  0  0  0  0  0  0  0  0  0  # atno 10763 bound_to 10752
  154.6857  135.5246  153.8326 H   0  0  0  0  0  0  0  0  0  0  0  0  # atno 10764 bound_to 10752
  153.0553  135.6592  154.0725 H   0  0  0  0  0  0  0  0  0  0  0  0  # atno 10765 bound_to 10752
  140.0007  134.9479  157.0065 H   0  0  0  0  0  0  0  0  0  0  0  0  # atno 11005 bound_to 11000
  146.0405  139.3417  143.0700 LP  0  0  0  0  0  0  0  0  0  0  0  0  # atno 17320 bound_to 7965
  145.8340  140.9615  143.0834 LP  0  0  0  0  0  0  0  0  0  0  0  0  # atno 17321 bound_to 7965
  140.1945  143.4009  152.1838 LP  0  0  0  0  0  0  0  0  0  0  0  0  # atno 17342 bound_to 10162
  139.5374  144.7223  151.4847 LP  0  0  0  0  0  0  0  0  0  0  0  0  # atno 17343 bound_to 10162
  156.1972  130.3658  149.8834 LP  0  0  0  0  0  0  0  0  0  0  0  0  # atno 17370 bound_to 10713
  156.6747  130.8834  151.3567 LP  0  0  0  0  0  0  0  0  0  0  0  0  # atno 17371 bound_to 10713
  140.4734  134.1363  155.7206 LP  0  0  0  0  0  0  0  0  0  0  0  0  # atno 17394 bound_to 11000
  141.1639  133.8740  157.1769 LP  0  0  0  0  0  0  0  0  0  0  0  0  # atno 17395 bound_to 11000

$$$$
