#       Name:                AV-unprocessed.smi:3046
#       Creating user name   scv26
#       Creation time:       Fri Mar 27 17:00:09 2020


#       File generated by GOLD software.
#

@<TRIPOS>MOLECULE
AV-unprocessed.smi:3046
    41    41     1
SMALL
NO_CHARGES


@<TRIPOS>ATOM
      1 ****        -3.2289  -3.2157  -1.9453 C.2            1 S1                 0.0000
      2 ****        -2.1517  -2.4196  -2.0173 C.2            1 S1                 0.0000
      3 ****        -2.2078  -0.9167  -2.1878 C.3            1 S1                 0.0000
      4 ****        -1.4409  -0.2583  -1.1421 N.am           1 S1                 0.0000
      5 ****        -1.3009   1.0693  -1.0185 C.2            1 S1                 0.0000
      6 ****        -1.8168   1.8749  -1.7943 O.2            1 S1                 0.0000
      7 ****        -0.4253   1.5470   0.1465 C.3            1 S1                 0.0000
      8 ****        -0.8433   2.9474   0.6378 C.3            1 S1                 0.0000
      9 ****         0.9892   1.5302  -0.2578 N.3            1 S1                 0.0000
     10 ****         1.9181   1.4352   0.8663 C.3            1 S1                 0.0000
     11 ****         3.0148   2.4875   0.6533 C.3            1 S1                 0.0000
     12 ****         2.5127   0.0116   0.9368 C.3            1 S1                 0.0000
     13 ****         1.5210  -1.0090   1.2292 N.pl3          1 S1                 0.0000
     14 ****         1.0169  -1.9778   0.3871 C.2            1 S1                 0.0000
     15 ****         0.1014  -2.6987   1.0988 C.2            1 S1                 0.0000
     16 ****         0.1242  -2.0951   2.3872 C.2            1 S1                 0.0000
     17 ****         0.9779  -1.0869   2.4635 N.2            1 S1                 0.0000
     18 ****        -4.2294  -2.8126  -2.0042 H              1 S1                 0.0000
     19 ****        -3.1226  -4.2839  -1.8264 H              1 S1                 0.0000
     20 ****        -1.1665  -2.8597  -1.9588 H              1 S1                 0.0000
     21 ****        -1.7925  -0.6585  -3.1629 H              1 S1                 0.0000
     22 ****        -3.2429  -0.5712  -2.1674 H              1 S1                 0.0000
     23 ****        -0.9800  -0.8500  -0.4659 H              1 S1                 0.0000
     24 ****        -0.5790   0.8376   0.9612 H              1 S1                 0.0000
     25 ****        -1.9043   2.9765   0.8888 H              1 S1                 0.0000
     26 ****        -0.6592   3.7114  -0.1186 H              1 S1                 0.0000
     27 ****        -0.2949   3.2367   1.5342 H              1 S1                 0.0000
     28 ****         1.2164   2.3357  -0.8234 H              1 S1                 0.0000
     29 ****         1.4219   1.6658   1.8103 H              1 S1                 0.0000
     30 ****         3.7388   2.4667   1.4682 H              1 S1                 0.0000
     31 ****         2.5936   3.4929   0.6163 H              1 S1                 0.0000
     32 ****         3.5588   2.3180  -0.2768 H              1 S1                 0.0000
     33 ****         3.0069  -0.2427  -0.0021 H              1 S1                 0.0000
     34 ****         3.2801  -0.0346   1.7110 H              1 S1                 0.0000
     35 ****         1.3396  -2.0651  -0.6401 H              1 S1                 0.0000
     36 ****        -0.4940  -3.5301   0.7516 H              1 S1                 0.0000
     37 ****        -0.4505  -2.3571   3.2633 H              1 S1                 0.0000
     38 ****        -2.3705   1.5474  -2.5600 LP             1 S1                 0.0000
     39 ****        -1.6820   2.8564  -1.6586 LP             1 S1                 0.0000
     40 ****         1.1021   0.6974  -0.7998 LP             1 S1                 0.0000
     41 ****         1.1764  -0.5117   3.2570 LP             1 S1                 0.0000
@<TRIPOS>BOND
    1    1    2 2     
    2    1   18 1     
    3    1   19 1     
    4    2    3 1     
    5    2   20 1     
    6    3    4 1     
    7    3   21 1     
    8    3   22 1     
    9    4    5 am    
   10    4   23 1     
   11    5    6 2     
   12    5    7 1     
   13    7    8 1     
   14    7    9 1     
   15    7   24 1     
   16    8   25 1     
   17    8   26 1     
   18    8   27 1     
   19    9   10 1     
   20    9   28 1     
   21   10   11 1     
   22   10   12 1     
   23   10   29 1     
   24   11   30 1     
   25   11   31 1     
   26   11   32 1     
   27   12   13 1     
   28   12   33 1     
   29   12   34 1     
   30   13   17 1     
   31   13   14 1     
   32   14   15 2     
   33   14   35 1     
   34   15   16 1     
   35   15   36 1     
   36   16   17 2     
   37   16   37 1     
   38    6   38 1     
   39    6   39 1     
   40    9   40 1     
   41   17   41 1     
@<TRIPOS>SUBSTRUCTURE
      1 S1             1
@<TRIPOS>SET
LONE_PAIRS      STATIC     ATOMS    <user>   **** ""
4 38 39 40 41
DONOR_HYDROGENS      STATIC     ATOMS    <user>   **** ""
2 23 28
ATOM$BLUE        STATIC     ATOMS    COLORGROUP SYSTEM
4 38 39 40 41
ATOM$RED        STATIC     ATOMS    COLORGROUP SYSTEM
2 23 28
