#       Name:                AV-unprocessed.smi:1971
#       Creating user name   scv26
#       Creation time:       Fri Mar 27 10:13:20 2020


#       File generated by GOLD software.
#

@<TRIPOS>MOLECULE
AV-unprocessed.smi:1971
    48    49     1
SMALL
NO_CHARGES


@<TRIPOS>ATOM
      1 ****        -3.2941   0.4411  -3.8084 C.3            1 S1                 0.0000
      2 ****        -2.4110   0.9706  -2.6695 C.3            1 S1                 0.0000
      3 ****        -2.7073   0.3256  -1.3659 N.4            1 S1                 1.0000
      4 ****        -2.1814   1.1101  -0.2217 C.3            1 S1                 0.0000
      5 ****        -2.5309   0.4215   1.1140 C.3            1 S1                 0.0000
      6 ****        -1.9549  -0.9285   1.1960 N.3            1 S1                 0.0000
      7 ****        -0.4767  -0.9977   1.2366 C.3            1 S1                 0.0000
      8 ****        -0.0131  -2.4610   1.4292 C.3            1 S1                 0.0000
      9 ****         0.1217  -0.0959   2.3521 C.3            1 S1                 0.0000
     10 ****         1.5818  -0.0994   2.3525 N.am           1 S1                 0.0000
     11 ****         2.3450   0.5223   1.4413 C.2            1 S1                 0.0000
     12 ****         1.8825   1.1722   0.5024 O.2            1 S1                 0.0000
     13 ****         3.6534   0.3377   1.6895 N.am           1 S1                 0.0000
     14 ****         4.7626   0.8080   0.9381 C.2            1 S1                 0.0000
     15 ****         4.6620   1.5382  -0.1790 N.2            1 S1                 0.0000
     16 ****         5.9139   1.8567  -0.7113 C.2            1 S1                 0.0000
     17 ****         6.9640   1.3564   0.0177 C.2            1 S1                 0.0000
     18 ****         6.4193   0.4610   1.4110 S.3            1 S1                 0.0000
     19 ****        -2.5737  -1.6911   0.1011 C.3            1 S1                 0.0000
     20 ****        -2.2531  -1.0868  -1.2851 C.3            1 S1                 0.0000
     21 ****        -3.1024   0.9942  -4.7282 H              1 S1                 0.0000
     22 ****        -4.3530   0.5515  -3.5723 H              1 S1                 0.0000
     23 ****        -3.1018  -0.6103  -4.0200 H              1 S1                 0.0000
     24 ****        -1.3549   0.8488  -2.9149 H              1 S1                 0.0000
     25 ****        -2.5858   2.0439  -2.5825 H              1 S1                 0.0000
     26 ****        -1.1048   1.2548  -0.3225 H              1 S1                 0.0000
     27 ****        -2.6290   2.1044  -0.2350 H              1 S1                 0.0000
     28 ****        -2.2303   1.0363   1.9597 H              1 S1                 0.0000
     29 ****        -3.6154   0.3446   1.2049 H              1 S1                 0.0000
     30 ****        -0.0781  -0.6483   0.2860 H              1 S1                 0.0000
     31 ****         1.0675  -2.5304   1.5507 H              1 S1                 0.0000
     32 ****        -0.2485  -3.0885   0.5711 H              1 S1                 0.0000
     33 ****        -0.4688  -2.9088   2.3130 H              1 S1                 0.0000
     34 ****        -0.1824   0.9446   2.2485 H              1 S1                 0.0000
     35 ****        -0.2255  -0.4264   3.3315 H              1 S1                 0.0000
     36 ****         2.0379  -0.6124   3.0930 H              1 S1                 0.0000
     37 ****         3.8841  -0.2117   2.5041 H              1 S1                 0.0000
     38 ****         5.9662   2.4449  -1.6156 H              1 S1                 0.0000
     39 ****         8.0204   1.4600  -0.1805 H              1 S1                 0.0000
     40 ****        -2.2851  -2.7398   0.1355 H              1 S1                 0.0000
     41 ****        -3.6549  -1.6954   0.2483 H              1 S1                 0.0000
     42 ****        -2.7635  -1.6784  -2.0443 H              1 S1                 0.0000
     43 ****        -1.1885  -1.1559  -1.5100 H              1 S1                 0.0000
     44 ****        -3.7119   0.3175  -1.2623 H              1 S1                 0.0000
     45 ****        -2.1688  -1.3345   2.0845 LP             1 S1                 0.0000
     46 ****         0.8921   1.2556   0.3920 LP             1 S1                 0.0000
     47 ****         2.4974   1.6163  -0.1492 LP             1 S1                 0.0000
     48 ****         3.7933   1.8223  -0.5848 LP             1 S1                 0.0000
@<TRIPOS>BOND
    1    1    2 1     
    2    1   21 1     
    3    1   22 1     
    4    1   23 1     
    5    2    3 1     
    6    2   24 1     
    7    2   25 1     
    8    3   20 1     
    9    3    4 1     
   10    3   44 1     
   11    4    5 1     
   12    4   26 1     
   13    4   27 1     
   14    5    6 1     
   15    5   28 1     
   16    5   29 1     
   17    6    7 1     
   18    6   19 1     
   19    7    8 1     
   20    7    9 1     
   21    7   30 1     
   22    8   31 1     
   23    8   32 1     
   24    8   33 1     
   25    9   10 1     
   26    9   34 1     
   27    9   35 1     
   28   10   11 am    
   29   10   36 1     
   30   11   12 2     
   31   11   13 am    
   32   13   14 1     
   33   13   37 1     
   34   14   18 1     
   35   14   15 2     
   36   15   16 1     
   37   16   17 2     
   38   16   38 1     
   39   17   18 1     
   40   17   39 1     
   41   19   20 1     
   42   19   40 1     
   43   19   41 1     
   44   20   42 1     
   45   20   43 1     
   46    6   45 1     
   47   12   46 1     
   48   12   47 1     
   49   15   48 1     
@<TRIPOS>SUBSTRUCTURE
      1 S1             1
@<TRIPOS>SET
LONE_PAIRS      STATIC     ATOMS    <user>   **** ""
4 45 46 47 48
DONOR_HYDROGENS      STATIC     ATOMS    <user>   **** ""
3 44 36 37
ATOM$BLUE        STATIC     ATOMS    COLORGROUP SYSTEM
4 45 46 47 48
ATOM$RED        STATIC     ATOMS    COLORGROUP SYSTEM
3 44 36 37
