AV-unprocessed.smi:1946|AV-procd|sdf|7864|dock10
  -GOLD-   2272010 13D 1   1.00000     0.00000
 Structure written by MMmdl.
 39 41  0  0  0  0  0  0  0  0  2 V2000
  155.0281  135.1328  162.1959 C   0  0  0  0  0  0  0  0  0  0  0  0
  155.3514  134.9015  160.4007 S   0  0  0  0  0  0  0  0  0  0  0  0
  156.7984  135.0420  160.1754 O   0  0  0  0  0  0  0  0  0  0  0  0
  154.6625  133.6759  159.9677 O   0  0  0  0  0  0  0  0  0  0  0  0
  154.5315  136.2982  159.6414 C   0  0  0  0  0  0  0  0  0  0  0  0
  154.6155  136.4828  158.2473 C   0  0  0  0  0  0  0  0  0  0  0  0
  153.9435  137.5647  157.6467 C   0  0  0  0  0  0  0  0  0  0  0  0
  153.1812  138.4567  158.4337 C   0  0  0  0  0  0  0  0  0  0  0  0
  152.4433  139.6208  157.7873 C   0  0  1  0  0  0  0  0  0  0  0  0
  151.5674  139.1916  156.7664 O   0  0  0  0  0  0  0  0  0  0  0  0
  151.6252  140.4385  158.8071 C   0  0  0  0  0  0  0  0  0  0  0  0
  151.2699  141.7730  158.3083 N   0  0  0  0  0  0  0  0  0  0  0  0
  150.6630  142.1379  157.1463 C   0  0  0  0  0  0  0  0  0  0  0  0
  150.5454  143.4947  157.1530 N   0  3  0  0  0  0  0  0  0  0  0  0
  151.0883  144.0041  158.3347 C   0  0  0  0  0  0  0  0  0  0  0  0
  151.2019  145.3117  158.7968 C   0  0  0  0  0  0  0  0  0  0  0  0
  151.8133  145.4870  160.0560 C   0  0  0  0  0  0  0  0  0  0  0  0
  152.2847  144.3883  160.8038 C   0  0  0  0  0  0  0  0  0  0  0  0
  152.1647  143.0667  160.3254 C   0  0  0  0  0  0  0  0  0  0  0  0
  151.5579  142.9025  159.0809 C   0  0  0  0  0  0  0  0  0  0  0  0
  153.0896  138.2518  159.8279 C   0  0  0  0  0  0  0  0  0  0  0  0
  153.7600  137.1714  160.4335 C   0  0  0  0  0  0  0  0  0  0  0  0
  155.4919  134.3201  162.7545 H   0  0  0  0  0  0  0  0  0  0  0  0
  153.9532  135.1292  162.3760 H   0  0  0  0  0  0  0  0  0  0  0  0
  155.4488  136.0834  162.5227 H   0  0  0  0  0  0  0  0  0  0  0  0
  155.1906  135.8021  157.6373 H   0  0  0  0  0  0  0  0  0  0  0  0
  154.0111  137.7055  156.5777 H   0  0  0  0  0  0  0  0  0  0  0  0
  153.1744  140.2738  157.3094 H   0  0  0  0  0  0  0  0  0  0  0  0
  150.6933  139.1405  157.1227 H   0  0  0  0  0  0  0  0  0  0  0  0
  150.7038  139.9199  159.0760 H   0  0  0  0  0  0  0  0  0  0  0  0
  152.1869  140.5714  159.7331 H   0  0  0  0  0  0  0  0  0  0  0  0
  150.3300  141.4709  156.3640 H   0  0  0  0  0  0  0  0  0  0  0  0
  150.8436  146.1559  158.2259 H   0  0  0  0  0  0  0  0  0  0  0  0
  151.9240  146.4844  160.4560 H   0  0  0  0  0  0  0  0  0  0  0  0
  152.7487  144.5626  161.7637 H   0  0  0  0  0  0  0  0  0  0  0  0
  152.5300  142.2318  160.9052 H   0  0  0  0  0  0  0  0  0  0  0  0
  152.5006  138.9205  160.4386 H   0  0  0  0  0  0  0  0  0  0  0  0
  153.6795  137.0184  161.4995 H   0  0  0  0  0  0  0  0  0  0  0  0
  150.1264  144.0307  156.4036 H   0  0  0  0  0  0  0  0  0  0  0  0
  1  2  1  0  0  0  0
  1 23  1  0  0  0  0
  1 24  1  0  0  0  0
  1 25  1  0  0  0  0
  2  3  2  0  0  0  0
  2  4  2  0  0  0  0
  2  5  1  0  0  0  0
  5 22  1  0  0  0  0
  5  6  2  0  0  0  0
  6  7  1  0  0  0  0
  6 26  1  0  0  0  0
  7  8  2  0  0  0  0
  7 27  1  0  0  0  0
  8  9  1  0  0  0  0
  8 21  1  0  0  0  0
  9 10  1  0  0  0  0
  9 11  1  0  0  0  0
  9 28  1  0  0  0  0
 10 29  1  0  0  0  0
 11 12  1  0  0  0  0
 11 30  1  0  0  0  0
 11 31  1  0  0  0  0
 12 20  1  0  0  0  0
 12 13  1  0  0  0  0
 13 14  2  0  0  0  0
 13 32  1  0  0  0  0
 14 15  1  0  0  0  0
 14 39  1  0  0  0  0
 15 20  2  0  0  0  0
 15 16  1  0  0  0  0
 16 17  2  0  0  0  0
 16 33  1  0  0  0  0
 17 18  1  0  0  0  0
 17 34  1  0  0  0  0
 18 19  2  0  0  0  0
 18 35  1  0  0  0  0
 19 20  1  0  0  0  0
 19 36  1  0  0  0  0
 21 22  2  0  0  0  0
 21 37  1  0  0  0  0
 22 38  1  0  0  0  0
M  CHG  1  14   1
M  END
> <s_m_source_file>
AV-unprocessed.smi

> <i_m_source_file_index>
1946

> <i_lp_mmshare_version>
43012

> <i_f3d_flags>
0

> <s_epik_input>
W0NIM11TKD1PKSg9TyljMVtjSF1bY0hdYyhbY0hdW2NIXTEpW0NASF0oW09IXSlbQ0gyXW4oW2NIXW4yKWMoYzIzKVtjSF1bY0hdW2NIXVtjSF0z

> <s_epik_cmdline>
J2VwaWtfcHl0aG9uJywgJy1waCcsICc3LjAnLCAnLXRuJywgJzgnLCAnLW1hJywgJzIwMCcsICctbWV0YWxfYmluZGluZycsICctaW1hZScsICc8aW5maWxlLm1hZT4nLCAnLW9tYWUnLCAnPG91dGZpbGUubWFlPic=

> <r_epik_Ionization_Penalty>
1.3029

> <r_epik_Ionization_Penalty_Charging>
1.3029

> <r_epik_Ionization_Penalty_Neutral>
1.34362e-06

> <r_epik_State_Penalty>
1.377

> <r_epik_Charging_Adjusted_Penalty>
2.6799

> <i_epik_Tot_Q>
1

> <i_epik_Tot_abs_Q>
1

> <r_epik_Metal_State_Penalty>
5.40879

> <b_epik_Metal_Only>
0

> <s_lp_Force_Field>
OPLS_2005

> <r_lp_Energy>
16.9066

> <b_lp_Chiralities_Consistent>
1

> <s_lp_Variant>
AV-unprocessed.smi:1946-4

> <Gold.Version>
5.8.1

> <Gold.Id.Protein>
6NUR|6NUR_protein|mol2

> <Gold.PLP.Fitness>
47.8527

> <Gold.PLP.PLP>
-39.7324

> <Gold.PLP.part.hbond>
-2.0000

> <Gold.PLP.part.metal>
0.0000

> <Gold.PLP.part.buried>
-5.6191

> <Gold.PLP.part.nonpolar>
-31.0780

> <Gold.PLP.part.repulsive>
0.0000

> <Gold.PLP.ligand.clash>
0.0000

> <Gold.PLP.ligand.torsion>
1.4505

> <Gold.PLP.Chemscore.Hbond>
2.9913

> <Gold.PLP.Chemscore.CHOScore>
0.0000

> <Gold.PLP.Chemscore.Metal>
0.0000

> <Gold.Chemscore.Hbonds>
donor molecule, donor type, donor heavy atom, donor atom, acceptor molecule, acceptor atom, score
      L1  H    14    39       P1  8028  2.00
      P1  H  6896  6907       L1     4  0.84

> <Gold.PLP.Chemscore.Internal.Correction>
2.0476

> <Gold.Rescore>
     Score         DG    S(hbond)    S(metal)    S(lipo)     H(rot)  DE(clash)    DE(int)     intcor
     17.90     -19.77       1.91        0.00     112.06       2.04       0.40       1.47       ----

> <Gold.Chemscore.Fitness>
17.8992

> <Gold.Chemscore.DG>
-19.7680

> <Gold.Chemscore.ZeroCoef>
-5.4800

> <Gold.Chemscore.Hbond>
1.9145

> <Gold.Chemscore.Metal>
0.0000

> <Gold.Chemscore.Lipo>
112.0602

> <Gold.Chemscore.Internal_Hbond>
0.0000

> <Gold.Chemscore.DEClash>
0.3965

> <Gold.Chemscore.DEInternal>
1.4722

> <Gold.Chemscore.Rot>
2.0382

> <Gold.Chemscore.Internal.Correction>
   9.000000E+99

> <Gold.Chemscore.Hbonds>
donor molecule, donor type, donor heavy atom, donor atom, acceptor molecule, acceptor atom, score
      L1  H    14    39       P1  8028  0.95
      P1  H  6896  6907       L1     4  0.61

> <Gold.Chemscore.Hbond.Weighted>
-6.3946

> <Gold.Chemscore.Metal.Weighted>
-0.0000

> <Gold.Chemscore.Lipo.Weighted>
-13.1110

> <Gold.Chemscore.Internal_Hbond.Weighted>
0.0000

> <Gold.Chemscore.DEClash.Weighted>
0.3965

> <Gold.Chemscore.DEInternal.Weighted>
1.4722

> <Gold.Chemscore.Rot.Weighted>
5.2177

> <Gold.Chemscore.Internal.Correction.Weighted>
   9.000000E+99

> <Gold.Protein.RotatedTorsions>
[ 6907 6896 6895 6894 ] final   99.51 input  -60.11 | X-H torsion
[ 7974 7965 7964 7962 ] final  -56.55 input  175.53 | X-H torsion
[ 8008 7997 7996 7995 ] final   39.21 input   59.86 | X-H torsion
[ 10167 10162 10161 10158 ] final  -38.30 input  -65.29 | X-H torsion
[ 10718 10713 10712 10709 ] final   31.85 input   66.30 | X-H torsion
[ 10763 10752 10751 10750 ] final  -93.65 input  -60.55 | X-H torsion
[ 11005 11000 10999 10996 ] final  153.58 input  -57.11 | X-H torsion

> <Gold.Protein.ActiveResidues>
 VAL166  LYS551  ARG553  GLY616  TRP617  ASP618  TYR619  PRO620  LYS621  CYS622 
 ASP623  PHE694  ASN695  SER759  ASP760  ASP761  ALA762  ILE779  LEU786  VAL792 
 PHE793  MET794  SER795  GLU796  ALA797  LYS798  CYS799  TRP800  GLU811  SER814 

> <Gold.Protein.RotatedAtoms>
  152.5390  134.0418  159.8070 H   0  0  0  0  0  0  0  0  0  0  0  0  # atno 6907 bound_to 6896
  151.0573  133.5566  159.2644 H   0  0  0  0  0  0  0  0  0  0  0  0  # atno 6908 bound_to 6896
  151.2478  135.0619  159.9104 H   0  0  0  0  0  0  0  0  0  0  0  0  # atno 6909 bound_to 6896
  145.8613  140.8283  142.9935 H   0  0  0  0  0  0  0  0  0  0  0  0  # atno 7974 bound_to 7965
  155.2329  140.3339  155.4301 H   0  0  0  0  0  0  0  0  0  0  0  0  # atno 8008 bound_to 7997
  156.2287  140.1841  156.7343 H   0  0  0  0  0  0  0  0  0  0  0  0  # atno 8009 bound_to 7997
  154.5942  140.0633  156.9266 H   0  0  0  0  0  0  0  0  0  0  0  0  # atno 8010 bound_to 7997
  140.7096  143.3286  151.2622 H   0  0  0  0  0  0  0  0  0  0  0  0  # atno 10167 bound_to 10162
  157.2777  130.7239  149.6539 H   0  0  0  0  0  0  0  0  0  0  0  0  # atno 10718 bound_to 10713
  154.6979  135.5187  153.8485 H   0  0  0  0  0  0  0  0  0  0  0  0  # atno 10763 bound_to 10752
  153.0681  135.6592  154.0317 H   0  0  0  0  0  0  0  0  0  0  0  0  # atno 10764 bound_to 10752
  154.0181  135.2996  155.3364 H   0  0  0  0  0  0  0  0  0  0  0  0  # atno 10765 bound_to 10752
  140.1411  134.8738  157.2332 H   0  0  0  0  0  0  0  0  0  0  0  0  # atno 11005 bound_to 11000
  144.6726  140.1100  143.7456 LP  0  0  0  0  0  0  0  0  0  0  0  0  # atno 17320 bound_to 7965
  145.9244  139.2566  143.1362 LP  0  0  0  0  0  0  0  0  0  0  0  0  # atno 17321 bound_to 7965
  139.6761  143.9934  152.2782 LP  0  0  0  0  0  0  0  0  0  0  0  0  # atno 17342 bound_to 10162
  139.9549  144.6596  150.8135 LP  0  0  0  0  0  0  0  0  0  0  0  0  # atno 17343 bound_to 10162
  155.9664  130.4348  150.5063 LP  0  0  0  0  0  0  0  0  0  0  0  0  # atno 17370 bound_to 10713
  157.3000  131.0643  151.2074 LP  0  0  0  0  0  0  0  0  0  0  0  0  # atno 17371 bound_to 10713
  140.2721  134.3448  155.7370 LP  0  0  0  0  0  0  0  0  0  0  0  0  # atno 17394 bound_to 11000
  141.2186  133.7429  156.9239 LP  0  0  0  0  0  0  0  0  0  0  0  0  # atno 17395 bound_to 11000

$$$$
