AV-unprocessed.smi:247|AV-procd|sdf|1888|dock8
  -GOLD-   2262020543D 1   1.00000     0.00000
 Structure written by MMmdl.
 61 65  0  0  0  0  0  0  0  0  1 V2000
  148.0818  137.2423  162.1480 O   0  0  0  0  0  0  0  0  0  0  0  0
  147.7583  135.9188  162.5261 C   0  0  0  0  0  0  0  0  0  0  0  0
  146.5053  135.3558  161.7990 C   0  0  0  0  0  0  0  0  0  0  0  0
  146.8704  135.1198  160.2993 C   0  0  0  0  0  0  0  0  0  0  0  0
  147.1653  136.3255  159.5370 N   0  0  0  0  0  0  0  0  0  0  0  0
  146.2671  137.2959  159.1499 C   0  0  0  0  0  0  0  0  0  0  0  0
  146.7749  138.2926  158.4779 N   0  0  0  0  0  0  0  0  0  0  0  0
  148.1298  137.9977  158.4161 C   0  0  0  0  0  0  0  0  0  0  0  0
  149.2545  138.6529  157.8529 C   0  0  0  0  0  0  0  0  0  0  0  0
  149.1364  139.8324  157.2039 N   0  0  0  0  0  0  0  0  0  0  0  0
  148.4075  139.7685  155.9414 C   0  0  0  0  0  0  0  0  0  0  0  0
  149.0819  140.7682  154.9908 C   0  0  0  0  0  0  0  0  0  0  0  0
  149.9952  141.5952  155.8936 C   0  0  0  0  0  0  0  0  0  0  0  0
  150.3667  140.5847  156.9819 C   0  0  1  0  0  0  0  0  0  0  0  0
  150.9846  141.1598  158.2862 C   0  0  2  0  0  0  0  0  0  0  0  0
  150.4633  142.5717  158.6456 C   0  0  0  0  0  0  0  0  0  0  0  0
  151.0107  143.0000  159.8876 O   0  0  0  0  0  0  0  0  0  0  0  0
  152.4264  143.1359  159.8512 C   0  0  0  0  0  0  0  0  0  0  0  0
  153.0681  141.7692  159.5718 C   0  0  0  0  0  0  0  0  0  0  0  0
  152.5278  141.1778  158.2619 C   0  0  1  0  0  0  0  0  0  0  0  0
  153.0438  139.8700  158.1127 O   0  0  0  0  0  0  0  0  0  0  0  0
  150.4716  138.0642  157.9918 N   0  0  0  0  0  0  0  0  0  0  0  0
  150.5787  136.9043  158.6476 C   0  0  0  0  0  0  0  0  0  0  0  0
  149.6180  136.1806  159.2276 N   0  0  0  0  0  0  0  0  0  0  0  0
  148.3960  136.7701  159.0832 C   0  0  0  0  0  0  0  0  0  0  0  0
  146.0342  134.0533  162.4964 C   0  0  0  0  0  0  0  0  0  0  0  0
  144.6707  133.5696  161.9712 C   0  0  0  0  0  0  0  0  0  0  0  0
  143.6980  134.5928  162.1443 O   0  0  0  0  0  0  0  0  0  0  0  0
  143.9948  135.7742  161.4099 C   0  0  0  0  0  0  0  0  0  0  0  0
  145.3357  136.3713  161.8799 C   0  0  0  0  0  0  0  0  0  0  0  0
  147.2788  137.7116  161.9806 H   0  0  0  0  0  0  0  0  0  0  0  0
  148.6270  135.2903  162.3273 H   0  0  0  0  0  0  0  0  0  0  0  0
  147.6101  135.9214  163.6057 H   0  0  0  0  0  0  0  0  0  0  0  0
  147.7312  134.4609  160.1979 H   0  0  0  0  0  0  0  0  0  0  0  0
  146.0522  134.6002  159.7989 H   0  0  0  0  0  0  0  0  0  0  0  0
  145.2128  137.2394  159.3780 H   0  0  0  0  0  0  0  0  0  0  0  0
  148.3938  138.7656  155.5115 H   0  0  0  0  0  0  0  0  0  0  0  0
  147.3740  140.0612  156.1276 H   0  0  0  0  0  0  0  0  0  0  0  0
  149.6833  140.2272  154.2591 H   0  0  0  0  0  0  0  0  0  0  0  0
  148.3630  141.3803  154.4453 H   0  0  0  0  0  0  0  0  0  0  0  0
  150.8627  141.9911  155.3645 H   0  0  0  0  0  0  0  0  0  0  0  0
  149.4338  142.4345  156.3032 H   0  0  0  0  0  0  0  0  0  0  0  0
  151.0936  139.9002  156.5417 H   0  0  0  0  0  0  0  0  0  0  0  0
  150.6872  140.4992  159.1025 H   0  0  0  0  0  0  0  0  0  0  0  0
  150.7091  143.3017  157.8742 H   0  0  0  0  0  0  0  0  0  0  0  0
  149.3780  142.5677  158.7408 H   0  0  0  0  0  0  0  0  0  0  0  0
  152.7160  143.8660  159.0938 H   0  0  0  0  0  0  0  0  0  0  0  0
  152.7678  143.5209  160.8123 H   0  0  0  0  0  0  0  0  0  0  0  0
  154.1533  141.8674  159.5252 H   0  0  0  0  0  0  0  0  0  0  0  0
  152.8500  141.0968  160.4029 H   0  0  0  0  0  0  0  0  0  0  0  0
  152.8798  141.7821  157.4251 H   0  0  0  0  0  0  0  0  0  0  0  0
  152.8350  139.3731  158.8890 H   0  0  0  0  0  0  0  0  0  0  0  0
  151.5773  136.4989  158.7188 H   0  0  0  0  0  0  0  0  0  0  0  0
  146.7785  133.2633  162.4045 H   0  0  0  0  0  0  0  0  0  0  0  0
  145.9278  134.2251  163.5679 H   0  0  0  0  0  0  0  0  0  0  0  0
  144.7233  133.2722  160.9236 H   0  0  0  0  0  0  0  0  0  0  0  0
  144.3513  132.6893  162.5291 H   0  0  0  0  0  0  0  0  0  0  0  0
  143.9974  135.5614  160.3409 H   0  0  0  0  0  0  0  0  0  0  0  0
  143.1933  136.4938  161.5768 H   0  0  0  0  0  0  0  0  0  0  0  0
  145.1972  136.7056  162.9084 H   0  0  0  0  0  0  0  0  0  0  0  0
  145.5672  137.2676  161.3032 H   0  0  0  0  0  0  0  0  0  0  0  0
  1  2  1  0  0  0  0
  1 31  1  0  0  0  0
  2  3  1  0  0  0  0
  2 32  1  0  0  0  0
  2 33  1  0  0  0  0
  3 30  1  0  0  0  0
  3  4  1  0  0  0  0
  3 26  1  0  0  0  0
  4  5  1  0  0  0  0
  4 34  1  0  0  0  0
  4 35  1  0  0  0  0
  5 25  1  0  0  0  0
  5  6  1  0  0  0  0
  6  7  2  0  0  0  0
  6 36  1  0  0  0  0
  7  8  1  0  0  0  0
  8 25  2  0  0  0  0
  8  9  1  0  0  0  0
  9 10  1  0  0  0  0
  9 22  2  0  0  0  0
 10 14  1  0  0  0  0
 10 11  1  0  0  0  0
 11 12  1  0  0  0  0
 11 37  1  0  0  0  0
 11 38  1  0  0  0  0
 12 13  1  0  0  0  0
 12 39  1  0  0  0  0
 12 40  1  0  0  0  0
 13 14  1  0  0  0  0
 13 41  1  0  0  0  0
 13 42  1  0  0  0  0
 14 15  1  0  0  0  0
 14 43  1  0  0  0  0
 15 20  1  0  0  0  0
 15 16  1  0  0  0  0
 15 44  1  0  0  0  0
 16 17  1  0  0  0  0
 16 45  1  0  0  0  0
 16 46  1  0  0  0  0
 17 18  1  0  0  0  0
 18 19  1  0  0  0  0
 18 47  1  0  0  0  0
 18 48  1  0  0  0  0
 19 20  1  0  0  0  0
 19 49  1  0  0  0  0
 19 50  1  0  0  0  0
 20 21  1  0  0  0  0
 20 51  1  0  0  0  0
 21 52  1  0  0  0  0
 22 23  1  0  0  0  0
 23 24  2  0  0  0  0
 23 53  1  0  0  0  0
 24 25  1  0  0  0  0
 26 27  1  0  0  0  0
 26 54  1  0  0  0  0
 26 55  1  0  0  0  0
 27 28  1  0  0  0  0
 27 56  1  0  0  0  0
 27 57  1  0  0  0  0
 28 29  1  0  0  0  0
 29 30  1  0  0  0  0
 29 58  1  0  0  0  0
 29 59  1  0  0  0  0
 30 60  1  0  0  0  0
 30 61  1  0  0  0  0
M  END
> <s_m_source_file>
AV-unprocessed.smi

> <i_m_source_file_index>
247

> <i_lp_mmshare_version>
43012

> <i_f3d_flags>
0

> <s_epik_input>
W0NIMl0xW0NIMl1PW0NIMl1bQ0gyXUMxKFtDSDJdW09IXSlbQ0gyXW4oW2NIXW4yKWMoYzIzKW5bY0hdbmMzTjRbQ0gyXVtDSDJdW0NIMl1bQ0BIXTRbQ0BASF01W0NIMl1PW0NIMl1bQ0gyXVtDQEhdNVtPSF0=

> <s_epik_cmdline>
J2VwaWtfcHl0aG9uJywgJy1waCcsICc3LjAnLCAnLXRuJywgJzgnLCAnLW1hJywgJzIwMCcsICctbWV0YWxfYmluZGluZycsICctaW1hZScsICc8aW5maWxlLm1hZT4nLCAnLW9tYWUnLCAnPG91dGZpbGUubWFlPic=

> <r_lp_tautomer_probability>
1

> <r_epik_Ionization_Penalty>
0.00362597

> <r_epik_Ionization_Penalty_Charging>
0

> <r_epik_Ionization_Penalty_Neutral>
0.00362597

> <r_epik_State_Penalty>
0.00241433

> <r_epik_Charging_Adjusted_Penalty>
0.00241433

> <i_epik_Tot_Q>
0

> <i_epik_Tot_abs_Q>
0

> <r_epik_Metal_State_Penalty>
-0

> <b_epik_Metal_Only>
0

> <s_lp_Force_Field>
OPLS_2005

> <r_lp_Energy>
58.6296

> <b_lp_Chiralities_Consistent>
1

> <s_lp_Variant>
AV-unprocessed.smi:247-1

> <Gold.Version>
5.8.1

> <Gold.Id.Protein>
6NUR|6NUR_protein|mol2

> <Gold.PLP.Fitness>
48.7513

> <Gold.PLP.PLP>
-43.4005

> <Gold.PLP.part.hbond>
-5.0699

> <Gold.PLP.part.metal>
0.0000

> <Gold.PLP.part.buried>
-5.7685

> <Gold.PLP.part.nonpolar>
-33.1145

> <Gold.PLP.part.repulsive>
0.0693

> <Gold.PLP.ligand.clash>
0.0000

> <Gold.PLP.ligand.torsion>
1.3106

> <Gold.PLP.Chemscore.Hbond>
2.5990

> <Gold.PLP.Chemscore.CHOScore>
0.0000

> <Gold.PLP.Chemscore.Metal>
0.0000

> <Gold.Chemscore.Hbonds>
donor molecule, donor type, donor heavy atom, donor atom, acceptor molecule, acceptor atom, score
      P1  H  6896  6908       L1    24  0.84
      P1  H  6931  6943       L1     1  0.67
      P1  H  7997  8010       L1    21  1.00

> <Gold.PLP.Chemscore.Internal.Correction>
0.1753

> <Gold.Rescore>
     Score         DG    S(hbond)    S(metal)    S(lipo)     H(rot)  DE(clash)    DE(int)     intcor
     14.69     -17.57       2.41        0.00     105.06       3.23       0.41       2.47       ----

> <Gold.Chemscore.Fitness>
14.6851

> <Gold.Chemscore.DG>
-17.5676

> <Gold.Chemscore.ZeroCoef>
-5.4800

> <Gold.Chemscore.Hbond>
2.4129

> <Gold.Chemscore.Metal>
0.0000

> <Gold.Chemscore.Lipo>
105.0586

> <Gold.Chemscore.Internal_Hbond>
0.0000

> <Gold.Chemscore.DEClash>
0.4078

> <Gold.Chemscore.DEInternal>
2.4747

> <Gold.Chemscore.Rot>
3.2278

> <Gold.Chemscore.Internal.Correction>
   9.000000E+99

> <Gold.Chemscore.Hbonds>
donor molecule, donor type, donor heavy atom, donor atom, acceptor molecule, acceptor atom, score
      P1  H  6896  6908       L1    24  0.16
      P1  H  6931  6943       L1     1  0.20
      P1  H  7997  8010       L1    21  0.57

> <Gold.Chemscore.Hbond.Weighted>
-8.0591

> <Gold.Chemscore.Metal.Weighted>
-0.0000

> <Gold.Chemscore.Lipo.Weighted>
-12.2919

> <Gold.Chemscore.Internal_Hbond.Weighted>
0.0000

> <Gold.Chemscore.DEClash.Weighted>
0.4078

> <Gold.Chemscore.DEInternal.Weighted>
2.4747

> <Gold.Chemscore.Rot.Weighted>
8.2633

> <Gold.Chemscore.Internal.Correction.Weighted>
   9.000000E+99

> <Gold.Protein.RotatedTorsions>
[ 6907 6896 6895 6894 ] final  165.53 input  -60.11 | X-H torsion
[ 7974 7965 7964 7962 ] final   16.36 input  175.53 | X-H torsion
[ 8008 7997 7996 7995 ] final   24.72 input   59.86 | X-H torsion
[ 10167 10162 10161 10158 ] final   86.34 input  -65.29 | X-H torsion
[ 10718 10713 10712 10709 ] final   65.79 input   66.30 | X-H torsion
[ 10763 10752 10751 10750 ] final    7.18 input  -60.55 | X-H torsion
[ 11005 11000 10999 10996 ] final    0.44 input  -57.11 | X-H torsion

> <Gold.Protein.ActiveResidues>
 VAL166  LYS551  ARG553  GLY616  TRP617  ASP618  TYR619  PRO620  LYS621  CYS622 
 ASP623  PHE694  ASN695  SER759  ASP760  ASP761  ALA762  ILE779  LEU786  VAL792 
 PHE793  MET794  SER795  GLU796  ALA797  LYS798  CYS799  TRP800  GLU811  SER814 

> <Gold.Protein.RotatedAtoms>
  151.8929  133.3520  159.3804 H   0  0  0  0  0  0  0  0  0  0  0  0  # atno 6907 bound_to 6896
  150.7099  134.4905  159.5523 H   0  0  0  0  0  0  0  0  0  0  0  0  # atno 6908 bound_to 6896
  152.2479  134.8163  160.0501 H   0  0  0  0  0  0  0  0  0  0  0  0  # atno 6909 bound_to 6896
  146.2252  139.8760  142.8579 H   0  0  0  0  0  0  0  0  0  0  0  0  # atno 7974 bound_to 7965
  155.0007  140.3125  155.4868 H   0  0  0  0  0  0  0  0  0  0  0  0  # atno 8008 bound_to 7997
  156.2925  140.2232  156.5057 H   0  0  0  0  0  0  0  0  0  0  0  0  # atno 8009 bound_to 7997
  154.7621  140.0458  157.0970 H   0  0  0  0  0  0  0  0  0  0  0  0  # atno 8010 bound_to 7997
  139.8886  144.6399  150.8764 H   0  0  0  0  0  0  0  0  0  0  0  0  # atno 10167 bound_to 10162
  157.6128  130.9233  150.0023 H   0  0  0  0  0  0  0  0  0  0  0  0  # atno 10718 bound_to 10713
  153.2392  135.6901  153.7802 H   0  0  0  0  0  0  0  0  0  0  0  0  # atno 10763 bound_to 10752
  153.6938  135.3308  155.3209 H   0  0  0  0  0  0  0  0  0  0  0  0  # atno 10764 bound_to 10752
  154.8348  135.4551  154.1307 H   0  0  0  0  0  0  0  0  0  0  0  0  # atno 10765 bound_to 10752
  140.6265  133.9614  155.8252 H   0  0  0  0  0  0  0  0  0  0  0  0  # atno 11005 bound_to 11000
  145.2561  141.0061  143.3853 LP  0  0  0  0  0  0  0  0  0  0  0  0  # atno 17320 bound_to 7965
  144.9336  139.4270  143.6483 LP  0  0  0  0  0  0  0  0  0  0  0  0  # atno 17321 bound_to 7965
  140.7731  143.3528  151.1980 LP  0  0  0  0  0  0  0  0  0  0  0  0  # atno 17342 bound_to 10162
  139.7130  143.9345  152.2955 LP  0  0  0  0  0  0  0  0  0  0  0  0  # atno 17343 bound_to 10162
  156.1237  130.3645  149.9844 LP  0  0  0  0  0  0  0  0  0  0  0  0  # atno 17370 bound_to 10713
  156.7919  130.9259  151.3646 LP  0  0  0  0  0  0  0  0  0  0  0  0  # atno 17371 bound_to 10713
  141.0705  134.0212  157.3532 LP  0  0  0  0  0  0  0  0  0  0  0  0  # atno 17394 bound_to 11000
  139.9133  135.0193  156.7779 LP  0  0  0  0  0  0  0  0  0  0  0  0  # atno 17395 bound_to 11000

$$$$
