AV-unprocessed.smi:3040|AV-procd|sdf|11596|dock4
  -GOLD-   2272016573D 1   1.00000     0.00000
 Structure written by MMmdl.
 39 40  0  0  0  0  0  0  0  0  1 V2000
  152.0866  144.1782  161.1745 C   0  0  0  0  0  0  0  0  0  0  0  0
  152.0134  143.1855  160.1009 N   0  0  0  0  0  0  0  0  0  0  0  0
  151.1296  143.5444  158.9824 C   0  0  0  0  0  0  0  0  0  0  0  0
  150.7222  142.3460  158.1160 C   0  0  0  0  0  0  0  0  0  0  0  0
  151.9612  141.5200  157.7475 C   0  0  2  0  0  0  0  0  0  0  0  0
  151.5872  140.3343  156.8492 C   0  0  0  0  0  0  0  0  0  0  0  0
  151.8286  139.1819  157.2101 O   0  0  0  0  0  0  0  0  0  0  0  0
  151.0329  140.6352  155.6634 N   0  0  0  0  0  0  0  0  0  0  0  0
  150.7615  139.6807  154.5896 C   0  0  0  0  0  0  0  0  0  0  0  0
  149.2716  139.2861  154.5310 C   0  0  0  0  0  0  0  0  0  0  0  0
  148.3505  140.4785  154.5150 C   0  0  0  0  0  0  0  0  0  0  0  0
  147.3988  140.8655  155.5016 C   0  0  0  0  0  0  0  0  0  0  0  0
  146.7070  141.9391  155.1553 N   0  0  0  0  0  0  0  0  0  0  0  0
  147.1941  142.2764  153.9437 N   0  0  0  0  0  0  0  0  0  0  0  0
  146.6395  143.4125  153.2393 C   0  0  0  0  0  0  0  0  0  0  0  0
  148.1953  141.4217  153.5382 C   0  0  0  0  0  0  0  0  0  0  0  0
  152.6577  141.0183  159.0295 C   0  0  0  0  0  0  0  0  0  0  0  0
  152.7764  142.0667  160.1475 C   0  0  0  0  0  0  0  0  0  0  0  0
  153.5534  141.8348  161.0744 O   0  0  0  0  0  0  0  0  0  0  0  0
  153.1187  144.4823  161.3557 H   0  0  0  0  0  0  0  0  0  0  0  0
  151.6845  143.7659  162.1008 H   0  0  0  0  0  0  0  0  0  0  0  0
  151.5216  145.0812  160.9398 H   0  0  0  0  0  0  0  0  0  0  0  0
  150.2282  144.0307  159.3580 H   0  0  0  0  0  0  0  0  0  0  0  0
  151.6484  144.2808  158.3672 H   0  0  0  0  0  0  0  0  0  0  0  0
  150.0073  141.7312  158.6658 H   0  0  0  0  0  0  0  0  0  0  0  0
  150.2088  142.6960  157.2195 H   0  0  0  0  0  0  0  0  0  0  0  0
  152.6540  142.1646  157.2030 H   0  0  0  0  0  0  0  0  0  0  0  0
  150.8611  141.6086  155.4578 H   0  0  0  0  0  0  0  0  0  0  0  0
  151.0742  140.0872  153.6263 H   0  0  0  0  0  0  0  0  0  0  0  0
  151.3714  138.7922  154.7536 H   0  0  0  0  0  0  0  0  0  0  0  0
  149.1053  138.6624  153.6525 H   0  0  0  0  0  0  0  0  0  0  0  0
  149.0451  138.6483  155.3862 H   0  0  0  0  0  0  0  0  0  0  0  0
  147.1786  140.3882  156.4450 H   0  0  0  0  0  0  0  0  0  0  0  0
  147.3319  143.7446  152.4653 H   0  0  0  0  0  0  0  0  0  0  0  0
  146.4641  144.2353  153.9334 H   0  0  0  0  0  0  0  0  0  0  0  0
  145.6958  143.1275  152.7732 H   0  0  0  0  0  0  0  0  0  0  0  0
  148.6926  141.5383  152.5865 H   0  0  0  0  0  0  0  0  0  0  0  0
  152.1190  140.1671  159.4495 H   0  0  0  0  0  0  0  0  0  0  0  0
  153.6573  140.6560  158.7857 H   0  0  0  0  0  0  0  0  0  0  0  0
  1  2  1  0  0  0  0
  1 20  1  0  0  0  0
  1 21  1  0  0  0  0
  1 22  1  0  0  0  0
  2 18  1  0  0  0  0
  2  3  1  0  0  0  0
  3  4  1  0  0  0  0
  3 23  1  0  0  0  0
  3 24  1  0  0  0  0
  4  5  1  0  0  0  0
  4 25  1  0  0  0  0
  4 26  1  0  0  0  0
  5  6  1  0  0  0  0
  5 17  1  0  0  0  0
  5 27  1  0  0  0  0
  6  7  2  0  0  0  0
  6  8  1  0  0  0  0
  8  9  1  0  0  0  0
  8 28  1  0  0  0  0
  9 10  1  0  0  0  0
  9 29  1  0  0  0  0
  9 30  1  0  0  0  0
 10 11  1  0  0  0  0
 10 31  1  0  0  0  0
 10 32  1  0  0  0  0
 11 16  2  0  0  0  0
 11 12  1  0  0  0  0
 12 13  2  0  0  0  0
 12 33  1  0  0  0  0
 13 14  1  0  0  0  0
 14 15  1  0  0  0  0
 14 16  1  0  0  0  0
 15 34  1  0  0  0  0
 15 35  1  0  0  0  0
 15 36  1  0  0  0  0
 16 37  1  0  0  0  0
 17 18  1  0  0  0  0
 17 38  1  0  0  0  0
 17 39  1  0  0  0  0
 18 19  2  0  0  0  0
M  END
> <s_m_source_file>
AV-unprocessed.smi

> <i_m_source_file_index>
3040

> <i_lp_mmshare_version>
43012

> <i_f3d_flags>
0

> <s_epik_input>
W0NIM11OMVtDSDJdW0NIMl1bQ0BIXShbQ0gyXUMxPU8pQyg9TylbTkhdW0NIMl1bQ0gyXWMyW2NIXW5uKFtDSDNdKVtjSF0y

> <s_epik_cmdline>
J2VwaWtfcHl0aG9uJywgJy1waCcsICc3LjAnLCAnLXRuJywgJzgnLCAnLW1hJywgJzIwMCcsICctbWV0YWxfYmluZGluZycsICctaW1hZScsICc8aW5maWxlLm1hZT4nLCAnLW9tYWUnLCAnPG91dGZpbGUubWFlPic=

> <r_lp_tautomer_probability>
1

> <r_epik_Ionization_Penalty>
0.000456436

> <r_epik_Ionization_Penalty_Charging>
0

> <r_epik_Ionization_Penalty_Neutral>
0.000456436

> <r_epik_State_Penalty>
-0

> <r_epik_Charging_Adjusted_Penalty>
0

> <i_epik_Tot_Q>
0

> <i_epik_Tot_abs_Q>
0

> <r_epik_Metal_State_Penalty>
-0

> <b_epik_Metal_Only>
0

> <s_lp_Force_Field>
OPLS_2005

> <r_lp_Energy>
9.8739

> <b_lp_Chiralities_Consistent>
1

> <s_lp_Variant>
AV-unprocessed.smi:3040-2

> <Gold.Version>
5.8.1

> <Gold.Id.Protein>
6NUR|6NUR_protein|mol2

> <Gold.PLP.Fitness>
39.8011

> <Gold.PLP.PLP>
-37.1653

> <Gold.PLP.part.hbond>
0.0000

> <Gold.PLP.part.metal>
0.0000

> <Gold.PLP.part.buried>
-5.2932

> <Gold.PLP.part.nonpolar>
-31.3670

> <Gold.PLP.part.repulsive>
0.2473

> <Gold.PLP.ligand.clash>
0.0000

> <Gold.PLP.ligand.torsion>
0.1865

> <Gold.PLP.Chemscore.Hbond>
0.0000

> <Gold.PLP.Chemscore.CHOScore>
0.9959

> <Gold.PLP.Chemscore.Metal>
0.0000

> <Gold.Chemscore.Hbonds>
donor molecule, donor type, donor heavy atom, donor atom, acceptor molecule, acceptor atom, score
      L1  C    16    37       P1  7957  1.00

> <Gold.PLP.Chemscore.Internal.Correction>
0.0210

> <Gold.Rescore>
     Score         DG    S(hbond)    S(metal)    S(lipo)     H(rot)  DE(clash)    DE(int)     intcor
     10.25     -10.63       0.00        0.00      80.20       1.65       0.15       0.23       ----

> <Gold.Chemscore.Fitness>
10.2500

> <Gold.Chemscore.DG>
-10.6300

> <Gold.Chemscore.ZeroCoef>
-5.4800

> <Gold.Chemscore.Hbond>
0.0000

> <Gold.Chemscore.Metal>
0.0000

> <Gold.Chemscore.Lipo>
80.1978

> <Gold.Chemscore.Internal_Hbond>
0.0000

> <Gold.Chemscore.DEClash>
0.1481

> <Gold.Chemscore.DEInternal>
0.2319

> <Gold.Chemscore.Rot>
1.6536

> <Gold.Chemscore.Internal.Correction>
   9.000000E+99

> <Gold.Chemscore.Hbond.Weighted>
-0.0000

> <Gold.Chemscore.Metal.Weighted>
-0.0000

> <Gold.Chemscore.Lipo.Weighted>
-9.3831

> <Gold.Chemscore.Internal_Hbond.Weighted>
0.0000

> <Gold.Chemscore.DEClash.Weighted>
0.1481

> <Gold.Chemscore.DEInternal.Weighted>
0.2319

> <Gold.Chemscore.Rot.Weighted>
4.2332

> <Gold.Chemscore.Internal.Correction.Weighted>
   9.000000E+99

> <Gold.Protein.RotatedTorsions>
[ 6907 6896 6895 6894 ] final  124.95 input  -60.11 | X-H torsion
[ 7974 7965 7964 7962 ] final -118.54 input  175.53 | X-H torsion
[ 8008 7997 7996 7995 ] final  -98.42 input   59.86 | X-H torsion
[ 10167 10162 10161 10158 ] final   56.15 input  -65.29 | X-H torsion
[ 10718 10713 10712 10709 ] final -142.86 input   66.30 | X-H torsion
[ 10763 10752 10751 10750 ] final -178.92 input  -60.55 | X-H torsion
[ 11005 11000 10999 10996 ] final  155.37 input  -57.11 | X-H torsion

> <Gold.Protein.ActiveResidues>
 VAL166  LYS551  ARG553  GLY616  TRP617  ASP618  TYR619  PRO620  LYS621  CYS622 
 ASP623  PHE694  ASN695  SER759  ASP760  ASP761  ALA762  ILE779  LEU786  VAL792 
 PHE793  MET794  SER795  GLU796  ALA797  LYS798  CYS799  TRP800  GLU811  SER814 

> <Gold.Protein.RotatedAtoms>
  152.4034  133.6852  159.6335 H   0  0  0  0  0  0  0  0  0  0  0  0  # atno 6907 bound_to 6896
  150.7922  133.8751  159.3278 H   0  0  0  0  0  0  0  0  0  0  0  0  # atno 6908 bound_to 6896
  151.6511  135.1003  160.0212 H   0  0  0  0  0  0  0  0  0  0  0  0  # atno 6909 bound_to 6896
  145.0727  140.8370  143.4086 H   0  0  0  0  0  0  0  0  0  0  0  0  # atno 7974 bound_to 7965
  154.8010  140.0455  157.1273 H   0  0  0  0  0  0  0  0  0  0  0  0  # atno 8008 bound_to 7997
  154.9479  140.3061  155.5069 H   0  0  0  0  0  0  0  0  0  0  0  0  # atno 8009 bound_to 7997
  156.2961  140.2293  156.4554 H   0  0  0  0  0  0  0  0  0  0  0  0  # atno 8010 bound_to 7997
  140.2118  144.3881  150.6485 H   0  0  0  0  0  0  0  0  0  0  0  0  # atno 10167 bound_to 10162
  156.3510  130.7688  151.1841 H   0  0  0  0  0  0  0  0  0  0  0  0  # atno 10718 bound_to 10713
  154.5416  135.2806  155.1090 H   0  0  0  0  0  0  0  0  0  0  0  0  # atno 10763 bound_to 10752
  154.2570  135.6329  153.5264 H   0  0  0  0  0  0  0  0  0  0  0  0  # atno 10764 bound_to 10752
  152.9980  135.5596  154.5958 H   0  0  0  0  0  0  0  0  0  0  0  0  # atno 10765 bound_to 10752
  140.1575  134.8632  157.2532 H   0  0  0  0  0  0  0  0  0  0  0  0  # atno 11005 bound_to 11000
  145.1273  139.2655  143.5557 LP  0  0  0  0  0  0  0  0  0  0  0  0  # atno 17320 bound_to 7965
  146.3529  140.0914  142.8612 LP  0  0  0  0  0  0  0  0  0  0  0  0  # atno 17321 bound_to 7965
  140.6318  143.2188  151.6480 LP  0  0  0  0  0  0  0  0  0  0  0  0  # atno 17342 bound_to 10162
  139.5177  144.3307  152.0828 LP  0  0  0  0  0  0  0  0  0  0  0  0  # atno 17343 bound_to 10162
  157.7461  131.0427  150.4709 LP  0  0  0  0  0  0  0  0  0  0  0  0  # atno 17370 bound_to 10713
  156.4905  130.4094  149.6409 LP  0  0  0  0  0  0  0  0  0  0  0  0  # atno 17371 bound_to 10713
  140.2530  134.3661  155.7435 LP  0  0  0  0  0  0  0  0  0  0  0  0  # atno 17394 bound_to 11000
  141.2206  133.7327  156.8964 LP  0  0  0  0  0  0  0  0  0  0  0  0  # atno 17395 bound_to 11000

$$$$
