AV-unprocessed.smi:3335|AV-procd|sdf|12838|dock8
  -GOLD-   2272019223D 1   1.00000     0.00000
 Structure written by MMmdl.
 47 48  0  0  0  0  0  0  0  0  2 V2000
  154.9350  140.6761  161.7545 C   0  0  0  0  0  0  0  0  0  0  0  0
  153.9408  141.7312  161.3634 C   0  0  0  0  0  0  0  0  0  0  0  0
  153.4299  142.7920  162.1629 C   0  0  0  0  0  0  0  0  0  0  0  0
  152.5677  143.5549  161.5117 N   0  0  0  0  0  0  0  0  0  0  0  0
  152.4822  143.0039  160.2794 N   0  0  0  0  0  0  0  0  0  0  0  0
  151.6372  143.5923  159.2446 C   0  0  1  0  0  0  0  0  0  0  0  0
  152.0894  145.0192  158.8649 C   0  0  0  0  0  0  0  0  0  0  0  0
  151.4741  142.6406  158.0309 C   0  0  2  0  0  0  0  0  0  0  0  0
  151.0689  143.3496  156.7220 C   0  0  0  0  0  0  0  0  0  0  0  0
  150.5223  141.5542  158.3728 N   0  3  0  0  0  0  0  0  0  0  0  0
  150.6769  140.2743  157.6387 C   0  0  2  0  0  0  0  0  0  0  0  0
  152.1005  139.7369  157.8565 C   0  0  0  0  0  0  0  0  0  0  0  0
  150.4103  140.4482  156.1296 C   0  0  0  0  0  0  0  0  0  0  0  0
  151.3296  140.2357  155.3369 O   0  0  0  0  0  0  0  0  0  0  0  0
  149.1800  140.8178  155.7128 N   0  0  0  0  0  0  0  0  0  0  0  0
  148.8374  141.0094  154.3041 C   0  0  0  0  0  0  0  0  0  0  0  0
  147.4505  141.6524  154.2950 C   0  0  0  0  0  0  0  0  0  0  0  0
  146.8285  141.2102  155.6117 C   0  0  0  0  0  0  0  0  0  0  0  0
  148.0187  141.0830  156.5626 C   0  0  0  0  0  0  0  0  0  0  0  0
  153.3144  141.9095  160.1630 C   0  0  0  0  0  0  0  0  0  0  0  0
  155.0951  140.6486  162.8326 H   0  0  0  0  0  0  0  0  0  0  0  0
  155.9059  140.8474  161.2898 H   0  0  0  0  0  0  0  0  0  0  0  0
  154.6050  139.6813  161.4546 H   0  0  0  0  0  0  0  0  0  0  0  0
  153.6629  143.0310  163.1902 H   0  0  0  0  0  0  0  0  0  0  0  0
  150.6508  143.6966  159.7000 H   0  0  0  0  0  0  0  0  0  0  0  0
  151.3916  145.4867  158.1702 H   0  0  0  0  0  0  0  0  0  0  0  0
  153.0743  145.0295  158.3977 H   0  0  0  0  0  0  0  0  0  0  0  0
  152.1397  145.6573  159.7477 H   0  0  0  0  0  0  0  0  0  0  0  0
  152.4510  142.1855  157.8640 H   0  0  0  0  0  0  0  0  0  0  0  0
  151.7692  144.1425  156.4622 H   0  0  0  0  0  0  0  0  0  0  0  0
  150.0758  143.7925  156.7947 H   0  0  0  0  0  0  0  0  0  0  0  0
  151.0572  142.6613  155.8778 H   0  0  0  0  0  0  0  0  0  0  0  0
  150.6293  141.3429  159.3549 H   0  0  0  0  0  0  0  0  0  0  0  0
  149.9783  139.5581  158.0674 H   0  0  0  0  0  0  0  0  0  0  0  0
  152.2553  138.7870  157.3438 H   0  0  0  0  0  0  0  0  0  0  0  0
  152.2964  139.5686  158.9158 H   0  0  0  0  0  0  0  0  0  0  0  0
  152.8532  140.4359  157.4886 H   0  0  0  0  0  0  0  0  0  0  0  0
  149.5653  141.6347  153.7845 H   0  0  0  0  0  0  0  0  0  0  0  0
  148.8117  140.0369  153.8101 H   0  0  0  0  0  0  0  0  0  0  0  0
  147.5507  142.7388  154.2858 H   0  0  0  0  0  0  0  0  0  0  0  0
  146.8562  141.3640  153.4274 H   0  0  0  0  0  0  0  0  0  0  0  0
  146.0680  141.9021  155.9747 H   0  0  0  0  0  0  0  0  0  0  0  0
  146.3579  140.2347  155.4825 H   0  0  0  0  0  0  0  0  0  0  0  0
  147.8467  140.2947  157.2959 H   0  0  0  0  0  0  0  0  0  0  0  0
  148.1761  142.0204  157.0984 H   0  0  0  0  0  0  0  0  0  0  0  0
  153.3902  141.3503  159.2421 H   0  0  0  0  0  0  0  0  0  0  0  0
  149.5871  141.9047  158.2236 H   0  0  0  0  0  0  0  0  0  0  0  0
  1  2  1  0  0  0  0
  1 21  1  0  0  0  0
  1 22  1  0  0  0  0
  1 23  1  0  0  0  0
  2 20  2  0  0  0  0
  2  3  1  0  0  0  0
  3  4  2  0  0  0  0
  3 24  1  0  0  0  0
  4  5  1  0  0  0  0
  5  6  1  0  0  0  0
  5 20  1  0  0  0  0
  6  7  1  0  0  0  0
  6  8  1  0  0  0  0
  6 25  1  0  0  0  0
  7 26  1  0  0  0  0
  7 27  1  0  0  0  0
  7 28  1  0  0  0  0
  8  9  1  0  0  0  0
  8 10  1  0  0  0  0
  8 29  1  0  0  0  0
  9 30  1  0  0  0  0
  9 31  1  0  0  0  0
  9 32  1  0  0  0  0
 10 11  1  0  0  0  0
 10 33  1  0  0  0  0
 10 47  1  0  0  0  0
 11 12  1  0  0  0  0
 11 13  1  0  0  0  0
 11 34  1  0  0  0  0
 12 35  1  0  0  0  0
 12 36  1  0  0  0  0
 12 37  1  0  0  0  0
 13 14  2  0  0  0  0
 13 15  1  0  0  0  0
 15 19  1  0  0  0  0
 15 16  1  0  0  0  0
 16 17  1  0  0  0  0
 16 38  1  0  0  0  0
 16 39  1  0  0  0  0
 17 18  1  0  0  0  0
 17 40  1  0  0  0  0
 17 41  1  0  0  0  0
 18 19  1  0  0  0  0
 18 42  1  0  0  0  0
 18 43  1  0  0  0  0
 19 44  1  0  0  0  0
 19 45  1  0  0  0  0
 20 46  1  0  0  0  0
M  CHG  1  10   1
M  END
> <s_m_source_file>
AV-unprocessed.smi

> <i_m_source_file_index>
3335

> <i_lp_mmshare_version>
43012

> <i_f3d_flags>
0

> <s_epik_input>
W0NIM11jMVtjSF1ubihbY0hdMSlbQ0BIXShbQ0gzXSlbQ0BIXShbQ0gzXSlbTkhdW0NASF0oW0NIM10pQyg9TylOMltDSDJdW0NIMl1bQ0gyXVtDSDJdMg==

> <s_epik_cmdline>
J2VwaWtfcHl0aG9uJywgJy1waCcsICc3LjAnLCAnLXRuJywgJzgnLCAnLW1hJywgJzIwMCcsICctbWV0YWxfYmluZGluZycsICctaW1hZScsICc8aW5maWxlLm1hZT4nLCAnLW9tYWUnLCAnPG91dGZpbGUubWFlPic=

> <r_lp_tautomer_probability>
1

> <r_epik_Ionization_Penalty>
0.14175

> <r_epik_Ionization_Penalty_Charging>
0.141731

> <r_epik_Ionization_Penalty_Neutral>
1.91261e-05

> <r_epik_State_Penalty>
0.131043

> <r_epik_Charging_Adjusted_Penalty>
0.272773

> <i_epik_Tot_Q>
1

> <i_epik_Tot_abs_Q>
1

> <r_epik_Metal_State_Penalty>
0.131408

> <b_epik_Metal_Only>
0

> <s_lp_Force_Field>
OPLS_2005

> <r_lp_Energy>
39.0238

> <b_lp_Chiralities_Consistent>
1

> <s_lp_Variant>
AV-unprocessed.smi:3335-2

> <Gold.Version>
5.8.1

> <Gold.Id.Protein>
6NUR|6NUR_protein|mol2

> <Gold.PLP.Fitness>
48.1896

> <Gold.PLP.PLP>
-46.8836

> <Gold.PLP.part.hbond>
-1.0000

> <Gold.PLP.part.metal>
0.0000

> <Gold.PLP.part.buried>
-4.0469

> <Gold.PLP.part.nonpolar>
-42.6100

> <Gold.PLP.part.repulsive>
0.2852

> <Gold.PLP.ligand.clash>
0.0000

> <Gold.PLP.ligand.torsion>
0.9419

> <Gold.PLP.Chemscore.Hbond>
1.0000

> <Gold.PLP.Chemscore.CHOScore>
0.0000

> <Gold.PLP.Chemscore.Metal>
0.0000

> <Gold.Chemscore.Hbonds>
donor molecule, donor type, donor heavy atom, donor atom, acceptor molecule, acceptor atom, score
      P1  H  7989  7998       L1    14  1.00

> <Gold.PLP.Chemscore.Internal.Correction>
0.1899

> <Gold.Rescore>
     Score         DG    S(hbond)    S(metal)    S(lipo)     H(rot)  DE(clash)    DE(int)     intcor
     15.33     -17.59       0.98        0.00     112.36       1.68       1.39       0.86       ----

> <Gold.Chemscore.Fitness>
15.3326

> <Gold.Chemscore.DG>
-17.5895

> <Gold.Chemscore.ZeroCoef>
-5.4800

> <Gold.Chemscore.Hbond>
0.9755

> <Gold.Chemscore.Metal>
0.0000

> <Gold.Chemscore.Lipo>
112.3648

> <Gold.Chemscore.Internal_Hbond>
0.0000

> <Gold.Chemscore.DEClash>
1.3944

> <Gold.Chemscore.DEInternal>
0.8625

> <Gold.Chemscore.Rot>
1.6778

> <Gold.Chemscore.Internal.Correction>
   9.000000E+99

> <Gold.Chemscore.Hbonds>
donor molecule, donor type, donor heavy atom, donor atom, acceptor molecule, acceptor atom, score
      P1  H  7989  7998       L1    14  0.94

> <Gold.Chemscore.Hbond.Weighted>
-3.2580

> <Gold.Chemscore.Metal.Weighted>
-0.0000

> <Gold.Chemscore.Lipo.Weighted>
-13.1467

> <Gold.Chemscore.Internal_Hbond.Weighted>
0.0000

> <Gold.Chemscore.DEClash.Weighted>
1.3944

> <Gold.Chemscore.DEInternal.Weighted>
0.8625

> <Gold.Chemscore.Rot.Weighted>
4.2952

> <Gold.Chemscore.Internal.Correction.Weighted>
   9.000000E+99

> <Gold.Protein.RotatedTorsions>
[ 6907 6896 6895 6894 ] final   17.03 input  -60.11 | X-H torsion
[ 7974 7965 7964 7962 ] final   56.63 input  175.53 | X-H torsion
[ 8008 7997 7996 7995 ] final   -7.70 input   59.86 | X-H torsion
[ 10167 10162 10161 10158 ] final    8.15 input  -65.29 | X-H torsion
[ 10718 10713 10712 10709 ] final  -27.73 input   66.30 | X-H torsion
[ 10763 10752 10751 10750 ] final -126.70 input  -60.55 | X-H torsion
[ 11005 11000 10999 10996 ] final   22.23 input  -57.11 | X-H torsion

> <Gold.Protein.ActiveResidues>
 VAL166  LYS551  ARG553  GLY616  TRP617  ASP618  TYR619  PRO620  LYS621  CYS622 
 ASP623  PHE694  ASN695  SER759  ASP760  ASP761  ALA762  ILE779  LEU786  VAL792 
 PHE793  MET794  SER795  GLU796  ALA797  LYS798  CYS799  TRP800  GLU811  SER814 

> <Gold.Protein.RotatedAtoms>
  151.8432  135.0583  160.0450 H   0  0  0  0  0  0  0  0  0  0  0  0  # atno 6907 bound_to 6896
  152.2793  133.5451  159.5496 H   0  0  0  0  0  0  0  0  0  0  0  0  # atno 6908 bound_to 6896
  150.7183  134.0503  159.3838 H   0  0  0  0  0  0  0  0  0  0  0  0  # atno 6909 bound_to 6896
  145.9377  139.3861  143.0382 H   0  0  0  0  0  0  0  0  0  0  0  0  # atno 7974 bound_to 7965
  154.5813  140.2400  155.8050 H   0  0  0  0  0  0  0  0  0  0  0  0  # atno 8008 bound_to 7997
  156.2181  140.3006  155.9843 H   0  0  0  0  0  0  0  0  0  0  0  0  # atno 8009 bound_to 7997
  155.2536  140.0411  157.2980 H   0  0  0  0  0  0  0  0  0  0  0  0  # atno 8010 bound_to 7997
  140.6331  143.7949  150.7322 H   0  0  0  0  0  0  0  0  0  0  0  0  # atno 10167 bound_to 10162
  156.4344  130.4451  149.7095 H   0  0  0  0  0  0  0  0  0  0  0  0  # atno 10718 bound_to 10713
  154.8747  135.3986  154.3474 H   0  0  0  0  0  0  0  0  0  0  0  0  # atno 10763 bound_to 10752
  153.4265  135.7024  153.6264 H   0  0  0  0  0  0  0  0  0  0  0  0  # atno 10764 bound_to 10752
  153.4904  135.3749  155.2459 H   0  0  0  0  0  0  0  0  0  0  0  0  # atno 10765 bound_to 10752
  140.3829  134.1901  155.7663 H   0  0  0  0  0  0  0  0  0  0  0  0  # atno 11005 bound_to 11000
  145.8342  140.9615  143.0833 LP  0  0  0  0  0  0  0  0  0  0  0  0  # atno 17320 bound_to 7965
  144.6774  140.0201  143.7484 LP  0  0  0  0  0  0  0  0  0  0  0  0  # atno 17321 bound_to 7965
  140.1564  143.4313  152.2097 LP  0  0  0  0  0  0  0  0  0  0  0  0  # atno 17342 bound_to 10162
  139.5543  144.7361  151.4340 LP  0  0  0  0  0  0  0  0  0  0  0  0  # atno 17343 bound_to 10162
  156.3985  130.7663  151.2669 LP  0  0  0  0  0  0  0  0  0  0  0  0  # atno 17370 bound_to 10713
  157.7507  131.0247  150.3886 LP  0  0  0  0  0  0  0  0  0  0  0  0  # atno 17371 bound_to 10713
  141.1917  133.8188  157.0867 LP  0  0  0  0  0  0  0  0  0  0  0  0  # atno 17394 bound_to 11000
  140.0465  134.9828  157.1058 LP  0  0  0  0  0  0  0  0  0  0  0  0  # atno 17395 bound_to 11000

$$$$
