AV-unprocessed.smi:1573|AV-procd|sdf|6334|dock2
  -GOLD-   22720 6543D 1   1.00000     0.00000
 Structure written by MMmdl.
 41 41  0  0  0  0  0  0  0  0  1 V2000
  148.2842  145.1899  161.5626 C   0  0  0  0  0  0  0  0  0  0  0  0
  147.3915  145.7145  160.4299 C   0  0  0  0  0  0  0  0  0  0  0  0
  147.2893  144.7516  159.3403 N   0  0  0  0  0  0  0  0  0  0  0  0
  146.9327  143.4653  159.4782 C   0  0  0  0  0  0  0  0  0  0  0  0
  146.6687  142.9510  160.5666 O   0  0  0  0  0  0  0  0  0  0  0  0
  146.8797  142.6339  158.1865 C   0  0  1  0  0  0  0  0  0  0  0  0
  145.8753  143.2983  157.2304 C   0  0  0  0  0  0  0  0  0  0  0  0
  148.1850  142.6249  157.5305 N   0  0  0  0  0  0  0  0  0  0  0  0
  149.2122  141.8214  157.8507 C   0  0  0  0  0  0  0  0  0  0  0  0
  149.1639  140.9821  158.7497 O   0  0  0  0  0  0  0  0  0  0  0  0
  150.4894  141.9921  157.0288 C   0  0  0  0  0  0  0  0  0  0  0  0
  151.6636  141.4305  157.7902 C   0  0  0  0  0  0  0  0  0  0  0  0
  152.3158  140.1784  157.5853 C   0  0  0  0  0  0  0  0  0  0  0  0
  151.9944  139.1152  156.5737 C   0  0  0  0  0  0  0  0  0  0  0  0
  153.3140  139.9852  158.4311 N   0  0  0  0  0  0  0  0  0  0  0  0
  153.3372  141.0947  159.1964 N   0  0  0  0  0  0  0  0  0  0  0  0
  154.3307  141.2151  160.2455 C   0  0  0  0  0  0  0  0  0  0  0  0
  152.3478  141.9890  158.8367 C   0  0  0  0  0  0  0  0  0  0  0  0
  152.1593  143.2940  159.5406 C   0  0  0  0  0  0  0  0  0  0  0  0
  148.3231  145.9029  162.3865 H   0  0  0  0  0  0  0  0  0  0  0  0
  149.3061  145.0247  161.2199 H   0  0  0  0  0  0  0  0  0  0  0  0
  147.9060  144.2462  161.9573 H   0  0  0  0  0  0  0  0  0  0  0  0
  146.3879  145.9044  160.8112 H   0  0  0  0  0  0  0  0  0  0  0  0
  147.7685  146.6691  160.0591 H   0  0  0  0  0  0  0  0  0  0  0  0
  147.4905  145.0907  158.4106 H   0  0  0  0  0  0  0  0  0  0  0  0
  146.5609  141.6121  158.4025 H   0  0  0  0  0  0  0  0  0  0  0  0
  144.8760  143.3326  157.6663 H   0  0  0  0  0  0  0  0  0  0  0  0
  145.8019  142.7404  156.2962 H   0  0  0  0  0  0  0  0  0  0  0  0
  146.1654  144.3204  156.9804 H   0  0  0  0  0  0  0  0  0  0  0  0
  148.3203  143.2876  156.7810 H   0  0  0  0  0  0  0  0  0  0  0  0
  150.3606  141.4963  156.0663 H   0  0  0  0  0  0  0  0  0  0  0  0
  150.6302  143.0496  156.8023 H   0  0  0  0  0  0  0  0  0  0  0  0
  151.1269  138.5330  156.8845 H   0  0  0  0  0  0  0  0  0  0  0  0
  152.8267  138.4238  156.4371 H   0  0  0  0  0  0  0  0  0  0  0  0
  151.7695  139.5535  155.6015 H   0  0  0  0  0  0  0  0  0  0  0  0
  154.8783  142.1503  160.1271 H   0  0  0  0  0  0  0  0  0  0  0  0
  155.0383  140.3859  160.2036 H   0  0  0  0  0  0  0  0  0  0  0  0
  153.8378  141.2104  161.2181 H   0  0  0  0  0  0  0  0  0  0  0  0
  151.2515  143.7962  159.2061 H   0  0  0  0  0  0  0  0  0  0  0  0
  153.0009  143.9605  159.3514 H   0  0  0  0  0  0  0  0  0  0  0  0
  152.0780  143.1469  160.6178 H   0  0  0  0  0  0  0  0  0  0  0  0
  1  2  1  0  0  0  0
  1 20  1  0  0  0  0
  1 21  1  0  0  0  0
  1 22  1  0  0  0  0
  2  3  1  0  0  0  0
  2 23  1  0  0  0  0
  2 24  1  0  0  0  0
  3  4  1  0  0  0  0
  3 25  1  0  0  0  0
  4  5  2  0  0  0  0
  4  6  1  0  0  0  0
  6  7  1  0  0  0  0
  6  8  1  0  0  0  0
  6 26  1  0  0  0  0
  7 27  1  0  0  0  0
  7 28  1  0  0  0  0
  7 29  1  0  0  0  0
  8  9  1  0  0  0  0
  8 30  1  0  0  0  0
  9 10  2  0  0  0  0
  9 11  1  0  0  0  0
 11 12  1  0  0  0  0
 11 31  1  0  0  0  0
 11 32  1  0  0  0  0
 12 18  2  0  0  0  0
 12 13  1  0  0  0  0
 13 14  1  0  0  0  0
 13 15  2  0  0  0  0
 14 33  1  0  0  0  0
 14 34  1  0  0  0  0
 14 35  1  0  0  0  0
 15 16  1  0  0  0  0
 16 17  1  0  0  0  0
 16 18  1  0  0  0  0
 17 36  1  0  0  0  0
 17 37  1  0  0  0  0
 17 38  1  0  0  0  0
 18 19  1  0  0  0  0
 19 39  1  0  0  0  0
 19 40  1  0  0  0  0
 19 41  1  0  0  0  0
M  END
> <s_m_source_file>
AV-unprocessed.smi

> <i_m_source_file_index>
1573

> <i_lp_mmshare_version>
43012

> <i_f3d_flags>
0

> <s_epik_input>
W0NIM11bQ0gyXVtOSF1DKD1PKVtDQEhdKFtDSDNdKVtOSF1DKD1PKVtDSDJdYzFjKFtDSDNdKW5uKFtDSDNdKWMxW0NIM10=

> <s_epik_cmdline>
J2VwaWtfcHl0aG9uJywgJy1waCcsICc3LjAnLCAnLXRuJywgJzgnLCAnLW1hJywgJzIwMCcsICctbWV0YWxfYmluZGluZycsICctaW1hZScsICc8aW5maWxlLm1hZT4nLCAnLW9tYWUnLCAnPG91dGZpbGUubWFlPic=

> <r_lp_tautomer_probability>
1

> <r_epik_Ionization_Penalty>
0.00278414

> <r_epik_Ionization_Penalty_Charging>
0

> <r_epik_Ionization_Penalty_Neutral>
0.00278414

> <r_epik_State_Penalty>
0.00194489

> <r_epik_Charging_Adjusted_Penalty>
0.00194489

> <i_epik_Tot_Q>
0

> <i_epik_Tot_abs_Q>
0

> <r_epik_Metal_State_Penalty>
-0

> <b_epik_Metal_Only>
0

> <s_lp_Force_Field>
OPLS_2005

> <r_lp_Energy>
-3.15373

> <b_lp_Chiralities_Consistent>
1

> <s_lp_Variant>
AV-unprocessed.smi:1573-2

> <Gold.Version>
5.8.1

> <Gold.Id.Protein>
6NUR|6NUR_protein|mol2

> <Gold.PLP.Fitness>
45.9810

> <Gold.PLP.PLP>
-33.7088

> <Gold.PLP.part.hbond>
-6.7128

> <Gold.PLP.part.metal>
0.0000

> <Gold.PLP.part.buried>
-1.5326

> <Gold.PLP.part.nonpolar>
-25.3726

> <Gold.PLP.part.repulsive>
0.1626

> <Gold.PLP.ligand.clash>
0.0000

> <Gold.PLP.ligand.torsion>
0.8629

> <Gold.PLP.Chemscore.Hbond>
4.6578

> <Gold.PLP.Chemscore.CHOScore>
0.0000

> <Gold.PLP.Chemscore.Metal>
0.0000

> <Gold.Chemscore.Hbonds>
donor molecule, donor type, donor heavy atom, donor atom, acceptor molecule, acceptor atom, score
      L1  H     3    25       P1  8029  0.84
      L1  H     8    30       P1  8028  1.00
      P1  H  6933  6944       L1     5  0.77
      P1  H  6934  6946       L1     5  0.80
      P1  H  7997  8010       L1    15  0.94

> <Gold.PLP.Chemscore.Internal.Correction>
0.0245

> <Gold.Rescore>
     Score         DG    S(hbond)    S(metal)    S(lipo)     H(rot)  DE(clash)    DE(int)     intcor
     15.94     -18.76       2.95        0.00      71.10       1.91       0.63       2.20       ----

> <Gold.Chemscore.Fitness>
15.9382

> <Gold.Chemscore.DG>
-18.7639

> <Gold.Chemscore.ZeroCoef>
-5.4800

> <Gold.Chemscore.Hbond>
2.9505

> <Gold.Chemscore.Metal>
0.0000

> <Gold.Chemscore.Lipo>
71.0998

> <Gold.Chemscore.Internal_Hbond>
0.0000

> <Gold.Chemscore.DEClash>
0.6276

> <Gold.Chemscore.DEInternal>
2.1981

> <Gold.Chemscore.Rot>
1.9100

> <Gold.Chemscore.Internal.Correction>
   9.000000E+99

> <Gold.Chemscore.Hbonds>
donor molecule, donor type, donor heavy atom, donor atom, acceptor molecule, acceptor atom, score
      L1  H     3    25       P1  8029  0.82
      L1  H     8    30       P1  8028  0.26
      P1  H  6933  6944       L1     5  0.48
      P1  H  6934  6946       L1     5  0.70
      P1  H  7997  8010       L1    15  0.14

> <Gold.Chemscore.Hbond.Weighted>
-9.8548

> <Gold.Chemscore.Metal.Weighted>
-0.0000

> <Gold.Chemscore.Lipo.Weighted>
-8.3187

> <Gold.Chemscore.Internal_Hbond.Weighted>
0.0000

> <Gold.Chemscore.DEClash.Weighted>
0.6276

> <Gold.Chemscore.DEInternal.Weighted>
2.1981

> <Gold.Chemscore.Rot.Weighted>
4.8896

> <Gold.Chemscore.Internal.Correction.Weighted>
   9.000000E+99

> <Gold.Protein.RotatedTorsions>
[ 6907 6896 6895 6894 ] final  177.82 input  -60.11 | X-H torsion
[ 7974 7965 7964 7962 ] final -150.45 input  175.53 | X-H torsion
[ 8008 7997 7996 7995 ] final   20.36 input   59.86 | X-H torsion
[ 10167 10162 10161 10158 ] final  167.39 input  -65.29 | X-H torsion
[ 10718 10713 10712 10709 ] final -117.21 input   66.30 | X-H torsion
[ 10763 10752 10751 10750 ] final  -71.39 input  -60.55 | X-H torsion
[ 11005 11000 10999 10996 ] final  149.89 input  -57.11 | X-H torsion

> <Gold.Protein.ActiveResidues>
 VAL166  LYS551  ARG553  GLY616  TRP617  ASP618  TYR619  PRO620  LYS621  CYS622 
 ASP623  PHE694  ASN695  SER759  ASP760  ASP761  ALA762  ILE779  LEU786  VAL792 
 PHE793  MET794  SER795  GLU796  ALA797  LYS798  CYS799  TRP800  GLU811  SER814 

> <Gold.Protein.RotatedAtoms>
  151.6978  133.3311  159.3258 H   0  0  0  0  0  0  0  0  0  0  0  0  # atno 6907 bound_to 6896
  150.7749  134.6642  159.6365 H   0  0  0  0  0  0  0  0  0  0  0  0  # atno 6908 bound_to 6896
  152.3788  134.6625  160.0202 H   0  0  0  0  0  0  0  0  0  0  0  0  # atno 6909 bound_to 6896
  144.7907  140.4930  143.5775 H   0  0  0  0  0  0  0  0  0  0  0  0  # atno 7974 bound_to 7965
  154.9344  140.3044  155.5151 H   0  0  0  0  0  0  0  0  0  0  0  0  # atno 8008 bound_to 7997
  156.3001  140.2348  156.4344 H   0  0  0  0  0  0  0  0  0  0  0  0  # atno 8009 bound_to 7997
  154.8206  140.0423  157.1396 H   0  0  0  0  0  0  0  0  0  0  0  0  # atno 8010 bound_to 7997
  139.4944  144.3926  151.9500 H   0  0  0  0  0  0  0  0  0  0  0  0  # atno 10167 bound_to 10162
  156.1018  130.6178  150.9135 H   0  0  0  0  0  0  0  0  0  0  0  0  # atno 10718 bound_to 10713
  154.4311  135.5963  153.6069 H   0  0  0  0  0  0  0  0  0  0  0  0  # atno 10763 bound_to 10752
  152.9799  135.5975  154.3837 H   0  0  0  0  0  0  0  0  0  0  0  0  # atno 10764 bound_to 10752
  154.3675  135.2841  155.2263 H   0  0  0  0  0  0  0  0  0  0  0  0  # atno 10765 bound_to 10752
  140.1083  134.8940  157.1899 H   0  0  0  0  0  0  0  0  0  0  0  0  # atno 11005 bound_to 11000
  145.5802  139.1488  143.3239 LP  0  0  0  0  0  0  0  0  0  0  0  0  # atno 17320 bound_to 7965
  146.2158  140.5932  142.9039 LP  0  0  0  0  0  0  0  0  0  0  0  0  # atno 17321 bound_to 7965
  140.3364  144.3255  150.5976 LP  0  0  0  0  0  0  0  0  0  0  0  0  # atno 17342 bound_to 10162
  140.5602  143.2193  151.7778 LP  0  0  0  0  0  0  0  0  0  0  0  0  # atno 17343 bound_to 10162
  157.6189  131.0931  150.8659 LP  0  0  0  0  0  0  0  0  0  0  0  0  # atno 17370 bound_to 10713
  156.8785  130.5171  149.5292 LP  0  0  0  0  0  0  0  0  0  0  0  0  # atno 17371 bound_to 10713
  140.3125  134.3008  155.7263 LP  0  0  0  0  0  0  0  0  0  0  0  0  # atno 17394 bound_to 11000
  141.2124  133.7659  156.9797 LP  0  0  0  0  0  0  0  0  0  0  0  0  # atno 17395 bound_to 11000

$$$$
