#       Name:                AV-unprocessed.smi:2171
#       Creating user name   scv26
#       Creation time:       Fri Mar 27 12:02:42 2020


#       File generated by GOLD software.
#

@<TRIPOS>MOLECULE
AV-unprocessed.smi:2171
    42    44     1
SMALL
NO_CHARGES


@<TRIPOS>ATOM
      1 ****         0.9150   2.1873   0.3112 O.2            1 S1                 0.0000
      2 ****         1.5631   1.1707   0.0646 C.2            1 S1                 0.0000
      3 ****         3.0890   1.2358  -0.0153 C.3            1 S1                 0.0000
      4 ****         3.5522   1.0431  -1.3780 N.pl3          1 S1                 0.0000
      5 ****         3.6573   1.9780  -2.3867 C.2            1 S1                 0.0000
      6 ****         4.1303   1.3311  -3.4922 C.2            1 S1                 0.0000
      7 ****         4.2871  -0.0141  -3.0560 C.2            1 S1                 0.0000
      8 ****         3.9387  -0.1843  -1.7908 N.2            1 S1                 0.0000
      9 ****         1.0043  -0.0324  -0.1408 N.am           1 S1                 0.0000
     10 ****        -0.4281  -0.3123  -0.1380 C.3            1 S1                 0.0000
     11 ****        -0.8191  -1.4250  -1.1211 C.3            1 S1                 0.0000
     12 ****        -1.9157  -2.2382  -0.4048 C.3            1 S1                 0.0000
     13 ****        -2.1903  -1.5467   0.8756 N.4            1 S1                 1.0000
     14 ****        -3.3796  -0.6550   0.7846 C.3            1 S1                 0.0000
     15 ****        -3.5292   0.2408   2.0212 C.3            1 S1                 0.0000
     16 ****        -2.2657   1.0813   2.2221 C.3            1 S1                 0.0000
     17 ****        -1.0571   0.1522   2.3727 C.3            1 S1                 0.0000
     18 ****        -0.9206  -0.8566   1.2096 C.3            1 S1                 0.0000
     19 ****         3.4418   2.2047   0.3404 H              1 S1                 0.0000
     20 ****         3.5295   0.4761   0.6323 H              1 S1                 0.0000
     21 ****         3.3877   3.0128  -2.2352 H              1 S1                 0.0000
     22 ****         4.3337   1.7545  -4.4645 H              1 S1                 0.0000
     23 ****         4.6401  -0.8664  -3.6176 H              1 S1                 0.0000
     24 ****         1.6217  -0.8069  -0.3398 H              1 S1                 0.0000
     25 ****        -0.9895   0.5856  -0.4022 H              1 S1                 0.0000
     26 ****        -1.1768  -1.0055  -2.0621 H              1 S1                 0.0000
     27 ****         0.0284  -2.0719  -1.3538 H              1 S1                 0.0000
     28 ****        -2.8114  -2.3596  -1.0158 H              1 S1                 0.0000
     29 ****        -1.5414  -3.2377  -0.1802 H              1 S1                 0.0000
     30 ****        -3.3088  -0.0294  -0.1066 H              1 S1                 0.0000
     31 ****        -4.2734  -1.2680   0.6628 H              1 S1                 0.0000
     32 ****        -4.3951   0.8934   1.9048 H              1 S1                 0.0000
     33 ****        -3.7165  -0.3706   2.9049 H              1 S1                 0.0000
     34 ****        -2.1218   1.7551   1.3767 H              1 S1                 0.0000
     35 ****        -2.3676   1.7097   3.1074 H              1 S1                 0.0000
     36 ****        -0.1437   0.7364   2.4830 H              1 S1                 0.0000
     37 ****        -1.1654  -0.4045   3.3044 H              1 S1                 0.0000
     38 ****        -0.2206  -1.6310   1.5306 H              1 S1                 0.0000
     39 ****        -2.3843  -2.2320   1.5919 H              1 S1                 0.0000
     40 ****         1.3861   3.0568   0.4595 LP             1 S1                 0.0000
     41 ****        -0.0827   2.1438   0.3633 LP             1 S1                 0.0000
     42 ****         3.9573  -1.0312  -1.2593 LP             1 S1                 0.0000
@<TRIPOS>BOND
    1    1    2 2     
    2    2    3 1     
    3    2    9 am    
    4    3    4 1     
    5    3   19 1     
    6    3   20 1     
    7    4    8 1     
    8    4    5 1     
    9    5    6 2     
   10    5   21 1     
   11    6    7 1     
   12    6   22 1     
   13    7    8 2     
   14    7   23 1     
   15    9   10 1     
   16    9   24 1     
   17   10   18 1     
   18   10   11 1     
   19   10   25 1     
   20   11   12 1     
   21   11   26 1     
   22   11   27 1     
   23   12   13 1     
   24   12   28 1     
   25   12   29 1     
   26   13   18 1     
   27   13   14 1     
   28   13   39 1     
   29   14   15 1     
   30   14   30 1     
   31   14   31 1     
   32   15   16 1     
   33   15   32 1     
   34   15   33 1     
   35   16   17 1     
   36   16   34 1     
   37   16   35 1     
   38   17   18 1     
   39   17   36 1     
   40   17   37 1     
   41   18   38 1     
   42    1   40 1     
   43    1   41 1     
   44    8   42 1     
@<TRIPOS>SUBSTRUCTURE
      1 S1             1
@<TRIPOS>SET
LONE_PAIRS      STATIC     ATOMS    <user>   **** ""
3 40 41 42
DONOR_HYDROGENS      STATIC     ATOMS    <user>   **** ""
2 24 39
ATOM$BLUE        STATIC     ATOMS    COLORGROUP SYSTEM
3 40 41 42
ATOM$RED        STATIC     ATOMS    COLORGROUP SYSTEM
2 24 39
