AV-unprocessed.smi:1251|AV-procd|sdf|5260|dock1
  -GOLD-   22720 4373D 1   1.00000     0.00000
 Structure written by MMmdl.
 38 39  0  0  0  0  0  0  0  0  2 V2000
  152.0192  142.3286  159.1378 C   0  0  0  0  0  0  0  0  0  0  0  0
  151.5439  142.1166  157.6963 C   0  0  0  0  0  0  0  0  0  0  0  0
  150.2170  141.3485  157.6204 C   0  0  0  0  0  0  0  0  0  0  0  0
  150.3078  139.9857  158.2216 C   0  0  0  0  0  0  0  0  0  0  0  0
  151.4397  139.4933  158.7312 N   0  0  0  0  0  0  0  0  0  0  0  0
  151.2799  138.1998  159.2062 N   0  0  0  0  0  0  0  0  0  0  0  0
  150.0396  137.7236  159.0284 C   0  0  0  0  0  0  0  0  0  0  0  0
  149.6804  136.4908  159.4232 N   0  5  0  0  0  0  0  0  0  0  0  0
  148.6481  136.3287  160.2819 C   0  0  0  0  0  0  0  0  0  0  0  0
  148.1334  137.2057  160.9792 O   0  0  0  0  0  0  0  0  0  0  0  0
  148.1869  135.0708  160.3352 N   0  0  0  0  0  0  0  0  0  0  0  0
  147.0810  134.5859  161.1593 C   0  0  2  0  0  0  0  0  0  0  0  0
  147.4377  134.7392  162.6468 C   0  0  0  0  0  0  0  0  0  0  0  0
  146.7605  133.1243  160.7913 C   0  0  2  0  0  0  0  0  0  0  0  0
  145.6823  132.4708  161.6586 C   0  0  0  0  0  0  0  0  0  0  0  0
  146.0048  131.0037  161.4932 C   0  0  0  0  0  0  0  0  0  0  0  0
  147.5303  131.0197  161.4768 C   0  0  0  0  0  0  0  0  0  0  0  0
  147.9084  132.2959  160.9661 O   0  0  0  0  0  0  0  0  0  0  0  0
  148.9480  138.8755  158.2587 S   0  0  0  0  0  0  0  0  0  0  0  0
  152.9612  142.8769  159.1593 H   0  0  0  0  0  0  0  0  0  0  0  0
  152.1767  141.3757  159.6439 H   0  0  0  0  0  0  0  0  0  0  0  0
  151.2890  142.8982  159.7133 H   0  0  0  0  0  0  0  0  0  0  0  0
  151.4342  143.0854  157.2076 H   0  0  0  0  0  0  0  0  0  0  0  0
  152.3114  141.5760  157.1411 H   0  0  0  0  0  0  0  0  0  0  0  0
  149.4310  141.9054  158.1326 H   0  0  0  0  0  0  0  0  0  0  0  0
  149.9010  141.2481  156.5816 H   0  0  0  0  0  0  0  0  0  0  0  0
  148.6425  134.3905  159.7450 H   0  0  0  0  0  0  0  0  0  0  0  0
  146.1907  135.1831  160.9542 H   0  0  0  0  0  0  0  0  0  0  0  0
  146.6168  134.4111  163.2847 H   0  0  0  0  0  0  0  0  0  0  0  0
  147.6493  135.7794  162.8959 H   0  0  0  0  0  0  0  0  0  0  0  0
  148.3175  134.1492  162.9060 H   0  0  0  0  0  0  0  0  0  0  0  0
  146.4602  133.0570  159.7441 H   0  0  0  0  0  0  0  0  0  0  0  0
  145.7993  132.7630  162.7034 H   0  0  0  0  0  0  0  0  0  0  0  0
  144.6694  132.7236  161.3439 H   0  0  0  0  0  0  0  0  0  0  0  0
  145.5927  130.3802  162.2868 H   0  0  0  0  0  0  0  0  0  0  0  0
  145.6209  130.6424  160.5382 H   0  0  0  0  0  0  0  0  0  0  0  0
  147.9235  130.9236  162.4895 H   0  0  0  0  0  0  0  0  0  0  0  0
  147.9457  130.2116  160.8743 H   0  0  0  0  0  0  0  0  0  0  0  0
  1  2  1  0  0  0  0
  1 20  1  0  0  0  0
  1 21  1  0  0  0  0
  1 22  1  0  0  0  0
  2  3  1  0  0  0  0
  2 23  1  0  0  0  0
  2 24  1  0  0  0  0
  3  4  1  0  0  0  0
  3 25  1  0  0  0  0
  3 26  1  0  0  0  0
  4 19  1  0  0  0  0
  4  5  2  0  0  0  0
  5  6  1  0  0  0  0
  6  7  2  0  0  0  0
  7  8  1  0  0  0  0
  7 19  1  0  0  0  0
  8  9  1  0  0  0  0
  9 10  2  0  0  0  0
  9 11  1  0  0  0  0
 11 12  1  0  0  0  0
 11 27  1  0  0  0  0
 12 13  1  0  0  0  0
 12 14  1  0  0  0  0
 12 28  1  0  0  0  0
 13 29  1  0  0  0  0
 13 30  1  0  0  0  0
 13 31  1  0  0  0  0
 14 18  1  0  0  0  0
 14 15  1  0  0  0  0
 14 32  1  0  0  0  0
 15 16  1  0  0  0  0
 15 33  1  0  0  0  0
 15 34  1  0  0  0  0
 16 17  1  0  0  0  0
 16 35  1  0  0  0  0
 16 36  1  0  0  0  0
 17 18  1  0  0  0  0
 17 37  1  0  0  0  0
 17 38  1  0  0  0  0
M  CHG  1   8  -1
M  END
> <s_m_source_file>
AV-unprocessed.smi

> <i_m_source_file_index>
1251

> <i_lp_mmshare_version>
43012

> <i_f3d_flags>
0

> <s_epik_input>
W0NIM11bQ0gyXVtDSDJdYzFubmMoczEpW05IXUMoPU8pW05IXVtDQEhdKFtDSDNdKVtDQEBIXTJbQ0gyXVtDSDJdW0NIMl1PMg==

> <s_epik_cmdline>
J2VwaWtfcHl0aG9uJywgJy1waCcsICc3LjAnLCAnLXRuJywgJzgnLCAnLW1hJywgJzIwMCcsICctbWV0YWxfYmluZGluZycsICctaW1hZScsICc8aW5maWxlLm1hZT4nLCAnLW9tYWUnLCAnPG91dGZpbGUubWFlPic=

> <r_lp_tautomer_probability>
1

> <r_epik_Ionization_Penalty>
4.22551

> <r_epik_Ionization_Penalty_Charging>
4.21437

> <r_epik_Ionization_Penalty_Neutral>
0.0111434

> <r_epik_State_Penalty>
4.21389

> <r_epik_Charging_Adjusted_Penalty>
8.42826

> <i_epik_Tot_Q>
-1

> <i_epik_Tot_abs_Q>
1

> <r_epik_Metal_State_Penalty>
0.69377

> <b_epik_Metal_Only>
1

> <s_lp_Force_Field>
OPLS_2005

> <r_lp_Energy>
11.2841

> <b_lp_Chiralities_Consistent>
1

> <s_lp_Variant>
AV-unprocessed.smi:1251-5

> <Gold.Version>
5.8.1

> <Gold.Id.Protein>
6NUR|6NUR_protein|mol2

> <Gold.PLP.Fitness>
37.9089

> <Gold.PLP.PLP>
-27.9679

> <Gold.PLP.part.hbond>
-3.0000

> <Gold.PLP.part.metal>
0.0000

> <Gold.PLP.part.buried>
-4.9936

> <Gold.PLP.part.nonpolar>
-20.0350

> <Gold.PLP.part.repulsive>
0.0952

> <Gold.PLP.ligand.clash>
0.0000

> <Gold.PLP.ligand.torsion>
0.6299

> <Gold.PLP.Chemscore.Hbond>
3.6640

> <Gold.PLP.Chemscore.CHOScore>
0.0000

> <Gold.PLP.Chemscore.Metal>
0.0000

> <Gold.Chemscore.Hbonds>
donor molecule, donor type, donor heavy atom, donor atom, acceptor molecule, acceptor atom, score
      P1  H  6896  6907       L1     8  2.00
      P1  H  6931  6943       L1    10  0.94
      P1  H  6934  6947       L1    10  0.66

> <Gold.PLP.Chemscore.Internal.Correction>
0.2088

> <Gold.Rescore>
     Score         DG    S(hbond)    S(metal)    S(lipo)     H(rot)  DE(clash)    DE(int)     intcor
     16.83     -17.64       2.52        0.00      65.71       1.55       0.07       0.74       ----

> <Gold.Chemscore.Fitness>
16.8335

> <Gold.Chemscore.DG>
-17.6388

> <Gold.Chemscore.ZeroCoef>
-5.4800

> <Gold.Chemscore.Hbond>
2.5243

> <Gold.Chemscore.Metal>
0.0000

> <Gold.Chemscore.Lipo>
65.7051

> <Gold.Chemscore.Internal_Hbond>
0.0000

> <Gold.Chemscore.DEClash>
0.0695

> <Gold.Chemscore.DEInternal>
0.7358

> <Gold.Chemscore.Rot>
1.5469

> <Gold.Chemscore.Internal.Correction>
   9.000000E+99

> <Gold.Chemscore.Hbonds>
donor molecule, donor type, donor heavy atom, donor atom, acceptor molecule, acceptor atom, score
      P1  H  6896  6907       L1     8  0.42
      P1  H  6931  6943       L1    10  0.90
      P1  H  6934  6947       L1    10  0.60

> <Gold.Chemscore.Hbond.Weighted>
-8.4313

> <Gold.Chemscore.Metal.Weighted>
-0.0000

> <Gold.Chemscore.Lipo.Weighted>
-7.6875

> <Gold.Chemscore.Internal_Hbond.Weighted>
0.0000

> <Gold.Chemscore.DEClash.Weighted>
0.0695

> <Gold.Chemscore.DEInternal.Weighted>
0.7358

> <Gold.Chemscore.Rot.Weighted>
3.9600

> <Gold.Chemscore.Internal.Correction.Weighted>
   9.000000E+99

> <Gold.Protein.RotatedTorsions>
[ 6907 6896 6895 6894 ] final  -54.82 input  -60.11 | X-H torsion
[ 7974 7965 7964 7962 ] final  -83.48 input  175.53 | X-H torsion
[ 8008 7997 7996 7995 ] final   21.79 input   59.86 | X-H torsion
[ 10167 10162 10161 10158 ] final -129.69 input  -65.29 | X-H torsion
[ 10718 10713 10712 10709 ] final  -22.25 input   66.30 | X-H torsion
[ 10763 10752 10751 10750 ] final -137.85 input  -60.55 | X-H torsion
[ 11005 11000 10999 10996 ] final -142.70 input  -57.11 | X-H torsion

> <Gold.Protein.ActiveResidues>
 VAL166  LYS551  ARG553  GLY616  TRP617  ASP618  TYR619  PRO620  LYS621  CYS622 
 ASP623  PHE694  ASN695  SER759  ASP760  ASP761  ALA762  ILE779  LEU786  VAL792 
 PHE793  MET794  SER795  GLU796  ALA797  LYS798  CYS799  TRP800  GLU811  SER814 

> <Gold.Protein.RotatedAtoms>
  150.8305  134.7555  159.6848 H   0  0  0  0  0  0  0  0  0  0  0  0  # atno 6907 bound_to 6896
  152.4410  134.5588  159.9898 H   0  0  0  0  0  0  0  0  0  0  0  0  # atno 6908 bound_to 6896
  151.5750  133.3347  159.3033 H   0  0  0  0  0  0  0  0  0  0  0  0  # atno 6909 bound_to 6896
  145.5194  140.9533  143.1664 H   0  0  0  0  0  0  0  0  0  0  0  0  # atno 7974 bound_to 7965
  154.9558  140.3071  155.5053 H   0  0  0  0  0  0  0  0  0  0  0  0  # atno 8008 bound_to 7997
  156.2982  140.2310  156.4578 H   0  0  0  0  0  0  0  0  0  0  0  0  # atno 8009 bound_to 7997
  154.8011  140.0434  157.1262 H   0  0  0  0  0  0  0  0  0  0  0  0  # atno 8010 bound_to 7997
  139.9371  143.6205  152.2514 H   0  0  0  0  0  0  0  0  0  0  0  0  # atno 10167 bound_to 10162
  156.5072  130.4601  149.6668 H   0  0  0  0  0  0  0  0  0  0  0  0  # atno 10718 bound_to 10713
  154.8651  135.3629  154.5290 H   0  0  0  0  0  0  0  0  0  0  0  0  # atno 10763 bound_to 10752
  153.5917  135.7015  153.5425 H   0  0  0  0  0  0  0  0  0  0  0  0  # atno 10764 bound_to 10752
  153.3368  135.4109  155.1501 H   0  0  0  0  0  0  0  0  0  0  0  0  # atno 10765 bound_to 10752
  140.8199  134.2644  157.4905 H   0  0  0  0  0  0  0  0  0  0  0  0  # atno 11005 bound_to 11000
  144.7684  139.6791  143.7205 LP  0  0  0  0  0  0  0  0  0  0  0  0  # atno 17320 bound_to 7965
  146.2116  139.5476  142.9677 LP  0  0  0  0  0  0  0  0  0  0  0  0  # atno 17321 bound_to 7965
  139.6734  144.7660  151.1740 LP  0  0  0  0  0  0  0  0  0  0  0  0  # atno 17342 bound_to 10162
  140.7621  143.5830  150.8874 LP  0  0  0  0  0  0  0  0  0  0  0  0  # atno 17343 bound_to 10162
  156.3276  130.7314  151.2237 LP  0  0  0  0  0  0  0  0  0  0  0  0  # atno 17370 bound_to 10713
  157.7455  131.0439  150.4765 LP  0  0  0  0  0  0  0  0  0  0  0  0  # atno 17371 bound_to 10713
  139.8709  134.9529  156.4130 LP  0  0  0  0  0  0  0  0  0  0  0  0  # atno 17394 bound_to 11000
  140.9110  133.7712  155.9792 LP  0  0  0  0  0  0  0  0  0  0  0  0  # atno 17395 bound_to 11000

$$$$
