AV-unprocessed.smi:2078|AV-procd|sdf|8473|dock7
  -GOLD-   2272011173D 1   1.00000     0.00000
 Structure written by MMmdl.
 41 42  0  0  0  0  0  0  0  0  3 V2000
  153.1320  142.3640  161.1231 C   0  0  0  0  0  0  0  0  0  0  0  0
  152.9036  141.5331  159.9072 C   0  0  0  0  0  0  0  0  0  0  0  0
  151.9215  141.5279  158.9571 C   0  0  0  0  0  0  0  0  0  0  0  0
  152.3228  140.4803  158.0864 C   0  0  0  0  0  0  0  0  0  0  0  0
  151.5564  140.1604  156.9350 N   0  0  0  0  0  0  0  0  0  0  0  0
  151.9746  139.6343  155.7703 C   0  0  0  0  0  0  0  0  0  0  0  0
  153.1434  139.2498  155.6434 O   0  0  0  0  0  0  0  0  0  0  0  0
  150.9903  139.6042  154.8294 N   0  5  0  0  0  0  0  0  0  0  0  0
  150.5424  138.4013  154.1200 C   0  0  0  0  0  0  0  0  0  0  0  0
  149.2023  137.8968  154.7000 C   0  0  0  0  0  0  0  0  0  0  0  0
  149.0597  136.4194  154.5900 N   0  3  1  0  0  0  0  0  0  0  0  0
  150.2753  135.6621  154.9903 C   0  0  0  0  0  0  0  0  0  0  0  0
  150.1266  134.1724  154.6461 C   0  0  0  0  0  0  0  0  0  0  0  0
  148.8658  133.5810  155.2938 C   0  0  0  0  0  0  0  0  0  0  0  0
  147.6123  134.4033  154.9383 C   0  0  2  0  0  0  0  0  0  0  0  0
  147.1423  134.1770  153.4901 C   0  0  0  0  0  0  0  0  0  0  0  0
  147.8366  135.8972  155.2531 C   0  0  0  0  0  0  0  0  0  0  0  0
  153.4535  139.9038  158.4668 N   0  0  0  0  0  0  0  0  0  0  0  0
  153.8303  140.5744  159.6365 O   0  0  0  0  0  0  0  0  0  0  0  0
  153.7451  143.2333  160.8854 H   0  0  0  0  0  0  0  0  0  0  0  0
  153.6420  141.7909  161.8979 H   0  0  0  0  0  0  0  0  0  0  0  0
  152.1864  142.7185  161.5335 H   0  0  0  0  0  0  0  0  0  0  0  0
  151.0555  142.1699  158.8968 H   0  0  0  0  0  0  0  0  0  0  0  0
  150.5763  140.3966  156.9843 H   0  0  0  0  0  0  0  0  0  0  0  0
  150.4299  138.5665  153.0477 H   0  0  0  0  0  0  0  0  0  0  0  0
  151.2785  137.6029  154.2106 H   0  0  0  0  0  0  0  0  0  0  0  0
  149.1015  138.2033  155.7420 H   0  0  0  0  0  0  0  0  0  0  0  0
  148.3913  138.3968  154.1682 H   0  0  0  0  0  0  0  0  0  0  0  0
  151.1511  136.0614  154.4776 H   0  0  0  0  0  0  0  0  0  0  0  0
  150.4493  135.7879  156.0599 H   0  0  0  0  0  0  0  0  0  0  0  0
  150.0844  134.0493  153.5632 H   0  0  0  0  0  0  0  0  0  0  0  0
  151.0075  133.6244  154.9811 H   0  0  0  0  0  0  0  0  0  0  0  0
  148.7394  132.5398  154.9958 H   0  0  0  0  0  0  0  0  0  0  0  0
  148.9939  133.5746  156.3770 H   0  0  0  0  0  0  0  0  0  0  0  0
  146.8020  134.0543  155.5796 H   0  0  0  0  0  0  0  0  0  0  0  0
  147.8901  134.4927  152.7639 H   0  0  0  0  0  0  0  0  0  0  0  0
  146.2291  134.7352  153.2823 H   0  0  0  0  0  0  0  0  0  0  0  0
  146.9306  133.1233  153.3075 H   0  0  0  0  0  0  0  0  0  0  0  0
  147.9262  136.0444  156.3304 H   0  0  0  0  0  0  0  0  0  0  0  0
  146.9661  136.4695  154.9293 H   0  0  0  0  0  0  0  0  0  0  0  0
  148.9265  136.2488  153.6022 H   0  0  0  0  0  0  0  0  0  0  0  0
  1  2  1  0  0  0  0
  1 20  1  0  0  0  0
  1 21  1  0  0  0  0
  1 22  1  0  0  0  0
  2 19  1  0  0  0  0
  2  3  2  0  0  0  0
  3  4  1  0  0  0  0
  3 23  1  0  0  0  0
  4  5  1  0  0  0  0
  4 18  2  0  0  0  0
  5  6  1  0  0  0  0
  5 24  1  0  0  0  0
  6  7  2  0  0  0  0
  6  8  1  0  0  0  0
  8  9  1  0  0  0  0
  9 10  1  0  0  0  0
  9 25  1  0  0  0  0
  9 26  1  0  0  0  0
 10 11  1  0  0  0  0
 10 27  1  0  0  0  0
 10 28  1  0  0  0  0
 11 17  1  0  0  0  0
 11 12  1  0  0  0  0
 11 41  1  0  0  0  0
 12 13  1  0  0  0  0
 12 29  1  0  0  0  0
 12 30  1  0  0  0  0
 13 14  1  0  0  0  0
 13 31  1  0  0  0  0
 13 32  1  0  0  0  0
 14 15  1  0  0  0  0
 14 33  1  0  0  0  0
 14 34  1  0  0  0  0
 15 16  1  0  0  0  0
 15 17  1  0  0  0  0
 15 35  1  0  0  0  0
 16 36  1  0  0  0  0
 16 37  1  0  0  0  0
 16 38  1  0  0  0  0
 17 39  1  0  0  0  0
 17 40  1  0  0  0  0
 18 19  1  0  0  0  0
M  CHG  1   8  -1
M  CHG  1  11   1
M  END
> <s_m_source_file>
AV-unprocessed.smi

> <i_m_source_file_index>
2078

> <i_lp_mmshare_version>
43012

> <i_f3d_flags>
0

> <s_epik_input>
W0NIM11jMVtjSF1jKG5vMSlbTkhdQyg9TylbTkhdW0NIMl1bQ0gyXU4yW0NIMl1bQ0gyXVtDSDJdW0NAQEhdKFtDSDNdKVtDSDJdMg==

> <s_epik_cmdline>
J2VwaWtfcHl0aG9uJywgJy1waCcsICc3LjAnLCAnLXRuJywgJzgnLCAnLW1hJywgJzIwMCcsICctbWV0YWxfYmluZGluZycsICctaW1hZScsICc8aW5maWxlLm1hZT4nLCAnLW9tYWUnLCAnPG91dGZpbGUubWFlPic=

> <r_epik_Ionization_Penalty>
6.76934

> <r_epik_Ionization_Penalty_Charging>
6.76934

> <r_epik_Ionization_Penalty_Neutral>
5.77849e-06

> <r_epik_State_Penalty>
6.79457

> <r_epik_Charging_Adjusted_Penalty>
13.5639

> <i_epik_Tot_Q>
0

> <i_epik_Tot_abs_Q>
2

> <r_epik_Metal_State_Penalty>
2.72837

> <b_epik_Metal_Only>
1

> <s_lp_Force_Field>
OPLS_2005

> <r_lp_Energy>
11.5184

> <b_lp_Chiralities_Consistent>
1

> <s_lp_Variant>
AV-unprocessed.smi:2078-11

> <Gold.Version>
5.8.1

> <Gold.Id.Protein>
6NUR|6NUR_protein|mol2

> <Gold.PLP.Fitness>
41.9672

> <Gold.PLP.PLP>
-30.7867

> <Gold.PLP.part.hbond>
-4.0000

> <Gold.PLP.part.metal>
0.0000

> <Gold.PLP.part.buried>
-4.4254

> <Gold.PLP.part.nonpolar>
-22.2081

> <Gold.PLP.part.repulsive>
0.1572

> <Gold.PLP.ligand.clash>
0.0000

> <Gold.PLP.ligand.torsion>
1.0506

> <Gold.PLP.Chemscore.Hbond>
4.3920

> <Gold.PLP.Chemscore.CHOScore>
0.0000

> <Gold.PLP.Chemscore.Metal>
0.0000

> <Gold.Chemscore.Hbonds>
donor molecule, donor type, donor heavy atom, donor atom, acceptor molecule, acceptor atom, score
      L1  H    11    41       P1  7948  2.00
      P1  H  7989  7998       L1     8  1.00
      P1  H  7997  8009       L1    18  0.86
      P1  H  7997  8010       L1     7  0.53

> <Gold.PLP.Chemscore.Internal.Correction>
0.1057

> <Gold.Rescore>
     Score         DG    S(hbond)    S(metal)    S(lipo)     H(rot)  DE(clash)    DE(int)     intcor
     15.51     -17.90       2.53        0.00      67.63       1.54       0.07       2.32       ----

> <Gold.Chemscore.Fitness>
15.5121

> <Gold.Chemscore.DG>
-17.9017

> <Gold.Chemscore.ZeroCoef>
-5.4800

> <Gold.Chemscore.Hbond>
2.5310

> <Gold.Chemscore.Metal>
0.0000

> <Gold.Chemscore.Lipo>
67.6320

> <Gold.Chemscore.Internal_Hbond>
0.0000

> <Gold.Chemscore.DEClash>
0.0696

> <Gold.Chemscore.DEInternal>
2.3200

> <Gold.Chemscore.Rot>
1.5409

> <Gold.Chemscore.Internal.Correction>
   9.000000E+99

> <Gold.Chemscore.Hbonds>
donor molecule, donor type, donor heavy atom, donor atom, acceptor molecule, acceptor atom, score
      L1  H    11    41       P1  7948  1.00
      P1  H  7989  7998       L1     8  0.24
      P1  H  7997  8009       L1    18  0.44
      P1  H  7997  8010       L1     7  0.52

> <Gold.Chemscore.Hbond.Weighted>
-8.4534

> <Gold.Chemscore.Metal.Weighted>
-0.0000

> <Gold.Chemscore.Lipo.Weighted>
-7.9129

> <Gold.Chemscore.Internal_Hbond.Weighted>
0.0000

> <Gold.Chemscore.DEClash.Weighted>
0.0696

> <Gold.Chemscore.DEInternal.Weighted>
2.3200

> <Gold.Chemscore.Rot.Weighted>
3.9446

> <Gold.Chemscore.Internal.Correction.Weighted>
   9.000000E+99

> <Gold.Protein.RotatedTorsions>
[ 6907 6896 6895 6894 ] final  151.21 input  -60.11 | X-H torsion
[ 7974 7965 7964 7962 ] final  179.70 input  175.53 | X-H torsion
[ 8008 7997 7996 7995 ] final  128.65 input   59.86 | X-H torsion
[ 10167 10162 10161 10158 ] final   99.32 input  -65.29 | X-H torsion
[ 10718 10713 10712 10709 ] final -137.86 input   66.30 | X-H torsion
[ 10763 10752 10751 10750 ] final  -51.31 input  -60.55 | X-H torsion
[ 11005 11000 10999 10996 ] final   31.97 input  -57.11 | X-H torsion

> <Gold.Protein.ActiveResidues>
 VAL166  LYS551  ARG553  GLY616  TRP617  ASP618  TYR619  PRO620  LYS621  CYS622 
 ASP623  PHE694  ASN695  SER759  ASP760  ASP761  ALA762  ILE779  LEU786  VAL792 
 PHE793  MET794  SER795  GLU796  ALA797  LYS798  CYS799  TRP800  GLU811  SER814 

> <Gold.Protein.RotatedAtoms>
  152.1038  133.4264  159.4598 H   0  0  0  0  0  0  0  0  0  0  0  0  # atno 6907 bound_to 6896
  150.6865  134.2729  159.4605 H   0  0  0  0  0  0  0  0  0  0  0  0  # atno 6908 bound_to 6896
  152.0592  134.9605  160.0625 H   0  0  0  0  0  0  0  0  0  0  0  0  # atno 6909 bound_to 6896
  144.7143  140.0587  143.6433 H   0  0  0  0  0  0  0  0  0  0  0  0  # atno 7974 bound_to 7965
  156.2919  140.2639  156.2471 H   0  0  0  0  0  0  0  0  0  0  0  0  # atno 8008 bound_to 7997
  154.9920  140.0388  157.2342 H   0  0  0  0  0  0  0  0  0  0  0  0  # atno 8009 bound_to 7997
  154.7678  140.2772  155.6167 H   0  0  0  0  0  0  0  0  0  0  0  0  # atno 8010 bound_to 7997
  139.7628  144.6949  151.0268 H   0  0  0  0  0  0  0  0  0  0  0  0  # atno 10167 bound_to 10162
  156.2928  130.7384  151.1415 H   0  0  0  0  0  0  0  0  0  0  0  0  # atno 10718 bound_to 10713
  154.1245  135.6529  153.4909 H   0  0  0  0  0  0  0  0  0  0  0  0  # atno 10763 bound_to 10752
  153.0215  135.5278  154.7064 H   0  0  0  0  0  0  0  0  0  0  0  0  # atno 10764 bound_to 10752
  154.6281  135.2973  155.0219 H   0  0  0  0  0  0  0  0  0  0  0  0  # atno 10765 bound_to 10752
  140.2783  134.3002  155.7808 H   0  0  0  0  0  0  0  0  0  0  0  0  # atno 11005 bound_to 11000
  145.9882  139.2994  143.1000 LP  0  0  0  0  0  0  0  0  0  0  0  0  # atno 17320 bound_to 7965
  145.8933  140.9290  143.0541 LP  0  0  0  0  0  0  0  0  0  0  0  0  # atno 17321 bound_to 7965
  140.7808  143.4677  151.0189 LP  0  0  0  0  0  0  0  0  0  0  0  0  # atno 17342 bound_to 10162
  139.8363  143.7623  152.3180 LP  0  0  0  0  0  0  0  0  0  0  0  0  # atno 17343 bound_to 10162
  157.7347  131.0579  150.5510 LP  0  0  0  0  0  0  0  0  0  0  0  0  # atno 17370 bound_to 10713
  156.5628  130.4260  149.6055 LP  0  0  0  0  0  0  0  0  0  0  0  0  # atno 17371 bound_to 10713
  141.2167  133.7509  156.9441 LP  0  0  0  0  0  0  0  0  0  0  0  0  # atno 17394 bound_to 11000
  140.1308  134.9357  157.2334 LP  0  0  0  0  0  0  0  0  0  0  0  0  # atno 17395 bound_to 11000

$$$$
