AV-unprocessed.smi:249|AV-procd|sdf|1903|dock6
  -GOLD-   2262020583D 1   1.00000     0.00000
 Structure written by MMmdl.
 64 67  0  0  0  0  0  0  0  0  2 V2000
  151.1548  144.8430  159.3687 C   0  0  0  0  0  0  0  0  0  0  0  0
  150.1252  143.7095  159.2468 C   0  0  0  0  0  0  0  0  0  0  0  0
  150.0026  143.1754  157.8580 N   0  3  1  0  0  0  0  0  0  0  0  0
  151.3063  142.8729  157.2027 C   0  0  0  0  0  0  0  0  0  0  0  0
  151.9651  141.6113  157.7917 C   0  0  0  0  0  0  0  0  0  0  0  0
  151.0212  140.3936  157.6875 C   0  0  1  0  0  0  0  0  0  0  0  0
  151.6042  139.1473  158.2017 N   0  0  0  0  0  0  0  0  0  0  0  0
  153.0210  138.9131  157.9474 C   0  0  0  0  0  0  0  0  0  0  0  0
  150.8428  138.0289  158.1404 C   0  0  0  0  0  0  0  0  0  0  0  0
  150.2091  137.6411  159.2754 N   0  0  0  0  0  0  0  0  0  0  0  0
  149.4464  136.5437  159.2760 C   0  0  0  0  0  0  0  0  0  0  0  0
  149.1910  135.7041  158.2705 N   0  0  0  0  0  0  0  0  0  0  0  0
  149.8347  136.0855  157.1303 C   0  0  0  0  0  0  0  0  0  0  0  0
  150.6725  137.2256  156.9766 C   0  0  0  0  0  0  0  0  0  0  0  0
  151.1386  137.2964  155.6688 N   0  0  0  0  0  0  0  0  0  0  0  0
  150.6092  136.2570  155.0840 C   0  0  0  0  0  0  0  0  0  0  0  0
  149.8274  135.4645  155.8936 N   0  0  0  0  0  0  0  0  0  0  0  0
  149.1208  134.2574  155.5040 C   0  0  0  0  0  0  0  0  0  0  0  0
  150.0364  133.0461  155.1860 C   0  0  1  0  0  0  0  0  0  0  0  0
  151.1807  132.9883  156.2244 C   0  0  0  0  0  0  0  0  0  0  0  0
  150.6847  132.8377  157.5396 O   0  0  0  0  0  0  0  0  0  0  0  0
  149.2850  131.6889  155.0499 C   0  0  2  0  0  0  0  0  0  0  0  0
  150.1171  130.5575  154.4664 C   0  0  0  0  0  0  0  0  0  0  0  0
  149.0493  129.5640  154.0345 C   0  0  0  0  0  0  0  0  0  0  0  0
  148.0073  130.3755  153.5163 O   0  0  0  0  0  0  0  0  0  0  0  0
  148.0857  131.6790  154.0865 C   0  0  0  0  0  0  0  0  0  0  0  0
  149.6508  140.7342  158.3146 C   0  0  0  0  0  0  0  0  0  0  0  0
  149.0644  142.0223  157.7009 C   0  0  1  0  0  0  0  0  0  0  0  0
  147.6377  142.3147  158.1999 C   0  0  0  0  0  0  0  0  0  0  0  0
  151.1013  145.2999  160.3572 H   0  0  0  0  0  0  0  0  0  0  0  0
  150.9692  145.6271  158.6340 H   0  0  0  0  0  0  0  0  0  0  0  0
  152.1768  144.4882  159.2399 H   0  0  0  0  0  0  0  0  0  0  0  0
  150.3580  142.9142  159.9544 H   0  0  0  0  0  0  0  0  0  0  0  0
  149.1723  144.1273  159.5655 H   0  0  0  0  0  0  0  0  0  0  0  0
  151.1282  142.7194  156.1376 H   0  0  0  0  0  0  0  0  0  0  0  0
  151.9867  143.7210  157.2605 H   0  0  0  0  0  0  0  0  0  0  0  0
  152.8936  141.4033  157.2588 H   0  0  0  0  0  0  0  0  0  0  0  0
  152.2451  141.8031  158.8271 H   0  0  0  0  0  0  0  0  0  0  0  0
  150.8522  140.2198  156.6236 H   0  0  0  0  0  0  0  0  0  0  0  0
  153.3546  137.9846  158.4128 H   0  0  0  0  0  0  0  0  0  0  0  0
  153.6149  139.7251  158.3668 H   0  0  0  0  0  0  0  0  0  0  0  0
  153.2340  138.8564  156.8802 H   0  0  0  0  0  0  0  0  0  0  0  0
  148.9745  136.3030  160.2171 H   0  0  0  0  0  0  0  0  0  0  0  0
  150.7874  136.0310  154.0426 H   0  0  0  0  0  0  0  0  0  0  0  0
  148.4415  134.0056  156.3194 H   0  0  0  0  0  0  0  0  0  0  0  0
  148.4915  134.4890  154.6438 H   0  0  0  0  0  0  0  0  0  0  0  0
  150.5189  133.2436  154.2282 H   0  0  0  0  0  0  0  0  0  0  0  0
  151.8668  132.1693  156.0100 H   0  0  0  0  0  0  0  0  0  0  0  0
  151.7773  133.9001  156.1812 H   0  0  0  0  0  0  0  0  0  0  0  0
  150.3616  131.9551  157.6401 H   0  0  0  0  0  0  0  0  0  0  0  0
  148.9369  131.3721  156.0343 H   0  0  0  0  0  0  0  0  0  0  0  0
  150.6784  130.9026  153.5968 H   0  0  0  0  0  0  0  0  0  0  0  0
  150.8189  130.1259  155.1806 H   0  0  0  0  0  0  0  0  0  0  0  0
  149.4091  128.8498  153.2939 H   0  0  0  0  0  0  0  0  0  0  0  0
  148.6732  129.0078  154.8944 H   0  0  0  0  0  0  0  0  0  0  0  0
  147.1520  131.9160  154.5947 H   0  0  0  0  0  0  0  0  0  0  0  0
  148.2205  132.3934  153.2738 H   0  0  0  0  0  0  0  0  0  0  0  0
  148.9540  139.9111  158.1557 H   0  0  0  0  0  0  0  0  0  0  0  0
  149.7420  140.8539  159.3941 H   0  0  0  0  0  0  0  0  0  0  0  0
  148.9717  141.8563  156.6263 H   0  0  0  0  0  0  0  0  0  0  0  0
  146.9510  141.5345  157.8703 H   0  0  0  0  0  0  0  0  0  0  0  0
  147.2663  143.2624  157.8088 H   0  0  0  0  0  0  0  0  0  0  0  0
  147.5784  142.3462  159.2879 H   0  0  0  0  0  0  0  0  0  0  0  0
  149.5940  143.9293  157.3240 H   0  0  0  0  0  0  0  0  0  0  0  0
  1  2  1  0  0  0  0
  1 30  1  0  0  0  0
  1 31  1  0  0  0  0
  1 32  1  0  0  0  0
  2  3  1  0  0  0  0
  2 33  1  0  0  0  0
  2 34  1  0  0  0  0
  3 28  1  0  0  0  0
  3  4  1  0  0  0  0
  3 64  1  0  0  0  0
  4  5  1  0  0  0  0
  4 35  1  0  0  0  0
  4 36  1  0  0  0  0
  5  6  1  0  0  0  0
  5 37  1  0  0  0  0
  5 38  1  0  0  0  0
  6  7  1  0  0  0  0
  6 27  1  0  0  0  0
  6 39  1  0  0  0  0
  7  8  1  0  0  0  0
  7  9  1  0  0  0  0
  8 40  1  0  0  0  0
  8 41  1  0  0  0  0
  8 42  1  0  0  0  0
  9 14  1  0  0  0  0
  9 10  2  0  0  0  0
 10 11  1  0  0  0  0
 11 12  2  0  0  0  0
 11 43  1  0  0  0  0
 12 13  1  0  0  0  0
 13 17  1  0  0  0  0
 13 14  2  0  0  0  0
 14 15  1  0  0  0  0
 15 16  2  0  0  0  0
 16 17  1  0  0  0  0
 16 44  1  0  0  0  0
 17 18  1  0  0  0  0
 18 19  1  0  0  0  0
 18 45  1  0  0  0  0
 18 46  1  0  0  0  0
 19 20  1  0  0  0  0
 19 22  1  0  0  0  0
 19 47  1  0  0  0  0
 20 21  1  0  0  0  0
 20 48  1  0  0  0  0
 20 49  1  0  0  0  0
 21 50  1  0  0  0  0
 22 26  1  0  0  0  0
 22 23  1  0  0  0  0
 22 51  1  0  0  0  0
 23 24  1  0  0  0  0
 23 52  1  0  0  0  0
 23 53  1  0  0  0  0
 24 25  1  0  0  0  0
 24 54  1  0  0  0  0
 24 55  1  0  0  0  0
 25 26  1  0  0  0  0
 26 56  1  0  0  0  0
 26 57  1  0  0  0  0
 27 28  1  0  0  0  0
 27 58  1  0  0  0  0
 27 59  1  0  0  0  0
 28 29  1  0  0  0  0
 28 60  1  0  0  0  0
 29 61  1  0  0  0  0
 29 62  1  0  0  0  0
 29 63  1  0  0  0  0
M  CHG  1   3   1
M  END
> <s_m_source_file>
AV-unprocessed.smi

> <i_m_source_file_index>
249

> <i_lp_mmshare_version>
43012

> <i_f3d_flags>
0

> <s_epik_input>
W0NIM11bQ0gyXU4xW0NIMl1bQ0gyXVtDQEhdKFtDSDJdW0NASF0xW0NIM10pTihbQ0gzXSljKG5bY0hdbjIpYyhjMjMpbltjSF1uM1tDSDJdW0NASF0oW0NIMl1bT0hdKVtDQEBIXTRbQ0gyXVtDSDJdT1tDSDJdNA==

> <s_epik_cmdline>
J2VwaWtfcHl0aG9uJywgJy1waCcsICc3LjAnLCAnLXRuJywgJzgnLCAnLW1hJywgJzIwMCcsICctbWV0YWxfYmluZGluZycsICctaW1hZScsICc8aW5maWxlLm1hZT4nLCAnLW9tYWUnLCAnPG91dGZpbGUubWFlPic=

> <r_lp_tautomer_probability>
1

> <r_epik_Ionization_Penalty>
0.00294688

> <r_epik_Ionization_Penalty_Charging>
0.00169971

> <r_epik_Ionization_Penalty_Neutral>
0.00124717

> <r_epik_State_Penalty>
-0

> <r_epik_Charging_Adjusted_Penalty>
0.00169971

> <i_epik_Tot_Q>
1

> <i_epik_Tot_abs_Q>
1

> <r_epik_Metal_State_Penalty>
-0

> <b_epik_Metal_Only>
0

> <s_lp_Force_Field>
OPLS_2005

> <r_lp_Energy>
55.2795

> <b_lp_Chiralities_Consistent>
1

> <s_lp_Variant>
AV-unprocessed.smi:249-6

> <Gold.Version>
5.8.1

> <Gold.Id.Protein>
6NUR|6NUR_protein|mol2

> <Gold.PLP.Fitness>
50.3871

> <Gold.PLP.PLP>
-39.0240

> <Gold.PLP.part.hbond>
-2.1248

> <Gold.PLP.part.metal>
0.0000

> <Gold.PLP.part.buried>
-7.1652

> <Gold.PLP.part.nonpolar>
-29.0435

> <Gold.PLP.part.repulsive>
0.8135

> <Gold.PLP.ligand.clash>
0.0000

> <Gold.PLP.ligand.torsion>
0.7843

> <Gold.PLP.Chemscore.Hbond>
3.0000

> <Gold.PLP.Chemscore.CHOScore>
1.0000

> <Gold.PLP.Chemscore.Metal>
0.0000

> <Gold.Chemscore.Hbonds>
donor molecule, donor type, donor heavy atom, donor atom, acceptor molecule, acceptor atom, score
      L1  H     3    64       P1  8028  2.00
      P1  H  6896  6908       L1    21  1.00
      L1  C    16    44       P1  7948  0.07
      L1  C    16    44       P1  7949  0.65

> <Gold.PLP.Chemscore.Internal.Correction>
0.9316

> <Gold.Rescore>
     Score         DG    S(hbond)    S(metal)    S(lipo)     H(rot)  DE(clash)    DE(int)     intcor
     13.54     -14.83       1.87        0.00      90.00       2.90       0.34       0.95       ----

> <Gold.Chemscore.Fitness>
13.5360

> <Gold.Chemscore.DG>
-14.8255

> <Gold.Chemscore.ZeroCoef>
-5.4800

> <Gold.Chemscore.Hbond>
1.8686

> <Gold.Chemscore.Metal>
0.0000

> <Gold.Chemscore.Lipo>
89.9997

> <Gold.Chemscore.Internal_Hbond>
0.0000

> <Gold.Chemscore.DEClash>
0.3414

> <Gold.Chemscore.DEInternal>
0.9480

> <Gold.Chemscore.Rot>
2.9006

> <Gold.Chemscore.Internal.Correction>
   9.000000E+99

> <Gold.Chemscore.Hbonds>
donor molecule, donor type, donor heavy atom, donor atom, acceptor molecule, acceptor atom, score
      L1  H     3    64       P1  8028  0.53
      P1  H  6896  6908       L1    21  0.65

> <Gold.Chemscore.Hbond.Weighted>
-6.2411

> <Gold.Chemscore.Metal.Weighted>
-0.0000

> <Gold.Chemscore.Lipo.Weighted>
-10.5300

> <Gold.Chemscore.Internal_Hbond.Weighted>
0.0000

> <Gold.Chemscore.DEClash.Weighted>
0.3414

> <Gold.Chemscore.DEInternal.Weighted>
0.9480

> <Gold.Chemscore.Rot.Weighted>
7.4256

> <Gold.Chemscore.Internal.Correction.Weighted>
   9.000000E+99

> <Gold.Protein.RotatedTorsions>
[ 6907 6896 6895 6894 ] final   89.93 input  -60.11 | X-H torsion
[ 7974 7965 7964 7962 ] final  130.95 input  175.53 | X-H torsion
[ 8008 7997 7996 7995 ] final  -37.24 input   59.86 | X-H torsion
[ 10167 10162 10161 10158 ] final  118.67 input  -65.29 | X-H torsion
[ 10718 10713 10712 10709 ] final -179.12 input   66.30 | X-H torsion
[ 10763 10752 10751 10750 ] final   64.17 input  -60.55 | X-H torsion
[ 11005 11000 10999 10996 ] final  130.46 input  -57.11 | X-H torsion

> <Gold.Protein.ActiveResidues>
 VAL166  LYS551  ARG553  GLY616  TRP617  ASP618  TYR619  PRO620  LYS621  CYS622 
 ASP623  PHE694  ASN695  SER759  ASP760  ASP761  ALA762  ILE779  LEU786  VAL792 
 PHE793  MET794  SER795  GLU796  ALA797  LYS798  CYS799  TRP800  GLU811  SER814 

> <Gold.Protein.RotatedAtoms>
  152.5440  134.1891  159.8666 H   0  0  0  0  0  0  0  0  0  0  0  0  # atno 6907 bound_to 6896
  151.1887  133.4673  159.2602 H   0  0  0  0  0  0  0  0  0  0  0  0  # atno 6908 bound_to 6896
  151.1105  135.0035  159.8547 H   0  0  0  0  0  0  0  0  0  0  0  0  # atno 6909 bound_to 6896
  145.0125  139.4207  143.5238 H   0  0  0  0  0  0  0  0  0  0  0  0  # atno 7974 bound_to 7965
  154.4057  140.1609  156.2504 H   0  0  0  0  0  0  0  0  0  0  0  0  # atno 8008 bound_to 7997
  155.9124  140.3426  155.6086 H   0  0  0  0  0  0  0  0  0  0  0  0  # atno 8009 bound_to 7997
  155.7320  140.0781  157.2275 H   0  0  0  0  0  0  0  0  0  0  0  0  # atno 8010 bound_to 7997
  139.6096  144.7078  151.2874 H   0  0  0  0  0  0  0  0  0  0  0  0  # atno 10167 bound_to 10162
  156.8544  130.9730  151.3089 H   0  0  0  0  0  0  0  0  0  0  0  0  # atno 10718 bound_to 10713
  153.0045  135.5402  154.6468 H   0  0  0  0  0  0  0  0  0  0  0  0  # atno 10763 bound_to 10752
  154.5710  135.2841  155.0829 H   0  0  0  0  0  0  0  0  0  0  0  0  # atno 10764 bound_to 10752
  154.1995  135.6486  153.5135 H   0  0  0  0  0  0  0  0  0  0  0  0  # atno 10765 bound_to 10752
  139.9673  134.9587  156.9297 H   0  0  0  0  0  0  0  0  0  0  0  0  # atno 11005 bound_to 11000
  146.3472  139.9577  142.8721 LP  0  0  0  0  0  0  0  0  0  0  0  0  # atno 17320 bound_to 7965
  145.2004  140.9852  143.4159 LP  0  0  0  0  0  0  0  0  0  0  0  0  # atno 17321 bound_to 7965
  140.7310  143.6865  150.7958 LP  0  0  0  0  0  0  0  0  0  0  0  0  # atno 17342 bound_to 10162
  140.0457  143.5301  152.2697 LP  0  0  0  0  0  0  0  0  0  0  0  0  # atno 17343 bound_to 10162
  157.6285  130.8710  149.9232 LP  0  0  0  0  0  0  0  0  0  0  0  0  # atno 17370 bound_to 10713
  156.0810  130.3673  150.0580 LP  0  0  0  0  0  0  0  0  0  0  0  0  # atno 17371 bound_to 10713
  140.5368  134.0759  155.7330 LP  0  0  0  0  0  0  0  0  0  0  0  0  # atno 17394 bound_to 11000
  141.1353  133.9232  157.2447 LP  0  0  0  0  0  0  0  0  0  0  0  0  # atno 17395 bound_to 11000

$$$$
