AV-unprocessed.smi:2659|AV-procd|sdf|10312|dock3
  -GOLD-   2272014333D 1   1.00000     0.00000
 Structure written by MMmdl.
 47 48  0  0  0  0  0  0  0  0  1 V2000
  151.1784  137.5890  155.0090 C   0  0  0  0  0  0  0  0  0  0  0  0
  150.5127  138.8768  154.9924 N   0  0  0  0  0  0  0  0  0  0  0  0
  151.0652  139.9309  155.6296 N   0  0  0  0  0  0  0  0  0  0  0  0
  150.2304  140.9440  155.4214 C   0  0  0  0  0  0  0  0  0  0  0  0
  150.5485  142.3049  155.9880 C   0  0  0  0  0  0  0  0  0  0  0  0
  150.6510  142.3644  157.5374 C   0  0  0  0  0  0  0  0  0  0  0  0
  151.4631  141.1674  158.0712 C   0  0  0  0  0  0  0  0  0  0  0  0
  149.2285  142.2915  158.1256 C   0  0  0  0  0  0  0  0  0  0  0  0
  151.3128  143.6750  158.0131 C   0  0  0  0  0  0  0  0  0  0  0  0
  149.0941  140.5659  154.6481 C   0  0  0  0  0  0  0  0  0  0  0  0
  149.3284  139.2426  154.3931 C   0  0  0  0  0  0  0  0  0  0  0  0
  148.5736  138.3632  153.6827 N   0  0  0  0  0  0  0  0  0  0  0  0
  147.2631  138.4302  153.3907 C   0  0  0  0  0  0  0  0  0  0  0  0
  146.4916  139.3110  153.7714 O   0  0  0  0  0  0  0  0  0  0  0  0
  146.8890  137.4072  152.6092 N   0  0  0  0  0  0  0  0  0  0  0  0
  145.5462  137.1985  152.0770 C   0  0  0  0  0  0  0  0  0  0  0  0
  145.4836  135.9714  151.1510 C   0  0  2  0  0  0  0  0  0  0  0  0
  144.0776  135.5040  150.7786 C   0  0  0  0  0  0  0  0  0  0  0  0
  144.2899  134.0495  150.3976 C   0  0  0  0  0  0  0  0  0  0  0  0
  145.6106  133.6762  151.0794 C   0  0  0  0  0  0  0  0  0  0  0  0
  146.0120  134.8308  151.8074 O   0  0  0  0  0  0  0  0  0  0  0  0
  151.2566  137.2024  153.9927 H   0  0  0  0  0  0  0  0  0  0  0  0
  150.6031  136.8882  155.6141 H   0  0  0  0  0  0  0  0  0  0  0  0
  152.1814  137.6807  155.4279 H   0  0  0  0  0  0  0  0  0  0  0  0
  151.4979  142.6311  155.5611 H   0  0  0  0  0  0  0  0  0  0  0  0
  149.8167  143.0343  155.6376 H   0  0  0  0  0  0  0  0  0  0  0  0
  151.4880  141.1612  159.1615 H   0  0  0  0  0  0  0  0  0  0  0  0
  152.4969  141.1955  157.7273 H   0  0  0  0  0  0  0  0  0  0  0  0
  151.0342  140.2183  157.7480 H   0  0  0  0  0  0  0  0  0  0  0  0
  148.7206  141.3751  157.8229 H   0  0  0  0  0  0  0  0  0  0  0  0
  148.6162  143.1312  157.7949 H   0  0  0  0  0  0  0  0  0  0  0  0
  149.2464  142.3110  159.2159 H   0  0  0  0  0  0  0  0  0  0  0  0
  151.3011  143.7516  159.1009 H   0  0  0  0  0  0  0  0  0  0  0  0
  150.7919  144.5478  157.6180 H   0  0  0  0  0  0  0  0  0  0  0  0
  152.3555  143.7423  157.7011 H   0  0  0  0  0  0  0  0  0  0  0  0
  148.2640  141.1820  154.3372 H   0  0  0  0  0  0  0  0  0  0  0  0
  149.0782  137.5827  153.2892 H   0  0  0  0  0  0  0  0  0  0  0  0
  147.5889  136.7286  152.3476 H   0  0  0  0  0  0  0  0  0  0  0  0
  144.8751  137.0476  152.9227 H   0  0  0  0  0  0  0  0  0  0  0  0
  145.1861  138.0893  151.5593 H   0  0  0  0  0  0  0  0  0  0  0  0
  146.0680  136.1515  150.2465 H   0  0  0  0  0  0  0  0  0  0  0  0
  143.4195  135.5617  151.6467 H   0  0  0  0  0  0  0  0  0  0  0  0
  143.6315  136.0924  149.9762 H   0  0  0  0  0  0  0  0  0  0  0  0
  143.4614  133.4238  150.7309 H   0  0  0  0  0  0  0  0  0  0  0  0
  144.3795  133.9407  149.3163 H   0  0  0  0  0  0  0  0  0  0  0  0
  145.5052  132.8217  151.7482 H   0  0  0  0  0  0  0  0  0  0  0  0
  146.3709  133.4336  150.3360 H   0  0  0  0  0  0  0  0  0  0  0  0
  1  2  1  0  0  0  0
  1 22  1  0  0  0  0
  1 23  1  0  0  0  0
  1 24  1  0  0  0  0
  2 11  1  0  0  0  0
  2  3  1  0  0  0  0
  3  4  2  0  0  0  0
  4  5  1  0  0  0  0
  4 10  1  0  0  0  0
  5  6  1  0  0  0  0
  5 25  1  0  0  0  0
  5 26  1  0  0  0  0
  6  7  1  0  0  0  0
  6  8  1  0  0  0  0
  6  9  1  0  0  0  0
  7 27  1  0  0  0  0
  7 28  1  0  0  0  0
  7 29  1  0  0  0  0
  8 30  1  0  0  0  0
  8 31  1  0  0  0  0
  8 32  1  0  0  0  0
  9 33  1  0  0  0  0
  9 34  1  0  0  0  0
  9 35  1  0  0  0  0
 10 11  2  0  0  0  0
 10 36  1  0  0  0  0
 11 12  1  0  0  0  0
 12 13  1  0  0  0  0
 12 37  1  0  0  0  0
 13 14  2  0  0  0  0
 13 15  1  0  0  0  0
 15 16  1  0  0  0  0
 15 38  1  0  0  0  0
 16 17  1  0  0  0  0
 16 39  1  0  0  0  0
 16 40  1  0  0  0  0
 17 21  1  0  0  0  0
 17 18  1  0  0  0  0
 17 41  1  0  0  0  0
 18 19  1  0  0  0  0
 18 42  1  0  0  0  0
 18 43  1  0  0  0  0
 19 20  1  0  0  0  0
 19 44  1  0  0  0  0
 19 45  1  0  0  0  0
 20 21  1  0  0  0  0
 20 46  1  0  0  0  0
 20 47  1  0  0  0  0
M  END
> <s_m_source_file>
AV-unprocessed.smi

> <i_m_source_file_index>
2659

> <i_lp_mmshare_version>
43012

> <i_f3d_flags>
0

> <s_epik_input>
W0NIM11uMW5jKFtDSDJdQyhbQ0gzXSkoW0NIM10pW0NIM10pW2NIXWMxW05IXUMoPU8pW05IXVtDSDJdW0NAQEhdMltDSDJdW0NIMl1bQ0gyXU8y

> <s_epik_cmdline>
J2VwaWtfcHl0aG9uJywgJy1waCcsICc3LjAnLCAnLXRuJywgJzgnLCAnLW1hJywgJzIwMCcsICctbWV0YWxfYmluZGluZycsICctaW1hZScsICc8aW5maWxlLm1hZT4nLCAnLW9tYWUnLCAnPG91dGZpbGUubWFlPic=

> <r_lp_tautomer_probability>
1

> <r_epik_Ionization_Penalty>
9.6187e-05

> <r_epik_Ionization_Penalty_Charging>
0

> <r_epik_Ionization_Penalty_Neutral>
9.6187e-05

> <r_epik_State_Penalty>
-0

> <r_epik_Charging_Adjusted_Penalty>
0

> <i_epik_Tot_Q>
0

> <i_epik_Tot_abs_Q>
0

> <r_epik_Metal_State_Penalty>
-0

> <b_epik_Metal_Only>
0

> <s_lp_Force_Field>
OPLS_2005

> <r_lp_Energy>
20.4305

> <b_lp_Chiralities_Consistent>
1

> <s_lp_Variant>
AV-unprocessed.smi:2659-1

> <Gold.Version>
5.8.1

> <Gold.Id.Protein>
6NUR|6NUR_protein|mol2

> <Gold.PLP.Fitness>
44.2882

> <Gold.PLP.PLP>
-38.7589

> <Gold.PLP.part.hbond>
-3.9218

> <Gold.PLP.part.metal>
0.0000

> <Gold.PLP.part.buried>
-2.1973

> <Gold.PLP.part.nonpolar>
-34.3812

> <Gold.PLP.part.repulsive>
0.9651

> <Gold.PLP.ligand.clash>
0.0000

> <Gold.PLP.ligand.torsion>
0.3225

> <Gold.PLP.Chemscore.Hbond>
2.0383

> <Gold.PLP.Chemscore.CHOScore>
0.0000

> <Gold.PLP.Chemscore.Metal>
0.0000

> <Gold.Chemscore.Hbonds>
donor molecule, donor type, donor heavy atom, donor atom, acceptor molecule, acceptor atom, score
      L1  H    12    37       P1  7948  0.85
      L1  H    15    38       P1  7948  0.98

> <Gold.PLP.Chemscore.Internal.Correction>
0.0596

> <Gold.Rescore>
     Score         DG    S(hbond)    S(metal)    S(lipo)     H(rot)  DE(clash)    DE(int)     intcor
     15.07     -18.33       1.95        0.00      86.86       1.49       0.14       3.12       ----

> <Gold.Chemscore.Fitness>
15.0677

> <Gold.Chemscore.DG>
-18.3298

> <Gold.Chemscore.ZeroCoef>
-5.4800

> <Gold.Chemscore.Hbond>
1.9463

> <Gold.Chemscore.Metal>
0.0000

> <Gold.Chemscore.Lipo>
86.8552

> <Gold.Chemscore.Internal_Hbond>
0.0000

> <Gold.Chemscore.DEClash>
0.1409

> <Gold.Chemscore.DEInternal>
3.1212

> <Gold.Chemscore.Rot>
1.4894

> <Gold.Chemscore.Internal.Correction>
   9.000000E+99

> <Gold.Chemscore.Hbonds>
donor molecule, donor type, donor heavy atom, donor atom, acceptor molecule, acceptor atom, score
      L1  H    12    37       P1  7948  0.82
      L1  H    15    38       P1  7948  0.91

> <Gold.Chemscore.Hbond.Weighted>
-6.5007

> <Gold.Chemscore.Metal.Weighted>
-0.0000

> <Gold.Chemscore.Lipo.Weighted>
-10.1621

> <Gold.Chemscore.Internal_Hbond.Weighted>
0.0000

> <Gold.Chemscore.DEClash.Weighted>
0.1409

> <Gold.Chemscore.DEInternal.Weighted>
3.1212

> <Gold.Chemscore.Rot.Weighted>
3.8129

> <Gold.Chemscore.Internal.Correction.Weighted>
   9.000000E+99

> <Gold.Protein.RotatedTorsions>
[ 6907 6896 6895 6894 ] final -140.58 input  -60.11 | X-H torsion
[ 7974 7965 7964 7962 ] final    0.53 input  175.53 | X-H torsion
[ 8008 7997 7996 7995 ] final    6.40 input   59.86 | X-H torsion
[ 10167 10162 10161 10158 ] final  172.65 input  -65.29 | X-H torsion
[ 10718 10713 10712 10709 ] final  -13.33 input   66.30 | X-H torsion
[ 10763 10752 10751 10750 ] final   28.57 input  -60.55 | X-H torsion
[ 11005 11000 10999 10996 ] final  136.58 input  -57.11 | X-H torsion

> <Gold.Protein.ActiveResidues>
 VAL166  LYS551  ARG553  GLY616  TRP617  ASP618  TYR619  PRO620  LYS621  CYS622 
 ASP623  PHE694  ASN695  SER759  ASP760  ASP761  ALA762  ILE779  LEU786  VAL792 
 PHE793  MET794  SER795  GLU796  ALA797  LYS798  CYS799  TRP800  GLU811  SER814 

> <Gold.Protein.RotatedAtoms>
  151.0625  133.5532  159.2632 H   0  0  0  0  0  0  0  0  0  0  0  0  # atno 6907 bound_to 6896
  151.2502  135.0618  159.9068 H   0  0  0  0  0  0  0  0  0  0  0  0  # atno 6908 bound_to 6896
  152.5400  134.0387  159.8111 H   0  0  0  0  0  0  0  0  0  0  0  0  # atno 6909 bound_to 6896
  146.2435  140.1123  142.8343 H   0  0  0  0  0  0  0  0  0  0  0  0  # atno 7974 bound_to 7965
  154.7405  140.2748  155.6377 H   0  0  0  0  0  0  0  0  0  0  0  0  # atno 8008 bound_to 7997
  156.2872  140.2698  156.2057 H   0  0  0  0  0  0  0  0  0  0  0  0  # atno 8009 bound_to 7997
  155.0264  140.0371  157.2447 H   0  0  0  0  0  0  0  0  0  0  0  0  # atno 8010 bound_to 7997
  139.5083  144.3350  152.0074 H   0  0  0  0  0  0  0  0  0  0  0  0  # atno 10167 bound_to 10162
  156.6317  130.4903  149.6126 H   0  0  0  0  0  0  0  0  0  0  0  0  # atno 10718 bound_to 10713
  153.0483  135.6510  154.0759 H   0  0  0  0  0  0  0  0  0  0  0  0  # atno 10763 bound_to 10752
  154.0452  135.2900  155.3350 H   0  0  0  0  0  0  0  0  0  0  0  0  # atno 10764 bound_to 10752
  154.6756  135.5340  153.8261 H   0  0  0  0  0  0  0  0  0  0  0  0  # atno 10765 bound_to 10752
  140.0056  134.9461  157.0167 H   0  0  0  0  0  0  0  0  0  0  0  0  # atno 11005 bound_to 11000
  145.0476  140.8993  143.5014 LP  0  0  0  0  0  0  0  0  0  0  0  0  # atno 17320 bound_to 7965
  145.1215  139.2690  143.5586 LP  0  0  0  0  0  0  0  0  0  0  0  0  # atno 17321 bound_to 7965
  140.2789  144.3882  150.6125 LP  0  0  0  0  0  0  0  0  0  0  0  0  # atno 17342 bound_to 10162
  140.6033  143.2167  151.7030 LP  0  0  0  0  0  0  0  0  0  0  0  0  # atno 17343 bound_to 10162
  156.2229  130.6748  151.1386 LP  0  0  0  0  0  0  0  0  0  0  0  0  # atno 17370 bound_to 10713
  157.7198  131.0688  150.6183 LP  0  0  0  0  0  0  0  0  0  0  0  0  # atno 17371 bound_to 10713
  140.4648  134.1447  155.7195 LP  0  0  0  0  0  0  0  0  0  0  0  0  # atno 17394 bound_to 11000
  141.1674  133.8676  157.1674 LP  0  0  0  0  0  0  0  0  0  0  0  0  # atno 17395 bound_to 11000

$$$$
