AV-unprocessed.smi:315|AV-procd|sdf|2319|dock3
  -GOLD-   2262022223D 1   1.00000     0.00000
 Structure written by MMmdl.
 47 49  0  0  0  0  0  0  0  0  2 V2000
  152.0123  138.8344  155.8387 C   0  0  0  0  0  0  0  0  0  0  0  0
  151.8028  138.3971  154.3870 C   0  0  0  0  0  0  0  0  0  0  0  0
  150.4070  138.2350  154.1583 O   0  0  0  0  0  0  0  0  0  0  0  0
  149.5889  139.3470  154.2284 C   0  0  0  0  0  0  0  0  0  0  0  0
  150.0980  140.4969  154.7360 N   0  0  0  0  0  0  0  0  0  0  0  0
  149.2961  141.5802  154.7994 C   0  0  0  0  0  0  0  0  0  0  0  0
  147.9556  141.5742  154.3707 C   0  0  0  0  0  0  0  0  0  0  0  0
  147.4251  140.3818  153.8445 C   0  0  0  0  0  0  0  0  0  0  0  0
  148.2596  139.2423  153.7592 C   0  0  0  0  0  0  0  0  0  0  0  0
  147.8242  137.9854  153.2653 N   0  0  0  0  0  0  0  0  0  0  0  0
  146.5651  137.5256  153.1432 C   0  0  0  0  0  0  0  0  0  0  0  0
  145.5663  138.0955  153.5759 O   0  0  0  0  0  0  0  0  0  0  0  0
  146.4696  136.3695  152.4609 N   0  0  0  0  0  0  0  0  0  0  0  0
  145.2636  135.5967  152.1444 C   0  0  1  0  0  0  0  0  0  0  0  0
  144.8732  135.6867  150.6569 C   0  0  0  0  0  0  0  0  0  0  0  0
  144.4051  134.2743  150.2938 C   0  0  0  0  0  0  0  0  0  0  0  0
  145.2622  133.4228  151.1260 N   0  3  2  0  0  0  0  0  0  0  0  0
  144.9437  131.9844  151.2280 C   0  0  0  0  0  0  0  0  0  0  0  0
  146.0908  131.2854  151.9882 C   0  0  0  0  0  0  0  0  0  0  0  0
  146.3997  131.9697  153.3386 C   0  0  0  0  0  0  0  0  0  0  0  0
  146.5922  133.4939  153.1822 C   0  0  0  0  0  0  0  0  0  0  0  0
  145.3762  134.0793  152.4403 C   0  0  1  0  0  0  0  0  0  0  0  0
  153.0708  138.9876  156.0499 H   0  0  0  0  0  0  0  0  0  0  0  0
  151.6404  138.0799  156.5314 H   0  0  0  0  0  0  0  0  0  0  0  0
  151.4904  139.7689  156.0462 H   0  0  0  0  0  0  0  0  0  0  0  0
  152.2127  139.1517  153.7138 H   0  0  0  0  0  0  0  0  0  0  0  0
  152.3312  137.4594  154.2079 H   0  0  0  0  0  0  0  0  0  0  0  0
  149.7350  142.4779  155.2093 H   0  0  0  0  0  0  0  0  0  0  0  0
  147.3467  142.4627  154.4479 H   0  0  0  0  0  0  0  0  0  0  0  0
  146.3927  140.3581  153.5311 H   0  0  0  0  0  0  0  0  0  0  0  0
  148.5387  137.4341  152.8131 H   0  0  0  0  0  0  0  0  0  0  0  0
  147.3342  136.0016  152.0904 H   0  0  0  0  0  0  0  0  0  0  0  0
  144.4246  135.9958  152.7175 H   0  0  0  0  0  0  0  0  0  0  0  0
  144.1087  136.4409  150.4670 H   0  0  0  0  0  0  0  0  0  0  0  0
  145.7440  135.9420  150.0509 H   0  0  0  0  0  0  0  0  0  0  0  0
  143.3598  134.1314  150.5721 H   0  0  0  0  0  0  0  0  0  0  0  0
  144.5163  134.0531  149.2319 H   0  0  0  0  0  0  0  0  0  0  0  0
  143.9916  131.8438  151.7418 H   0  0  0  0  0  0  0  0  0  0  0  0
  144.8404  131.5582  150.2294 H   0  0  0  0  0  0  0  0  0  0  0  0
  145.8476  130.2346  152.1485 H   0  0  0  0  0  0  0  0  0  0  0  0
  146.9894  131.3002  151.3698 H   0  0  0  0  0  0  0  0  0  0  0  0
  145.5772  131.7808  154.0291 H   0  0  0  0  0  0  0  0  0  0  0  0
  147.2864  131.5244  153.7910 H   0  0  0  0  0  0  0  0  0  0  0  0
  146.7001  133.9451  154.1683 H   0  0  0  0  0  0  0  0  0  0  0  0
  147.5110  133.7022  152.6325 H   0  0  0  0  0  0  0  0  0  0  0  0
  144.4843  133.8177  153.0145 H   0  0  0  0  0  0  0  0  0  0  0  0
  146.1797  133.4811  150.7079 H   0  0  0  0  0  0  0  0  0  0  0  0
  1  2  1  0  0  0  0
  1 23  1  0  0  0  0
  1 24  1  0  0  0  0
  1 25  1  0  0  0  0
  2  3  1  0  0  0  0
  2 26  1  0  0  0  0
  2 27  1  0  0  0  0
  3  4  1  0  0  0  0
  4  9  1  0  0  0  0
  4  5  2  0  0  0  0
  5  6  1  0  0  0  0
  6  7  2  0  0  0  0
  6 28  1  0  0  0  0
  7  8  1  0  0  0  0
  7 29  1  0  0  0  0
  8  9  2  0  0  0  0
  8 30  1  0  0  0  0
  9 10  1  0  0  0  0
 10 11  1  0  0  0  0
 10 31  1  0  0  0  0
 11 12  2  0  0  0  0
 11 13  1  0  0  0  0
 13 14  1  0  0  0  0
 13 32  1  0  0  0  0
 14 22  1  0  0  0  0
 14 15  1  0  0  0  0
 14 33  1  0  0  0  0
 15 16  1  0  0  0  0
 15 34  1  0  0  0  0
 15 35  1  0  0  0  0
 16 17  1  0  0  0  0
 16 36  1  0  0  0  0
 16 37  1  0  0  0  0
 17 22  1  0  0  0  0
 17 18  1  0  0  0  0
 17 47  1  0  0  0  0
 18 19  1  0  0  0  0
 18 38  1  0  0  0  0
 18 39  1  0  0  0  0
 19 20  1  0  0  0  0
 19 40  1  0  0  0  0
 19 41  1  0  0  0  0
 20 21  1  0  0  0  0
 20 42  1  0  0  0  0
 20 43  1  0  0  0  0
 21 22  1  0  0  0  0
 21 44  1  0  0  0  0
 21 45  1  0  0  0  0
 22 46  1  0  0  0  0
M  CHG  1  17   1
M  END
> <s_m_source_file>
AV-unprocessed.smi

> <i_m_source_file_index>
315

> <i_lp_mmshare_version>
43012

> <i_f3d_flags>
0

> <s_epik_input>
W0NIM11bQ0gyXU9jMW5bY0hdW2NIXVtjSF1jMVtOSF1DKD1PKVtOSF1bQ0BIXShbQ0gyXVtDSDJdMilbQ0BASF0oTjIzKVtDSDJdW0NIMl1bQ0gyXVtDSDJdMw==

> <s_epik_cmdline>
J2VwaWtfcHl0aG9uJywgJy1waCcsICc3LjAnLCAnLXRuJywgJzgnLCAnLW1hJywgJzIwMCcsICctbWV0YWxfYmluZGluZycsICctaW1hZScsICc8aW5maWxlLm1hZT4nLCAnLW9tYWUnLCAnPG91dGZpbGUubWFlPic=

> <r_lp_tautomer_probability>
1

> <r_epik_Ionization_Penalty>
0.00106455

> <r_epik_Ionization_Penalty_Charging>
0.000974069

> <r_epik_Ionization_Penalty_Neutral>
9.04821e-05

> <r_epik_State_Penalty>
0.000633842

> <r_epik_Charging_Adjusted_Penalty>
0.00160791

> <i_epik_Tot_Q>
1

> <i_epik_Tot_abs_Q>
1

> <r_epik_Metal_State_Penalty>
-0

> <b_epik_Metal_Only>
0

> <s_lp_Force_Field>
OPLS_2005

> <r_lp_Energy>
53.3224

> <b_lp_Chiralities_Consistent>
1

> <s_lp_Variant>
AV-unprocessed.smi:315-4

> <Gold.Version>
5.8.1

> <Gold.Id.Protein>
6NUR|6NUR_protein|mol2

> <Gold.PLP.Fitness>
46.7154

> <Gold.PLP.PLP>
-35.7084

> <Gold.PLP.part.hbond>
-2.9116

> <Gold.PLP.part.metal>
0.0000

> <Gold.PLP.part.buried>
-2.5354

> <Gold.PLP.part.nonpolar>
-30.7020

> <Gold.PLP.part.repulsive>
0.6010

> <Gold.PLP.ligand.clash>
0.0000

> <Gold.PLP.ligand.torsion>
0.3586

> <Gold.PLP.Chemscore.Hbond>
2.9040

> <Gold.PLP.Chemscore.CHOScore>
1.0000

> <Gold.PLP.Chemscore.Metal>
0.0000

> <Gold.Chemscore.Hbonds>
donor molecule, donor type, donor heavy atom, donor atom, acceptor molecule, acceptor atom, score
      L1  H    10    31       P1  7948  1.00
      L1  H    13    32       P1  7948  0.98
      P1  H  7989  7998       L1     5  0.93
      L1  C     6    28       P1  8028  1.00

> <Gold.PLP.Chemscore.Internal.Correction>
0.0122

> <Gold.Rescore>
     Score         DG    S(hbond)    S(metal)    S(lipo)     H(rot)  DE(clash)    DE(int)     intcor
     16.51     -19.54       2.23        0.00      86.70       1.38       0.32       2.71       ----

> <Gold.Chemscore.Fitness>
16.5085

> <Gold.Chemscore.DG>
-19.5392

> <Gold.Chemscore.ZeroCoef>
-5.4800

> <Gold.Chemscore.Hbond>
2.2275

> <Gold.Chemscore.Metal>
0.0000

> <Gold.Chemscore.Lipo>
86.7048

> <Gold.Chemscore.Internal_Hbond>
0.0000

> <Gold.Chemscore.DEClash>
0.3212

> <Gold.Chemscore.DEInternal>
2.7095

> <Gold.Chemscore.Rot>
1.3770

> <Gold.Chemscore.Internal.Correction>
   9.000000E+99

> <Gold.Chemscore.Hbonds>
donor molecule, donor type, donor heavy atom, donor atom, acceptor molecule, acceptor atom, score
      L1  H    10    31       P1  7948  0.93
      L1  H    13    32       P1  7948  0.92
      P1  H  7989  7998       L1     5  0.24

> <Gold.Chemscore.Hbond.Weighted>
-7.4399

> <Gold.Chemscore.Metal.Weighted>
-0.0000

> <Gold.Chemscore.Lipo.Weighted>
-10.1445

> <Gold.Chemscore.Internal_Hbond.Weighted>
0.0000

> <Gold.Chemscore.DEClash.Weighted>
0.3212

> <Gold.Chemscore.DEInternal.Weighted>
2.7095

> <Gold.Chemscore.Rot.Weighted>
3.5252

> <Gold.Chemscore.Internal.Correction.Weighted>
   9.000000E+99

> <Gold.Protein.RotatedTorsions>
[ 6907 6896 6895 6894 ] final  102.42 input  -60.11 | X-H torsion
[ 7974 7965 7964 7962 ] final  -80.15 input  175.53 | X-H torsion
[ 8008 7997 7996 7995 ] final  111.80 input   59.86 | X-H torsion
[ 10167 10162 10161 10158 ] final  105.22 input  -65.29 | X-H torsion
[ 10718 10713 10712 10709 ] final   96.25 input   66.30 | X-H torsion
[ 10763 10752 10751 10750 ] final  106.95 input  -60.55 | X-H torsion
[ 11005 11000 10999 10996 ] final  151.60 input  -57.11 | X-H torsion

> <Gold.Protein.ActiveResidues>
 VAL166  LYS551  ARG553  GLY616  TRP617  ASP618  TYR619  PRO620  LYS621  CYS622 
 ASP623  PHE694  ASN695  SER759  ASP760  ASP761  ALA762  ILE779  LEU786  VAL792 
 PHE793  MET794  SER795  GLU796  ALA797  LYS798  CYS799  TRP800  GLU811  SER814 

> <Gold.Protein.RotatedAtoms>
  152.5324  133.9978  159.7880 H   0  0  0  0  0  0  0  0  0  0  0  0  # atno 6907 bound_to 6896
  151.0202  133.5876  159.2679 H   0  0  0  0  0  0  0  0  0  0  0  0  # atno 6908 bound_to 6896
  151.2918  135.0751  159.9260 H   0  0  0  0  0  0  0  0  0  0  0  0  # atno 6909 bound_to 6896
  145.5638  140.9477  143.1433 H   0  0  0  0  0  0  0  0  0  0  0  0  # atno 7974 bound_to 7965
  156.2149  140.3012  155.9816 H   0  0  0  0  0  0  0  0  0  0  0  0  # atno 8008 bound_to 7997
  155.2631  140.0430  157.3016 H   0  0  0  0  0  0  0  0  0  0  0  0  # atno 8009 bound_to 7997
  154.5753  140.2360  155.8140 H   0  0  0  0  0  0  0  0  0  0  0  0  # atno 8010 bound_to 7997
  139.7111  144.7077  151.1025 H   0  0  0  0  0  0  0  0  0  0  0  0  # atno 10167 bound_to 10162
  157.6929  131.0572  150.4463 H   0  0  0  0  0  0  0  0  0  0  0  0  # atno 10718 bound_to 10713
  153.4001  135.3860  155.1981 H   0  0  0  0  0  0  0  0  0  0  0  0  # atno 10763 bound_to 10752
  154.8728  135.3769  154.4630 H   0  0  0  0  0  0  0  0  0  0  0  0  # atno 10764 bound_to 10752
  153.5126  135.7087  153.5835 H   0  0  0  0  0  0  0  0  0  0  0  0  # atno 10765 bound_to 10752
  140.1233  134.8849  157.2103 H   0  0  0  0  0  0  0  0  0  0  0  0  # atno 11005 bound_to 11000
  144.7470  139.7293  143.7288 LP  0  0  0  0  0  0  0  0  0  0  0  0  # atno 17320 bound_to 7965
  146.1833  139.5035  142.9853 LP  0  0  0  0  0  0  0  0  0  0  0  0  # atno 17321 bound_to 7965
  140.7733  143.5292  150.9444 LP  0  0  0  0  0  0  0  0  0  0  0  0  # atno 17342 bound_to 10162
  139.8976  143.6875  152.3136 LP  0  0  0  0  0  0  0  0  0  0  0  0  # atno 17343 bound_to 10162
  156.4818  130.4075  149.6457 LP  0  0  0  0  0  0  0  0  0  0  0  0  # atno 17370 bound_to 10713
  156.3500  130.7427  151.2385 LP  0  0  0  0  0  0  0  0  0  0  0  0  # atno 17371 bound_to 10713
  140.2937  134.3211  155.7308 LP  0  0  0  0  0  0  0  0  0  0  0  0  # atno 17394 bound_to 11000
  141.2156  133.7550  156.9540 LP  0  0  0  0  0  0  0  0  0  0  0  0  # atno 17395 bound_to 11000

$$$$
