AV-unprocessed.smi:1876|AV-procd|sdf|7620|dock4
  -GOLD-   22720 9343D 1   1.00000     0.00000
 Structure written by MMmdl.
 31 32  0  0  0  0  0  0  0  0  1 V2000
  148.1009  141.7946  154.5322 C   0  0  0  0  0  0  0  0  0  0  0  0
  147.4782  140.4824  154.1979 C   0  0  0  0  0  0  0  0  0  0  0  0
  147.9293  139.3817  153.5248 C   0  0  0  0  0  0  0  0  0  0  0  0
  146.8184  138.4980  153.5750 C   0  0  0  0  0  0  0  0  0  0  0  0
  146.8811  137.2136  152.9760 N   0  0  0  0  0  0  0  0  0  0  0  0
  145.8832  136.3231  152.8419 C   0  0  0  0  0  0  0  0  0  0  0  0
  144.7243  136.4958  153.2208 O   0  0  0  0  0  0  0  0  0  0  0  0
  146.3054  135.2041  152.2330 N   0  0  0  0  0  0  0  0  0  0  0  0
  145.4682  134.0497  151.9026 C   0  0  2  0  0  0  0  0  0  0  0  0
  146.3577  133.0043  151.2018 C   0  0  0  0  0  0  0  0  0  0  0  0
  145.5116  131.8283  150.7066 C   0  0  0  0  0  0  0  0  0  0  0  0
  144.4690  132.3129  149.6886 C   0  0  0  0  0  0  0  0  0  0  0  0
  143.8564  133.5911  150.0513 N   0  0  0  0  0  0  0  0  0  0  0  0
  144.3019  134.4647  150.9729 C   0  0  0  0  0  0  0  0  0  0  0  0
  143.7602  135.5607  151.1101 O   0  0  0  0  0  0  0  0  0  0  0  0
  145.7837  139.0121  154.2226 N   0  0  0  0  0  0  0  0  0  0  0  0
  146.2014  140.2862  154.6249 O   0  0  0  0  0  0  0  0  0  0  0  0
  149.1126  141.8599  154.1313 H   0  0  0  0  0  0  0  0  0  0  0  0
  148.1559  141.9326  155.6121 H   0  0  0  0  0  0  0  0  0  0  0  0
  147.5182  142.6158  154.1145 H   0  0  0  0  0  0  0  0  0  0  0  0
  148.8980  139.2362  153.0700 H   0  0  0  0  0  0  0  0  0  0  0  0
  147.7822  136.9446  152.6101 H   0  0  0  0  0  0  0  0  0  0  0  0
  147.2739  135.1533  151.9537 H   0  0  0  0  0  0  0  0  0  0  0  0
  145.0436  133.6116  152.8075 H   0  0  0  0  0  0  0  0  0  0  0  0
  146.8917  133.4524  150.3618 H   0  0  0  0  0  0  0  0  0  0  0  0
  147.1183  132.6414  151.8944 H   0  0  0  0  0  0  0  0  0  0  0  0
  146.1435  131.0596  150.2612 H   0  0  0  0  0  0  0  0  0  0  0  0
  145.0082  131.3633  151.5553 H   0  0  0  0  0  0  0  0  0  0  0  0
  144.9453  132.4444  148.7164 H   0  0  0  0  0  0  0  0  0  0  0  0
  143.6899  131.5619  149.5554 H   0  0  0  0  0  0  0  0  0  0  0  0
  143.0626  133.8773  149.4966 H   0  0  0  0  0  0  0  0  0  0  0  0
  1  2  1  0  0  0  0
  1 18  1  0  0  0  0
  1 19  1  0  0  0  0
  1 20  1  0  0  0  0
  2 17  1  0  0  0  0
  2  3  2  0  0  0  0
  3  4  1  0  0  0  0
  3 21  1  0  0  0  0
  4  5  1  0  0  0  0
  4 16  2  0  0  0  0
  5  6  1  0  0  0  0
  5 22  1  0  0  0  0
  6  7  2  0  0  0  0
  6  8  1  0  0  0  0
  8  9  1  0  0  0  0
  8 23  1  0  0  0  0
  9 14  1  0  0  0  0
  9 10  1  0  0  0  0
  9 24  1  0  0  0  0
 10 11  1  0  0  0  0
 10 25  1  0  0  0  0
 10 26  1  0  0  0  0
 11 12  1  0  0  0  0
 11 27  1  0  0  0  0
 11 28  1  0  0  0  0
 12 13  1  0  0  0  0
 12 29  1  0  0  0  0
 12 30  1  0  0  0  0
 13 14  1  0  0  0  0
 13 31  1  0  0  0  0
 14 15  2  0  0  0  0
 16 17  1  0  0  0  0
M  END
> <s_m_source_file>
AV-unprocessed.smi

> <i_m_source_file_index>
1876

> <i_lp_mmshare_version>
43012

> <i_f3d_flags>
0

> <s_epik_input>
W0NIM11jMVtjSF1jKG5vMSlbTkhdQyg9TylbTkhdW0NAQEhdMltDSDJdW0NIMl1bQ0gyXVtOSF1DMj1P

> <s_epik_cmdline>
J2VwaWtfcHl0aG9uJywgJy1waCcsICc3LjAnLCAnLXRuJywgJzgnLCAnLW1hJywgJzIwMCcsICctbWV0YWxfYmluZGluZycsICctaW1hZScsICc8aW5maWxlLm1hZT4nLCAnLW9tYWUnLCAnPG91dGZpbGUubWFlPic=

> <r_lp_tautomer_probability>
1

> <r_epik_Ionization_Penalty>
2.33177e-05

> <r_epik_Ionization_Penalty_Charging>
0

> <r_epik_Ionization_Penalty_Neutral>
2.33177e-05

> <r_epik_State_Penalty>
-0

> <r_epik_Charging_Adjusted_Penalty>
0

> <i_epik_Tot_Q>
0

> <i_epik_Tot_abs_Q>
0

> <r_epik_Metal_State_Penalty>
-0

> <b_epik_Metal_Only>
0

> <s_lp_Force_Field>
OPLS_2005

> <r_lp_Energy>
8.43972

> <b_lp_Chiralities_Consistent>
1

> <s_lp_Variant>
AV-unprocessed.smi:1876-1

> <Gold.Version>
5.8.1

> <Gold.Id.Protein>
6NUR|6NUR_protein|mol2

> <Gold.PLP.Fitness>
31.8362

> <Gold.PLP.PLP>
-23.1681

> <Gold.PLP.part.hbond>
-3.0000

> <Gold.PLP.part.metal>
0.0000

> <Gold.PLP.part.buried>
-3.5235

> <Gold.PLP.part.nonpolar>
-17.3413

> <Gold.PLP.part.repulsive>
0.5643

> <Gold.PLP.ligand.clash>
0.0000

> <Gold.PLP.ligand.torsion>
0.0101

> <Gold.PLP.Chemscore.Hbond>
2.8960

> <Gold.PLP.Chemscore.CHOScore>
0.0000

> <Gold.PLP.Chemscore.Metal>
0.0000

> <Gold.Chemscore.Hbonds>
donor molecule, donor type, donor heavy atom, donor atom, acceptor molecule, acceptor atom, score
      L1  H     5    22       P1  7948  1.00
      L1  H     8    23       P1  7948  0.88
      L1  H    13    31       P1 10186  0.70

> <Gold.PLP.Chemscore.Internal.Correction>
0.0003

> <Gold.Rescore>
     Score         DG    S(hbond)    S(metal)    S(lipo)     H(rot)  DE(clash)    DE(int)     intcor
     14.01     -18.23       2.93        0.00      47.38       1.00       0.01       4.22       ----

> <Gold.Chemscore.Fitness>
14.0080

> <Gold.Chemscore.DG>
-18.2335

> <Gold.Chemscore.ZeroCoef>
-5.4800

> <Gold.Chemscore.Hbond>
2.9251

> <Gold.Chemscore.Metal>
0.0000

> <Gold.Chemscore.Lipo>
47.3820

> <Gold.Chemscore.Internal_Hbond>
0.0000

> <Gold.Chemscore.DEClash>
0.0051

> <Gold.Chemscore.DEInternal>
4.2204

> <Gold.Chemscore.Rot>
1.0000

> <Gold.Chemscore.Internal.Correction>
   9.000000E+99

> <Gold.Chemscore.Hbonds>
donor molecule, donor type, donor heavy atom, donor atom, acceptor molecule, acceptor atom, score
      L1  H     5    22       P1  7948  0.96
      L1  H     8    23       P1  7948  0.83
      L1  H    13    31       P1 10186  0.68

> <Gold.Chemscore.Hbond.Weighted>
-9.7698

> <Gold.Chemscore.Metal.Weighted>
-0.0000

> <Gold.Chemscore.Lipo.Weighted>
-5.5437

> <Gold.Chemscore.Internal_Hbond.Weighted>
0.0000

> <Gold.Chemscore.DEClash.Weighted>
0.0051

> <Gold.Chemscore.DEInternal.Weighted>
4.2204

> <Gold.Chemscore.Rot.Weighted>
2.5600

> <Gold.Chemscore.Internal.Correction.Weighted>
   9.000000E+99

> <Gold.Protein.RotatedTorsions>
[ 6907 6896 6895 6894 ] final  132.89 input  -60.11 | X-H torsion
[ 7974 7965 7964 7962 ] final   82.60 input  175.53 | X-H torsion
[ 8008 7997 7996 7995 ] final   31.94 input   59.86 | X-H torsion
[ 10167 10162 10161 10158 ] final   41.06 input  -65.29 | X-H torsion
[ 10718 10713 10712 10709 ] final   29.49 input   66.30 | X-H torsion
[ 10763 10752 10751 10750 ] final  142.68 input  -60.55 | X-H torsion
[ 11005 11000 10999 10996 ] final  -76.90 input  -57.11 | X-H torsion

> <Gold.Protein.ActiveResidues>
 VAL166  LYS551  ARG553  GLY616  TRP617  ASP618  TYR619  PRO620  LYS621  CYS622 
 ASP623  PHE694  ASN695  SER759  ASP760  ASP761  ALA762  ILE779  LEU786  VAL792 
 PHE793  MET794  SER795  GLU796  ALA797  LYS798  CYS799  TRP800  GLU811  SER814 

> <Gold.Protein.RotatedAtoms>
  152.3277  133.5923  159.5787 H   0  0  0  0  0  0  0  0  0  0  0  0  # atno 6907 bound_to 6896
  150.7405  133.9916  159.3618 H   0  0  0  0  0  0  0  0  0  0  0  0  # atno 6908 bound_to 6896
  151.7794  135.0766  160.0422 H   0  0  0  0  0  0  0  0  0  0  0  0  # atno 6909 bound_to 6896
  145.6229  139.2389  143.2128 H   0  0  0  0  0  0  0  0  0  0  0  0  # atno 7974 bound_to 7965
  155.1145  140.3242  155.4513 H   0  0  0  0  0  0  0  0  0  0  0  0  # atno 8008 bound_to 7997
  156.2681  140.2038  156.6216 H   0  0  0  0  0  0  0  0  0  0  0  0  # atno 8009 bound_to 7997
  154.6730  140.0534  157.0173 H   0  0  0  0  0  0  0  0  0  0  0  0  # atno 8010 bound_to 7997
  140.3681  144.2141  150.6134 H   0  0  0  0  0  0  0  0  0  0  0  0  # atno 10167 bound_to 10162
  157.2473  130.7098  149.6388 H   0  0  0  0  0  0  0  0  0  0  0  0  # atno 10718 bound_to 10713
  153.9598  135.2961  155.3434 H   0  0  0  0  0  0  0  0  0  0  0  0  # atno 10763 bound_to 10752
  154.7381  135.5037  153.9079 H   0  0  0  0  0  0  0  0  0  0  0  0  # atno 10764 bound_to 10752
  153.0952  135.6719  153.9886 H   0  0  0  0  0  0  0  0  0  0  0  0  # atno 10765 bound_to 10752
  141.1657  133.7001  156.7739 H   0  0  0  0  0  0  0  0  0  0  0  0  # atno 11005 bound_to 11000
  146.1417  140.7049  142.9364 LP  0  0  0  0  0  0  0  0  0  0  0  0  # atno 17320 bound_to 7965
  144.7224  140.4416  143.6998 LP  0  0  0  0  0  0  0  0  0  0  0  0  # atno 17321 bound_to 7965
  140.5061  143.2304  151.8606 LP  0  0  0  0  0  0  0  0  0  0  0  0  # atno 17342 bound_to 10162
  139.4806  144.5004  151.9068 LP  0  0  0  0  0  0  0  0  0  0  0  0  # atno 17343 bound_to 10162
  155.9667  130.4439  150.5439 LP  0  0  0  0  0  0  0  0  0  0  0  0  # atno 17370 bound_to 10713
  157.3315  131.0700  151.1857 LP  0  0  0  0  0  0  0  0  0  0  0  0  # atno 17371 bound_to 10713
  140.2444  134.8589  157.3605 LP  0  0  0  0  0  0  0  0  0  0  0  0  # atno 17394 bound_to 11000
  140.1764  134.4544  155.7799 LP  0  0  0  0  0  0  0  0  0  0  0  0  # atno 17395 bound_to 11000

$$$$
