#       Name:                AV-unprocessed.smi:2865
#       Creating user name   scv26
#       Creation time:       Fri Mar 27 15:48:00 2020


#       File generated by GOLD software.
#

@<TRIPOS>MOLECULE
AV-unprocessed.smi:2865
    44    47     1
SMALL
NO_CHARGES


@<TRIPOS>ATOM
      1 ****        -0.5515   2.7734  -0.5691 O.2            1 S1                 0.0000
      2 ****        -0.8822   1.5947  -0.4648 C.2            1 S1                 0.0000
      3 ****        -0.0249   0.5654  -0.3183 N.am           1 S1                 0.0000
      4 ****         1.3958   0.5825  -0.3199 C.ar           1 S1                 0.0000
      5 ****         2.0895  -0.5641   0.1209 C.ar           1 S1                 0.0000
      6 ****         3.4383  -0.6263   0.1314 N.ar           1 S1                 0.0000
      7 ****         4.0948   0.4565  -0.2935 C.ar           1 S1                 0.0000
      8 ****         5.5893   0.3704  -0.3191 C.3            1 S1                 0.0000
      9 ****         6.3685   0.0210   0.9325 C.3            1 S1                 0.0000
     10 ****         6.4390   1.4153   0.3750 C.3            1 S1                 0.0000
     11 ****         3.5513   1.5864  -0.7541 N.ar           1 S1                 0.0000
     12 ****         2.2026   1.6582  -0.7669 C.ar           1 S1                 0.0000
     13 ****        -2.1776   1.2350  -0.4593 N.am           1 S1                 0.0000
     14 ****        -3.3531   2.0968  -0.5951 C.3            1 S1                 0.0000
     15 ****        -3.6460   2.4838  -2.0507 C.3            1 S1                 0.0000
     16 ****        -5.0689   1.9421  -2.2426 C.3            1 S1                 0.0000
     17 ****        -6.1061   2.7400  -1.4385 C.3            1 S1                 0.0000
     18 ****        -5.8122   2.2879  -0.0078 C.3            1 S1                 0.0000
     19 ****        -4.6330   1.3298  -0.2220 C.3            1 S1                 0.0000
     20 ****        -4.9936   0.7586  -1.4690 O.3            1 S1                 0.0000
     21 ****        -0.4460  -0.3392  -0.1648 H              1 S1                 0.0000
     22 ****         1.5609  -1.4404   0.4668 H              1 S1                 0.0000
     23 ****         5.9458  -0.0263  -1.2679 H              1 S1                 0.0000
     24 ****         5.8109  -0.1205   1.8565 H              1 S1                 0.0000
     25 ****         7.2461  -0.6115   0.8164 H              1 S1                 0.0000
     26 ****         7.3635   1.7153  -0.1141 H              1 S1                 0.0000
     27 ****         5.9282   2.2014   0.9279 H              1 S1                 0.0000
     28 ****         1.7938   2.5760  -1.1582 H              1 S1                 0.0000
     29 ****        -2.3708   0.2536  -0.3196 H              1 S1                 0.0000
     30 ****        -3.2443   2.9743   0.0450 H              1 S1                 0.0000
     31 ****        -3.5853   3.5593  -2.2207 H              1 S1                 0.0000
     32 ****        -2.9596   1.9939  -2.7428 H              1 S1                 0.0000
     33 ****        -5.3441   1.7814  -3.2852 H              1 S1                 0.0000
     34 ****        -5.9967   3.8164  -1.5745 H              1 S1                 0.0000
     35 ****        -7.1202   2.4600  -1.7260 H              1 S1                 0.0000
     36 ****        -5.5647   3.1152   0.6580 H              1 S1                 0.0000
     37 ****        -6.6695   1.7585   0.4094 H              1 S1                 0.0000
     38 ****        -4.5073   0.6071   0.5852 H              1 S1                 0.0000
     39 ****         0.4161   3.0249  -0.5480 LP             1 S1                 0.0000
     40 ****        -1.2499   3.4811  -0.6751 LP             1 S1                 0.0000
     41 ****         3.9226  -1.4441   0.4425 LP             1 S1                 0.0000
     42 ****         4.1178   2.3453  -1.0751 LP             1 S1                 0.0000
     43 ****        -4.2934   0.1315  -1.8104 LP             1 S1                 0.0000
     44 ****        -5.8726   0.2839  -1.4236 LP             1 S1                 0.0000
@<TRIPOS>BOND
    1    1    2 2     
    2    2    3 am    
    3    2   13 am    
    4    3    4 1     
    5    3   21 1     
    6    4   12 ar    
    7    4    5 ar    
    8    5    6 ar    
    9    5   22 1     
   10    6    7 ar    
   11    7    8 1     
   12    7   11 ar    
   13    8   10 1     
   14    8    9 1     
   15    8   23 1     
   16    9   10 1     
   17    9   24 1     
   18    9   25 1     
   19   10   26 1     
   20   10   27 1     
   21   11   12 ar    
   22   12   28 1     
   23   13   14 1     
   24   13   29 1     
   25   14   19 1     
   26   14   15 1     
   27   14   30 1     
   28   15   16 1     
   29   15   31 1     
   30   15   32 1     
   31   16   20 1     
   32   16   17 1     
   33   16   33 1     
   34   17   18 1     
   35   17   34 1     
   36   17   35 1     
   37   18   19 1     
   38   18   36 1     
   39   18   37 1     
   40   19   20 1     
   41   19   38 1     
   42    1   39 1     
   43    1   40 1     
   44    6   41 1     
   45   11   42 1     
   46   20   43 1     
   47   20   44 1     
@<TRIPOS>SUBSTRUCTURE
      1 S1             1
@<TRIPOS>SET
LONE_PAIRS      STATIC     ATOMS    <user>   **** ""
6 39 40 41 42 43 44
DONOR_HYDROGENS      STATIC     ATOMS    <user>   **** ""
2 21 29
ATOM$BLUE        STATIC     ATOMS    COLORGROUP SYSTEM
6 39 40 41 42 43 44
ATOM$RED        STATIC     ATOMS    COLORGROUP SYSTEM
2 21 29
