#       Name:                AV-unprocessed.smi:3022
#       Creating user name   scv26
#       Creation time:       Fri Mar 27 16:43:46 2020


#       File generated by GOLD software.
#

@<TRIPOS>MOLECULE
AV-unprocessed.smi:3022
    52    54     1
SMALL
NO_CHARGES


@<TRIPOS>ATOM
      1 ****        -8.0722  -3.6182  -0.7188 O.3            1 S1                 0.0000
      2 ****        -6.7492  -3.1816  -0.9424 C.3            1 S1                 0.0000
      3 ****        -5.9281  -3.3274   0.3458 C.3            1 S1                 0.0000
      4 ****        -4.5569  -2.8920   0.1537 N.pl3          1 S1                 0.0000
      5 ****        -3.6405  -3.7897  -0.3044 N.2            1 S1                 0.0000
      6 ****        -2.5049  -3.1380  -0.3954 C.2            1 S1                 0.0000
      7 ****        -2.6492  -1.7708   0.0026 C.ar           1 S1                 0.0000
      8 ****        -1.8588  -0.6029   0.1236 C.ar           1 S1                 0.0000
      9 ****        -0.4963  -0.6022  -0.2041 N.pl3          1 S1                 0.0000
     10 ****         0.2942   0.6145  -0.0913 C.3            1 S1                 0.0000
     11 ****         1.7462   0.3823  -0.5394 C.3            1 S1                 0.0000
     12 ****         2.5656   1.6231  -0.5026 N.4            1 S1                 1.0000
     13 ****         3.8211   1.4961  -1.2945 C.3            1 S1                 0.0000
     14 ****         5.0022   0.8710  -0.5279 C.3            1 S1                 0.0000
     15 ****         5.8715   1.9230   0.1782 C.3            1 S1                 0.0000
     16 ****         5.1912   2.5975   1.3766 C.3            1 S1                 0.0000
     17 ****         3.8237   3.2258   1.0582 C.3            1 S1                 0.0000
     18 ****         2.7091   2.1771   0.8749 C.3            1 S1                 0.0000
     19 ****        -2.4510   0.5360   0.5652 N.ar           1 S1                 0.0000
     20 ****        -3.7546   0.5230   0.8697 C.ar           1 S1                 0.0000
     21 ****        -4.6205  -0.4935   0.8042 N.ar           1 S1                 0.0000
     22 ****        -4.0142  -1.6327   0.3617 C.ar           1 S1                 0.0000
     23 ****        -8.5591  -3.5267  -1.5236 H              1 S1                 0.0000
     24 ****        -6.3119  -3.7722  -1.7481 H              1 S1                 0.0000
     25 ****        -6.7686  -2.1419  -1.2713 H              1 S1                 0.0000
     26 ****        -6.3707  -2.7367   1.1488 H              1 S1                 0.0000
     27 ****        -5.9255  -4.3652   0.6832 H              1 S1                 0.0000
     28 ****        -1.6207  -3.6520  -0.7421 H              1 S1                 0.0000
     29 ****        -0.1619   1.3957  -0.7011 H              1 S1                 0.0000
     30 ****         0.2610   0.9489   0.9459 H              1 S1                 0.0000
     31 ****         2.2168  -0.3875   0.0741 H              1 S1                 0.0000
     32 ****         1.7233  -0.0048  -1.5591 H              1 S1                 0.0000
     33 ****         3.6233   0.9087  -2.1917 H              1 S1                 0.0000
     34 ****         4.1003   2.4802  -1.6723 H              1 S1                 0.0000
     35 ****         4.6667   0.1025   0.1694 H              1 S1                 0.0000
     36 ****         5.6367   0.3565  -1.2506 H              1 S1                 0.0000
     37 ****         6.7907   1.4492   0.5242 H              1 S1                 0.0000
     38 ****         6.1835   2.6820  -0.5403 H              1 S1                 0.0000
     39 ****         5.0849   1.8790   2.1902 H              1 S1                 0.0000
     40 ****         5.8566   3.3744   1.7546 H              1 S1                 0.0000
     41 ****         3.5512   3.8479   1.9117 H              1 S1                 0.0000
     42 ****         3.8816   3.9079   0.2094 H              1 S1                 0.0000
     43 ****         1.7594   2.6456   1.1339 H              1 S1                 0.0000
     44 ****         2.8491   1.3672   1.5927 H              1 S1                 0.0000
     45 ****        -4.1623   1.4618   1.2144 H              1 S1                 0.0000
     46 ****        -0.0580  -1.4504  -0.5335 H              1 S1                 0.0000
     47 ****         2.0248   2.3073  -1.0124 H              1 S1                 0.0000
     48 ****        -8.4948  -3.0610  -0.0039 LP             1 S1                 0.0000
     49 ****        -8.0673  -4.5770  -0.4349 LP             1 S1                 0.0000
     50 ****        -3.8007  -4.7514  -0.5266 LP             1 S1                 0.0000
     51 ****        -1.9185   1.3769   0.6621 LP             1 S1                 0.0000
     52 ****        -5.5880  -0.4273   1.0481 LP             1 S1                 0.0000
@<TRIPOS>BOND
    1    1    2 1     
    2    1   23 1     
    3    2    3 1     
    4    2   24 1     
    5    2   25 1     
    6    3    4 1     
    7    3   26 1     
    8    3   27 1     
    9    4   22 1     
   10    4    5 1     
   11    5    6 2     
   12    6    7 1     
   13    6   28 1     
   14    7   22 ar    
   15    7    8 ar    
   16    8    9 1     
   17    8   19 ar    
   18    9   10 1     
   19    9   46 1     
   20   10   11 1     
   21   10   29 1     
   22   10   30 1     
   23   11   12 1     
   24   11   31 1     
   25   11   32 1     
   26   12   18 1     
   27   12   13 1     
   28   12   47 1     
   29   13   14 1     
   30   13   33 1     
   31   13   34 1     
   32   14   15 1     
   33   14   35 1     
   34   14   36 1     
   35   15   16 1     
   36   15   37 1     
   37   15   38 1     
   38   16   17 1     
   39   16   39 1     
   40   16   40 1     
   41   17   18 1     
   42   17   41 1     
   43   17   42 1     
   44   18   43 1     
   45   18   44 1     
   46   19   20 ar    
   47   20   21 ar    
   48   20   45 1     
   49   21   22 ar    
   50    1   48 1     
   51    1   49 1     
   52    5   50 1     
   53   19   51 1     
   54   21   52 1     
@<TRIPOS>SUBSTRUCTURE
      1 S1             1
@<TRIPOS>SET
LONE_PAIRS      STATIC     ATOMS    <user>   **** ""
5 48 49 50 51 52
DONOR_HYDROGENS      STATIC     ATOMS    <user>   **** ""
3 23 46 47
ATOM$BLUE        STATIC     ATOMS    COLORGROUP SYSTEM
5 48 49 50 51 52
ATOM$RED        STATIC     ATOMS    COLORGROUP SYSTEM
3 23 46 47
