AV-unprocessed.smi:1605|AV-procd|sdf|6456|dock7
  -GOLD-   22720 7113D 1   1.00000     0.00000
 Structure written by MMmdl.
 52 54  0  0  0  0  0  0  0  0  3 V2000
  143.0525  136.3056  152.3441 C   0  0  0  0  0  0  0  0  0  0  0  0
  144.3463  135.8592  152.7203 O   0  0  0  0  0  0  0  0  0  0  0  0
  145.1497  136.8499  153.3473 C   0  0  2  0  0  0  0  0  0  0  0  0
  145.8063  137.6855  152.2387 C   0  0  0  0  0  0  0  0  0  0  0  0
  146.7830  138.7194  152.8225 C   0  0  0  0  0  0  0  0  0  0  0  0
  147.8236  138.0612  153.6539 N   0  3  1  0  0  0  0  0  0  0  0  0
  148.8675  139.0155  154.1103 C   0  0  0  0  0  0  0  0  0  0  0  0
  149.9634  138.3441  154.9679 C   0  0  1  0  0  0  0  0  0  0  0  0
  150.4340  137.1952  154.2904 O   0  0  0  0  0  0  0  0  0  0  0  0
  151.1543  139.2800  155.2781 C   0  0  0  0  0  0  0  0  0  0  0  0
  150.7737  140.5761  155.8645 N   0  0  0  0  0  0  0  0  0  0  0  0
  149.8943  141.5133  155.4150 C   0  0  0  0  0  0  0  0  0  0  0  0
  149.8867  142.5359  156.3140 N   0  3  0  0  0  0  0  0  0  0  0  0
  150.7656  142.2447  157.3591 C   0  0  0  0  0  0  0  0  0  0  0  0
  151.0982  142.9701  158.4971 C   0  0  0  0  0  0  0  0  0  0  0  0
  152.0374  142.3907  159.3800 C   0  0  0  0  0  0  0  0  0  0  0  0
  152.4292  143.1602  160.6301 C   0  0  0  0  0  0  0  0  0  0  0  0
  152.6046  141.1187  159.1093 C   0  0  0  0  0  0  0  0  0  0  0  0
  153.6109  140.5019  160.0659 C   0  0  0  0  0  0  0  0  0  0  0  0
  152.2515  140.3965  157.9473 C   0  0  0  0  0  0  0  0  0  0  0  0
  151.3315  140.9849  157.0825 C   0  0  0  0  0  0  0  0  0  0  0  0
  147.2144  137.2768  154.7612 C   0  0  0  0  0  0  0  0  0  0  0  0
  146.2469  136.2115  154.2191 C   0  0  0  0  0  0  0  0  0  0  0  0
  142.5249  135.4974  151.8377 H   0  0  0  0  0  0  0  0  0  0  0  0
  143.1101  137.1490  151.6550 H   0  0  0  0  0  0  0  0  0  0  0  0
  142.4556  136.5979  153.2075 H   0  0  0  0  0  0  0  0  0  0  0  0
  144.5252  137.5081  153.9545 H   0  0  0  0  0  0  0  0  0  0  0  0
  146.3407  137.0299  151.5497 H   0  0  0  0  0  0  0  0  0  0  0  0
  145.0394  138.1912  151.6509 H   0  0  0  0  0  0  0  0  0  0  0  0
  147.2536  139.2636  152.0028 H   0  0  0  0  0  0  0  0  0  0  0  0
  146.2434  139.4534  153.4233 H   0  0  0  0  0  0  0  0  0  0  0  0
  149.3395  139.4794  153.2430 H   0  0  0  0  0  0  0  0  0  0  0  0
  148.3914  139.8255  154.6654 H   0  0  0  0  0  0  0  0  0  0  0  0
  149.5534  138.0163  155.9222 H   0  0  0  0  0  0  0  0  0  0  0  0
  149.8442  136.9924  153.5804 H   0  0  0  0  0  0  0  0  0  0  0  0
  151.8216  138.7935  155.9909 H   0  0  0  0  0  0  0  0  0  0  0  0
  151.7535  139.4587  154.3846 H   0  0  0  0  0  0  0  0  0  0  0  0
  149.3097  141.4582  154.5081 H   0  0  0  0  0  0  0  0  0  0  0  0
  150.6593  143.9363  158.6989 H   0  0  0  0  0  0  0  0  0  0  0  0
  152.1604  142.5988  161.5250 H   0  0  0  0  0  0  0  0  0  0  0  0
  151.9264  144.1265  160.6781 H   0  0  0  0  0  0  0  0  0  0  0  0
  153.5039  143.3442  160.6462 H   0  0  0  0  0  0  0  0  0  0  0  0
  153.9364  139.5193  159.7230 H   0  0  0  0  0  0  0  0  0  0  0  0
  153.1735  140.3802  161.0569 H   0  0  0  0  0  0  0  0  0  0  0  0
  154.4948  141.1346  160.1514 H   0  0  0  0  0  0  0  0  0  0  0  0
  152.6874  139.4303  157.7414 H   0  0  0  0  0  0  0  0  0  0  0  0
  147.9856  136.7818  155.3496 H   0  0  0  0  0  0  0  0  0  0  0  0
  146.6870  137.9501  155.4389 H   0  0  0  0  0  0  0  0  0  0  0  0
  145.8070  135.6686  155.0553 H   0  0  0  0  0  0  0  0  0  0  0  0
  146.8029  135.4787  153.6324 H   0  0  0  0  0  0  0  0  0  0  0  0
  148.2880  137.4026  153.0451 H   0  0  0  0  0  0  0  0  0  0  0  0
  149.3183  143.3683  156.2222 H   0  0  0  0  0  0  0  0  0  0  0  0
  1  2  1  0  0  0  0
  1 24  1  0  0  0  0
  1 25  1  0  0  0  0
  1 26  1  0  0  0  0
  2  3  1  0  0  0  0
  3 23  1  0  0  0  0
  3  4  1  0  0  0  0
  3 27  1  0  0  0  0
  4  5  1  0  0  0  0
  4 28  1  0  0  0  0
  4 29  1  0  0  0  0
  5  6  1  0  0  0  0
  5 30  1  0  0  0  0
  5 31  1  0  0  0  0
  6  7  1  0  0  0  0
  6 22  1  0  0  0  0
  6 51  1  0  0  0  0
  7  8  1  0  0  0  0
  7 32  1  0  0  0  0
  7 33  1  0  0  0  0
  8  9  1  0  0  0  0
  8 10  1  0  0  0  0
  8 34  1  0  0  0  0
  9 35  1  0  0  0  0
 10 11  1  0  0  0  0
 10 36  1  0  0  0  0
 10 37  1  0  0  0  0
 11 21  1  0  0  0  0
 11 12  1  0  0  0  0
 12 13  2  0  0  0  0
 12 38  1  0  0  0  0
 13 14  1  0  0  0  0
 13 52  1  0  0  0  0
 14 21  2  0  0  0  0
 14 15  1  0  0  0  0
 15 16  2  0  0  0  0
 15 39  1  0  0  0  0
 16 17  1  0  0  0  0
 16 18  1  0  0  0  0
 17 40  1  0  0  0  0
 17 41  1  0  0  0  0
 17 42  1  0  0  0  0
 18 19  1  0  0  0  0
 18 20  2  0  0  0  0
 19 43  1  0  0  0  0
 19 44  1  0  0  0  0
 19 45  1  0  0  0  0
 20 21  1  0  0  0  0
 20 46  1  0  0  0  0
 22 23  1  0  0  0  0
 22 47  1  0  0  0  0
 22 48  1  0  0  0  0
 23 49  1  0  0  0  0
 23 50  1  0  0  0  0
M  CHG  1   6   1
M  CHG  1  13   1
M  END
> <s_m_source_file>
AV-unprocessed.smi

> <i_m_source_file_index>
1605

> <i_lp_mmshare_version>
43012

> <i_f3d_flags>
0

> <s_epik_input>
W0NIM11PW0NIXTFbQ0gyXVtDSDJdTihbQ0gyXVtDSDJdMSlbQ0gyXVtDQEhdKFtPSF0pW0NIMl1uKFtjSF1uMiljKGMyMylbY0hdYyhbQ0gzXSljKFtjSF0zKVtDSDNd

> <s_epik_cmdline>
J2VwaWtfcHl0aG9uJywgJy1waCcsICc3LjAnLCAnLXRuJywgJzgnLCAnLW1hJywgJzIwMCcsICctbWV0YWxfYmluZGluZycsICctaW1hZScsICc8aW5maWxlLm1hZT4nLCAnLW9tYWUnLCAnPG91dGZpbGUubWFlPic=

> <r_epik_Ionization_Penalty>
1.19848

> <r_epik_Ionization_Penalty_Charging>
1.19848

> <r_epik_Ionization_Penalty_Neutral>
1.67134e-06

> <r_epik_State_Penalty>
1.2782

> <r_epik_Charging_Adjusted_Penalty>
2.47668

> <i_epik_Tot_Q>
2

> <i_epik_Tot_abs_Q>
2

> <r_epik_Metal_State_Penalty>
5.29544

> <b_epik_Metal_Only>
0

> <s_lp_Force_Field>
OPLS_2005

> <r_lp_Energy>
33.6993

> <b_lp_Chiralities_Consistent>
1

> <s_lp_Variant>
AV-unprocessed.smi:1605-6

> <Gold.Version>
5.8.1

> <Gold.Id.Protein>
6NUR|6NUR_protein|mol2

> <Gold.PLP.Fitness>
57.0954

> <Gold.PLP.PLP>
-42.7971

> <Gold.PLP.part.hbond>
-3.8600

> <Gold.PLP.part.metal>
0.0000

> <Gold.PLP.part.buried>
-5.8661

> <Gold.PLP.part.nonpolar>
-36.0189

> <Gold.PLP.part.repulsive>
0.1909

> <Gold.PLP.ligand.clash>
0.0254

> <Gold.PLP.ligand.torsion>
0.3540

> <Gold.PLP.Chemscore.Hbond>
4.9913

> <Gold.PLP.Chemscore.CHOScore>
0.0000

> <Gold.PLP.Chemscore.Metal>
0.0000

> <Gold.Chemscore.Hbonds>
donor molecule, donor type, donor heavy atom, donor atom, acceptor molecule, acceptor atom, score
      L1  H     6    51       P1  7948  2.00
      L1  H     9    35       P1  7948  0.98
      L1  H    13    52       P1  8028  1.98

> <Gold.PLP.Chemscore.Internal.Correction>
0.0580

> <Gold.Rescore>
     Score         DG    S(hbond)    S(metal)    S(lipo)     H(rot)  DE(clash)    DE(int)     intcor
     19.80     -21.24       2.71        0.00     107.23       2.28       0.12       1.32       ----

> <Gold.Chemscore.Fitness>
19.7972

> <Gold.Chemscore.DG>
-21.2421

> <Gold.Chemscore.ZeroCoef>
-5.4800

> <Gold.Chemscore.Hbond>
2.7134

> <Gold.Chemscore.Metal>
0.0000

> <Gold.Chemscore.Lipo>
107.2314

> <Gold.Chemscore.Internal_Hbond>
0.0000

> <Gold.Chemscore.DEClash>
0.1223

> <Gold.Chemscore.DEInternal>
1.3226

> <Gold.Chemscore.Rot>
2.2839

> <Gold.Chemscore.Internal.Correction>
   9.000000E+99

> <Gold.Chemscore.Hbonds>
donor molecule, donor type, donor heavy atom, donor atom, acceptor molecule, acceptor atom, score
      L1  H     6    51       P1  7948  1.00
      L1  H     9    35       P1  7948  0.46
      L1  H    13    52       P1  8028  0.91

> <Gold.Chemscore.Hbond.Weighted>
-9.0629

> <Gold.Chemscore.Metal.Weighted>
-0.0000

> <Gold.Chemscore.Lipo.Weighted>
-12.5461

> <Gold.Chemscore.Internal_Hbond.Weighted>
0.0000

> <Gold.Chemscore.DEClash.Weighted>
0.1223

> <Gold.Chemscore.DEInternal.Weighted>
1.3226

> <Gold.Chemscore.Rot.Weighted>
5.8469

> <Gold.Chemscore.Internal.Correction.Weighted>
   9.000000E+99

> <Gold.Protein.RotatedTorsions>
[ 6907 6896 6895 6894 ] final  -77.23 input  -60.11 | X-H torsion
[ 7974 7965 7964 7962 ] final -121.30 input  175.53 | X-H torsion
[ 8008 7997 7996 7995 ] final   20.81 input   59.86 | X-H torsion
[ 10167 10162 10161 10158 ] final  159.68 input  -65.29 | X-H torsion
[ 10718 10713 10712 10709 ] final  -92.97 input   66.30 | X-H torsion
[ 10763 10752 10751 10750 ] final -166.82 input  -60.55 | X-H torsion
[ 11005 11000 10999 10996 ] final   85.87 input  -57.11 | X-H torsion

> <Gold.Protein.ActiveResidues>
 VAL166  LYS551  ARG553  GLY616  TRP617  ASP618  TYR619  PRO620  LYS621  CYS622 
 ASP623  PHE694  ASN695  SER759  ASP760  ASP761  ALA762  ILE779  LEU786  VAL792 
 PHE793  MET794  SER795  GLU796  ALA797  LYS798  CYS799  TRP800  GLU811  SER814 

> <Gold.Protein.RotatedAtoms>
  150.7004  134.4453  159.5310 H   0  0  0  0  0  0  0  0  0  0  0  0  # atno 6907 bound_to 6896
  152.2156  134.8458  160.0501 H   0  0  0  0  0  0  0  0  0  0  0  0  # atno 6908 bound_to 6896
  151.9328  133.3581  159.3973 H   0  0  0  0  0  0  0  0  0  0  0  0  # atno 6909 bound_to 6896
  145.0419  140.8151  143.4261 H   0  0  0  0  0  0  0  0  0  0  0  0  # atno 7974 bound_to 7965
  154.9411  140.3053  155.5120 H   0  0  0  0  0  0  0  0  0  0  0  0  # atno 8008 bound_to 7997
  156.2996  140.2336  156.4418 H   0  0  0  0  0  0  0  0  0  0  0  0  # atno 8009 bound_to 7997
  154.8144  140.0427  157.1355 H   0  0  0  0  0  0  0  0  0  0  0  0  # atno 8010 bound_to 7997
  139.4834  144.4707  151.8580 H   0  0  0  0  0  0  0  0  0  0  0  0  # atno 10167 bound_to 10162
  156.0008  130.5008  150.5706 H   0  0  0  0  0  0  0  0  0  0  0  0  # atno 10718 bound_to 10713
  154.6794  135.2952  154.9633 H   0  0  0  0  0  0  0  0  0  0  0  0  # atno 10763 bound_to 10752
  154.0633  135.6628  153.4818 H   0  0  0  0  0  0  0  0  0  0  0  0  # atno 10764 bound_to 10752
  153.0537  135.5157  154.7830 H   0  0  0  0  0  0  0  0  0  0  0  0  # atno 10765 bound_to 10752
  139.8960  134.8316  156.2642 H   0  0  0  0  0  0  0  0  0  0  0  0  # atno 11005 bound_to 11000
  145.1637  139.2444  143.5378 LP  0  0  0  0  0  0  0  0  0  0  0  0  # atno 17320 bound_to 7965
  146.3510  140.1370  142.8595 LP  0  0  0  0  0  0  0  0  0  0  0  0  # atno 17321 bound_to 7965
  140.4176  144.2287  150.5887 LP  0  0  0  0  0  0  0  0  0  0  0  0  # atno 17342 bound_to 10162
  140.4906  143.2349  151.8824 LP  0  0  0  0  0  0  0  0  0  0  0  0  # atno 17343 bound_to 10162
  157.3602  131.0748  151.1643 LP  0  0  0  0  0  0  0  0  0  0  0  0  # atno 17370 bound_to 10713
  157.2430  130.6578  149.5898 LP  0  0  0  0  0  0  0  0  0  0  0  0  # atno 17371 bound_to 10713
  141.0143  133.7078  156.1162 LP  0  0  0  0  0  0  0  0  0  0  0  0  # atno 17394 bound_to 11000
  140.7324  134.4240  157.5564 LP  0  0  0  0  0  0  0  0  0  0  0  0  # atno 17395 bound_to 11000

$$$$
