#       Name:                AV-unprocessed.smi:479
#       Creating user name   scv26
#       Creation time:       Thu Mar 26 23:08:59 2020


#       File generated by GOLD software.
#

@<TRIPOS>MOLECULE
AV-unprocessed.smi:479
    54    56     1
SMALL
NO_CHARGES


@<TRIPOS>ATOM
      1 ****        -0.7820   3.3682   0.4934 C.3            1 S1                 0.0000
      2 ****        -0.1665   2.1467   0.8734 O.3            1 S1                 0.0000
      3 ****        -0.9668   1.0428   1.0854 C.ar           1 S1                 0.0000
      4 ****        -2.3826   1.0732   1.0106 C.ar           1 S1                 0.0000
      5 ****        -3.1494  -0.0918   1.2432 C.ar           1 S1                 0.0000
      6 ****        -4.6390  -0.0829   1.1687 C.2            1 S1                 0.0000
      7 ****        -5.3283   1.2243   0.7801 C.3            1 S1                 0.0000
      8 ****        -5.3359  -1.0706   1.4000 O.2            1 S1                 0.0000
      9 ****        -2.4809  -1.2930   1.5607 C.ar           1 S1                 0.0000
     10 ****        -1.0776  -1.3335   1.6350 C.ar           1 S1                 0.0000
     11 ****        -0.3093  -0.1694   1.3917 C.ar           1 S1                 0.0000
     12 ****         1.0694  -0.1399   1.4304 O.3            1 S1                 0.0000
     13 ****         1.7715  -1.3572   1.6488 C.3            1 S1                 0.0000
     14 ****         3.2812  -1.1354   1.4376 C.3            1 S1                 0.0000
     15 ****         3.8263  -0.4768   2.5616 O.3            1 S1                 0.0000
     16 ****         3.6582  -0.3842   0.1435 C.3            1 S1                 0.0000
     17 ****         3.0408  -0.9636  -1.0368 N.pl3          1 S1                 0.0000
     18 ****         3.3382  -2.1477  -1.6054 C.2            1 S1                 0.0000
     19 ****         2.6366  -2.5033  -2.6778 N.2            1 S1                 0.0000
     20 ****         1.7902  -1.4185  -2.8296 C.ar           1 S1                 0.0000
     21 ****         0.7822  -1.1694  -3.7885 C.ar           1 S1                 0.0000
     22 ****         0.0345   0.0259  -3.7455 C.ar           1 S1                 0.0000
     23 ****         0.2861   0.9911  -2.7491 C.ar           1 S1                 0.0000
     24 ****         1.2876   0.7659  -1.7858 C.ar           1 S1                 0.0000
     25 ****         2.0251  -0.4316  -1.8251 C.ar           1 S1                 0.0000
     26 ****        -0.0118   4.1231   0.3360 H              1 S1                 0.0000
     27 ****        -1.4506   3.7374   1.2723 H              1 S1                 0.0000
     28 ****        -1.3348   3.2626  -0.4412 H              1 S1                 0.0000
     29 ****        -2.8866   1.9971   0.7757 H              1 S1                 0.0000
     30 ****        -5.1219   1.9991   1.5186 H              1 S1                 0.0000
     31 ****        -6.4083   1.0846   0.7254 H              1 S1                 0.0000
     32 ****        -4.9801   1.5651  -0.1950 H              1 S1                 0.0000
     33 ****        -3.0372  -2.1999   1.7493 H              1 S1                 0.0000
     34 ****        -0.6139  -2.2761   1.8822 H              1 S1                 0.0000
     35 ****         1.5734  -1.7448   2.6495 H              1 S1                 0.0000
     36 ****         1.4315  -2.1072   0.9328 H              1 S1                 0.0000
     37 ****         3.7543  -2.1177   1.4105 H              1 S1                 0.0000
     38 ****         3.6290  -0.9855   3.3332 H              1 S1                 0.0000
     39 ****         3.3602   0.6626   0.2136 H              1 S1                 0.0000
     40 ****         4.7398  -0.3895   0.0034 H              1 S1                 0.0000
     41 ****         4.1074  -2.7898  -1.2017 H              1 S1                 0.0000
     42 ****         0.5826  -1.9003  -4.5579 H              1 S1                 0.0000
     43 ****        -0.7348   0.2037  -4.4826 H              1 S1                 0.0000
     44 ****        -0.2904   1.9043  -2.7229 H              1 S1                 0.0000
     45 ****         1.4830   1.5027  -1.0216 H              1 S1                 0.0000
     46 ****         0.3300   2.3188   1.7242 LP             1 S1                 0.0000
     47 ****         0.4824   1.9063   0.1515 LP             1 S1                 0.0000
     48 ****        -4.9064  -1.9374   1.6534 LP             1 S1                 0.0000
     49 ****        -6.3317  -1.0064   1.3346 LP             1 S1                 0.0000
     50 ****         1.3301   0.4864   2.1651 LP             1 S1                 0.0000
     51 ****         1.3809   0.2266   0.5537 LP             1 S1                 0.0000
     52 ****         3.4234   0.4345   2.6465 LP             1 S1                 0.0000
     53 ****         4.8173  -0.3946   2.4563 LP             1 S1                 0.0000
     54 ****         2.7030  -3.3350  -3.2291 LP             1 S1                 0.0000
@<TRIPOS>BOND
    1    1    2 1     
    2    1   26 1     
    3    1   27 1     
    4    1   28 1     
    5    2    3 1     
    6    3   11 ar    
    7    3    4 ar    
    8    4    5 ar    
    9    4   29 1     
   10    5    6 1     
   11    5    9 ar    
   12    6    7 1     
   13    6    8 2     
   14    7   30 1     
   15    7   31 1     
   16    7   32 1     
   17    9   10 ar    
   18    9   33 1     
   19   10   11 ar    
   20   10   34 1     
   21   11   12 1     
   22   12   13 1     
   23   13   14 1     
   24   13   35 1     
   25   13   36 1     
   26   14   15 1     
   27   14   16 1     
   28   14   37 1     
   29   15   38 1     
   30   16   17 1     
   31   16   39 1     
   32   16   40 1     
   33   17   25 1     
   34   17   18 1     
   35   18   19 2     
   36   18   41 1     
   37   19   20 1     
   38   20   25 ar    
   39   20   21 ar    
   40   21   22 ar    
   41   21   42 1     
   42   22   23 ar    
   43   22   43 1     
   44   23   24 ar    
   45   23   44 1     
   46   24   25 ar    
   47   24   45 1     
   48    2   46 1     
   49    2   47 1     
   50    8   48 1     
   51    8   49 1     
   52   12   50 1     
   53   12   51 1     
   54   15   52 1     
   55   15   53 1     
   56   19   54 1     
@<TRIPOS>SUBSTRUCTURE
      1 S1             1
@<TRIPOS>SET
LONE_PAIRS      STATIC     ATOMS    <user>   **** ""
9 46 47 48 49 50 51 52 53 54
DONOR_HYDROGENS      STATIC     ATOMS    <user>   **** ""
1 38
ATOM$BLUE        STATIC     ATOMS    COLORGROUP SYSTEM
9 46 47 48 49 50 51 52 53 54
ATOM$RED        STATIC     ATOMS    COLORGROUP SYSTEM
1 38
