AV-unprocessed.smi:1758|AV-procd|sdf|7086|dock1
  -GOLD-   22720 8303D 1   1.00000     0.00000
 Structure written by MMmdl.
 44 46  0  0  0  0  0  0  0  0  2 V2000
  150.5600  141.5352  156.0482 C   0  0  0  0  0  0  0  0  0  0  0  0
  150.4575  140.4318  154.9889 C   0  0  0  0  0  0  0  0  0  0  0  0
  149.1575  140.4247  154.3470 N   0  0  0  0  0  0  0  0  0  0  0  0
  148.2871  139.3640  154.1938 C   0  0  0  0  0  0  0  0  0  0  0  0
  147.2089  139.8611  153.5253 C   0  0  0  0  0  0  0  0  0  0  0  0
  146.0685  139.1058  153.1533 N   0  0  0  0  0  0  0  0  0  0  0  0
  145.8636  137.7938  153.3518 C   0  0  0  0  0  0  0  0  0  0  0  0
  146.6634  137.0246  153.8842 O   0  0  0  0  0  0  0  0  0  0  0  0
  144.6659  137.4109  152.8864 N   0  0  0  0  0  0  0  0  0  0  0  0
  144.1377  136.0505  152.9416 C   0  0  1  0  0  0  0  0  0  0  0  0
  142.6411  135.9995  153.2261 C   0  0  0  0  0  0  0  0  0  0  0  0
  142.2671  134.5952  152.7471 C   0  0  0  0  0  0  0  0  0  0  0  0
  143.1607  134.3010  151.6028 N   0  3  2  0  0  0  0  0  0  0  0  0
  143.5986  132.8864  151.5127 C   0  0  0  0  0  0  0  0  0  0  0  0
  144.4986  132.6687  150.2817 C   0  0  0  0  0  0  0  0  0  0  0  0
  145.6229  133.7186  150.1587 C   0  0  0  0  0  0  0  0  0  0  0  0
  145.6499  134.6876  151.3505 C   0  0  0  0  0  0  0  0  0  0  0  0
  144.2572  135.3111  151.5984 C   0  0  2  0  0  0  0  0  0  0  0  0
  147.4936  141.2375  153.2983 C   0  0  0  0  0  0  0  0  0  0  0  0
  148.6756  141.5668  153.7979 N   0  0  0  0  0  0  0  0  0  0  0  0
  151.5414  141.5271  156.5224 H   0  0  0  0  0  0  0  0  0  0  0  0
  149.8114  141.4028  156.8301 H   0  0  0  0  0  0  0  0  0  0  0  0
  150.4123  142.5207  155.6055 H   0  0  0  0  0  0  0  0  0  0  0  0
  151.2221  140.5715  154.2240 H   0  0  0  0  0  0  0  0  0  0  0  0
  150.6361  139.4546  155.4403 H   0  0  0  0  0  0  0  0  0  0  0  0
  148.5079  138.3739  154.5649 H   0  0  0  0  0  0  0  0  0  0  0  0
  145.3334  139.6189  152.6895 H   0  0  0  0  0  0  0  0  0  0  0  0
  144.0747  138.1132  152.4661 H   0  0  0  0  0  0  0  0  0  0  0  0
  144.6437  135.4792  153.7232 H   0  0  0  0  0  0  0  0  0  0  0  0
  142.4016  136.1649  154.2771 H   0  0  0  0  0  0  0  0  0  0  0  0
  142.1127  136.7488  152.6343 H   0  0  0  0  0  0  0  0  0  0  0  0
  142.4458  133.8817  153.5534 H   0  0  0  0  0  0  0  0  0  0  0  0
  141.2176  134.5173  152.4622 H   0  0  0  0  0  0  0  0  0  0  0  0
  144.1347  132.6100  152.4222 H   0  0  0  0  0  0  0  0  0  0  0  0
  142.7244  132.2369  151.4557 H   0  0  0  0  0  0  0  0  0  0  0  0
  144.9282  131.6672  150.3219 H   0  0  0  0  0  0  0  0  0  0  0  0
  143.8875  132.6951  149.3785 H   0  0  0  0  0  0  0  0  0  0  0  0
  146.5898  133.2247  150.0578 H   0  0  0  0  0  0  0  0  0  0  0  0
  145.4792  134.2896  149.2404 H   0  0  0  0  0  0  0  0  0  0  0  0
  145.9872  134.1543  152.2402 H   0  0  0  0  0  0  0  0  0  0  0  0
  146.3864  135.4717  151.1725 H   0  0  0  0  0  0  0  0  0  0  0  0
  144.0264  136.0007  150.7845 H   0  0  0  0  0  0  0  0  0  0  0  0
  146.9076  141.9959  152.8012 H   0  0  0  0  0  0  0  0  0  0  0  0
  142.6250  134.4826  150.7659 H   0  0  0  0  0  0  0  0  0  0  0  0
  1  2  1  0  0  0  0
  1 21  1  0  0  0  0
  1 22  1  0  0  0  0
  1 23  1  0  0  0  0
  2  3  1  0  0  0  0
  2 24  1  0  0  0  0
  2 25  1  0  0  0  0
  3 20  1  0  0  0  0
  3  4  1  0  0  0  0
  4  5  2  0  0  0  0
  4 26  1  0  0  0  0
  5  6  1  0  0  0  0
  5 19  1  0  0  0  0
  6  7  1  0  0  0  0
  6 27  1  0  0  0  0
  7  8  2  0  0  0  0
  7  9  1  0  0  0  0
  9 10  1  0  0  0  0
  9 28  1  0  0  0  0
 10 18  1  0  0  0  0
 10 11  1  0  0  0  0
 10 29  1  0  0  0  0
 11 12  1  0  0  0  0
 11 30  1  0  0  0  0
 11 31  1  0  0  0  0
 12 13  1  0  0  0  0
 12 32  1  0  0  0  0
 12 33  1  0  0  0  0
 13 18  1  0  0  0  0
 13 14  1  0  0  0  0
 13 44  1  0  0  0  0
 14 15  1  0  0  0  0
 14 34  1  0  0  0  0
 14 35  1  0  0  0  0
 15 16  1  0  0  0  0
 15 36  1  0  0  0  0
 15 37  1  0  0  0  0
 16 17  1  0  0  0  0
 16 38  1  0  0  0  0
 16 39  1  0  0  0  0
 17 18  1  0  0  0  0
 17 40  1  0  0  0  0
 17 41  1  0  0  0  0
 18 42  1  0  0  0  0
 19 20  2  0  0  0  0
 19 43  1  0  0  0  0
M  CHG  1  13   1
M  END
> <s_m_source_file>
AV-unprocessed.smi

> <i_m_source_file_index>
1758

> <i_lp_mmshare_version>
43012

> <i_f3d_flags>
0

> <s_epik_input>
W0NIM11bQ0gyXW4xW2NIXWMoW2NIXW4xKVtOSF1DKD1PKVtOSF1bQ0BIXShbQ0gyXVtDSDJdMilbQ0BASF0oTjIzKVtDSDJdW0NIMl1bQ0gyXVtDSDJdMw==

> <s_epik_cmdline>
J2VwaWtfcHl0aG9uJywgJy1waCcsICc3LjAnLCAnLXRuJywgJzgnLCAnLW1hJywgJzIwMCcsICctbWV0YWxfYmluZGluZycsICctaW1hZScsICc8aW5maWxlLm1hZT4nLCAnLW9tYWUnLCAnPG91dGZpbGUubWFlPic=

> <r_lp_tautomer_probability>
1

> <r_epik_Ionization_Penalty>
0.00111541

> <r_epik_Ionization_Penalty_Charging>
0.000974069

> <r_epik_Ionization_Penalty_Neutral>
0.000141346

> <r_epik_State_Penalty>
0.000633842

> <r_epik_Charging_Adjusted_Penalty>
0.00160791

> <i_epik_Tot_Q>
1

> <i_epik_Tot_abs_Q>
1

> <r_epik_Metal_State_Penalty>
-0

> <b_epik_Metal_Only>
0

> <s_lp_Force_Field>
OPLS_2005

> <r_lp_Energy>
44.0656

> <b_lp_Chiralities_Consistent>
1

> <s_lp_Variant>
AV-unprocessed.smi:1758-8

> <Gold.Version>
5.8.1

> <Gold.Id.Protein>
6NUR|6NUR_protein|mol2

> <Gold.PLP.Fitness>
44.4368

> <Gold.PLP.PLP>
-33.5895

> <Gold.PLP.part.hbond>
-3.3946

> <Gold.PLP.part.metal>
0.0000

> <Gold.PLP.part.buried>
-2.4772

> <Gold.PLP.part.nonpolar>
-27.5468

> <Gold.PLP.part.repulsive>
0.2871

> <Gold.PLP.ligand.clash>
0.0000

> <Gold.PLP.ligand.torsion>
0.3381

> <Gold.PLP.Chemscore.Hbond>
3.8374

> <Gold.PLP.Chemscore.CHOScore>
0.0000

> <Gold.PLP.Chemscore.Metal>
0.0000

> <Gold.Chemscore.Hbonds>
donor molecule, donor type, donor heavy atom, donor atom, acceptor molecule, acceptor atom, score
      L1  H     6    27       P1 10175  1.00
      L1  H     9    28       P1 10175  0.15
      L1  H    13    44       P1 10186  1.90
      P1  H  8011  8017       L1    20  0.67

> <Gold.PLP.Chemscore.Internal.Correction>
0.0115

> <Gold.Rescore>
     Score         DG    S(hbond)    S(metal)    S(lipo)     H(rot)  DE(clash)    DE(int)     intcor
     15.44     -17.92       1.77        0.00      81.80       1.19       0.82       1.66       ----

> <Gold.Chemscore.Fitness>
15.4410

> <Gold.Chemscore.DG>
-17.9236

> <Gold.Chemscore.ZeroCoef>
-5.4800

> <Gold.Chemscore.Hbond>
1.7711

> <Gold.Chemscore.Metal>
0.0000

> <Gold.Chemscore.Lipo>
81.7997

> <Gold.Chemscore.Internal_Hbond>
0.0000

> <Gold.Chemscore.DEClash>
0.8199

> <Gold.Chemscore.DEInternal>
1.6627

> <Gold.Chemscore.Rot>
1.1884

> <Gold.Chemscore.Internal.Correction>
   9.000000E+99

> <Gold.Chemscore.Hbonds>
donor molecule, donor type, donor heavy atom, donor atom, acceptor molecule, acceptor atom, score
      L1  H     6    27       P1 10175  0.99
      L1  H     9    28       P1 10175  0.16
      L1  H    13    44       P1 10186  0.20
      P1  H  8011  8017       L1    20  0.42

> <Gold.Chemscore.Hbond.Weighted>
-5.9154

> <Gold.Chemscore.Metal.Weighted>
-0.0000

> <Gold.Chemscore.Lipo.Weighted>
-9.5706

> <Gold.Chemscore.Internal_Hbond.Weighted>
0.0000

> <Gold.Chemscore.DEClash.Weighted>
0.8199

> <Gold.Chemscore.DEInternal.Weighted>
1.6627

> <Gold.Chemscore.Rot.Weighted>
3.0423

> <Gold.Chemscore.Internal.Correction.Weighted>
   9.000000E+99

> <Gold.Protein.RotatedTorsions>
[ 6907 6896 6895 6894 ] final  169.17 input  -60.11 | X-H torsion
[ 7974 7965 7964 7962 ] final   77.18 input  175.53 | X-H torsion
[ 8008 7997 7996 7995 ] final  -56.60 input   59.86 | X-H torsion
[ 10167 10162 10161 10158 ] final   -4.56 input  -65.29 | X-H torsion
[ 10718 10713 10712 10709 ] final   47.89 input   66.30 | X-H torsion
[ 10763 10752 10751 10750 ] final  -61.67 input  -60.55 | X-H torsion
[ 11005 11000 10999 10996 ] final -178.41 input  -57.11 | X-H torsion

> <Gold.Protein.ActiveResidues>
 VAL166  LYS551  ARG553  GLY616  TRP617  ASP618  TYR619  PRO620  LYS621  CYS622 
 ASP623  PHE694  ASN695  SER759  ASP760  ASP761  ALA762  ILE779  LEU786  VAL792 
 PHE793  MET794  SER795  GLU796  ALA797  LYS798  CYS799  TRP800  GLU811  SER814 

> <Gold.Protein.RotatedAtoms>
  151.8361  133.3416  159.3628 H   0  0  0  0  0  0  0  0  0  0  0  0  # atno 6907 bound_to 6896
  150.7249  134.5436  159.5769 H   0  0  0  0  0  0  0  0  0  0  0  0  # atno 6908 bound_to 6896
  152.2900  134.7733  160.0431 H   0  0  0  0  0  0  0  0  0  0  0  0  # atno 6909 bound_to 6896
  145.6933  139.2559  143.1747 H   0  0  0  0  0  0  0  0  0  0  0  0  # atno 7974 bound_to 7965
  154.4236  140.1126  156.5663 H   0  0  0  0  0  0  0  0  0  0  0  0  # atno 8008 bound_to 7997
  155.6259  140.3495  155.4648 H   0  0  0  0  0  0  0  0  0  0  0  0  # atno 8009 bound_to 7997
  155.9987  140.1194  157.0558 H   0  0  0  0  0  0  0  0  0  0  0  0  # atno 8010 bound_to 7997
  140.6932  143.6409  150.8436 H   0  0  0  0  0  0  0  0  0  0  0  0  # atno 10167 bound_to 10162
  157.4631  130.8208  149.7907 H   0  0  0  0  0  0  0  0  0  0  0  0  # atno 10718 bound_to 10713
  154.2882  135.6258  153.5374 H   0  0  0  0  0  0  0  0  0  0  0  0  # atno 10763 bound_to 10752
  152.9856  135.5649  154.5419 H   0  0  0  0  0  0  0  0  0  0  0  0  # atno 10764 bound_to 10752
  154.5025  135.2872  155.1385 H   0  0  0  0  0  0  0  0  0  0  0  0  # atno 10765 bound_to 10752
  140.4301  134.6526  157.4707 H   0  0  0  0  0  0  0  0  0  0  0  0  # atno 11005 bound_to 11000
  146.0863  140.7707  142.9617 LP  0  0  0  0  0  0  0  0  0  0  0  0  # atno 17320 bound_to 7965
  144.6990  140.3567  143.7171 LP  0  0  0  0  0  0  0  0  0  0  0  0  # atno 17321 bound_to 7965
  140.0125  143.5628  152.2833 LP  0  0  0  0  0  0  0  0  0  0  0  0  # atno 17342 bound_to 10162
  139.6357  144.7649  151.2443 LP  0  0  0  0  0  0  0  0  0  0  0  0  # atno 17343 bound_to 10162
  156.0038  130.3866  150.2508 LP  0  0  0  0  0  0  0  0  0  0  0  0  # atno 17370 bound_to 10713
  157.0686  131.0110  151.3198 LP  0  0  0  0  0  0  0  0  0  0  0  0  # atno 17371 bound_to 10713
  140.0140  134.6647  155.9338 LP  0  0  0  0  0  0  0  0  0  0  0  0  # atno 17394 bound_to 11000
  141.1749  133.6539  156.4790 LP  0  0  0  0  0  0  0  0  0  0  0  0  # atno 17395 bound_to 11000

$$$$
