AV-unprocessed.smi:3145|AV-procd|sdf|11981|dock1
  -GOLD-   2272017383D 1   1.00000     0.00000
 Structure written by MMmdl.
 34 34  0  0  0  0  0  0  0  0  1 V2000
  142.9168  137.2296  152.9640 C   0  0  0  0  0  0  0  0  0  0  0  0
  144.3178  137.1627  152.3399 C   0  0  2  0  0  0  0  0  0  0  0  0
  145.0249  135.8375  152.7043 C   0  0  0  0  0  0  0  0  0  0  0  0
  144.6602  134.7334  151.8331 N   0  0  0  0  0  0  0  0  0  0  0  0
  143.9179  133.6123  152.1384 C   0  0  0  0  0  0  0  0  0  0  0  0
  143.8260  132.8634  151.0003 C   0  0  0  0  0  0  0  0  0  0  0  0
  144.5574  133.6163  150.0397 C   0  0  0  0  0  0  0  0  0  0  0  0
  145.0578  134.7336  150.5413 N   0  0  0  0  0  0  0  0  0  0  0  0
  145.0808  138.2975  152.8499 N   0  0  0  0  0  0  0  0  0  0  0  0
  146.4193  138.3849  152.2528 C   0  0  0  0  0  0  0  0  0  0  0  0
  147.3647  139.2034  153.1268 C   0  0  0  0  0  0  0  0  0  0  0  0
  147.0952  140.3698  153.4113 O   0  0  0  0  0  0  0  0  0  0  0  0
  148.4751  138.5759  153.5398 N   0  0  0  0  0  0  0  0  0  0  0  0
  149.5075  139.1776  154.3696 C   0  0  0  0  0  0  0  0  0  0  0  0
  150.8139  138.3858  154.2518 C   0  0  0  0  0  0  0  0  0  0  0  0
  151.8974  138.9578  155.0649 C   0  0  0  0  0  0  0  0  0  0  0  0
  152.7500  139.4076  155.7047 N   0  0  0  0  0  0  0  0  0  0  0  0
  142.2914  136.4108  152.6069 H   0  0  0  0  0  0  0  0  0  0  0  0
  142.4128  138.1615  152.7051 H   0  0  0  0  0  0  0  0  0  0  0  0
  142.9587  137.1636  154.0519 H   0  0  0  0  0  0  0  0  0  0  0  0
  144.1976  137.2315  151.2568 H   0  0  0  0  0  0  0  0  0  0  0  0
  146.1091  135.9630  152.6874 H   0  0  0  0  0  0  0  0  0  0  0  0
  144.7669  135.5500  153.7242 H   0  0  0  0  0  0  0  0  0  0  0  0
  143.5175  133.4460  153.1279 H   0  0  0  0  0  0  0  0  0  0  0  0
  143.3139  131.9213  150.8732 H   0  0  0  0  0  0  0  0  0  0  0  0
  144.7381  133.3862  149.0001 H   0  0  0  0  0  0  0  0  0  0  0  0
  144.5618  139.1510  152.7003 H   0  0  0  0  0  0  0  0  0  0  0  0
  146.8518  137.3922  152.1272 H   0  0  0  0  0  0  0  0  0  0  0  0
  146.3477  138.8291  151.2590 H   0  0  0  0  0  0  0  0  0  0  0  0
  148.6069  137.6137  153.2612 H   0  0  0  0  0  0  0  0  0  0  0  0
  149.6672  140.2111  154.0582 H   0  0  0  0  0  0  0  0  0  0  0  0
  149.1747  139.1989  155.4087 H   0  0  0  0  0  0  0  0  0  0  0  0
  150.6655  137.3538  154.5711 H   0  0  0  0  0  0  0  0  0  0  0  0
  151.1527  138.3598  153.2157 H   0  0  0  0  0  0  0  0  0  0  0  0
  1  2  1  0  0  0  0
  1 18  1  0  0  0  0
  1 19  1  0  0  0  0
  1 20  1  0  0  0  0
  2  3  1  0  0  0  0
  2  9  1  0  0  0  0
  2 21  1  0  0  0  0
  3  4  1  0  0  0  0
  3 22  1  0  0  0  0
  3 23  1  0  0  0  0
  4  8  1  0  0  0  0
  4  5  1  0  0  0  0
  5  6  2  0  0  0  0
  5 24  1  0  0  0  0
  6  7  1  0  0  0  0
  6 25  1  0  0  0  0
  7  8  2  0  0  0  0
  7 26  1  0  0  0  0
  9 10  1  0  0  0  0
  9 27  1  0  0  0  0
 10 11  1  0  0  0  0
 10 28  1  0  0  0  0
 10 29  1  0  0  0  0
 11 12  2  0  0  0  0
 11 13  1  0  0  0  0
 13 14  1  0  0  0  0
 13 30  1  0  0  0  0
 14 15  1  0  0  0  0
 14 31  1  0  0  0  0
 14 32  1  0  0  0  0
 15 16  1  0  0  0  0
 15 33  1  0  0  0  0
 15 34  1  0  0  0  0
 16 17  3  0  0  0  0
M  END
> <s_m_source_file>
AV-unprocessed.smi

> <i_m_source_file_index>
3145

> <i_lp_mmshare_version>
43012

> <i_f3d_flags>
0

> <s_epik_input>
bjFbY0hdW2NIXVtjSF1uMVtDSDJdW0NAQEhdKFtDSDNdKVtOSF1bQ0gyXUMoPU8pW05IXVtDSDJdW0NIMl1DI04=

> <s_epik_cmdline>
J2VwaWtfcHl0aG9uJywgJy1waCcsICc3LjAnLCAnLXRuJywgJzgnLCAnLW1hJywgJzIwMCcsICctbWV0YWxfYmluZGluZycsICctaW1hZScsICc8aW5maWxlLm1hZT4nLCAnLW9tYWUnLCAnPG91dGZpbGUubWFlPic=

> <r_lp_tautomer_probability>
1

> <r_epik_Ionization_Penalty>
0.765991

> <r_epik_Ionization_Penalty_Charging>
0

> <r_epik_Ionization_Penalty_Neutral>
0.765991

> <r_epik_State_Penalty>
0.794192

> <r_epik_Charging_Adjusted_Penalty>
0.794192

> <i_epik_Tot_Q>
0

> <i_epik_Tot_abs_Q>
0

> <r_epik_Metal_State_Penalty>
0.806127

> <b_epik_Metal_Only>
0

> <s_lp_Force_Field>
OPLS_2005

> <r_lp_Energy>
5.26669

> <b_lp_Chiralities_Consistent>
1

> <s_lp_Variant>
AV-unprocessed.smi:3145-3

> <Gold.Version>
5.8.1

> <Gold.Id.Protein>
6NUR|6NUR_protein|mol2

> <Gold.PLP.Fitness>
45.8198

> <Gold.PLP.PLP>
-32.2893

> <Gold.PLP.part.hbond>
-4.1811

> <Gold.PLP.part.metal>
0.0000

> <Gold.PLP.part.buried>
-1.6076

> <Gold.PLP.part.nonpolar>
-26.7962

> <Gold.PLP.part.repulsive>
0.9073

> <Gold.PLP.ligand.clash>
0.0000

> <Gold.PLP.ligand.torsion>
0.5657

> <Gold.PLP.Chemscore.Hbond>
3.0000

> <Gold.PLP.Chemscore.CHOScore>
1.8175

> <Gold.PLP.Chemscore.Metal>
0.0000

> <Gold.Chemscore.Hbonds>
donor molecule, donor type, donor heavy atom, donor atom, acceptor molecule, acceptor atom, score
      L1  H     9    27       P1 10175  1.00
      L1  H    13    30       P1  7948  1.00
      P1  H  7997  8009       L1    17  1.00
      L1  C     5    24       P1 10957  1.00
      L1  C     7    26       P1  7921  0.84

> <Gold.PLP.Chemscore.Internal.Correction>
0.2094

> <Gold.Rescore>
     Score         DG    S(hbond)    S(metal)    S(lipo)     H(rot)  DE(clash)    DE(int)     intcor
     14.13     -15.00       2.98        0.00      57.54       2.80       0.31       0.57       ----

> <Gold.Chemscore.Fitness>
14.1256

> <Gold.Chemscore.DG>
-14.9965

> <Gold.Chemscore.ZeroCoef>
-5.4800

> <Gold.Chemscore.Hbond>
2.9801

> <Gold.Chemscore.Metal>
0.0000

> <Gold.Chemscore.Lipo>
57.5438

> <Gold.Chemscore.Internal_Hbond>
0.0000

> <Gold.Chemscore.DEClash>
0.3054

> <Gold.Chemscore.DEInternal>
0.5654

> <Gold.Chemscore.Rot>
2.8006

> <Gold.Chemscore.Internal.Correction>
   9.000000E+99

> <Gold.Chemscore.Hbonds>
donor molecule, donor type, donor heavy atom, donor atom, acceptor molecule, acceptor atom, score
      L1  H     9    27       P1 10175  0.98
      L1  H    13    30       P1  7948  0.92
      P1  H  7997  8009       L1    17  1.00

> <Gold.Chemscore.Hbond.Weighted>
-9.9535

> <Gold.Chemscore.Metal.Weighted>
-0.0000

> <Gold.Chemscore.Lipo.Weighted>
-6.7326

> <Gold.Chemscore.Internal_Hbond.Weighted>
0.0000

> <Gold.Chemscore.DEClash.Weighted>
0.3054

> <Gold.Chemscore.DEInternal.Weighted>
0.5654

> <Gold.Chemscore.Rot.Weighted>
7.1696

> <Gold.Chemscore.Internal.Correction.Weighted>
   9.000000E+99

> <Gold.Protein.RotatedTorsions>
[ 6907 6896 6895 6894 ] final  -96.98 input  -60.11 | X-H torsion
[ 7974 7965 7964 7962 ] final   14.73 input  175.53 | X-H torsion
[ 8008 7997 7996 7995 ] final -143.26 input   59.86 | X-H torsion
[ 10167 10162 10161 10158 ] final -138.04 input  -65.29 | X-H torsion
[ 10718 10713 10712 10709 ] final  132.52 input   66.30 | X-H torsion
[ 10763 10752 10751 10750 ] final  -71.61 input  -60.55 | X-H torsion
[ 11005 11000 10999 10996 ] final   -6.64 input  -57.11 | X-H torsion

> <Gold.Protein.ActiveResidues>
 VAL166  LYS551  ARG553  GLY616  TRP617  ASP618  TYR619  PRO620  LYS621  CYS622 
 ASP623  PHE694  ASN695  SER759  ASP760  ASP761  ALA762  ILE779  LEU786  VAL792 
 PHE793  MET794  SER795  GLU796  ALA797  LYS798  CYS799  TRP800  GLU811  SER814 

> <Gold.Protein.RotatedAtoms>
  150.7003  134.1419  159.4107 H   0  0  0  0  0  0  0  0  0  0  0  0  # atno 6907 bound_to 6896
  151.9403  135.0214  160.0544 H   0  0  0  0  0  0  0  0  0  0  0  0  # atno 6908 bound_to 6896
  152.2099  133.4868  159.5141 H   0  0  0  0  0  0  0  0  0  0  0  0  # atno 6909 bound_to 6896
  146.2297  139.8998  142.8541 H   0  0  0  0  0  0  0  0  0  0  0  0  # atno 7974 bound_to 7965
  155.5076  140.0581  157.2929 H   0  0  0  0  0  0  0  0  0  0  0  0  # atno 8008 bound_to 7997
  154.4563  140.1975  156.0318 H   0  0  0  0  0  0  0  0  0  0  0  0  # atno 8009 bound_to 7997
  156.0806  140.3247  155.7693 H   0  0  0  0  0  0  0  0  0  0  0  0  # atno 8010 bound_to 7997
  139.8518  143.7189  152.2657 H   0  0  0  0  0  0  0  0  0  0  0  0  # atno 10167 bound_to 10162
  157.4863  131.1088  150.9616 H   0  0  0  0  0  0  0  0  0  0  0  0  # atno 10718 bound_to 10713
  154.4342  135.5956  153.6088 H   0  0  0  0  0  0  0  0  0  0  0  0  # atno 10763 bound_to 10752
  152.9801  135.5982  154.3802 H   0  0  0  0  0  0  0  0  0  0  0  0  # atno 10764 bound_to 10752
  154.3643  135.2841  155.2281 H   0  0  0  0  0  0  0  0  0  0  0  0  # atno 10765 bound_to 10752
  140.7042  133.8963  155.8705 H   0  0  0  0  0  0  0  0  0  0  0  0  # atno 11005 bound_to 11000
  145.2334  140.9982  143.3977 LP  0  0  0  0  0  0  0  0  0  0  0  0  # atno 17320 bound_to 7965
  144.9511  139.4082  143.6402 LP  0  0  0  0  0  0  0  0  0  0  0  0  # atno 17321 bound_to 7965
  139.7458  144.7547  151.0582 LP  0  0  0  0  0  0  0  0  0  0  0  0  # atno 17342 bound_to 10162
  140.7786  143.4918  150.9883 LP  0  0  0  0  0  0  0  0  0  0  0  0  # atno 17343 bound_to 10162
  157.0332  130.5719  149.5346 LP  0  0  0  0  0  0  0  0  0  0  0  0  # atno 17370 bound_to 10713
  156.0148  130.5242  150.8102 LP  0  0  0  0  0  0  0  0  0  0  0  0  # atno 17371 bound_to 10713
  141.0138  134.0983  157.4193 LP  0  0  0  0  0  0  0  0  0  0  0  0  # atno 17394 bound_to 11000
  139.8888  135.0101  156.6645 LP  0  0  0  0  0  0  0  0  0  0  0  0  # atno 17395 bound_to 11000

$$$$
