AV-unprocessed.smi:840|AV-procd|sdf|3914|dock6
  -GOLD-   22720 1373D 1   1.00000     0.00000
 Structure written by MMmdl.
 36 37  0  0  0  0  0  0  0  0  2 V2000
  151.2345  138.6049  156.1464 C   0  0  0  0  0  0  0  0  0  0  0  0
  150.8718  139.0963  157.5580 C   0  0  1  0  0  0  0  0  0  0  0  0
  150.6464  137.9243  158.4032 N   0  0  0  0  0  0  0  0  0  0  0  0
  149.4634  137.5232  158.8936 C   0  0  0  0  0  0  0  0  0  0  0  0
  148.4404  138.1595  158.6282 O   0  0  0  0  0  0  0  0  0  0  0  0
  149.5391  136.4117  159.6606 N   0  5  0  0  0  0  0  0  0  0  0  0
  148.5809  136.1533  160.5652 C   0  0  0  0  0  0  0  0  0  0  0  0
  147.9141  137.1145  161.2141 N   0  0  0  0  0  0  0  0  0  0  0  0
  146.9578  136.6234  162.1045 C   0  0  0  0  0  0  0  0  0  0  0  0
  146.8887  135.2558  162.1282 C   0  0  0  0  0  0  0  0  0  0  0  0
  148.0286  134.5398  161.0245 S   0  0  0  0  0  0  0  0  0  0  0  0
  152.0479  139.9245  158.0988 C   0  0  0  0  0  0  0  0  0  0  0  0
  153.1921  139.4670  158.0970 O   0  0  0  0  0  0  0  0  0  0  0  0
  151.7482  141.1514  158.5508 N   0  0  0  0  0  0  0  0  0  0  0  0
  152.7083  142.0959  159.1145 C   0  0  0  0  0  0  0  0  0  0  0  0
  153.2862  141.5873  160.4512 C   0  0  0  0  0  0  0  0  0  0  0  0
  152.6936  142.4854  161.5374 C   0  0  0  0  0  0  0  0  0  0  0  0
  152.4777  143.8241  160.8393 C   0  0  0  0  0  0  0  0  0  0  0  0
  152.0329  143.4452  159.4258 C   0  0  0  0  0  0  0  0  0  0  0  0
  151.4109  139.4416  155.4694 H   0  0  0  0  0  0  0  0  0  0  0  0
  150.4244  138.0106  155.7227 H   0  0  0  0  0  0  0  0  0  0  0  0
  152.1311  137.9831  156.1487 H   0  0  0  0  0  0  0  0  0  0  0  0
  149.9654  139.7032  157.5097 H   0  0  0  0  0  0  0  0  0  0  0  0
  151.4584  137.3781  158.6498 H   0  0  0  0  0  0  0  0  0  0  0  0
  146.3696  137.3209  162.6820 H   0  0  0  0  0  0  0  0  0  0  0  0
  146.2403  134.6293  162.7216 H   0  0  0  0  0  0  0  0  0  0  0  0
  150.7821  141.4433  158.5194 H   0  0  0  0  0  0  0  0  0  0  0  0
  153.5222  142.2546  158.4046 H   0  0  0  0  0  0  0  0  0  0  0  0
  153.0825  140.5323  160.6414 H   0  0  0  0  0  0  0  0  0  0  0  0
  154.3705  141.7043  160.4393 H   0  0  0  0  0  0  0  0  0  0  0  0
  151.7343  142.0822  161.8643 H   0  0  0  0  0  0  0  0  0  0  0  0
  153.3380  142.5660  162.4133 H   0  0  0  0  0  0  0  0  0  0  0  0
  151.7517  144.4546  161.3534 H   0  0  0  0  0  0  0  0  0  0  0  0
  153.4213  144.3695  160.7938 H   0  0  0  0  0  0  0  0  0  0  0  0
  152.2927  144.2138  158.6972 H   0  0  0  0  0  0  0  0  0  0  0  0
  150.9464  143.3441  159.4126 H   0  0  0  0  0  0  0  0  0  0  0  0
  1  2  1  0  0  0  0
  1 20  1  0  0  0  0
  1 21  1  0  0  0  0
  1 22  1  0  0  0  0
  2  3  1  0  0  0  0
  2 12  1  0  0  0  0
  2 23  1  0  0  0  0
  3  4  1  0  0  0  0
  3 24  1  0  0  0  0
  4  5  2  0  0  0  0
  4  6  1  0  0  0  0
  6  7  1  0  0  0  0
  7 11  1  0  0  0  0
  7  8  2  0  0  0  0
  8  9  1  0  0  0  0
  9 10  2  0  0  0  0
  9 25  1  0  0  0  0
 10 11  1  0  0  0  0
 10 26  1  0  0  0  0
 12 13  2  0  0  0  0
 12 14  1  0  0  0  0
 14 15  1  0  0  0  0
 14 27  1  0  0  0  0
 15 19  1  0  0  0  0
 15 16  1  0  0  0  0
 15 28  1  0  0  0  0
 16 17  1  0  0  0  0
 16 29  1  0  0  0  0
 16 30  1  0  0  0  0
 17 18  1  0  0  0  0
 17 31  1  0  0  0  0
 17 32  1  0  0  0  0
 18 19  1  0  0  0  0
 18 33  1  0  0  0  0
 18 34  1  0  0  0  0
 19 35  1  0  0  0  0
 19 36  1  0  0  0  0
M  CHG  1   6  -1
M  END
> <s_m_source_file>
AV-unprocessed.smi

> <i_m_source_file_index>
840

> <i_lp_mmshare_version>
43012

> <i_f3d_flags>
0

> <s_epik_input>
W0NIMl0xW0NIMl1bQ0gyXVtDSDJdW0NIXTFbTkhdQyg9TylbQ0BIXShbQ0gzXSlbTkhdQyg9TylbTkhdYzJuW2NIXVtjSF1zMg==

> <s_epik_cmdline>
J2VwaWtfcHl0aG9uJywgJy1waCcsICc3LjAnLCAnLXRuJywgJzgnLCAnLW1hJywgJzIwMCcsICctbWV0YWxfYmluZGluZycsICctaW1hZScsICc8aW5maWxlLm1hZT4nLCAnLW9tYWUnLCAnPG91dGZpbGUubWFlPic=

> <r_lp_tautomer_probability>
1

> <r_epik_Ionization_Penalty>
6.35467

> <r_epik_Ionization_Penalty_Charging>
5.47395

> <r_epik_Ionization_Penalty_Neutral>
0.880717

> <r_epik_State_Penalty>
5.4739

> <r_epik_Charging_Adjusted_Penalty>
10.9479

> <i_epik_Tot_Q>
-1

> <i_epik_Tot_abs_Q>
1

> <r_epik_Metal_State_Penalty>
1.48639

> <b_epik_Metal_Only>
1

> <s_lp_Force_Field>
OPLS_2005

> <r_lp_Energy>
13.1034

> <b_lp_Chiralities_Consistent>
1

> <s_lp_Variant>
AV-unprocessed.smi:840-4

> <Gold.Version>
5.8.1

> <Gold.Id.Protein>
6NUR|6NUR_protein|mol2

> <Gold.PLP.Fitness>
50.9149

> <Gold.PLP.PLP>
-37.8388

> <Gold.PLP.part.hbond>
-4.6977

> <Gold.PLP.part.metal>
0.0000

> <Gold.PLP.part.buried>
-5.3694

> <Gold.PLP.part.nonpolar>
-28.1199

> <Gold.PLP.part.repulsive>
0.2298

> <Gold.PLP.ligand.clash>
0.0000

> <Gold.PLP.ligand.torsion>
0.5519

> <Gold.PLP.Chemscore.Hbond>
4.7188

> <Gold.PLP.Chemscore.CHOScore>
0.0000

> <Gold.PLP.Chemscore.Metal>
0.0000

> <Gold.Chemscore.Hbonds>
donor molecule, donor type, donor heavy atom, donor atom, acceptor molecule, acceptor atom, score
      P1  H  6896  6909       L1     6  2.00
      P1  H  6931  6943       L1     8  1.00
      P1  H  6934  6947       L1     8  0.70
      P1  H  7997  8008       L1    13  1.00

> <Gold.PLP.Chemscore.Internal.Correction>
0.0235

> <Gold.Rescore>
     Score         DG    S(hbond)    S(metal)    S(lipo)     H(rot)  DE(clash)    DE(int)     intcor
     19.35     -21.18       2.86        0.00      88.03       1.62       0.01       1.81       ----

> <Gold.Chemscore.Fitness>
19.3547

> <Gold.Chemscore.DG>
-21.1766

> <Gold.Chemscore.ZeroCoef>
-5.4800

> <Gold.Chemscore.Hbond>
2.8579

> <Gold.Chemscore.Metal>
0.0000

> <Gold.Chemscore.Lipo>
88.0286

> <Gold.Chemscore.Internal_Hbond>
0.0000

> <Gold.Chemscore.DEClash>
0.0110

> <Gold.Chemscore.DEInternal>
1.8108

> <Gold.Chemscore.Rot>
1.6204

> <Gold.Chemscore.Internal.Correction>
   9.000000E+99

> <Gold.Chemscore.Hbonds>
donor molecule, donor type, donor heavy atom, donor atom, acceptor molecule, acceptor atom, score
      P1  H  6896  6909       L1     6  0.58
      P1  H  6931  6943       L1     8  0.65
      P1  H  6934  6947       L1     8  0.17
      P1  H  7997  8008       L1    13  0.94

> <Gold.Chemscore.Hbond.Weighted>
-9.5454

> <Gold.Chemscore.Metal.Weighted>
-0.0000

> <Gold.Chemscore.Lipo.Weighted>
-10.2993

> <Gold.Chemscore.Internal_Hbond.Weighted>
0.0000

> <Gold.Chemscore.DEClash.Weighted>
0.0110

> <Gold.Chemscore.DEInternal.Weighted>
1.8108

> <Gold.Chemscore.Rot.Weighted>
4.1481

> <Gold.Chemscore.Internal.Correction.Weighted>
   9.000000E+99

> <Gold.Protein.RotatedTorsions>
[ 6907 6896 6895 6894 ] final   70.16 input  -60.11 | X-H torsion
[ 7974 7965 7964 7962 ] final   48.54 input  175.53 | X-H torsion
[ 8008 7997 7996 7995 ] final  -66.76 input   59.86 | X-H torsion
[ 10167 10162 10161 10158 ] final  115.43 input  -65.29 | X-H torsion
[ 10718 10713 10712 10709 ] final   59.70 input   66.30 | X-H torsion
[ 10763 10752 10751 10750 ] final  164.88 input  -60.55 | X-H torsion
[ 11005 11000 10999 10996 ] final   54.08 input  -57.11 | X-H torsion

> <Gold.Protein.ActiveResidues>
 VAL166  LYS551  ARG553  GLY616  TRP617  ASP618  TYR619  PRO620  LYS621  CYS622 
 ASP623  PHE694  ASN695  SER759  ASP760  ASP761  ALA762  ILE779  LEU786  VAL792 
 PHE793  MET794  SER795  GLU796  ALA797  LYS798  CYS799  TRP800  GLU811  SER814 

> <Gold.Protein.RotatedAtoms>
  152.4732  134.4909  159.9694 H   0  0  0  0  0  0  0  0  0  0  0  0  # atno 6907 bound_to 6896
  151.4931  133.3514  159.2864 H   0  0  0  0  0  0  0  0  0  0  0  0  # atno 6908 bound_to 6896
  150.8754  134.8163  159.7247 H   0  0  0  0  0  0  0  0  0  0  0  0  # atno 6909 bound_to 6896
  146.0195  139.4634  142.9906 H   0  0  0  0  0  0  0  0  0  0  0  0  # atno 7974 bound_to 7965
  154.4755  140.0906  156.7251 H   0  0  0  0  0  0  0  0  0  0  0  0  # atno 8008 bound_to 7997
  155.4608  140.3461  155.4294 H   0  0  0  0  0  0  0  0  0  0  0  0  # atno 8009 bound_to 7997
  156.1109  140.1447  156.9328 H   0  0  0  0  0  0  0  0  0  0  0  0  # atno 8010 bound_to 7997
  139.6318  144.7115  151.2417 H   0  0  0  0  0  0  0  0  0  0  0  0  # atno 10167 bound_to 10162
  157.5696  130.8897  149.9244 H   0  0  0  0  0  0  0  0  0  0  0  0  # atno 10718 bound_to 10713
  154.3156  135.2756  155.2544 H   0  0  0  0  0  0  0  0  0  0  0  0  # atno 10763 bound_to 10752
  154.4920  135.5831  153.6470 H   0  0  0  0  0  0  0  0  0  0  0  0  # atno 10764 bound_to 10752
  152.9882  135.6137  154.3337 H   0  0  0  0  0  0  0  0  0  0  0  0  # atno 10765 bound_to 10752
  140.0715  134.5463  155.9041 H   0  0  0  0  0  0  0  0  0  0  0  0  # atno 11005 bound_to 11000
  145.7216  141.0073  143.1399 LP  0  0  0  0  0  0  0  0  0  0  0  0  # atno 17320 bound_to 7965
  144.6984  139.8877  143.7451 LP  0  0  0  0  0  0  0  0  0  0  0  0  # atno 17321 bound_to 7965
  140.7443  143.6467  150.8285 LP  0  0  0  0  0  0  0  0  0  0  0  0  # atno 17342 bound_to 10162
  140.0093  143.5660  152.2845 LP  0  0  0  0  0  0  0  0  0  0  0  0  # atno 17343 bound_to 10162
  156.0742  130.3681  150.0712 LP  0  0  0  0  0  0  0  0  0  0  0  0  # atno 17370 bound_to 10713
  156.8867  130.9575  151.3593 LP  0  0  0  0  0  0  0  0  0  0  0  0  # atno 17371 bound_to 10713
  141.2014  133.6618  156.5947 LP  0  0  0  0  0  0  0  0  0  0  0  0  # atno 17394 bound_to 11000
  140.3620  134.7680  157.4540 LP  0  0  0  0  0  0  0  0  0  0  0  0  # atno 17395 bound_to 11000

$$$$
