#       Name:                AV-unprocessed.smi:29
#       Creating user name   scv26
#       Creation time:       Thu Mar 26 15:45:55 2020


#       File generated by GOLD software.
#

@<TRIPOS>MOLECULE
AV-unprocessed.smi:29
    67    70     1
SMALL
NO_CHARGES


@<TRIPOS>ATOM
      1 ****        -0.5408   1.6289  -0.9800 O.2            1 S1                 0.0000
      2 ****         0.0304   0.5394  -1.0261 C.2            1 S1                 0.0000
      3 ****         1.5649   0.4747  -1.0629 C.3            1 S1                 0.0000
      4 ****         2.2081   1.5755  -0.3141 N.am           1 S1                 0.0000
      5 ****         2.5770   2.7555  -1.0072 C.2            1 S1                 0.0000
      6 ****         2.3877   2.8706  -2.2188 O.2            1 S1                 0.0000
      7 ****         3.1752   3.8051  -0.1898 C.2            1 S1                 0.0000
      8 ****         3.5463   4.9634  -0.7612 F              1 S1                 0.0000
      9 ****         3.3578   3.6343   1.1356 C.2            1 S1                 0.0000
     10 ****         2.9993   2.4741   1.7973 N.am           1 S1                 0.0000
     11 ****         3.2057   2.3203   3.2877 C.3            1 S1                 0.0000
     12 ****         1.9398   2.7395   4.0437 C.3            1 S1                 0.0000
     13 ****         2.2341   4.1892   4.3622 C.3            1 S1                 0.0000
     14 ****         3.7396   4.1515   4.5991 C.3            1 S1                 0.0000
     15 ****         4.2405   3.1683   3.6965 O.3            1 S1                 0.0000
     16 ****         2.3978   1.4181   1.0796 C.2            1 S1                 0.0000
     17 ****         2.0380   0.3892   1.6564 O.2            1 S1                 0.0000
     18 ****        -0.5914  -0.6517  -1.0881 N.am           1 S1                 0.0000
     19 ****        -1.9849  -0.9533  -1.0933 C.ar           1 S1                 0.0000
     20 ****        -2.9693  -0.0561  -0.6099 C.ar           1 S1                 0.0000
     21 ****        -4.3360  -0.4033  -0.6223 C.ar           1 S1                 0.0000
     22 ****        -5.3640   0.5882  -0.0978 C.3            1 S1                 0.0000
     23 ****        -6.5860   0.0568  -0.0412 F              1 S1                 0.0000
     24 ****        -5.0213   0.9847   1.1279 F              1 S1                 0.0000
     25 ****        -5.4003   1.6523  -0.8994 F              1 S1                 0.0000
     26 ****        -4.7254  -1.6630  -1.1215 C.ar           1 S1                 0.0000
     27 ****        -3.7557  -2.5691  -1.5867 C.ar           1 S1                 0.0000
     28 ****        -2.3844  -2.2277  -1.5692 C.ar           1 S1                 0.0000
     29 ****        -1.4183  -3.1444  -2.0175 N.3            1 S1                 0.0000
     30 ****        -1.3106  -4.3393  -1.1907 C.3            1 S1                 0.0000
     31 ****        -0.1248  -5.1977  -1.6636 C.3            1 S1                 0.0000
     32 ****        -0.2762  -5.5001  -3.0480 O.3            1 S1                 0.0000
     33 ****        -0.3032  -4.3247  -3.8538 C.3            1 S1                 0.0000
     34 ****        -1.4953  -3.4436  -3.4413 C.3            1 S1                 0.0000
     35 ****         1.8995  -0.4911  -0.6791 H              1 S1                 0.0000
     36 ****         1.8769   0.4639  -2.1082 H              1 S1                 0.0000
     37 ****         3.7982   4.4488   1.6910 H              1 S1                 0.0000
     38 ****         3.4971   1.2813   3.4496 H              1 S1                 0.0000
     39 ****         1.0324   2.5867   3.4576 H              1 S1                 0.0000
     40 ****         1.8721   2.1526   4.9606 H              1 S1                 0.0000
     41 ****         2.0004   4.8194   3.5032 H              1 S1                 0.0000
     42 ****         1.6759   4.5611   5.2217 H              1 S1                 0.0000
     43 ****         4.2149   5.1197   4.4405 H              1 S1                 0.0000
     44 ****         3.9545   3.8298   5.6190 H              1 S1                 0.0000
     45 ****         0.0131  -1.4518  -1.2085 H              1 S1                 0.0000
     46 ****        -2.7014   0.9075  -0.2068 H              1 S1                 0.0000
     47 ****        -5.7664  -1.9488  -1.1444 H              1 S1                 0.0000
     48 ****        -4.0729  -3.5340  -1.9547 H              1 S1                 0.0000
     49 ****        -1.1748  -4.0562  -0.1461 H              1 S1                 0.0000
     50 ****        -2.2329  -4.9183  -1.2526 H              1 S1                 0.0000
     51 ****         0.8212  -4.6806  -1.4948 H              1 S1                 0.0000
     52 ****        -0.0846  -6.1285  -1.0977 H              1 S1                 0.0000
     53 ****         0.6368  -3.7798  -3.7513 H              1 S1                 0.0000
     54 ****        -0.3925  -4.6127  -4.9013 H              1 S1                 0.0000
     55 ****        -2.4301  -3.9600  -3.6626 H              1 S1                 0.0000
     56 ****        -1.4926  -2.5162  -4.0153 H              1 S1                 0.0000
     57 ****        -0.0059   2.4737  -0.9665 LP             1 S1                 0.0000
     58 ****        -1.5397   1.6692  -0.9561 LP             1 S1                 0.0000
     59 ****         1.9664   2.1231  -2.7323 LP             1 S1                 0.0000
     60 ****         2.6553   3.7116  -2.6890 LP             1 S1                 0.0000
     61 ****         4.6317   3.6226   2.8961 LP             1 S1                 0.0000
     62 ****         4.9486   2.6299   4.1534 LP             1 S1                 0.0000
     63 ****         1.6053  -0.3489   1.1388 LP             1 S1                 0.0000
     64 ****         2.1790   0.2930   2.6417 LP             1 S1                 0.0000
     65 ****        -0.5518  -2.6593  -1.8995 LP             1 S1                 0.0000
     66 ****        -1.1330  -5.9993  -3.1772 LP             1 S1                 0.0000
     67 ****         0.4904  -6.0727  -3.3387 LP             1 S1                 0.0000
@<TRIPOS>BOND
    1    1    2 2     
    2    2    3 1     
    3    2   18 am    
    4    3    4 1     
    5    3   35 1     
    6    3   36 1     
    7    4   16 am    
    8    4    5 am    
    9    5    6 2     
   10    5    7 1     
   11    7    8 1     
   12    7    9 2     
   13    9   10 1     
   14    9   37 1     
   15   10   11 1     
   16   10   16 am    
   17   11   15 1     
   18   11   12 1     
   19   11   38 1     
   20   12   13 1     
   21   12   39 1     
   22   12   40 1     
   23   13   14 1     
   24   13   41 1     
   25   13   42 1     
   26   14   15 1     
   27   14   43 1     
   28   14   44 1     
   29   16   17 2     
   30   18   19 1     
   31   18   45 1     
   32   19   28 ar    
   33   19   20 ar    
   34   20   21 ar    
   35   20   46 1     
   36   21   22 1     
   37   21   26 ar    
   38   22   23 1     
   39   22   24 1     
   40   22   25 1     
   41   26   27 ar    
   42   26   47 1     
   43   27   28 ar    
   44   27   48 1     
   45   28   29 1     
   46   29   34 1     
   47   29   30 1     
   48   30   31 1     
   49   30   49 1     
   50   30   50 1     
   51   31   32 1     
   52   31   51 1     
   53   31   52 1     
   54   32   33 1     
   55   33   34 1     
   56   33   53 1     
   57   33   54 1     
   58   34   55 1     
   59   34   56 1     
   60    1   57 1     
   61    1   58 1     
   62    6   59 1     
   63    6   60 1     
   64   15   61 1     
   65   15   62 1     
   66   17   63 1     
   67   17   64 1     
   68   29   65 1     
   69   32   66 1     
   70   32   67 1     
@<TRIPOS>SUBSTRUCTURE
      1 S1             1
@<TRIPOS>SET
LONE_PAIRS      STATIC     ATOMS    <user>   **** ""
11 57 58 59 60 61 62 63 64 65 66 67
DONOR_HYDROGENS      STATIC     ATOMS    <user>   **** ""
1 45
ATOM$BLUE        STATIC     ATOMS    COLORGROUP SYSTEM
11 57 58 59 60 61 62 63 64 65 66 67
ATOM$RED        STATIC     ATOMS    COLORGROUP SYSTEM
1 45
