AV-unprocessed.smi:2910|AV-procd|sdf|11176|dock3
  -GOLD-   2272016 63D 1   1.00000     0.00000
 Structure written by MMmdl.
 47 48  0  0  0  0  0  0  0  0  1 V2000
  150.8889  130.3833  155.6614 C   0  0  0  0  0  0  0  0  0  0  0  0
  150.3533  131.6144  154.9923 C   0  0  0  0  0  0  0  0  0  0  0  0
  150.6503  132.9755  155.2925 C   0  0  0  0  0  0  0  0  0  0  0  0
  149.8878  133.6576  154.3840 C   0  0  0  0  0  0  0  0  0  0  0  0
  149.7642  135.0001  154.2080 N   0  0  0  0  0  0  0  0  0  0  0  0
  149.9565  135.9855  155.1021 C   0  0  0  0  0  0  0  0  0  0  0  0
  150.3211  135.8294  156.2674 O   0  0  0  0  0  0  0  0  0  0  0  0
  149.7005  137.1851  154.5582 N   0  0  0  0  0  0  0  0  0  0  0  0
  149.7915  138.4787  155.2413 C   0  0  1  0  0  0  0  0  0  0  0  0
  151.2730  138.7613  155.5883 C   0  0  0  0  0  0  0  0  0  0  0  0
  152.2592  138.4439  154.4503 C   0  0  0  0  0  0  0  0  0  0  0  0
  153.5586  138.8543  154.8174 O   0  0  0  0  0  0  0  0  0  0  0  0
  149.1313  139.5877  154.3711 C   0  0  0  0  0  0  0  0  0  0  0  0
  148.8756  140.8925  155.1659 C   0  0  0  0  0  0  0  0  0  0  0  0
  148.2044  141.9799  154.3112 C   0  0  0  0  0  0  0  0  0  0  0  0
  146.8937  141.4773  153.6941 C   0  0  0  0  0  0  0  0  0  0  0  0
  147.1379  140.2045  152.8750 C   0  0  0  0  0  0  0  0  0  0  0  0
  147.8023  139.1125  153.7277 C   0  0  0  0  0  0  0  0  0  0  0  0
  149.1972  132.7499  153.6124 N   0  0  0  0  0  0  0  0  0  0  0  0
  148.2678  132.9848  152.5246 C   0  0  0  0  0  0  0  0  0  0  0  0
  149.4896  131.4869  153.9913 N   0  0  0  0  0  0  0  0  0  0  0  0
  151.5974  130.6401  156.4492 H   0  0  0  0  0  0  0  0  0  0  0  0
  151.4047  129.7403  154.9478 H   0  0  0  0  0  0  0  0  0  0  0  0
  150.0854  129.8027  156.1152 H   0  0  0  0  0  0  0  0  0  0  0  0
  151.3121  133.3629  156.0522 H   0  0  0  0  0  0  0  0  0  0  0  0
  149.4812  135.2877  153.2830 H   0  0  0  0  0  0  0  0  0  0  0  0
  149.4072  137.2098  153.5925 H   0  0  0  0  0  0  0  0  0  0  0  0
  149.2416  138.4352  156.1832 H   0  0  0  0  0  0  0  0  0  0  0  0
  151.3866  139.8046  155.8867 H   0  0  0  0  0  0  0  0  0  0  0  0
  151.5684  138.1636  156.4495 H   0  0  0  0  0  0  0  0  0  0  0  0
  152.2709  137.3743  154.2386 H   0  0  0  0  0  0  0  0  0  0  0  0
  151.9828  138.9573  153.5294 H   0  0  0  0  0  0  0  0  0  0  0  0
  154.1365  138.1085  154.7614 H   0  0  0  0  0  0  0  0  0  0  0  0
  149.8201  139.8260  153.5590 H   0  0  0  0  0  0  0  0  0  0  0  0
  148.2519  140.6772  156.0347 H   0  0  0  0  0  0  0  0  0  0  0  0
  149.8086  141.3024  155.5497 H   0  0  0  0  0  0  0  0  0  0  0  0
  148.0120  142.8635  154.9201 H   0  0  0  0  0  0  0  0  0  0  0  0
  148.8852  142.2934  153.5186 H   0  0  0  0  0  0  0  0  0  0  0  0
  146.1690  141.2740  154.4836 H   0  0  0  0  0  0  0  0  0  0  0  0
  146.4566  142.2508  153.0621 H   0  0  0  0  0  0  0  0  0  0  0  0
  146.1942  139.8367  152.4713 H   0  0  0  0  0  0  0  0  0  0  0  0
  147.7720  140.4359  152.0180 H   0  0  0  0  0  0  0  0  0  0  0  0
  147.9674  138.2430  153.0918 H   0  0  0  0  0  0  0  0  0  0  0  0
  147.1122  138.7924  154.5096 H   0  0  0  0  0  0  0  0  0  0  0  0
  147.4688  133.6456  152.8623 H   0  0  0  0  0  0  0  0  0  0  0  0
  147.8284  132.0458  152.1843 H   0  0  0  0  0  0  0  0  0  0  0  0
  148.7916  133.4540  151.6914 H   0  0  0  0  0  0  0  0  0  0  0  0
  1  2  1  0  0  0  0
  1 22  1  0  0  0  0
  1 23  1  0  0  0  0
  1 24  1  0  0  0  0
  2 21  2  0  0  0  0
  2  3  1  0  0  0  0
  3  4  2  0  0  0  0
  3 25  1  0  0  0  0
  4  5  1  0  0  0  0
  4 19  1  0  0  0  0
  5  6  1  0  0  0  0
  5 26  1  0  0  0  0
  6  7  2  0  0  0  0
  6  8  1  0  0  0  0
  8  9  1  0  0  0  0
  8 27  1  0  0  0  0
  9 10  1  0  0  0  0
  9 13  1  0  0  0  0
  9 28  1  0  0  0  0
 10 11  1  0  0  0  0
 10 29  1  0  0  0  0
 10 30  1  0  0  0  0
 11 12  1  0  0  0  0
 11 31  1  0  0  0  0
 11 32  1  0  0  0  0
 12 33  1  0  0  0  0
 13 18  1  0  0  0  0
 13 14  1  0  0  0  0
 13 34  1  0  0  0  0
 14 15  1  0  0  0  0
 14 35  1  0  0  0  0
 14 36  1  0  0  0  0
 15 16  1  0  0  0  0
 15 37  1  0  0  0  0
 15 38  1  0  0  0  0
 16 17  1  0  0  0  0
 16 39  1  0  0  0  0
 16 40  1  0  0  0  0
 17 18  1  0  0  0  0
 17 41  1  0  0  0  0
 17 42  1  0  0  0  0
 18 43  1  0  0  0  0
 18 44  1  0  0  0  0
 19 20  1  0  0  0  0
 19 21  1  0  0  0  0
 20 45  1  0  0  0  0
 20 46  1  0  0  0  0
 20 47  1  0  0  0  0
M  END
> <s_m_source_file>
AV-unprocessed.smi

> <i_m_source_file_index>
2910

> <i_lp_mmshare_version>
43012

> <i_f3d_flags>
0

> <s_epik_input>
W0NIM11jMVtjSF1jKG4objEpW0NIM10pW05IXUMoPU8pW05IXVtDQEhdKFtDSDJdW0NIMl1bT0hdKVtDSF0yW0NIMl1bQ0gyXVtDSDJdW0NIMl1bQ0gyXTI=

> <s_epik_cmdline>
J2VwaWtfcHl0aG9uJywgJy1waCcsICc3LjAnLCAnLXRuJywgJzgnLCAnLW1hJywgJzIwMCcsICctbWV0YWxfYmluZGluZycsICctaW1hZScsICc8aW5maWxlLm1hZT4nLCAnLW9tYWUnLCAnPG91dGZpbGUubWFlPic=

> <r_lp_tautomer_probability>
1

> <r_epik_Ionization_Penalty>
0.000101449

> <r_epik_Ionization_Penalty_Charging>
0

> <r_epik_Ionization_Penalty_Neutral>
0.000101449

> <r_epik_State_Penalty>
-0

> <r_epik_Charging_Adjusted_Penalty>
0

> <i_epik_Tot_Q>
0

> <i_epik_Tot_abs_Q>
0

> <r_epik_Metal_State_Penalty>
-0

> <b_epik_Metal_Only>
0

> <s_lp_Force_Field>
OPLS_2005

> <r_lp_Energy>
16.2271

> <b_lp_Chiralities_Consistent>
1

> <s_lp_Variant>
AV-unprocessed.smi:2910-2

> <Gold.Version>
5.8.1

> <Gold.Id.Protein>
6NUR|6NUR_protein|mol2

> <Gold.PLP.Fitness>
46.1102

> <Gold.PLP.PLP>
-38.6797

> <Gold.PLP.part.hbond>
-3.1115

> <Gold.PLP.part.metal>
0.0000

> <Gold.PLP.part.buried>
-2.4260

> <Gold.PLP.part.nonpolar>
-33.3933

> <Gold.PLP.part.repulsive>
0.1355

> <Gold.PLP.ligand.clash>
0.0000

> <Gold.PLP.ligand.torsion>
0.6039

> <Gold.PLP.Chemscore.Hbond>
2.8246

> <Gold.PLP.Chemscore.CHOScore>
0.0000

> <Gold.PLP.Chemscore.Metal>
0.0000

> <Gold.Chemscore.Hbonds>
donor molecule, donor type, donor heavy atom, donor atom, acceptor molecule, acceptor atom, score
      L1  H     5    26       P1  7948  0.60
      L1  H     8    27       P1  7948  0.99
      P1  H  7997  8009       L1    12  1.00

> <Gold.PLP.Chemscore.Internal.Correction>
0.1647

> <Gold.Rescore>
     Score         DG    S(hbond)    S(metal)    S(lipo)     H(rot)  DE(clash)    DE(int)     intcor
     12.29     -15.29       1.80        0.00      82.38       2.27       1.49       1.52       ----

> <Gold.Chemscore.Fitness>
12.2858

> <Gold.Chemscore.DG>
-15.2949

> <Gold.Chemscore.ZeroCoef>
-5.4800

> <Gold.Chemscore.Hbond>
1.7961

> <Gold.Chemscore.Metal>
0.0000

> <Gold.Chemscore.Lipo>
82.3763

> <Gold.Chemscore.Internal_Hbond>
0.0000

> <Gold.Chemscore.DEClash>
1.4941

> <Gold.Chemscore.DEInternal>
1.5150

> <Gold.Chemscore.Rot>
2.2743

> <Gold.Chemscore.Internal.Correction>
   9.000000E+99

> <Gold.Chemscore.Hbonds>
donor molecule, donor type, donor heavy atom, donor atom, acceptor molecule, acceptor atom, score
      L1  H     5    26       P1  7948  0.04
      L1  H     8    27       P1  7948  0.86
      P1  H  7997  8009       L1    12  0.48

> <Gold.Chemscore.Hbond.Weighted>
-5.9991

> <Gold.Chemscore.Metal.Weighted>
-0.0000

> <Gold.Chemscore.Lipo.Weighted>
-9.6380

> <Gold.Chemscore.Internal_Hbond.Weighted>
0.0000

> <Gold.Chemscore.DEClash.Weighted>
1.4941

> <Gold.Chemscore.DEInternal.Weighted>
1.5150

> <Gold.Chemscore.Rot.Weighted>
5.8223

> <Gold.Chemscore.Internal.Correction.Weighted>
   9.000000E+99

> <Gold.Protein.RotatedTorsions>
[ 6907 6896 6895 6894 ] final  162.88 input  -60.11 | X-H torsion
[ 7974 7965 7964 7962 ] final  -63.90 input  175.53 | X-H torsion
[ 8008 7997 7996 7995 ] final -124.93 input   59.86 | X-H torsion
[ 10167 10162 10161 10158 ] final -152.43 input  -65.29 | X-H torsion
[ 10718 10713 10712 10709 ] final   65.81 input   66.30 | X-H torsion
[ 10763 10752 10751 10750 ] final -159.17 input  -60.55 | X-H torsion
[ 11005 11000 10999 10996 ] final  150.37 input  -57.11 | X-H torsion

> <Gold.Protein.ActiveResidues>
 VAL166  LYS551  ARG553  GLY616  TRP617  ASP618  TYR619  PRO620  LYS621  CYS622 
 ASP623  PHE694  ASN695  SER759  ASP760  ASP761  ALA762  ILE779  LEU786  VAL792 
 PHE793  MET794  SER795  GLU796  ALA797  LYS798  CYS799  TRP800  GLU811  SER814 

> <Gold.Protein.RotatedAtoms>
  151.9336  133.3618  159.3939 H   0  0  0  0  0  0  0  0  0  0  0  0  # atno 6907 bound_to 6896
  150.7012  134.4512  159.5346 H   0  0  0  0  0  0  0  0  0  0  0  0  # atno 6908 bound_to 6896
  152.2156  134.8460  160.0543 H   0  0  0  0  0  0  0  0  0  0  0  0  # atno 6909 bound_to 6896
  145.7734  140.8801  143.0368 H   0  0  0  0  0  0  0  0  0  0  0  0  # atno 7974 bound_to 7965
  155.2049  140.0417  157.2924 H   0  0  0  0  0  0  0  0  0  0  0  0  # atno 8008 bound_to 7997
  154.6050  140.2462  155.7714 H   0  0  0  0  0  0  0  0  0  0  0  0  # atno 8009 bound_to 7997
  156.2344  140.2926  156.0283 H   0  0  0  0  0  0  0  0  0  0  0  0  # atno 8010 bound_to 7997
  139.7182  143.8999  152.2494 H   0  0  0  0  0  0  0  0  0  0  0  0  # atno 10167 bound_to 10162
  157.6129  130.9234  150.0026 H   0  0  0  0  0  0  0  0  0  0  0  0  # atno 10718 bound_to 10713
  154.7496  135.3089  154.8581 H   0  0  0  0  0  0  0  0  0  0  0  0  # atno 10763 bound_to 10752
  153.9372  135.6779  153.4749 H   0  0  0  0  0  0  0  0  0  0  0  0  # atno 10764 bound_to 10752
  153.1092  135.4874  154.8934 H   0  0  0  0  0  0  0  0  0  0  0  0  # atno 10765 bound_to 10752
  140.1125  134.8915  157.1957 H   0  0  0  0  0  0  0  0  0  0  0  0  # atno 11005 bound_to 11000
  144.6809  139.9887  143.7484 LP  0  0  0  0  0  0  0  0  0  0  0  0  # atno 17320 bound_to 7965
  146.0147  139.3200  143.0849 LP  0  0  0  0  0  0  0  0  0  0  0  0  # atno 17321 bound_to 7965
  139.8887  144.6977  150.8794 LP  0  0  0  0  0  0  0  0  0  0  0  0  # atno 17342 bound_to 10162
  140.7748  143.3603  151.1841 LP  0  0  0  0  0  0  0  0  0  0  0  0  # atno 17343 bound_to 10162
  156.1240  130.3645  149.9841 LP  0  0  0  0  0  0  0  0  0  0  0  0  # atno 17370 bound_to 10713
  156.7915  130.9258  151.3646 LP  0  0  0  0  0  0  0  0  0  0  0  0  # atno 17371 bound_to 10713
  140.3072  134.3065  155.7275 LP  0  0  0  0  0  0  0  0  0  0  0  0  # atno 17394 bound_to 11000
  141.2133  133.7628  156.9725 LP  0  0  0  0  0  0  0  0  0  0  0  0  # atno 17395 bound_to 11000

$$$$
