AV-unprocessed.smi:630|AV-procd|sdf|3120|dock1
  -GOLD-   22720 0 43D 1   1.00000     0.00000
 Structure written by MMmdl.
 37 38  0  0  0  0  0  0  0  0  1 V2000
  149.7335  138.7228  153.3025 N   0  0  0  0  0  0  0  0  0  0  0  0
  150.4285  138.8204  154.4389 C   0  0  0  0  0  0  0  0  0  0  0  0
  151.0213  139.8508  154.7523 O   0  0  0  0  0  0  0  0  0  0  0  0
  150.4617  137.5817  155.3552 C   0  0  1  0  0  0  0  0  0  0  0  0
  151.3947  137.8314  156.5666 C   0  0  0  0  0  0  0  0  0  0  0  0
  150.7488  138.4667  157.8097 C   0  0  0  0  0  0  0  0  0  0  0  0
  150.1412  137.4200  158.7567 C   0  0  0  0  0  0  0  0  0  0  0  0
  148.8399  136.7809  158.2526 C   0  0  0  0  0  0  0  0  0  0  0  0
  148.9312  136.1047  156.8722 C   0  0  0  0  0  0  0  0  0  0  0  0
  149.0192  137.1118  155.7046 C   0  0  2  0  0  0  0  0  0  0  0  0
  148.4079  136.5157  154.5124 N   0  0  0  0  0  0  0  0  0  0  0  0
  147.1613  136.0271  154.4195 C   0  0  0  0  0  0  0  0  0  0  0  0
  146.3603  136.0130  155.3543 O   0  0  0  0  0  0  0  0  0  0  0  0
  146.9145  135.5667  153.1805 N   0  0  0  0  0  0  0  0  0  0  0  0
  145.7176  134.9902  152.6799 C   0  0  0  0  0  0  0  0  0  0  0  0
  144.7580  134.4574  153.4452 N   0  0  0  0  0  0  0  0  0  0  0  0
  143.6939  133.9648  152.6857 C   0  0  0  0  0  0  0  0  0  0  0  0
  143.8608  134.1326  151.3336 C   0  0  0  0  0  0  0  0  0  0  0  0
  145.3700  134.9210  150.9583 S   0  0  0  0  0  0  0  0  0  0  0  0
  149.6875  139.5135  152.6763 H   0  0  0  0  0  0  0  0  0  0  0  0
  149.2572  137.8630  153.0732 H   0  0  0  0  0  0  0  0  0  0  0  0
  150.9368  136.7794  154.7866 H   0  0  0  0  0  0  0  0  0  0  0  0
  151.8732  136.8930  156.8497 H   0  0  0  0  0  0  0  0  0  0  0  0
  152.2235  138.4680  156.2516 H   0  0  0  0  0  0  0  0  0  0  0  0
  151.5284  138.9947  158.3601 H   0  0  0  0  0  0  0  0  0  0  0  0
  150.0141  139.2246  157.5362 H   0  0  0  0  0  0  0  0  0  0  0  0
  150.8757  136.6418  158.9672 H   0  0  0  0  0  0  0  0  0  0  0  0
  149.9361  137.8966  159.7160 H   0  0  0  0  0  0  0  0  0  0  0  0
  148.5262  136.0346  158.9831 H   0  0  0  0  0  0  0  0  0  0  0  0
  148.0462  137.5290  158.2418 H   0  0  0  0  0  0  0  0  0  0  0  0
  149.7574  135.3936  156.8385 H   0  0  0  0  0  0  0  0  0  0  0  0
  148.0249  135.5081  156.7566 H   0  0  0  0  0  0  0  0  0  0  0  0
  148.4336  137.9859  155.9955 H   0  0  0  0  0  0  0  0  0  0  0  0
  148.9872  136.4769  153.6868 H   0  0  0  0  0  0  0  0  0  0  0  0
  147.6700  135.6406  152.5155 H   0  0  0  0  0  0  0  0  0  0  0  0
  142.8551  133.5091  153.1909 H   0  0  0  0  0  0  0  0  0  0  0  0
  143.1895  133.8415  150.5393 H   0  0  0  0  0  0  0  0  0  0  0  0
  1  2  1  0  0  0  0
  1 20  1  0  0  0  0
  1 21  1  0  0  0  0
  2  3  2  0  0  0  0
  2  4  1  0  0  0  0
  4 10  1  0  0  0  0
  4  5  1  0  0  0  0
  4 22  1  0  0  0  0
  5  6  1  0  0  0  0
  5 23  1  0  0  0  0
  5 24  1  0  0  0  0
  6  7  1  0  0  0  0
  6 25  1  0  0  0  0
  6 26  1  0  0  0  0
  7  8  1  0  0  0  0
  7 27  1  0  0  0  0
  7 28  1  0  0  0  0
  8  9  1  0  0  0  0
  8 29  1  0  0  0  0
  8 30  1  0  0  0  0
  9 10  1  0  0  0  0
  9 31  1  0  0  0  0
  9 32  1  0  0  0  0
 10 11  1  0  0  0  0
 10 33  1  0  0  0  0
 11 12  1  0  0  0  0
 11 34  1  0  0  0  0
 12 13  2  0  0  0  0
 12 14  1  0  0  0  0
 14 15  1  0  0  0  0
 14 35  1  0  0  0  0
 15 19  1  0  0  0  0
 15 16  2  0  0  0  0
 16 17  1  0  0  0  0
 17 18  2  0  0  0  0
 17 36  1  0  0  0  0
 18 19  1  0  0  0  0
 18 37  1  0  0  0  0
M  END
> <s_m_source_file>
AV-unprocessed.smi

> <i_m_source_file_index>
630

> <i_lp_mmshare_version>
43012

> <i_f3d_flags>
0

> <s_epik_input>
W05IMl1DKD1PKVtDQEBIXTFbQ0gyXVtDSDJdW0NIMl1bQ0gyXVtDSDJdW0NASF0xW05IXUMoPU8pW05IXWMybltjSF1bY0hdczI=

> <s_epik_cmdline>
J2VwaWtfcHl0aG9uJywgJy1waCcsICc3LjAnLCAnLXRuJywgJzgnLCAnLW1hJywgJzIwMCcsICctbWV0YWxfYmluZGluZycsICctaW1hZScsICc8aW5maWxlLm1hZT4nLCAnLW9tYWUnLCAnPG91dGZpbGUubWFlPic=

> <r_lp_tautomer_probability>
0.999

> <r_epik_Ionization_Penalty>
0.000342689

> <r_epik_Ionization_Penalty_Charging>
0

> <r_epik_Ionization_Penalty_Neutral>
0.000342689

> <r_epik_State_Penalty>
0.000177984

> <r_epik_Charging_Adjusted_Penalty>
0.000177984

> <i_epik_Tot_Q>
0

> <i_epik_Tot_abs_Q>
0

> <r_epik_Metal_State_Penalty>
0.00743087

> <b_epik_Metal_Only>
0

> <s_lp_Force_Field>
OPLS_2005

> <r_lp_Energy>
11.5905

> <b_lp_Chiralities_Consistent>
1

> <s_lp_Variant>
AV-unprocessed.smi:630-4

> <Gold.Version>
5.8.1

> <Gold.Id.Protein>
6NUR|6NUR_protein|mol2

> <Gold.PLP.Fitness>
42.3887

> <Gold.PLP.PLP>
-22.0203

> <Gold.PLP.part.hbond>
-4.8670

> <Gold.PLP.part.metal>
0.0000

> <Gold.PLP.part.buried>
-3.2679

> <Gold.PLP.part.nonpolar>
-13.9504

> <Gold.PLP.part.repulsive>
0.2814

> <Gold.PLP.ligand.clash>
0.0000

> <Gold.PLP.ligand.torsion>
0.1459

> <Gold.PLP.Chemscore.Hbond>
4.8560

> <Gold.PLP.Chemscore.CHOScore>
1.9946

> <Gold.PLP.Chemscore.Metal>
0.0000

> <Gold.Chemscore.Hbonds>
donor molecule, donor type, donor heavy atom, donor atom, acceptor molecule, acceptor atom, score
      L1  H     1    20       P1  7957  0.94
      L1  H     1    21       P1  7948  1.00
      L1  H    11    34       P1  7948  0.90
      L1  H    14    35       P1  7948  1.00
      P1  H  7989  7998       L1     3  1.00
      L1  C    17    36       P1 10957  1.00
      L1  C    18    37       P1 10186  1.00

> <Gold.PLP.Chemscore.Internal.Correction>
0.1083

> <Gold.Rescore>
     Score         DG    S(hbond)    S(metal)    S(lipo)     H(rot)  DE(clash)    DE(int)     intcor
     18.68     -21.68       4.79        0.00      34.88       1.52       0.04       2.96       ----

> <Gold.Chemscore.Fitness>
18.6819

> <Gold.Chemscore.DG>
-21.6834

> <Gold.Chemscore.ZeroCoef>
-5.4800

> <Gold.Chemscore.Hbond>
4.7935

> <Gold.Chemscore.Metal>
0.0000

> <Gold.Chemscore.Lipo>
34.8755

> <Gold.Chemscore.Internal_Hbond>
0.0000

> <Gold.Chemscore.DEClash>
0.0377

> <Gold.Chemscore.DEInternal>
2.9638

> <Gold.Chemscore.Rot>
1.5184

> <Gold.Chemscore.Internal.Correction>
   9.000000E+99

> <Gold.Chemscore.Hbonds>
donor molecule, donor type, donor heavy atom, donor atom, acceptor molecule, acceptor atom, score
      L1  H     1    20       P1  7957  0.90
      L1  H     1    21       P1  7948  0.86
      L1  H    11    34       P1  7948  0.88
      L1  H    14    35       P1  7948  0.94
      P1  H  7989  7998       L1     3  0.97

> <Gold.Chemscore.Hbond.Weighted>
-16.0101

> <Gold.Chemscore.Metal.Weighted>
-0.0000

> <Gold.Chemscore.Lipo.Weighted>
-4.0804

> <Gold.Chemscore.Internal_Hbond.Weighted>
0.0000

> <Gold.Chemscore.DEClash.Weighted>
0.0377

> <Gold.Chemscore.DEInternal.Weighted>
2.9638

> <Gold.Chemscore.Rot.Weighted>
3.8872

> <Gold.Chemscore.Internal.Correction.Weighted>
   9.000000E+99

> <Gold.Protein.RotatedTorsions>
[ 6907 6896 6895 6894 ] final   34.56 input  -60.11 | X-H torsion
[ 7974 7965 7964 7962 ] final  176.50 input  175.53 | X-H torsion
[ 8008 7997 7996 7995 ] final   -2.87 input   59.86 | X-H torsion
[ 10167 10162 10161 10158 ] final   62.75 input  -65.29 | X-H torsion
[ 10718 10713 10712 10709 ] final   51.77 input   66.30 | X-H torsion
[ 10763 10752 10751 10750 ] final  -26.98 input  -60.55 | X-H torsion
[ 11005 11000 10999 10996 ] final  -13.05 input  -57.11 | X-H torsion

> <Gold.Protein.ActiveResidues>
 VAL166  LYS551  ARG553  GLY616  TRP617  ASP618  TYR619  PRO620  LYS621  CYS622 
 ASP623  PHE694  ASN695  SER759  ASP760  ASP761  ALA762  ILE779  LEU786  VAL792 
 PHE793  MET794  SER795  GLU796  ALA797  LYS798  CYS799  TRP800  GLU811  SER814 

> <Gold.Protein.RotatedAtoms>
  152.1040  134.9321  160.0568 H   0  0  0  0  0  0  0  0  0  0  0  0  # atno 6907 bound_to 6896
  152.0525  133.4020  159.4391 H   0  0  0  0  0  0  0  0  0  0  0  0  # atno 6908 bound_to 6896
  150.6840  134.3212  159.4831 H   0  0  0  0  0  0  0  0  0  0  0  0  # atno 6909 bound_to 6896
  144.7183  140.0106  143.6440 H   0  0  0  0  0  0  0  0  0  0  0  0  # atno 7974 bound_to 7965
  154.6311  140.2523  155.7433 H   0  0  0  0  0  0  0  0  0  0  0  0  # atno 8008 bound_to 7997
  156.2479  140.2907  156.0582 H   0  0  0  0  0  0  0  0  0  0  0  0  # atno 8009 bound_to 7997
  155.1744  140.0387  157.2860 H   0  0  0  0  0  0  0  0  0  0  0  0  # atno 8010 bound_to 7997
  140.1405  144.4558  150.6814 H   0  0  0  0  0  0  0  0  0  0  0  0  # atno 10167 bound_to 10162
  157.5012  130.8439  149.8319 H   0  0  0  0  0  0  0  0  0  0  0  0  # atno 10718 bound_to 10713
  153.7247  135.6942  153.5004 H   0  0  0  0  0  0  0  0  0  0  0  0  # atno 10763 bound_to 10752
  153.2178  135.4380  155.0454 H   0  0  0  0  0  0  0  0  0  0  0  0  # atno 10764 bound_to 10752
  154.8273  135.3453  154.6779 H   0  0  0  0  0  0  0  0  0  0  0  0  # atno 10765 bound_to 10752
  140.7721  133.8430  155.9216 H   0  0  0  0  0  0  0  0  0  0  0  0  # atno 11005 bound_to 11000
  146.0262  139.3294  143.0783 LP  0  0  0  0  0  0  0  0  0  0  0  0  # atno 17320 bound_to 7965
  145.8509  140.9529  143.0750 LP  0  0  0  0  0  0  0  0  0  0  0  0  # atno 17321 bound_to 7965
  140.6763  143.2306  151.5498 LP  0  0  0  0  0  0  0  0  0  0  0  0  # atno 17342 bound_to 10162
  139.5474  144.2484  152.1468 LP  0  0  0  0  0  0  0  0  0  0  0  0  # atno 17343 bound_to 10162
  156.0230  130.3789  150.1904 LP  0  0  0  0  0  0  0  0  0  0  0  0  # atno 17370 bound_to 10713
  157.0094  130.9946  151.3370 LP  0  0  0  0  0  0  0  0  0  0  0  0  # atno 17371 bound_to 10713
  140.9563  134.1713  157.4689 LP  0  0  0  0  0  0  0  0  0  0  0  0  # atno 17394 bound_to 11000
  139.8754  134.9928  156.5615 LP  0  0  0  0  0  0  0  0  0  0  0  0  # atno 17395 bound_to 11000

$$$$
