#       Name:                AV-unprocessed.smi:1929
#       Creating user name   scv26
#       Creation time:       Fri Mar 27 09:55:06 2020


#       File generated by GOLD software.
#

@<TRIPOS>MOLECULE
AV-unprocessed.smi:1929
    48    49     1
SMALL
NO_CHARGES


@<TRIPOS>ATOM
      1 ****        -4.5741   3.7841   2.0330 C.3            1 S1                 0.0000
      2 ****        -3.9696   2.4615   1.9284 N.pl3          1 S1                -1.0000
      3 ****        -3.3360   1.8418   2.9602 C.2            1 S1                 0.0000
      4 ****        -3.1298   2.2132   4.1204 O.2            1 S1                 0.0000
      5 ****        -2.7955   0.4727   2.5314 C.3            1 S1                 0.0000
      6 ****        -1.3118   0.4925   2.4758 N.4            1 S1                 1.0000
      7 ****        -0.7772   1.2053   1.2834 C.3            1 S1                 0.0000
      8 ****         0.7578   1.2982   1.3315 C.3            1 S1                 0.0000
      9 ****         1.4140  -0.0898   1.4652 C.3            1 S1                 0.0000
     10 ****         1.2630  -0.8811   0.2437 N.am           1 S1                 0.0000
     11 ****         1.9767  -0.7144  -0.8795 C.2            1 S1                 0.0000
     12 ****         2.8653   0.1286  -0.9981 O.2            1 S1                 0.0000
     13 ****         1.5764  -1.5623  -1.8430 N.am           1 S1                 0.0000
     14 ****         2.0433  -1.6617  -3.1821 C.ar           1 S1                 0.0000
     15 ****         1.1815  -2.2534  -4.1323 C.ar           1 S1                 0.0000
     16 ****         1.6051  -2.3828  -5.4708 C.ar           1 S1                 0.0000
     17 ****         2.8326  -1.9519  -5.8321 N.pl3          1 S1                 1.0000
     18 ****         3.6970  -1.3941  -4.9575 C.ar           1 S1                 0.0000
     19 ****         3.3287  -1.2373  -3.6057 C.ar           1 S1                 0.0000
     20 ****         0.8039  -0.8297   2.6680 C.3            1 S1                 0.0000
     21 ****        -0.7342  -0.8700   2.6047 C.3            1 S1                 0.0000
     22 ****        -4.9297   4.1440   1.0677 H              1 S1                 0.0000
     23 ****        -3.8755   4.5351   2.4036 H              1 S1                 0.0000
     24 ****        -5.4342   3.7944   2.7026 H              1 S1                 0.0000
     25 ****        -3.1277  -0.2457   3.2821 H              1 S1                 0.0000
     26 ****        -3.2085   0.1339   1.5785 H              1 S1                 0.0000
     27 ****        -1.0979   0.6915   0.3759 H              1 S1                 0.0000
     28 ****        -1.1845   2.2150   1.2298 H              1 S1                 0.0000
     29 ****         1.1283   1.8173   0.4470 H              1 S1                 0.0000
     30 ****         1.0492   1.9150   2.1827 H              1 S1                 0.0000
     31 ****         2.4814   0.0400   1.6530 H              1 S1                 0.0000
     32 ****         0.5537  -1.5995   0.2533 H              1 S1                 0.0000
     33 ****         0.7869  -2.1491  -1.6157 H              1 S1                 0.0000
     34 ****         0.1994  -2.5995  -3.8437 H              1 S1                 0.0000
     35 ****         1.0037  -2.8157  -6.2569 H              1 S1                 0.0000
     36 ****         4.6537  -1.0958  -5.3609 H              1 S1                 0.0000
     37 ****         4.0431  -0.8058  -2.9214 H              1 S1                 0.0000
     38 ****         1.2032  -1.8427   2.7324 H              1 S1                 0.0000
     39 ****         1.1072  -0.3267   3.5874 H              1 S1                 0.0000
     40 ****        -1.1142  -1.3442   3.5105 H              1 S1                 0.0000
     41 ****        -1.0638  -1.4850   1.7660 H              1 S1                 0.0000
     42 ****        -1.0111   1.0118   3.2884 H              1 S1                 0.0000
     43 ****         3.1209  -2.0561  -6.8056 H              1 S1                 0.0000
     44 ****        -4.0237   1.9844   1.0512 LP             1 S1                 0.0000
     45 ****        -3.4544   3.1090   4.4237 LP             1 S1                 0.0000
     46 ****        -2.6383   1.6179   4.7560 LP             1 S1                 0.0000
     47 ****         3.0864   0.7330  -0.2328 LP             1 S1                 0.0000
     48 ****         3.3662   0.2092  -1.8598 LP             1 S1                 0.0000
@<TRIPOS>BOND
    1    1    2 1     
    2    1   22 1     
    3    1   23 1     
    4    1   24 1     
    5    2    3 1     
    6    3    4 2     
    7    3    5 1     
    8    5    6 1     
    9    5   25 1     
   10    5   26 1     
   11    6   21 1     
   12    6    7 1     
   13    6   42 1     
   14    7    8 1     
   15    7   27 1     
   16    7   28 1     
   17    8    9 1     
   18    8   29 1     
   19    8   30 1     
   20    9   10 1     
   21    9   20 1     
   22    9   31 1     
   23   10   11 am    
   24   10   32 1     
   25   11   12 2     
   26   11   13 am    
   27   13   14 1     
   28   13   33 1     
   29   14   19 ar    
   30   14   15 ar    
   31   15   16 ar    
   32   15   34 1     
   33   16   17 ar    
   34   16   35 1     
   35   17   18 ar    
   36   17   43 1     
   37   18   19 ar    
   38   18   36 1     
   39   19   37 1     
   40   20   21 1     
   41   20   38 1     
   42   20   39 1     
   43   21   40 1     
   44   21   41 1     
   45    2   44 1     
   46    4   45 1     
   47    4   46 1     
   48   12   47 1     
   49   12   48 1     
@<TRIPOS>SUBSTRUCTURE
      1 S1             1
@<TRIPOS>SET
LONE_PAIRS      STATIC     ATOMS    <user>   **** ""
5 44 45 46 47 48
DONOR_HYDROGENS      STATIC     ATOMS    <user>   **** ""
4 42 32 33 43
ATOM$BLUE        STATIC     ATOMS    COLORGROUP SYSTEM
5 44 45 46 47 48
ATOM$RED        STATIC     ATOMS    COLORGROUP SYSTEM
4 42 32 33 43
