#       Name:                AV-unprocessed.smi:21
#       Creating user name   scv26
#       Creation time:       Thu Mar 26 15:33:47 2020


#       File generated by GOLD software.
#

@<TRIPOS>MOLECULE
AV-unprocessed.smi:21
    71    74     1
SMALL
NO_CHARGES


@<TRIPOS>ATOM
      1 ****        -3.1014  -4.6874   3.1279 C.3            1 S1                 0.0000
      2 ****        -3.0670  -3.6333   2.1785 O.3            1 S1                 0.0000
      3 ****        -2.4622  -3.9932   0.9430 C.3            1 S1                 0.0000
      4 ****        -2.1178  -2.7240   0.1748 C.3            1 S1                 0.0000
      5 ****        -3.4402  -2.3126  -0.4871 C.3            1 S1                 0.0000
      6 ****        -3.2639  -1.4301  -1.7482 C.3            1 S1                 0.0000
      7 ****        -2.6373  -0.1411  -1.4490 N.pl3          1 S1                 0.0000
      8 ****        -3.4307   0.8764  -0.7716 C.3            1 S1                 0.0000
      9 ****        -1.2797  -0.0438  -1.4474 C.ar           1 S1                 0.0000
     10 ****        -0.5924  -0.7011  -2.4183 N.ar           1 S1                 0.0000
     11 ****         0.7409  -0.6430  -2.4692 C.ar           1 S1                 0.0000
     12 ****         1.5779  -0.0002  -1.6550 N.ar           1 S1                 0.0000
     13 ****         0.9014   0.6564  -0.6705 C.ar           1 S1                 0.0000
     14 ****        -0.5126   0.6909  -0.4928 C.ar           1 S1                 0.0000
     15 ****        -0.8188   1.4516   0.6314 N.2            1 S1                 0.0000
     16 ****         0.3385   1.8536   1.0794 C.2            1 S1                 0.0000
     17 ****         1.4251   1.4240   0.3549 N.pl3          1 S1                 0.0000
     18 ****         2.8195   1.7198   0.6315 C.3            1 S1                 0.0000
     19 ****         3.2427   3.1630   0.2505 C.3            1 S1                 0.0000
     20 ****         2.9535   3.4889  -1.2374 C.3            1 S1                 0.0000
     21 ****         1.5925   3.8005  -1.4542 O.3            1 S1                 0.0000
     22 ****         4.7387   3.3960   0.5872 C.3            1 S1                 0.0000
     23 ****         5.1208   3.1418   2.0366 C.3            1 S1                 0.0000
     24 ****         6.4438   3.8866   2.1521 C.3            1 S1                 0.0000
     25 ****         6.2836   5.0440   1.3437 O.3            1 S1                 0.0000
     26 ****         5.2182   4.8456   0.4185 C.3            1 S1                 0.0000
     27 ****        -4.2031  -3.5807  -0.6800 N.4            1 S1                 1.0000
     28 ****        -4.6133  -3.9381  -2.0585 C.3            1 S1                 0.0000
     29 ****        -3.4722  -4.6692   0.0105 C.3            1 S1                 0.0000
     30 ****        -1.5718  -4.6021   1.1102 H              1 S1                 0.0000
     31 ****        -4.0170  -1.7482   0.2470 H              1 S1                 0.0000
     32 ****        -3.5806  -4.3377   4.0422 H              1 S1                 0.0000
     33 ****        -2.0943  -5.0178   3.3851 H              1 S1                 0.0000
     34 ****        -3.6667  -5.5450   2.7632 H              1 S1                 0.0000
     35 ****        -1.7004  -1.9438   0.8125 H              1 S1                 0.0000
     36 ****        -1.3762  -2.9578  -0.5905 H              1 S1                 0.0000
     37 ****        -2.7131  -1.9694  -2.5188 H              1 S1                 0.0000
     38 ****        -4.2402  -1.2116  -2.1813 H              1 S1                 0.0000
     39 ****        -3.0520   1.8756  -0.9894 H              1 S1                 0.0000
     40 ****        -3.4177   0.7225   0.3076 H              1 S1                 0.0000
     41 ****        -4.4683   0.8378  -1.1041 H              1 S1                 0.0000
     42 ****         1.2029  -1.1893  -3.2784 H              1 S1                 0.0000
     43 ****         0.4331   2.4802   1.9544 H              1 S1                 0.0000
     44 ****         2.9789   1.5407   1.6946 H              1 S1                 0.0000
     45 ****         3.4407   0.9956   0.1032 H              1 S1                 0.0000
     46 ****         2.6645   3.8558   0.8643 H              1 S1                 0.0000
     47 ****         3.5214   4.3557  -1.5721 H              1 S1                 0.0000
     48 ****         3.2464   2.6581  -1.8800 H              1 S1                 0.0000
     49 ****         1.4689   3.9826  -2.3734 H              1 S1                 0.0000
     50 ****         5.3545   2.7526  -0.0436 H              1 S1                 0.0000
     51 ****         4.3838   3.5807   2.7107 H              1 S1                 0.0000
     52 ****         5.2213   2.0834   2.2788 H              1 S1                 0.0000
     53 ****         6.6933   4.1467   3.1810 H              1 S1                 0.0000
     54 ****         7.2570   3.2838   1.7454 H              1 S1                 0.0000
     55 ****         5.5515   5.0537  -0.5985 H              1 S1                 0.0000
     56 ****         4.4233   5.5516   0.6619 H              1 S1                 0.0000
     57 ****        -3.7499  -4.0623  -2.7134 H              1 S1                 0.0000
     58 ****        -5.2732  -3.1818  -2.4831 H              1 S1                 0.0000
     59 ****        -5.1659  -4.8783  -2.0501 H              1 S1                 0.0000
     60 ****        -2.9232  -5.2601  -0.7249 H              1 S1                 0.0000
     61 ****        -4.1572  -5.3450   0.5219 H              1 S1                 0.0000
     62 ****        -5.0605  -3.4509  -0.1616 H              1 S1                 0.0000
     63 ****        -2.5519  -2.8716   2.5716 LP             1 S1                 0.0000
     64 ****        -4.0062  -3.3419   1.9967 LP             1 S1                 0.0000
     65 ****        -1.0905  -1.2341  -3.1022 LP             1 S1                 0.0000
     66 ****         2.5731   0.0003  -1.7537 LP             1 S1                 0.0000
     67 ****        -1.7232   1.6465   1.0108 LP             1 S1                 0.0000
     68 ****         1.3403   4.6037  -0.9145 LP             1 S1                 0.0000
     69 ****         1.0219   3.0250  -1.1844 LP             1 S1                 0.0000
     70 ****         7.1308   5.2177   0.8416 LP             1 S1                 0.0000
     71 ****         6.0747   5.8293   1.9265 LP             1 S1                 0.0000
@<TRIPOS>BOND
    1    1    2 1     
    2    1   32 1     
    3    1   33 1     
    4    1   34 1     
    5    2    3 1     
    6    3   30 1     
    7    3   29 1     
    8    3    4 1     
    9    4    5 1     
   10    4   35 1     
   11    4   36 1     
   12    5   31 1     
   13    5    6 1     
   14    5   27 1     
   15    6    7 1     
   16    6   37 1     
   17    6   38 1     
   18    7    8 1     
   19    7    9 1     
   20    8   39 1     
   21    8   40 1     
   22    8   41 1     
   23    9   14 ar    
   24    9   10 ar    
   25   10   11 ar    
   26   11   12 ar    
   27   11   42 1     
   28   12   13 ar    
   29   13   17 1     
   30   13   14 ar    
   31   14   15 1     
   32   15   16 2     
   33   16   17 1     
   34   16   43 1     
   35   17   18 1     
   36   18   19 1     
   37   18   44 1     
   38   18   45 1     
   39   19   20 1     
   40   19   22 1     
   41   19   46 1     
   42   20   21 1     
   43   20   47 1     
   44   20   48 1     
   45   21   49 1     
   46   22   26 1     
   47   22   23 1     
   48   22   50 1     
   49   23   24 1     
   50   23   51 1     
   51   23   52 1     
   52   24   25 1     
   53   24   53 1     
   54   24   54 1     
   55   25   26 1     
   56   26   55 1     
   57   26   56 1     
   58   27   28 1     
   59   27   29 1     
   60   27   62 1     
   61   28   57 1     
   62   28   58 1     
   63   28   59 1     
   64   29   60 1     
   65   29   61 1     
   66    2   63 1     
   67    2   64 1     
   68   10   65 1     
   69   12   66 1     
   70   15   67 1     
   71   21   68 1     
   72   21   69 1     
   73   25   70 1     
   74   25   71 1     
@<TRIPOS>SUBSTRUCTURE
      1 S1             1
@<TRIPOS>SET
LONE_PAIRS      STATIC     ATOMS    <user>   **** ""
9 63 64 65 66 67 68 69 70 71
DONOR_HYDROGENS      STATIC     ATOMS    <user>   **** ""
2 49 62
ATOM$BLUE        STATIC     ATOMS    COLORGROUP SYSTEM
9 63 64 65 66 67 68 69 70 71
ATOM$RED        STATIC     ATOMS    COLORGROUP SYSTEM
2 49 62
