#       Name:                AV-unprocessed.smi:2439
#       Creating user name   scv26
#       Creation time:       Fri Mar 27 13:24:52 2020


#       File generated by GOLD software.
#

@<TRIPOS>MOLECULE
AV-unprocessed.smi:2439
    45    47     1
SMALL
NO_CHARGES


@<TRIPOS>ATOM
      1 ****        -1.8150  -5.4116   2.0044 N.1            1 S1                 0.0000
      2 ****        -2.3130  -4.3677   1.9729 C.1            1 S1                 0.0000
      3 ****        -2.9401  -3.0522   1.9334 C.ar           1 S1                 0.0000
      4 ****        -4.3394  -2.9674   1.7747 C.ar           1 S1                 0.0000
      5 ****        -4.9500  -1.7006   1.7357 C.ar           1 S1                 0.0000
      6 ****        -4.1319  -0.5634   1.8604 C.ar           1 S1                 0.0000
      7 ****        -2.7933  -0.6303   2.0146 N.ar           1 S1                 0.0000
      8 ****        -2.1958  -1.8471   2.0486 C.ar           1 S1                 0.0000
      9 ****        -0.7982  -1.8867   2.2117 N.pl3          1 S1                 0.0000
     10 ****         0.0221  -0.6838   2.1269 C.3            1 S1                 0.0000
     11 ****         0.2270  -0.2138   0.6774 C.3            1 S1                 0.0000
     12 ****         0.9253   1.1570   0.6191 C.3            1 S1                 0.0000
     13 ****         1.1894   1.5740  -0.7520 N.3            1 S1                 0.0000
     14 ****         1.8575   2.8738  -0.7934 C.3            1 S1                 0.0000
     15 ****         2.1162   3.3535  -2.2305 C.3            1 S1                 0.0000
     16 ****         2.9355   2.3090  -3.0019 C.3            1 S1                 0.0000
     17 ****         2.2572   0.9334  -2.9092 C.3            1 S1                 0.0000
     18 ****         1.9828   0.5511  -1.4400 C.3            1 S1                 0.0000
     19 ****         1.2965  -0.8276  -1.3546 C.3            1 S1                 0.0000
     20 ****         1.0517  -1.1638   0.0073 O.3            1 S1                 0.0000
     21 ****        -4.9423  -3.8597   1.6835 H              1 S1                 0.0000
     22 ****        -6.0187  -1.6035   1.6144 H              1 S1                 0.0000
     23 ****        -4.5631   0.4266   1.8369 H              1 S1                 0.0000
     24 ****        -0.3297  -2.7813   2.1918 H              1 S1                 0.0000
     25 ****        -0.4315   0.1082   2.7235 H              1 S1                 0.0000
     26 ****         0.9879  -0.8919   2.5876 H              1 S1                 0.0000
     27 ****        -0.7359  -0.1459   0.1680 H              1 S1                 0.0000
     28 ****         0.3023   1.9021   1.1150 H              1 S1                 0.0000
     29 ****         1.8615   1.1114   1.1780 H              1 S1                 0.0000
     30 ****         1.2481   3.6153  -0.2754 H              1 S1                 0.0000
     31 ****         2.8041   2.8210  -0.2533 H              1 S1                 0.0000
     32 ****         1.1648   3.5234  -2.7364 H              1 S1                 0.0000
     33 ****         2.6397   4.3098  -2.2201 H              1 S1                 0.0000
     34 ****         3.0474   2.6083  -4.0443 H              1 S1                 0.0000
     35 ****         3.9406   2.2500  -2.5825 H              1 S1                 0.0000
     36 ****         1.3192   0.9530  -3.4661 H              1 S1                 0.0000
     37 ****         2.8856   0.1798  -3.3850 H              1 S1                 0.0000
     38 ****         2.9468   0.4660  -0.9351 H              1 S1                 0.0000
     39 ****         0.3564  -0.8318  -1.9085 H              1 S1                 0.0000
     40 ****         1.9307  -1.5969  -1.7960 H              1 S1                 0.0000
     41 ****        -1.3845  -6.3138   2.0316 LP             1 S1                 0.0000
     42 ****        -2.2500   0.2047   2.1024 LP             1 S1                 0.0000
     43 ****         0.3150   1.6756  -1.2265 LP             1 S1                 0.0000
     44 ****         0.6004  -2.0556   0.0389 LP             1 S1                 0.0000
     45 ****         1.9288  -1.2169   0.4847 LP             1 S1                 0.0000
@<TRIPOS>BOND
    1    1    2 3     
    2    2    3 1     
    3    3    8 ar    
    4    3    4 ar    
    5    4    5 ar    
    6    4   21 1     
    7    5    6 ar    
    8    5   22 1     
    9    6    7 ar    
   10    6   23 1     
   11    7    8 ar    
   12    8    9 1     
   13    9   10 1     
   14    9   24 1     
   15   10   11 1     
   16   10   25 1     
   17   10   26 1     
   18   11   20 1     
   19   11   12 1     
   20   11   27 1     
   21   12   13 1     
   22   12   28 1     
   23   12   29 1     
   24   13   18 1     
   25   13   14 1     
   26   14   15 1     
   27   14   30 1     
   28   14   31 1     
   29   15   16 1     
   30   15   32 1     
   31   15   33 1     
   32   16   17 1     
   33   16   34 1     
   34   16   35 1     
   35   17   18 1     
   36   17   36 1     
   37   17   37 1     
   38   18   19 1     
   39   18   38 1     
   40   19   20 1     
   41   19   39 1     
   42   19   40 1     
   43    1   41 1     
   44    7   42 1     
   45   13   43 1     
   46   20   44 1     
   47   20   45 1     
@<TRIPOS>SUBSTRUCTURE
      1 S1             1
@<TRIPOS>SET
LONE_PAIRS      STATIC     ATOMS    <user>   **** ""
5 41 42 43 44 45
DONOR_HYDROGENS      STATIC     ATOMS    <user>   **** ""
1 24
ATOM$BLUE        STATIC     ATOMS    COLORGROUP SYSTEM
5 41 42 43 44 45
ATOM$RED        STATIC     ATOMS    COLORGROUP SYSTEM
1 24
