AV-unprocessed.smi:581|AV-procd|sdf|2993|dock7
  -GOLD-   2262023493D 1   1.00000     0.00000
 Structure written by MMmdl.
 35 36  0  0  0  0  0  0  0  0  2 V2000
  149.2558  141.8113  154.5549 C   0  0  0  0  0  0  0  0  0  0  0  0
  150.3237  141.4600  155.5743 C   0  0  0  0  0  0  0  0  0  0  0  0
  150.5298  142.3718  156.5493 N   0  0  0  0  0  0  0  0  0  0  0  0
  151.4684  142.1109  157.4666 C   0  0  0  0  0  0  0  0  0  0  0  0
  151.6776  143.0664  158.4699 N   0  0  0  0  0  0  0  0  0  0  0  0
  151.4209  144.4927  158.2581 C   0  0  0  0  0  0  0  0  0  0  0  0
  150.9292  145.1555  159.5559 C   0  0  0  0  0  0  0  0  0  0  0  0
  151.8639  144.9207  160.6021 O   0  0  0  0  0  0  0  0  0  0  0  0
  152.0077  143.5322  160.8742 C   0  0  0  0  0  0  0  0  0  0  0  0
  152.5401  142.8092  159.6258 C   0  0  0  0  0  0  0  0  0  0  0  0
  152.2246  141.0064  157.4930 N   0  0  0  0  0  0  0  0  0  0  0  0
  152.0364  140.0791  156.5302 C   0  0  0  0  0  0  0  0  0  0  0  0
  152.8167  138.9598  156.5600 O   0  0  0  0  0  0  0  0  0  0  0  0
  151.0671  140.2567  155.5155 C   0  0  0  0  0  0  0  0  0  0  0  0
  150.8540  139.2172  154.4210 C   0  0  0  0  0  0  0  0  0  0  0  0
  149.7957  138.1681  154.8178 C   0  0  0  0  0  0  0  0  0  0  0  0
  150.3793  136.9839  155.5999 C   0  0  0  0  0  0  0  0  0  0  0  0
  149.8936  136.7774  156.7334 O   0  0  0  0  0  0  0  0  0  0  0  0
  151.2941  136.3085  155.0773 O   0  5  0  0  0  0  0  0  0  0  0  0
  152.7261  138.4746  157.3652 H   0  0  0  0  0  0  0  0  0  0  0  0
  149.6521  141.7369  153.5422 H   0  0  0  0  0  0  0  0  0  0  0  0
  148.8896  142.8289  154.6965 H   0  0  0  0  0  0  0  0  0  0  0  0
  148.4076  141.1328  154.6459 H   0  0  0  0  0  0  0  0  0  0  0  0
  150.6745  144.6658  157.4834 H   0  0  0  0  0  0  0  0  0  0  0  0
  152.3430  144.9670  157.9207 H   0  0  0  0  0  0  0  0  0  0  0  0
  150.8235  146.2306  159.4100 H   0  0  0  0  0  0  0  0  0  0  0  0
  149.9462  144.7750  159.8378 H   0  0  0  0  0  0  0  0  0  0  0  0
  152.7018  143.4044  161.7050 H   0  0  0  0  0  0  0  0  0  0  0  0
  151.0520  143.1101  161.1901 H   0  0  0  0  0  0  0  0  0  0  0  0
  153.5459  143.1593  159.3923 H   0  0  0  0  0  0  0  0  0  0  0  0
  152.6227  141.7472  159.8543 H   0  0  0  0  0  0  0  0  0  0  0  0
  151.8025  138.7333  154.1881 H   0  0  0  0  0  0  0  0  0  0  0  0
  150.5537  139.7235  153.5028 H   0  0  0  0  0  0  0  0  0  0  0  0
  149.0207  138.6320  155.4286 H   0  0  0  0  0  0  0  0  0  0  0  0
  149.3032  137.7825  153.9242 H   0  0  0  0  0  0  0  0  0  0  0  0
  1 21  1  0  0  0  0
  1 22  1  0  0  0  0
  1 23  1  0  0  0  0
  1  2  1  0  0  0  0
  2 14  2  0  0  0  0
  2  3  1  0  0  0  0
  3  4  2  0  0  0  0
  4  5  1  0  0  0  0
  4 11  1  0  0  0  0
  5 10  1  0  0  0  0
  5  6  1  0  0  0  0
  6  7  1  0  0  0  0
  6 24  1  0  0  0  0
  6 25  1  0  0  0  0
  7  8  1  0  0  0  0
  7 26  1  0  0  0  0
  7 27  1  0  0  0  0
  8  9  1  0  0  0  0
  9 10  1  0  0  0  0
  9 28  1  0  0  0  0
  9 29  1  0  0  0  0
 10 30  1  0  0  0  0
 10 31  1  0  0  0  0
 11 12  2  0  0  0  0
 12 13  1  0  0  0  0
 12 14  1  0  0  0  0
 13 20  1  0  0  0  0
 14 15  1  0  0  0  0
 15 16  1  0  0  0  0
 15 32  1  0  0  0  0
 15 33  1  0  0  0  0
 16 17  1  0  0  0  0
 16 34  1  0  0  0  0
 16 35  1  0  0  0  0
 17 18  2  0  0  0  0
 17 19  1  0  0  0  0
M  CHG  1  19  -1
M  END
> <s_m_source_file>
AV-unprocessed.smi

> <i_m_source_file_index>
581

> <i_lp_mmshare_version>
43012

> <i_f3d_flags>
0

> <s_epik_input>
W0NIMl0xW0NIMl1PW0NIMl1bQ0gyXU4xYyhuYzJbQ0gzXSlbbkhdYyg9TyljMltDSDJdW0NIMl1DKD1PKVtPSF0=

> <s_epik_cmdline>
J2VwaWtfcHl0aG9uJywgJy1waCcsICc3LjAnLCAnLXRuJywgJzgnLCAnLW1hJywgJzIwMCcsICctbWV0YWxfYmluZGluZycsICctaW1hZScsICc8aW5maWxlLm1hZT4nLCAnLW9tYWUnLCAnPG91dGZpbGUubWFlPic=

> <r_lp_tautomer_probability>
0.0131408

> <r_epik_Ionization_Penalty>
9.14148

> <r_epik_Ionization_Penalty_Charging>
0.00124504

> <r_epik_Ionization_Penalty_Neutral>
9.14023

> <r_epik_State_Penalty>
2.72329

> <r_epik_Charging_Adjusted_Penalty>
2.72453

> <i_epik_Tot_Q>
-1

> <i_epik_Tot_abs_Q>
1

> <r_epik_Metal_State_Penalty>
2.96989

> <b_epik_Metal_Only>
0

> <s_lp_Force_Field>
OPLS_2005

> <r_lp_Energy>
10.3836

> <b_lp_Chiralities_Consistent>
1

> <s_lp_Variant>
AV-unprocessed.smi:581-3

> <Gold.Version>
5.8.1

> <Gold.Id.Protein>
6NUR|6NUR_protein|mol2

> <Gold.PLP.Fitness>
43.9311

> <Gold.PLP.PLP>
-37.0524

> <Gold.PLP.part.hbond>
-2.3001

> <Gold.PLP.part.metal>
0.0000

> <Gold.PLP.part.buried>
-2.4711

> <Gold.PLP.part.nonpolar>
-32.2848

> <Gold.PLP.part.repulsive>
0.8924

> <Gold.PLP.ligand.clash>
0.0000

> <Gold.PLP.ligand.torsion>
0.7303

> <Gold.PLP.Chemscore.Hbond>
2.7500

> <Gold.PLP.Chemscore.CHOScore>
0.0000

> <Gold.PLP.Chemscore.Metal>
0.0000

> <Gold.Chemscore.Hbonds>
donor molecule, donor type, donor heavy atom, donor atom, acceptor molecule, acceptor atom, score
      P1  H  7997  8010       L1    13  0.60
      P1  H 10752 10765       L1    19  2.00

> <Gold.PLP.Chemscore.Internal.Correction>
0.0894

> <Gold.Rescore>
     Score         DG    S(hbond)    S(metal)    S(lipo)     H(rot)  DE(clash)    DE(int)     intcor
     11.00     -11.92       1.08        0.00      78.45       2.48       0.11       0.80       ----

> <Gold.Chemscore.Fitness>
11.0038

> <Gold.Chemscore.DG>
-11.9164

> <Gold.Chemscore.ZeroCoef>
-5.4800

> <Gold.Chemscore.Hbond>
1.0778

> <Gold.Chemscore.Metal>
0.0000

> <Gold.Chemscore.Lipo>
78.4488

> <Gold.Chemscore.Internal_Hbond>
0.0000

> <Gold.Chemscore.DEClash>
0.1089

> <Gold.Chemscore.DEInternal>
0.8036

> <Gold.Chemscore.Rot>
2.4774

> <Gold.Chemscore.Internal.Correction>
   9.000000E+99

> <Gold.Chemscore.Hbonds>
donor molecule, donor type, donor heavy atom, donor atom, acceptor molecule, acceptor atom, score
      P1  H  7997  8010       L1    13  0.02
      P1  H 10752 10765       L1    19  1.00

> <Gold.Chemscore.Hbond.Weighted>
-3.5999

> <Gold.Chemscore.Metal.Weighted>
-0.0000

> <Gold.Chemscore.Lipo.Weighted>
-9.1785

> <Gold.Chemscore.Internal_Hbond.Weighted>
0.0000

> <Gold.Chemscore.DEClash.Weighted>
0.1089

> <Gold.Chemscore.DEInternal.Weighted>
0.8036

> <Gold.Chemscore.Rot.Weighted>
6.3420

> <Gold.Chemscore.Internal.Correction.Weighted>
   9.000000E+99

> <Gold.Protein.RotatedTorsions>
[ 6907 6896 6895 6894 ] final   18.26 input  -60.11 | X-H torsion
[ 7974 7965 7964 7962 ] final -118.44 input  175.53 | X-H torsion
[ 8008 7997 7996 7995 ] final   48.61 input   59.86 | X-H torsion
[ 10167 10162 10161 10158 ] final   84.20 input  -65.29 | X-H torsion
[ 10718 10713 10712 10709 ] final  -11.71 input   66.30 | X-H torsion
[ 10763 10752 10751 10750 ] final  172.71 input  -60.55 | X-H torsion
[ 11005 11000 10999 10996 ] final  -92.18 input  -57.11 | X-H torsion

> <Gold.Protein.ActiveResidues>
 VAL166  LYS551  ARG553  GLY616  TRP617  ASP618  TYR619  PRO620  LYS621  CYS622 
 ASP623  PHE694  ASN695  SER759  ASP760  ASP761  ALA762  ILE779  LEU786  VAL792 
 PHE793  MET794  SER795  GLU796  ALA797  LYS798  CYS799  TRP800  GLU811  SER814 

> <Gold.Protein.RotatedAtoms>
  151.8625  135.0519  160.0470 H   0  0  0  0  0  0  0  0  0  0  0  0  # atno 6907 bound_to 6896
  152.2652  133.5328  159.5414 H   0  0  0  0  0  0  0  0  0  0  0  0  # atno 6908 bound_to 6896
  150.7131  134.0691  159.3900 H   0  0  0  0  0  0  0  0  0  0  0  0  # atno 6909 bound_to 6896
  145.0737  140.8377  143.4080 H   0  0  0  0  0  0  0  0  0  0  0  0  # atno 7974 bound_to 7965
  155.3884  140.3432  155.4250 H   0  0  0  0  0  0  0  0  0  0  0  0  # atno 8008 bound_to 7997
  156.1571  140.1589  156.8707 H   0  0  0  0  0  0  0  0  0  0  0  0  # atno 8009 bound_to 7997
  154.5105  140.0791  156.7962 H   0  0  0  0  0  0  0  0  0  0  0  0  # atno 8010 bound_to 7997
  139.9105  144.6274  150.8542 H   0  0  0  0  0  0  0  0  0  0  0  0  # atno 10167 bound_to 10162
  156.6552  130.4966  149.6049 H   0  0  0  0  0  0  0  0  0  0  0  0  # atno 10718 bound_to 10713
  154.4298  135.2759  155.1920 H   0  0  0  0  0  0  0  0  0  0  0  0  # atno 10763 bound_to 10752
  154.3830  135.6083  153.5805 H   0  0  0  0  0  0  0  0  0  0  0  0  # atno 10764 bound_to 10752
  152.9836  135.5885  154.4608 H   0  0  0  0  0  0  0  0  0  0  0  0  # atno 10765 bound_to 10752
  141.1528  133.7804  156.9984 H   0  0  0  0  0  0  0  0  0  0  0  0  # atno 11005 bound_to 11000
  145.1261  139.2662  143.5563 LP  0  0  0  0  0  0  0  0  0  0  0  0  # atno 17320 bound_to 7965
  146.3529  140.0899  142.8613 LP  0  0  0  0  0  0  0  0  0  0  0  0  # atno 17321 bound_to 7965
  140.7686  143.3369  151.2290 LP  0  0  0  0  0  0  0  0  0  0  0  0  # atno 17342 bound_to 10162
  139.6946  143.9634  152.2876 LP  0  0  0  0  0  0  0  0  0  0  0  0  # atno 17343 bound_to 10162
  156.2054  130.6645  151.1212 LP  0  0  0  0  0  0  0  0  0  0  0  0  # atno 17370 bound_to 10713
  157.7128  131.0725  150.6439 LP  0  0  0  0  0  0  0  0  0  0  0  0  # atno 17371 bound_to 10713
  140.0956  134.9566  157.1845 LP  0  0  0  0  0  0  0  0  0  0  0  0  # atno 17394 bound_to 11000
  140.3386  134.2729  155.7216 LP  0  0  0  0  0  0  0  0  0  0  0  0  # atno 17395 bound_to 11000

$$$$
