AV-unprocessed.smi:1064|AV-procd|sdf|4665|dock8
  -GOLD-   22720 3173D 1   1.00000     0.00000
 Structure written by MMmdl.
 36 37  0  0  0  0  0  0  0  0  2 V2000
  152.5926  140.0759  155.1992 O   0  0  0  0  0  0  0  0  0  0  0  0
  151.3859  139.8471  155.1017 C   0  0  0  0  0  0  0  0  0  0  0  0
  150.4598  140.7124  155.5499 N   0  0  0  0  0  0  0  0  0  0  0  0
  150.7423  141.9975  156.1777 C   0  0  0  0  0  0  0  0  0  0  0  0
  151.1251  141.8310  157.6596 C   0  0  0  0  0  0  0  0  0  0  0  0
  151.2239  143.1215  158.4179 C   0  0  0  0  0  0  0  0  0  0  0  0
  150.6854  144.2935  158.0568 N   0  3  0  0  0  0  0  0  0  0  0  0
  150.9888  145.2631  158.9725 C   0  0  0  0  0  0  0  0  0  0  0  0
  151.7590  144.6605  159.9318 C   0  0  0  0  0  0  0  0  0  0  0  0
  151.8973  143.3476  159.5595 N   0  0  0  0  0  0  0  0  0  0  0  0
  152.6430  142.3157  160.2876 C   0  0  0  0  0  0  0  0  0  0  0  0
  153.6851  141.9034  159.5664 F   0  0  0  0  0  0  0  0  0  0  0  0
  153.0501  142.7779  161.4699 F   0  0  0  0  0  0  0  0  0  0  0  0
  150.8859  138.7068  154.5612 N   0  0  0  0  0  0  0  0  0  0  0  0
  151.5346  137.3850  154.5770 C   0  0  0  0  0  0  0  0  0  0  0  0
  150.9662  136.5589  155.7430 C   0  0  0  0  0  0  0  0  0  0  0  0
  149.1826  136.2683  155.5262 S   0  0  0  0  0  0  0  0  0  0  0  0
  148.6332  137.9698  155.1842 C   0  0  0  0  0  0  0  0  0  0  0  0
  149.4978  138.6220  154.0919 C   0  0  0  0  0  0  0  0  0  0  0  0
  149.4882  140.4591  155.4429 H   0  0  0  0  0  0  0  0  0  0  0  0
  151.5333  142.5097  155.6270 H   0  0  0  0  0  0  0  0  0  0  0  0
  149.8485  142.6162  156.0913 H   0  0  0  0  0  0  0  0  0  0  0  0
  150.3868  141.2127  158.1702 H   0  0  0  0  0  0  0  0  0  0  0  0
  152.0940  141.3411  157.7605 H   0  0  0  0  0  0  0  0  0  0  0  0
  150.6448  146.2824  158.8742 H   0  0  0  0  0  0  0  0  0  0  0  0
  152.2113  145.0606  160.8277 H   0  0  0  0  0  0  0  0  0  0  0  0
  151.9954  141.4569  160.4673 H   0  0  0  0  0  0  0  0  0  0  0  0
  151.3493  136.8697  153.6335 H   0  0  0  0  0  0  0  0  0  0  0  0
  152.6204  137.4407  154.6546 H   0  0  0  0  0  0  0  0  0  0  0  0
  151.4710  135.5949  155.8080 H   0  0  0  0  0  0  0  0  0  0  0  0
  151.1321  137.0719  156.6911 H   0  0  0  0  0  0  0  0  0  0  0  0
  147.5875  137.9446  154.8775 H   0  0  0  0  0  0  0  0  0  0  0  0
  148.6819  138.5517  156.1054 H   0  0  0  0  0  0  0  0  0  0  0  0
  149.0937  139.6021  153.8341 H   0  0  0  0  0  0  0  0  0  0  0  0
  149.4463  138.0388  153.1714 H   0  0  0  0  0  0  0  0  0  0  0  0
  150.1303  144.4379  157.2228 H   0  0  0  0  0  0  0  0  0  0  0  0
  1  2  2  0  0  0  0
  2  3  1  0  0  0  0
  2 14  1  0  0  0  0
  3  4  1  0  0  0  0
  3 20  1  0  0  0  0
  4  5  1  0  0  0  0
  4 21  1  0  0  0  0
  4 22  1  0  0  0  0
  5  6  1  0  0  0  0
  5 23  1  0  0  0  0
  5 24  1  0  0  0  0
  6 10  1  0  0  0  0
  6  7  2  0  0  0  0
  7  8  1  0  0  0  0
  7 36  1  0  0  0  0
  8  9  2  0  0  0  0
  8 25  1  0  0  0  0
  9 10  1  0  0  0  0
  9 26  1  0  0  0  0
 10 11  1  0  0  0  0
 11 12  1  0  0  0  0
 11 13  1  0  0  0  0
 11 27  1  0  0  0  0
 14 19  1  0  0  0  0
 14 15  1  0  0  0  0
 15 16  1  0  0  0  0
 15 28  1  0  0  0  0
 15 29  1  0  0  0  0
 16 17  1  0  0  0  0
 16 30  1  0  0  0  0
 16 31  1  0  0  0  0
 17 18  1  0  0  0  0
 18 19  1  0  0  0  0
 18 32  1  0  0  0  0
 18 33  1  0  0  0  0
 19 34  1  0  0  0  0
 19 35  1  0  0  0  0
M  CHG  1   7   1
M  END
> <s_m_source_file>
AV-unprocessed.smi

> <i_m_source_file_index>
1064

> <i_lp_mmshare_version>
43012

> <i_f3d_flags>
0

> <s_epik_input>
W0NIMl0xW0NIMl1TW0NIMl1bQ0gyXU4xQyg9TylbTkhdW0NIMl1bQ0gyXWMybltjSF1bY0hdbjJbQ0hdKEYpRg==

> <s_epik_cmdline>
J2VwaWtfcHl0aG9uJywgJy1waCcsICc3LjAnLCAnLXRuJywgJzgnLCAnLW1hJywgJzIwMCcsICctbWV0YWxfYmluZGluZycsICctaW1hZScsICc8aW5maWxlLm1hZT4nLCAnLW9tYWUnLCAnPG91dGZpbGUubWFlPic=

> <r_lp_tautomer_probability>
1

> <r_epik_Ionization_Penalty>
1.10071

> <r_epik_Ionization_Penalty_Charging>
0

> <r_epik_Ionization_Penalty_Neutral>
1.10071

> <r_epik_State_Penalty>
1.15778

> <r_epik_Charging_Adjusted_Penalty>
1.15778

> <i_epik_Tot_Q>
1

> <i_epik_Tot_abs_Q>
1

> <r_epik_Metal_State_Penalty>
1.24497

> <b_epik_Metal_Only>
0

> <s_lp_Force_Field>
OPLS_2005

> <r_lp_Energy>
29.6346

> <b_lp_Chiralities_Consistent>
1

> <s_lp_Variant>
AV-unprocessed.smi:1064-2

> <Gold.Version>
5.8.1

> <Gold.Id.Protein>
6NUR|6NUR_protein|mol2

> <Gold.PLP.Fitness>
52.2477

> <Gold.PLP.PLP>
-45.7395

> <Gold.PLP.part.hbond>
-3.0000

> <Gold.PLP.part.metal>
0.0000

> <Gold.PLP.part.buried>
-3.8932

> <Gold.PLP.part.nonpolar>
-38.7673

> <Gold.PLP.part.repulsive>
0.1880

> <Gold.PLP.ligand.clash>
0.9365

> <Gold.PLP.ligand.torsion>
0.8107

> <Gold.PLP.Chemscore.Hbond>
3.0000

> <Gold.PLP.Chemscore.CHOScore>
0.0000

> <Gold.PLP.Chemscore.Metal>
0.0000

> <Gold.Chemscore.Hbonds>
donor molecule, donor type, donor heavy atom, donor atom, acceptor molecule, acceptor atom, score
      L1  H     7    36       P1  8028  2.00
      P1  H  7997  8009       L1     1  1.00

> <Gold.PLP.Chemscore.Internal.Correction>
0.0661

> <Gold.Rescore>
     Score         DG    S(hbond)    S(metal)    S(lipo)     H(rot)  DE(clash)    DE(int)     intcor
     15.14     -15.85       1.91        0.00      70.33       1.65       0.19       0.52       ----

> <Gold.Chemscore.Fitness>
15.1446

> <Gold.Chemscore.DG>
-15.8534

> <Gold.Chemscore.ZeroCoef>
-5.4800

> <Gold.Chemscore.Hbond>
1.9088

> <Gold.Chemscore.Metal>
0.0000

> <Gold.Chemscore.Lipo>
70.3274

> <Gold.Chemscore.Internal_Hbond>
0.0000

> <Gold.Chemscore.DEClash>
0.1871

> <Gold.Chemscore.DEInternal>
0.5216

> <Gold.Chemscore.Rot>
1.6525

> <Gold.Chemscore.Internal.Correction>
   9.000000E+99

> <Gold.Chemscore.Hbonds>
donor molecule, donor type, donor heavy atom, donor atom, acceptor molecule, acceptor atom, score
      L1  H     7    36       P1  8028  0.54
      P1  H  7997  8009       L1     1  0.98

> <Gold.Chemscore.Hbond.Weighted>
-6.3755

> <Gold.Chemscore.Metal.Weighted>
-0.0000

> <Gold.Chemscore.Lipo.Weighted>
-8.2283

> <Gold.Chemscore.Internal_Hbond.Weighted>
0.0000

> <Gold.Chemscore.DEClash.Weighted>
0.1871

> <Gold.Chemscore.DEInternal.Weighted>
0.5216

> <Gold.Chemscore.Rot.Weighted>
4.2304

> <Gold.Chemscore.Internal.Correction.Weighted>
   9.000000E+99

> <Gold.Protein.RotatedTorsions>
[ 6907 6896 6895 6894 ] final  -50.63 input  -60.11 | X-H torsion
[ 7974 7965 7964 7962 ] final  150.31 input  175.53 | X-H torsion
[ 8008 7997 7996 7995 ] final -144.27 input   59.86 | X-H torsion
[ 10167 10162 10161 10158 ] final  -71.66 input  -65.29 | X-H torsion
[ 10718 10713 10712 10709 ] final  108.32 input   66.30 | X-H torsion
[ 10763 10752 10751 10750 ] final  -16.30 input  -60.55 | X-H torsion
[ 11005 11000 10999 10996 ] final   71.06 input  -57.11 | X-H torsion

> <Gold.Protein.ActiveResidues>
 VAL166  LYS551  ARG553  GLY616  TRP617  ASP618  TYR619  PRO620  LYS621  CYS622 
 ASP623  PHE694  ASN695  SER759  ASP760  ASP761  ALA762  ILE779  LEU786  VAL792 
 PHE793  MET794  SER795  GLU796  ALA797  LYS798  CYS799  TRP800  GLU811  SER814 

> <Gold.Protein.RotatedAtoms>
  150.8688  134.8058  159.7138 H   0  0  0  0  0  0  0  0  0  0  0  0  # atno 6907 bound_to 6896
  152.4700  134.4980  159.9725 H   0  0  0  0  0  0  0  0  0  0  0  0  # atno 6908 bound_to 6896
  151.5072  133.3454  159.2914 H   0  0  0  0  0  0  0  0  0  0  0  0  # atno 6909 bound_to 6896
  144.8374  139.6391  143.6032 H   0  0  0  0  0  0  0  0  0  0  0  0  # atno 7974 bound_to 7965
  155.5241  140.0594  157.2901 H   0  0  0  0  0  0  0  0  0  0  0  0  # atno 8008 bound_to 7997
  154.4507  140.1947  156.0474 H   0  0  0  0  0  0  0  0  0  0  0  0  # atno 8009 bound_to 7997
  156.0698  140.3261  155.7566 H   0  0  0  0  0  0  0  0  0  0  0  0  # atno 8010 bound_to 7997
  140.5255  143.2327  151.7355 H   0  0  0  0  0  0  0  0  0  0  0  0  # atno 10167 bound_to 10162
  157.6591  131.0891  150.6288 H   0  0  0  0  0  0  0  0  0  0  0  0  # atno 10718 bound_to 10713
  153.5565  135.7010  153.5567 H   0  0  0  0  0  0  0  0  0  0  0  0  # atno 10763 bound_to 10752
  153.3468  135.4006  155.1615 H   0  0  0  0  0  0  0  0  0  0  0  0  # atno 10764 bound_to 10752
  154.8654  135.3755  154.5079 H   0  0  0  0  0  0  0  0  0  0  0  0  # atno 10765 bound_to 10752
  139.9563  134.7138  156.0745 H   0  0  0  0  0  0  0  0  0  0  0  0  # atno 11005 bound_to 11000
  146.2671  139.6545  142.9322 LP  0  0  0  0  0  0  0  0  0  0  0  0  # atno 17320 bound_to 7965
  145.4766  141.0437  143.2669 LP  0  0  0  0  0  0  0  0  0  0  0  0  # atno 17321 bound_to 7965
  139.4937  144.4192  151.9997 LP  0  0  0  0  0  0  0  0  0  0  0  0  # atno 17342 bound_to 10162
  140.3291  144.3338  150.5991 LP  0  0  0  0  0  0  0  0  0  0  0  0  # atno 17343 bound_to 10162
  156.6592  130.4507  149.5693 LP  0  0  0  0  0  0  0  0  0  0  0  0  # atno 17370 bound_to 10713
  156.2079  130.6661  151.1238 LP  0  0  0  0  0  0  0  0  0  0  0  0  # atno 17371 bound_to 10713
  141.1235  133.6606  156.3277 LP  0  0  0  0  0  0  0  0  0  0  0  0  # atno 17394 bound_to 11000
  140.5601  134.5943  157.5431 LP  0  0  0  0  0  0  0  0  0  0  0  0  # atno 17395 bound_to 11000

$$$$
