AV-unprocessed.smi:1828|AV-procd|sdf|7425|dock6
  -GOLD-   22720 9103D 1   1.00000     0.00000
 Structure written by MMmdl.
 39 41  0  0  0  0  0  0  0  0  1 V2000
  151.8422  136.8614  153.9736 O   0  0  0  0  0  0  0  0  0  0  0  0
  151.9649  138.0926  154.6544 C   0  0  0  0  0  0  0  0  0  0  0  0
  150.7330  138.9445  154.5400 C   0  0  0  0  0  0  0  0  0  0  0  0
  149.7086  138.5696  153.7713 N   0  0  0  0  0  0  0  0  0  0  0  0
  148.8105  139.6056  153.9257 C   0  0  0  0  0  0  0  0  0  0  0  0
  147.5303  139.8033  153.3609 C   0  0  0  0  0  0  0  0  0  0  0  0
  146.7852  140.9602  153.6690 C   0  0  0  0  0  0  0  0  0  0  0  0
  147.3086  141.9337  154.5442 C   0  0  0  0  0  0  0  0  0  0  0  0
  148.5820  141.7552  155.1182 C   0  0  0  0  0  0  0  0  0  0  0  0
  149.3215  140.5978  154.8078 C   0  0  0  0  0  0  0  0  0  0  0  0
  150.5745  140.1283  155.1916 N   0  0  0  0  0  0  0  0  0  0  0  0
  151.4852  140.8156  156.1001 C   0  0  0  0  0  0  0  0  0  0  0  0
  150.8323  141.1256  157.4624 C   0  0  1  0  0  0  0  0  0  0  0  0
  150.0008  140.0383  157.8131 O   0  0  0  0  0  0  0  0  0  0  0  0
  151.8554  141.4481  158.5432 C   0  0  0  0  0  0  0  0  0  0  0  0
  151.9239  142.7368  159.1166 C   0  0  0  0  0  0  0  0  0  0  0  0
  152.8614  143.0113  160.1299 C   0  0  0  0  0  0  0  0  0  0  0  0
  153.7301  141.9996  160.5811 C   0  0  0  0  0  0  0  0  0  0  0  0
  153.6649  140.7044  160.0234 C   0  0  0  0  0  0  0  0  0  0  0  0
  154.5979  139.6056  160.5095 C   0  0  0  0  0  0  0  0  0  0  0  0
  153.9504  138.4434  160.6001 F   0  0  0  0  0  0  0  0  0  0  0  0
  155.6033  139.4712  159.6456 F   0  0  0  0  0  0  0  0  0  0  0  0
  155.0996  139.8978  161.7100 F   0  0  0  0  0  0  0  0  0  0  0  0
  152.7318  140.4396  158.9981 C   0  0  0  0  0  0  0  0  0  0  0  0
  151.5659  137.0351  153.0870 H   0  0  0  0  0  0  0  0  0  0  0  0
  152.1558  137.8948  155.7093 H   0  0  0  0  0  0  0  0  0  0  0  0
  152.8446  138.5971  154.2635 H   0  0  0  0  0  0  0  0  0  0  0  0
  147.1218  139.0638  152.6883 H   0  0  0  0  0  0  0  0  0  0  0  0
  145.8079  141.1015  153.2311 H   0  0  0  0  0  0  0  0  0  0  0  0
  146.7317  142.8175  154.7748 H   0  0  0  0  0  0  0  0  0  0  0  0
  148.9858  142.4997  155.7880 H   0  0  0  0  0  0  0  0  0  0  0  0
  152.3459  140.1627  156.2511 H   0  0  0  0  0  0  0  0  0  0  0  0
  151.8856  141.7142  155.6334 H   0  0  0  0  0  0  0  0  0  0  0  0
  150.1719  141.9865  157.3488 H   0  0  0  0  0  0  0  0  0  0  0  0
  149.1407  140.3732  158.0166 H   0  0  0  0  0  0  0  0  0  0  0  0
  151.2546  143.5177  158.7868 H   0  0  0  0  0  0  0  0  0  0  0  0
  152.9122  143.9985  160.5649 H   0  0  0  0  0  0  0  0  0  0  0  0
  154.4448  142.2229  161.3592 H   0  0  0  0  0  0  0  0  0  0  0  0
  152.6772  139.4510  158.5660 H   0  0  0  0  0  0  0  0  0  0  0  0
  1  2  1  0  0  0  0
  1 25  1  0  0  0  0
  2  3  1  0  0  0  0
  2 26  1  0  0  0  0
  2 27  1  0  0  0  0
  3 11  1  0  0  0  0
  3  4  2  0  0  0  0
  4  5  1  0  0  0  0
  5 10  2  0  0  0  0
  5  6  1  0  0  0  0
  6  7  2  0  0  0  0
  6 28  1  0  0  0  0
  7  8  1  0  0  0  0
  7 29  1  0  0  0  0
  8  9  2  0  0  0  0
  8 30  1  0  0  0  0
  9 10  1  0  0  0  0
  9 31  1  0  0  0  0
 10 11  1  0  0  0  0
 11 12  1  0  0  0  0
 12 13  1  0  0  0  0
 12 32  1  0  0  0  0
 12 33  1  0  0  0  0
 13 14  1  0  0  0  0
 13 15  1  0  0  0  0
 13 34  1  0  0  0  0
 14 35  1  0  0  0  0
 15 24  1  0  0  0  0
 15 16  2  0  0  0  0
 16 17  1  0  0  0  0
 16 36  1  0  0  0  0
 17 18  2  0  0  0  0
 17 37  1  0  0  0  0
 18 19  1  0  0  0  0
 18 38  1  0  0  0  0
 19 20  1  0  0  0  0
 19 24  2  0  0  0  0
 20 21  1  0  0  0  0
 20 22  1  0  0  0  0
 20 23  1  0  0  0  0
 24 39  1  0  0  0  0
M  END
> <s_m_source_file>
AV-unprocessed.smi

> <i_m_source_file_index>
1828

> <i_lp_mmshare_version>
43012

> <i_f3d_flags>
0

> <s_epik_input>
W2NIXTFbY0hdW2NIXVtjSF1jKGMxMiluKGMobjIpW0NIMl1bT0hdKVtDSDJdW0NASF0oW09IXSljM1tjSF1bY0hdW2NIXWMoQyhGKShGKUYpW2NIXTM=

> <s_epik_cmdline>
J2VwaWtfcHl0aG9uJywgJy1waCcsICc3LjAnLCAnLXRuJywgJzgnLCAnLW1hJywgJzIwMCcsICctbWV0YWxfYmluZGluZycsICctaW1hZScsICc8aW5maWxlLm1hZT4nLCAnLW9tYWUnLCAnPG91dGZpbGUubWFlPic=

> <r_epik_Ionization_Penalty>
0.0634719

> <r_epik_Ionization_Penalty_Charging>
0

> <r_epik_Ionization_Penalty_Neutral>
0.0634719

> <r_epik_State_Penalty>
0.0551572

> <r_epik_Charging_Adjusted_Penalty>
0.0551572

> <i_epik_Tot_Q>
0

> <i_epik_Tot_abs_Q>
0

> <r_epik_Metal_State_Penalty>
5.78034e-05

> <b_epik_Metal_Only>
0

> <s_lp_Force_Field>
OPLS_2005

> <r_lp_Energy>
14.211

> <b_lp_Chiralities_Consistent>
1

> <s_lp_Variant>
AV-unprocessed.smi:1828-2

> <Gold.Version>
5.8.1

> <Gold.Id.Protein>
6NUR|6NUR_protein|mol2

> <Gold.PLP.Fitness>
55.2990

> <Gold.PLP.PLP>
-50.8291

> <Gold.PLP.part.hbond>
-2.0000

> <Gold.PLP.part.metal>
0.0000

> <Gold.PLP.part.buried>
-0.1355

> <Gold.PLP.part.nonpolar>
-49.8350

> <Gold.PLP.part.repulsive>
1.2050

> <Gold.PLP.ligand.clash>
0.0000

> <Gold.PLP.ligand.torsion>
1.0923

> <Gold.PLP.Chemscore.Hbond>
1.8247

> <Gold.PLP.Chemscore.CHOScore>
0.0000

> <Gold.PLP.Chemscore.Metal>
0.0000

> <Gold.Chemscore.Hbonds>
donor molecule, donor type, donor heavy atom, donor atom, acceptor molecule, acceptor atom, score
      L1  H     1    25       P1  7949  0.74
      P1  H 10752 10764       L1     1  1.00

> <Gold.PLP.Chemscore.Internal.Correction>
1.1803

> <Gold.Rescore>
     Score         DG    S(hbond)    S(metal)    S(lipo)     H(rot)  DE(clash)    DE(int)     intcor
     14.95     -17.33       1.57        0.00     120.22       2.91       0.28       2.10       ----

> <Gold.Chemscore.Fitness>
14.9474

> <Gold.Chemscore.DG>
-17.3308

> <Gold.Chemscore.ZeroCoef>
-5.4800

> <Gold.Chemscore.Hbond>
1.5705

> <Gold.Chemscore.Metal>
0.0000

> <Gold.Chemscore.Lipo>
120.2178

> <Gold.Chemscore.Internal_Hbond>
0.0000

> <Gold.Chemscore.DEClash>
0.2837

> <Gold.Chemscore.DEInternal>
2.0997

> <Gold.Chemscore.Rot>
2.9141

> <Gold.Chemscore.Internal.Correction>
   9.000000E+99

> <Gold.Chemscore.Hbonds>
donor molecule, donor type, donor heavy atom, donor atom, acceptor molecule, acceptor atom, score
      L1  H     1    25       P1  7949  0.69
      P1  H 10752 10764       L1     1  0.81

> <Gold.Chemscore.Hbond.Weighted>
-5.2453

> <Gold.Chemscore.Metal.Weighted>
-0.0000

> <Gold.Chemscore.Lipo.Weighted>
-14.0655

> <Gold.Chemscore.Internal_Hbond.Weighted>
0.0000

> <Gold.Chemscore.DEClash.Weighted>
0.2837

> <Gold.Chemscore.DEInternal.Weighted>
2.0997

> <Gold.Chemscore.Rot.Weighted>
7.4600

> <Gold.Chemscore.Internal.Correction.Weighted>
   9.000000E+99

> <Gold.Protein.RotatedTorsions>
[ 6907 6896 6895 6894 ] final    2.49 input  -60.11 | X-H torsion
[ 7974 7965 7964 7962 ] final   64.08 input  175.53 | X-H torsion
[ 8008 7997 7996 7995 ] final   62.03 input   59.86 | X-H torsion
[ 10167 10162 10161 10158 ] final -163.95 input  -65.29 | X-H torsion
[ 10718 10713 10712 10709 ] final   72.74 input   66.30 | X-H torsion
[ 10763 10752 10751 10750 ] final  -92.79 input  -60.55 | X-H torsion
[ 11005 11000 10999 10996 ] final -128.80 input  -57.11 | X-H torsion

> <Gold.Protein.ActiveResidues>
 VAL166  LYS551  ARG553  GLY616  TRP617  ASP618  TYR619  PRO620  LYS621  CYS622 
 ASP623  PHE694  ASN695  SER759  ASP760  ASP761  ALA762  ILE779  LEU786  VAL792 
 PHE793  MET794  SER795  GLU796  ALA797  LYS798  CYS799  TRP800  GLU811  SER814 

> <Gold.Protein.RotatedAtoms>
  151.6097  135.1041  160.0078 H   0  0  0  0  0  0  0  0  0  0  0  0  # atno 6907 bound_to 6896
  152.4215  133.7120  159.6495 H   0  0  0  0  0  0  0  0  0  0  0  0  # atno 6908 bound_to 6896
  150.8103  133.8362  159.3207 H   0  0  0  0  0  0  0  0  0  0  0  0  # atno 6909 bound_to 6896
  145.8544  139.3274  143.0856 H   0  0  0  0  0  0  0  0  0  0  0  0  # atno 7974 bound_to 7965
  155.6078  140.3494  155.4613 H   0  0  0  0  0  0  0  0  0  0  0  0  # atno 8008 bound_to 7997
  156.0178  140.1247  157.0412 H   0  0  0  0  0  0  0  0  0  0  0  0  # atno 8009 bound_to 7997
  154.4304  140.1068  156.5907 H   0  0  0  0  0  0  0  0  0  0  0  0  # atno 8010 bound_to 7997
  139.6284  144.0486  152.1995 H   0  0  0  0  0  0  0  0  0  0  0  0  # atno 10167 bound_to 10162
  157.6515  130.9594  150.0971 H   0  0  0  0  0  0  0  0  0  0  0  0  # atno 10718 bound_to 10713
  154.6896  135.5218  153.8373 H   0  0  0  0  0  0  0  0  0  0  0  0  # atno 10763 bound_to 10752
  153.0622  135.6572  154.0446 H   0  0  0  0  0  0  0  0  0  0  0  0  # atno 10764 bound_to 10752
  154.0322  135.2984  155.3346 H   0  0  0  0  0  0  0  0  0  0  0  0  # atno 10765 bound_to 10752
  140.9486  134.1097  157.4084 H   0  0  0  0  0  0  0  0  0  0  0  0  # atno 11005 bound_to 11000
  145.9321  140.9041  143.0351 LP  0  0  0  0  0  0  0  0  0  0  0  0  # atno 17320 bound_to 7965
  144.6728  140.1432  143.7435 LP  0  0  0  0  0  0  0  0  0  0  0  0  # atno 17321 bound_to 7965
  140.0146  144.6199  150.7618 LP  0  0  0  0  0  0  0  0  0  0  0  0  # atno 17342 bound_to 10162
  140.7425  143.2833  151.3537 LP  0  0  0  0  0  0  0  0  0  0  0  0  # atno 17343 bound_to 10162
  156.1904  130.3654  149.8918 LP  0  0  0  0  0  0  0  0  0  0  0  0  # atno 17370 bound_to 10713
  156.6847  130.8872  151.3580 LP  0  0  0  0  0  0  0  0  0  0  0  0  # atno 17371 bound_to 10713
  139.8840  135.0059  156.6343 LP  0  0  0  0  0  0  0  0  0  0  0  0  # atno 17394 bound_to 11000
  140.7635  133.8798  155.8436 LP  0  0  0  0  0  0  0  0  0  0  0  0  # atno 17395 bound_to 11000

$$$$
