AV-unprocessed.smi:69|AV-procd|sdf|647|dock3
  -GOLD-   2262016543D 1   1.00000     0.00000
 Structure written by MMmdl.
 32 34  0  0  0  0  0  0  0  0  1 V2000
  152.8933  139.3987  158.8186 N   0  0  0  0  0  0  0  0  0  0  0  0
  152.4971  139.5752  157.5505 C   0  0  0  0  0  0  0  0  0  0  0  0
  153.3880  139.3381  156.5593 N   0  0  0  0  0  0  0  0  0  0  0  0
  153.0186  139.5123  155.2860 C   0  0  0  0  0  0  0  0  0  0  0  0
  151.8352  139.9038  154.8049 N   0  0  0  0  0  0  0  0  0  0  0  0
  150.9369  140.1356  155.8073 C   0  0  0  0  0  0  0  0  0  0  0  0
  151.1912  140.0017  157.1997 C   0  0  0  0  0  0  0  0  0  0  0  0
  150.0554  140.3411  157.9216 N   0  0  0  0  0  0  0  0  0  0  0  0
  149.1844  140.6645  157.0032 C   0  0  0  0  0  0  0  0  0  0  0  0
  149.6218  140.5381  155.7001 N   0  0  0  0  0  0  0  0  0  0  0  0
  148.8949  140.8463  154.4259 C   0  0  2  0  0  0  0  0  0  0  0  0
  148.2973  142.1051  154.5511 O   0  0  0  0  0  0  0  0  0  0  0  0
  146.8860  141.9950  154.7276 C   0  0  2  0  0  0  0  0  0  0  0  0
  146.5371  141.9047  156.2312 C   0  0  0  0  0  0  0  0  0  0  0  0
  147.0603  143.0246  156.9126 O   0  0  0  0  0  0  0  0  0  0  0  0
  146.5697  140.7382  153.9060 C   0  0  2  0  0  0  0  0  0  0  0  0
  145.3522  140.1221  154.2777 O   0  0  0  0  0  0  0  0  0  0  0  0
  147.7635  139.8310  154.1697 C   0  0  1  0  0  0  0  0  0  0  0  0
  148.0158  139.0348  153.0295 O   0  0  0  0  0  0  0  0  0  0  0  0
  149.6757  140.8658  153.6642 H   0  0  0  0  0  0  0  0  0  0  0  0
  146.3847  142.8600  154.2908 H   0  0  0  0  0  0  0  0  0  0  0  0
  146.5276  141.0129  152.8503 H   0  0  0  0  0  0  0  0  0  0  0  0
  147.6001  139.2130  155.0544 H   0  0  0  0  0  0  0  0  0  0  0  0
  152.2469  139.5720  159.5749 H   0  0  0  0  0  0  0  0  0  0  0  0
  153.8352  139.0926  159.0147 H   0  0  0  0  0  0  0  0  0  0  0  0
  153.7793  139.3075  154.5471 H   0  0  0  0  0  0  0  0  0  0  0  0
  148.1891  140.9987  157.2585 H   0  0  0  0  0  0  0  0  0  0  0  0
  145.4574  141.9343  156.3760 H   0  0  0  0  0  0  0  0  0  0  0  0
  146.8881  140.9812  156.6888 H   0  0  0  0  0  0  0  0  0  0  0  0
  147.7693  143.3831  156.4009 H   0  0  0  0  0  0  0  0  0  0  0  0
  144.8791  139.9009  153.4897 H   0  0  0  0  0  0  0  0  0  0  0  0
  148.3116  139.6009  152.3321 H   0  0  0  0  0  0  0  0  0  0  0  0
  1  2  1  0  0  0  0
  1 24  1  0  0  0  0
  1 25  1  0  0  0  0
  2  7  1  0  0  0  0
  2  3  2  0  0  0  0
  3  4  1  0  0  0  0
  4  5  2  0  0  0  0
  4 26  1  0  0  0  0
  5  6  1  0  0  0  0
  6 10  1  0  0  0  0
  6  7  2  0  0  0  0
  7  8  1  0  0  0  0
  8  9  2  0  0  0  0
  9 10  1  0  0  0  0
  9 27  1  0  0  0  0
 10 11  1  0  0  0  0
 11 20  1  0  0  0  0
 11 18  1  0  0  0  0
 11 12  1  0  0  0  0
 12 13  1  0  0  0  0
 13 21  1  0  0  0  0
 13 14  1  0  0  0  0
 13 16  1  0  0  0  0
 14 15  1  0  0  0  0
 14 28  1  0  0  0  0
 14 29  1  0  0  0  0
 15 30  1  0  0  0  0
 16 22  1  0  0  0  0
 16 17  1  0  0  0  0
 16 18  1  0  0  0  0
 17 31  1  0  0  0  0
 18 23  1  0  0  0  0
 18 19  1  0  0  0  0
 19 32  1  0  0  0  0
M  END
> <s_m_source_file>
AV-unprocessed.smi

> <i_m_source_file_index>
69

> <i_lp_mmshare_version>
43012

> <i_f3d_flags>
0

> <s_epik_input>
bjFbY0hdbmMoW05IMl0pYyhjMTIpbltjSF1uMltDQEBIXTNPW0NASF0oW0NIMl1bT0hdKVtDQEBIXShbT0hdKVtDQEhdM1tPSF0=

> <s_epik_cmdline>
J2VwaWtfcHl0aG9uJywgJy1waCcsICc3LjAnLCAnLXRuJywgJzgnLCAnLW1hJywgJzIwMCcsICctbWV0YWxfYmluZGluZycsICctaW1hZScsICc8aW5maWxlLm1hZT4nLCAnLW9tYWUnLCAnPG91dGZpbGUubWFlPic=

> <r_lp_tautomer_probability>
1

> <r_epik_Ionization_Penalty>
0.000428445

> <r_epik_Ionization_Penalty_Charging>
0

> <r_epik_Ionization_Penalty_Neutral>
0.000428445

> <r_epik_State_Penalty>
-0

> <r_epik_Charging_Adjusted_Penalty>
0

> <i_epik_Tot_Q>
0

> <i_epik_Tot_abs_Q>
0

> <r_epik_Metal_State_Penalty>
-0

> <b_epik_Metal_Only>
0

> <s_epik_Chemistry_Notes>
This compound contains an acetal/aminal-like group ( X-CH(R)-Y where X, Y are N, S, or O) that may be acid/base labile, releasing an aldehyde.

> <s_lp_Force_Field>
OPLS_2005

> <r_lp_Energy>
34.8431

> <b_lp_Chiralities_Consistent>
1

> <s_lp_Variant>
AV-unprocessed.smi:69-5

> <Gold.Version>
5.8.1

> <Gold.Id.Protein>
6NUR|6NUR_protein|mol2

> <Gold.PLP.Fitness>
37.7394

> <Gold.PLP.PLP>
-23.4756

> <Gold.PLP.part.hbond>
-6.8676

> <Gold.PLP.part.metal>
0.0000

> <Gold.PLP.part.buried>
-0.8837

> <Gold.PLP.part.nonpolar>
-17.5397

> <Gold.PLP.part.repulsive>
1.4231

> <Gold.PLP.ligand.clash>
0.0000

> <Gold.PLP.ligand.torsion>
0.1959

> <Gold.PLP.Chemscore.Hbond>
4.8736

> <Gold.PLP.Chemscore.CHOScore>
0.0000

> <Gold.PLP.Chemscore.Metal>
0.0000

> <Gold.Chemscore.Hbonds>
donor molecule, donor type, donor heavy atom, donor atom, acceptor molecule, acceptor atom, score
      L1  H    15    30       P1  8028  0.55
      L1  H    17    31       P1 10175  0.83
      L1  H    19    32       P1  7957  0.98
      P1  H  7989  7998       L1     5  0.98
      P1  H  7997  8008       L1     3  0.24

> <Gold.PLP.Chemscore.Internal.Correction>
0.0348

> <Gold.Rescore>
     Score         DG    S(hbond)    S(metal)    S(lipo)     H(rot)  DE(clash)    DE(int)     intcor
      4.32      -6.81       2.71        0.00      22.19       4.03       1.31       1.19       ----

> <Gold.Chemscore.Fitness>
4.3161

> <Gold.Chemscore.DG>
-6.8145

> <Gold.Chemscore.ZeroCoef>
-5.4800

> <Gold.Chemscore.Hbond>
2.7093

> <Gold.Chemscore.Metal>
0.0000

> <Gold.Chemscore.Lipo>
22.1903

> <Gold.Chemscore.Internal_Hbond>
0.0000

> <Gold.Chemscore.DEClash>
1.3063

> <Gold.Chemscore.DEInternal>
1.1921

> <Gold.Chemscore.Rot>
4.0277

> <Gold.Chemscore.Internal.Correction>
   9.000000E+99

> <Gold.Chemscore.Hbonds>
donor molecule, donor type, donor heavy atom, donor atom, acceptor molecule, acceptor atom, score
      L1  H    15    30       P1  8028  0.03
      L1  H    17    31       P1 10175  0.81
      L1  H    19    32       P1  7957  0.93
      P1  H  7989  7998       L1     5  0.83
      P1  H  7997  8008       L1     3  0.06

> <Gold.Chemscore.Hbond.Weighted>
-9.0492

> <Gold.Chemscore.Metal.Weighted>
-0.0000

> <Gold.Chemscore.Lipo.Weighted>
-2.5963

> <Gold.Chemscore.Internal_Hbond.Weighted>
0.0000

> <Gold.Chemscore.DEClash.Weighted>
1.3063

> <Gold.Chemscore.DEInternal.Weighted>
1.1921

> <Gold.Chemscore.Rot.Weighted>
10.3110

> <Gold.Chemscore.Internal.Correction.Weighted>
   9.000000E+99

> <Gold.Protein.RotatedTorsions>
[ 6907 6896 6895 6894 ] final -111.47 input  -60.11 | X-H torsion
[ 7974 7965 7964 7962 ] final -158.26 input  175.53 | X-H torsion
[ 8008 7997 7996 7995 ] final  -59.02 input   59.86 | X-H torsion
[ 10167 10162 10161 10158 ] final  -90.52 input  -65.29 | X-H torsion
[ 10718 10713 10712 10709 ] final  102.56 input   66.30 | X-H torsion
[ 10763 10752 10751 10750 ] final  172.03 input  -60.55 | X-H torsion
[ 11005 11000 10999 10996 ] final  101.79 input  -57.11 | X-H torsion

> <Gold.Protein.ActiveResidues>
 VAL166  LYS551  ARG553  GLY616  TRP617  ASP618  TYR619  PRO620  LYS621  CYS622 
 ASP623  PHE694  ASN695  SER759  ASP760  ASP761  ALA762  ILE779  LEU786  VAL792 
 PHE793  MET794  SER795  GLU796  ALA797  LYS798  CYS799  TRP800  GLU811  SER814 

> <Gold.Protein.RotatedAtoms>
  150.7692  133.9231  159.3403 H   0  0  0  0  0  0  0  0  0  0  0  0  # atno 6907 bound_to 6896
  151.7122  135.0908  160.0279 H   0  0  0  0  0  0  0  0  0  0  0  0  # atno 6908 bound_to 6896
  152.3702  133.6371  159.6117 H   0  0  0  0  0  0  0  0  0  0  0  0  # atno 6909 bound_to 6896
  144.7513  140.3853  143.6046 H   0  0  0  0  0  0  0  0  0  0  0  0  # atno 7974 bound_to 7965
  154.4334  140.1071  156.6049 H   0  0  0  0  0  0  0  0  0  0  0  0  # atno 8008 bound_to 7997
  155.5872  140.3491  155.4537 H   0  0  0  0  0  0  0  0  0  0  0  0  # atno 8009 bound_to 7997
  156.0274  140.1253  157.0283 H   0  0  0  0  0  0  0  0  0  0  0  0  # atno 8010 bound_to 7997
  140.3541  143.2876  151.9692 H   0  0  0  0  0  0  0  0  0  0  0  0  # atno 10167 bound_to 10162
  157.6798  131.0756  150.5423 H   0  0  0  0  0  0  0  0  0  0  0  0  # atno 10718 bound_to 10713
  154.4203  135.2758  155.1980 H   0  0  0  0  0  0  0  0  0  0  0  0  # atno 10763 bound_to 10752
  154.3928  135.6062  153.5856 H   0  0  0  0  0  0  0  0  0  0  0  0  # atno 10764 bound_to 10752
  152.9833  135.5907  154.4498 H   0  0  0  0  0  0  0  0  0  0  0  0  # atno 10765 bound_to 10752
  139.8774  134.9197  156.4960 H   0  0  0  0  0  0  0  0  0  0  0  0  # atno 11005 bound_to 11000
  145.6934  139.1644  143.2634 LP  0  0  0  0  0  0  0  0  0  0  0  0  # atno 17320 bound_to 7965
  146.1467  140.6983  142.9341 LP  0  0  0  0  0  0  0  0  0  0  0  0  # atno 17321 bound_to 7965
  139.4822  144.6050  151.7537 LP  0  0  0  0  0  0  0  0  0  0  0  0  # atno 17342 bound_to 10162
  140.5191  144.0907  150.6017 LP  0  0  0  0  0  0  0  0  0  0  0  0  # atno 17343 bound_to 10162
  156.5729  130.4284  149.6011 LP  0  0  0  0  0  0  0  0  0  0  0  0  # atno 17370 bound_to 10713
  156.2725  130.7025  151.1827 LP  0  0  0  0  0  0  0  0  0  0  0  0  # atno 17371 bound_to 10713
  140.8624  133.8050  155.9279 LP  0  0  0  0  0  0  0  0  0  0  0  0  # atno 17394 bound_to 11000
  140.9036  134.2348  157.5027 LP  0  0  0  0  0  0  0  0  0  0  0  0  # atno 17395 bound_to 11000

$$$$
