AV-unprocessed.smi:1041|AV-procd|sdf|4534|dock8
  -GOLD-   22720 2563D 1   1.00000     0.00000
 Structure written by MMmdl.
 52 53  0  0  0  0  0  0  0  0  3 V2000
  144.5800  136.2271  152.2331 C   0  0  0  0  0  0  0  0  0  0  0  0
  145.8952  136.4610  152.7055 O   0  0  0  0  0  0  0  0  0  0  0  0
  146.1388  137.8311  152.9769 C   0  0  0  0  0  0  0  0  0  0  0  0
  145.2610  138.2689  154.1602 C   0  0  0  0  0  0  0  0  0  0  0  0
  145.3833  139.7193  154.4554 N   0  3  2  0  0  0  0  0  0  0  0  0
  146.7870  140.2113  154.4414 C   0  0  0  0  0  0  0  0  0  0  0  0
  146.8467  141.7383  154.6323 C   0  0  0  0  0  0  0  0  0  0  0  0
  146.1248  142.1962  155.9124 C   0  0  2  0  0  0  0  0  0  0  0  0
  146.9349  141.8691  157.1900 C   0  0  0  0  0  0  0  0  0  0  0  0
  148.3063  142.3548  157.1124 N   0  0  0  0  0  0  0  0  0  0  0  0
  149.3888  141.7249  157.5962 C   0  0  0  0  0  0  0  0  0  0  0  0
  149.3236  140.6829  158.2475 O   0  0  0  0  0  0  0  0  0  0  0  0
  150.7590  142.3360  157.2801 C   0  0  0  0  0  0  0  0  0  0  0  0
  151.9335  141.8921  158.1556 C   0  0  0  0  0  0  0  0  0  0  0  0
  152.5919  142.7285  159.0076 C   0  0  0  0  0  0  0  0  0  0  0  0
  152.2155  144.1887  159.1857 C   0  0  0  0  0  0  0  0  0  0  0  0
  153.6784  142.2755  159.7747 N   0  0  0  0  0  0  0  0  0  0  0  0
  154.0643  141.0615  159.6647 C   0  0  0  0  0  0  0  0  0  0  0  0
  155.2349  140.5818  160.4960 C   0  0  0  0  0  0  0  0  0  0  0  0
  153.4804  140.1431  158.8207 N   0  5  0  0  0  0  0  0  0  0  0  0
  152.4139  140.5026  158.0517 C   0  0  0  0  0  0  0  0  0  0  0  0
  151.8697  139.7153  157.2785 O   0  0  0  0  0  0  0  0  0  0  0  0
  144.6924  141.6214  155.9093 C   0  0  0  0  0  0  0  0  0  0  0  0
  144.6825  140.0970  155.7094 C   0  0  0  0  0  0  0  0  0  0  0  0
  144.4454  135.1646  152.0318 H   0  0  0  0  0  0  0  0  0  0  0  0
  144.3900  136.7720  151.3076 H   0  0  0  0  0  0  0  0  0  0  0  0
  143.8377  136.5259  152.9746 H   0  0  0  0  0  0  0  0  0  0  0  0
  147.1896  137.9659  153.2381 H   0  0  0  0  0  0  0  0  0  0  0  0
  145.9530  138.4397  152.0918 H   0  0  0  0  0  0  0  0  0  0  0  0
  144.2249  138.0300  153.9158 H   0  0  0  0  0  0  0  0  0  0  0  0
  145.5063  137.6914  155.0526 H   0  0  0  0  0  0  0  0  0  0  0  0
  147.3610  139.7049  155.2183 H   0  0  0  0  0  0  0  0  0  0  0  0
  147.2647  139.9650  153.4945 H   0  0  0  0  0  0  0  0  0  0  0  0
  147.8840  142.0748  154.6427 H   0  0  0  0  0  0  0  0  0  0  0  0
  146.3830  142.2196  153.7701 H   0  0  0  0  0  0  0  0  0  0  0  0
  146.0386  143.2824  155.8620 H   0  0  0  0  0  0  0  0  0  0  0  0
  146.4774  142.3255  158.0670 H   0  0  0  0  0  0  0  0  0  0  0  0
  146.9374  140.7934  157.3738 H   0  0  0  0  0  0  0  0  0  0  0  0
  148.4572  143.2099  156.5960 H   0  0  0  0  0  0  0  0  0  0  0  0
  150.9859  142.1109  156.2382 H   0  0  0  0  0  0  0  0  0  0  0  0
  150.6658  143.4219  157.3120 H   0  0  0  0  0  0  0  0  0  0  0  0
  151.2286  144.2745  159.6411 H   0  0  0  0  0  0  0  0  0  0  0  0
  152.2014  144.7021  158.2241 H   0  0  0  0  0  0  0  0  0  0  0  0
  152.9289  144.7046  159.8297 H   0  0  0  0  0  0  0  0  0  0  0  0
  155.0511  139.5760  160.8755 H   0  0  0  0  0  0  0  0  0  0  0  0
  155.4028  141.2395  161.3500 H   0  0  0  0  0  0  0  0  0  0  0  0
  156.1421  140.5638  159.8916 H   0  0  0  0  0  0  0  0  0  0  0  0
  144.1610  141.8822  156.8249 H   0  0  0  0  0  0  0  0  0  0  0  0
  144.1262  142.0854  155.1004 H   0  0  0  0  0  0  0  0  0  0  0  0
  143.6476  139.7547  155.6685 H   0  0  0  0  0  0  0  0  0  0  0  0
  145.1457  139.5944  156.5597 H   0  0  0  0  0  0  0  0  0  0  0  0
  144.8964  140.1993  153.7118 H   0  0  0  0  0  0  0  0  0  0  0  0
  1  2  1  0  0  0  0
  1 25  1  0  0  0  0
  1 26  1  0  0  0  0
  1 27  1  0  0  0  0
  2  3  1  0  0  0  0
  3  4  1  0  0  0  0
  3 28  1  0  0  0  0
  3 29  1  0  0  0  0
  4  5  1  0  0  0  0
  4 30  1  0  0  0  0
  4 31  1  0  0  0  0
  5 24  1  0  0  0  0
  5  6  1  0  0  0  0
  5 52  1  0  0  0  0
  6  7  1  0  0  0  0
  6 32  1  0  0  0  0
  6 33  1  0  0  0  0
  7  8  1  0  0  0  0
  7 34  1  0  0  0  0
  7 35  1  0  0  0  0
  8  9  1  0  0  0  0
  8 23  1  0  0  0  0
  8 36  1  0  0  0  0
  9 10  1  0  0  0  0
  9 37  1  0  0  0  0
  9 38  1  0  0  0  0
 10 11  1  0  0  0  0
 10 39  1  0  0  0  0
 11 12  2  0  0  0  0
 11 13  1  0  0  0  0
 13 14  1  0  0  0  0
 13 40  1  0  0  0  0
 13 41  1  0  0  0  0
 14 21  1  0  0  0  0
 14 15  2  0  0  0  0
 15 16  1  0  0  0  0
 15 17  1  0  0  0  0
 16 42  1  0  0  0  0
 16 43  1  0  0  0  0
 16 44  1  0  0  0  0
 17 18  2  0  0  0  0
 18 19  1  0  0  0  0
 18 20  1  0  0  0  0
 19 45  1  0  0  0  0
 19 46  1  0  0  0  0
 19 47  1  0  0  0  0
 20 21  1  0  0  0  0
 21 22  2  0  0  0  0
 23 24  1  0  0  0  0
 23 48  1  0  0  0  0
 23 49  1  0  0  0  0
 24 50  1  0  0  0  0
 24 51  1  0  0  0  0
M  CHG  1   5   1
M  CHG  1  20  -1
M  END
> <s_m_source_file>
AV-unprocessed.smi

> <i_m_source_file_index>
1041

> <i_lp_mmshare_version>
43012

> <i_f3d_flags>
0

> <s_epik_input>
W0NIM11PW0NIMl1bQ0gyXU4xW0NIMl1bQ0gyXVtDSF0oW0NIMl1bQ0gyXTEpW0NIMl1bTkhdQyg9TylbQ0gyXWMyYyhbQ0gzXSluYyhbQ0gzXSlbbkhdYzI9Tw==

> <s_epik_cmdline>
J2VwaWtfcHl0aG9uJywgJy1waCcsICc3LjAnLCAnLXRuJywgJzgnLCAnLW1hJywgJzIwMCcsICctbWV0YWxfYmluZGluZycsICctaW1hZScsICc8aW5maWxlLm1hZT4nLCAnLW9tYWUnLCAnPG91dGZpbGUubWFlPic=

> <r_lp_tautomer_probability>
0.839158

> <r_epik_Ionization_Penalty>
6.54961

> <r_epik_Ionization_Penalty_Charging>
0.00968647

> <r_epik_Ionization_Penalty_Neutral>
6.53992

> <r_epik_State_Penalty>
4.43892

> <r_epik_Charging_Adjusted_Penalty>
4.44861

> <i_epik_Tot_Q>
0

> <i_epik_Tot_abs_Q>
2

> <r_epik_Metal_State_Penalty>
0.818645

> <b_epik_Metal_Only>
1

> <s_lp_Force_Field>
OPLS_2005

> <r_lp_Energy>
22.1122

> <b_lp_Chiralities_Consistent>
1

> <s_lp_Variant>
AV-unprocessed.smi:1041-7

> <Gold.Version>
5.8.1

> <Gold.Id.Protein>
6NUR|6NUR_protein|mol2

> <Gold.PLP.Fitness>
46.4287

> <Gold.PLP.PLP>
-33.7328

> <Gold.PLP.part.hbond>
-3.0000

> <Gold.PLP.part.metal>
0.0000

> <Gold.PLP.part.buried>
-4.5683

> <Gold.PLP.part.nonpolar>
-26.3464

> <Gold.PLP.part.repulsive>
0.2081

> <Gold.PLP.ligand.clash>
0.0000

> <Gold.PLP.ligand.torsion>
0.5847

> <Gold.PLP.Chemscore.Hbond>
4.6048

> <Gold.PLP.Chemscore.CHOScore>
0.0000

> <Gold.PLP.Chemscore.Metal>
0.0000

> <Gold.Chemscore.Hbonds>
donor molecule, donor type, donor heavy atom, donor atom, acceptor molecule, acceptor atom, score
      L1  H     5    52       P1 10175  2.00
      L1  H    10    39       P1  8028  1.00
      P1  H  7997  8008       L1    20  1.23

> <Gold.PLP.Chemscore.Internal.Correction>
0.0510

> <Gold.Rescore>
     Score         DG    S(hbond)    S(metal)    S(lipo)     H(rot)  DE(clash)    DE(int)     intcor
     14.49     -15.13       1.92        0.00      79.23       2.35       0.00       0.63       ----

> <Gold.Chemscore.Fitness>
14.4946

> <Gold.Chemscore.DG>
-15.1270

> <Gold.Chemscore.ZeroCoef>
-5.4800

> <Gold.Chemscore.Hbond>
1.9155

> <Gold.Chemscore.Metal>
0.0000

> <Gold.Chemscore.Lipo>
79.2335

> <Gold.Chemscore.Internal_Hbond>
0.0000

> <Gold.Chemscore.DEClash>
0.0000

> <Gold.Chemscore.DEInternal>
0.6324

> <Gold.Chemscore.Rot>
2.3520

> <Gold.Chemscore.Internal.Correction>
   9.000000E+99

> <Gold.Chemscore.Hbonds>
donor molecule, donor type, donor heavy atom, donor atom, acceptor molecule, acceptor atom, score
      L1  H     5    52       P1 10175  0.99
      L1  H    10    39       P1  8028  0.60
      P1  H  7997  8008       L1    20  0.03

> <Gold.Chemscore.Hbond.Weighted>
-6.3977

> <Gold.Chemscore.Metal.Weighted>
-0.0000

> <Gold.Chemscore.Lipo.Weighted>
-9.2703

> <Gold.Chemscore.Internal_Hbond.Weighted>
0.0000

> <Gold.Chemscore.DEClash.Weighted>
0.0000

> <Gold.Chemscore.DEInternal.Weighted>
0.6324

> <Gold.Chemscore.Rot.Weighted>
6.0211

> <Gold.Chemscore.Internal.Correction.Weighted>
   9.000000E+99

> <Gold.Protein.RotatedTorsions>
[ 6907 6896 6895 6894 ] final  124.57 input  -60.11 | X-H torsion
[ 7974 7965 7964 7962 ] final -150.78 input  175.53 | X-H torsion
[ 8008 7997 7996 7995 ] final -105.61 input   59.86 | X-H torsion
[ 10167 10162 10161 10158 ] final  142.94 input  -65.29 | X-H torsion
[ 10718 10713 10712 10709 ] final -109.10 input   66.30 | X-H torsion
[ 10763 10752 10751 10750 ] final   -3.51 input  -60.55 | X-H torsion
[ 11005 11000 10999 10996 ] final   44.08 input  -57.11 | X-H torsion

> <Gold.Protein.ActiveResidues>
 VAL166  LYS551  ARG553  GLY616  TRP617  ASP618  TYR619  PRO620  LYS621  CYS622 
 ASP623  PHE694  ASN695  SER759  ASP760  ASP761  ALA762  ILE779  LEU786  VAL792 
 PHE793  MET794  SER795  GLU796  ALA797  LYS798  CYS799  TRP800  GLU811  SER814 

> <Gold.Protein.RotatedAtoms>
  152.4066  133.6899  159.6361 H   0  0  0  0  0  0  0  0  0  0  0  0  # atno 6907 bound_to 6896
  150.7951  133.8697  159.3264 H   0  0  0  0  0  0  0  0  0  0  0  0  # atno 6908 bound_to 6896
  151.6450  135.1010  160.0200 H   0  0  0  0  0  0  0  0  0  0  0  0  # atno 6909 bound_to 6896
  144.7887  140.4885  143.5788 H   0  0  0  0  0  0  0  0  0  0  0  0  # atno 7974 bound_to 7965
  154.9025  140.0412  157.1901 H   0  0  0  0  0  0  0  0  0  0  0  0  # atno 8008 bound_to 7997
  154.8430  140.2917  155.5626 H   0  0  0  0  0  0  0  0  0  0  0  0  # atno 8009 bound_to 7997
  156.2993  140.2479  156.3375 H   0  0  0  0  0  0  0  0  0  0  0  0  # atno 8010 bound_to 7997
  139.4982  144.6074  151.6348 H   0  0  0  0  0  0  0  0  0  0  0  0  # atno 10167 bound_to 10162
  156.0519  130.5746  150.8052 H   0  0  0  0  0  0  0  0  0  0  0  0  # atno 10718 bound_to 10713
  153.3723  135.6995  153.6628 H   0  0  0  0  0  0  0  0  0  0  0  0  # atno 10763 bound_to 10752
  153.5273  135.3599  155.2660 H   0  0  0  0  0  0  0  0  0  0  0  0  # atno 10764 bound_to 10752
  154.8683  135.4172  154.3004 H   0  0  0  0  0  0  0  0  0  0  0  0  # atno 10765 bound_to 10752
  140.1584  134.4372  155.8334 H   0  0  0  0  0  0  0  0  0  0  0  0  # atno 11005 bound_to 11000
  145.5851  139.1491  143.3213 LP  0  0  0  0  0  0  0  0  0  0  0  0  # atno 17320 bound_to 7965
  146.2130  140.5980  142.9051 LP  0  0  0  0  0  0  0  0  0  0  0  0  # atno 17321 bound_to 7965
  140.5739  144.0062  150.6231 LP  0  0  0  0  0  0  0  0  0  0  0  0  # atno 17342 bound_to 10162
  140.3188  143.3150  152.0805 LP  0  0  0  0  0  0  0  0  0  0  0  0  # atno 17343 bound_to 10162
  157.5454  131.0942  150.9770 LP  0  0  0  0  0  0  0  0  0  0  0  0  # atno 17370 bound_to 10713
  157.0043  130.5612  149.5314 LP  0  0  0  0  0  0  0  0  0  0  0  0  # atno 17371 bound_to 10713
  141.2207  133.6903  156.7550 LP  0  0  0  0  0  0  0  0  0  0  0  0  # atno 17394 bound_to 11000
  140.2519  134.8534  157.3675 LP  0  0  0  0  0  0  0  0  0  0  0  0  # atno 17395 bound_to 11000

$$$$
