#       Name:                AV-unprocessed.smi:155
#       Creating user name   scv26
#       Creation time:       Thu Mar 26 18:55:52 2020


#       File generated by GOLD software.
#

@<TRIPOS>MOLECULE
AV-unprocessed.smi:155
    71    74     1
SMALL
NO_CHARGES


@<TRIPOS>ATOM
      1 ****        -6.5224   1.7141  -3.2973 C.3            1 S1                 0.0000
      2 ****        -5.9140   2.1507  -2.0190 N.4            1 S1                 1.0000
      3 ****        -6.6448   3.2982  -1.4359 C.3            1 S1                 0.0000
      4 ****        -4.4550   2.4113  -2.1187 C.3            1 S1                 0.0000
      5 ****        -3.6311   1.1164  -2.3105 C.3            1 S1                 0.0000
      6 ****        -2.1614   1.3116  -2.1879 N.4            1 S1                 1.0000
      7 ****        -1.6036   2.2130  -3.2262 C.3            1 S1                 0.0000
      8 ****        -0.1007   1.9954  -3.4466 C.3            1 S1                 0.0000
      9 ****         0.7725   2.3213  -2.2255 C.3            1 S1                 0.0000
     10 ****         0.7545   1.2402  -1.2364 N.pl3          1 S1                 0.0000
     11 ****         1.9346   0.8623  -0.6796 C.ar           1 S1                 0.0000
     12 ****         2.9086   1.7896  -0.4784 N.ar           1 S1                 0.0000
     13 ****         4.0688   1.4403   0.0858 C.ar           1 S1                 0.0000
     14 ****         4.4578   0.2397   0.5187 N.ar           1 S1                 0.0000
     15 ****         3.4860  -0.6953   0.3204 C.ar           1 S1                 0.0000
     16 ****         2.2069  -0.4728  -0.2642 C.ar           1 S1                 0.0000
     17 ****         1.4950  -1.6664  -0.3068 N.2            1 S1                 0.0000
     18 ****         2.3030  -2.5411   0.2275 C.2            1 S1                 0.0000
     19 ****         3.5179  -2.0413   0.6372 N.pl3          1 S1                 0.0000
     20 ****         4.5986  -2.7833   1.2615 C.3            1 S1                 0.0000
     21 ****         4.7615  -2.4630   2.7622 C.3            1 S1                 0.0000
     22 ****         5.8027  -3.2809   3.2580 O.3            1 S1                 0.0000
     23 ****         3.4733  -2.6689   3.5928 C.3            1 S1                 0.0000
     24 ****         2.9910  -4.1104   3.7813 C.3            1 S1                 0.0000
     25 ****         2.1741  -3.9826   5.0475 C.3            1 S1                 0.0000
     26 ****         3.0051  -2.9874   5.8540 C.3            1 S1                 0.0000
     27 ****         3.6098  -2.1185   4.8998 O.3            1 S1                 0.0000
     28 ****        -0.4207   0.9493  -0.4106 C.3            1 S1                 0.0000
     29 ****        -1.7210   1.6654  -0.8139 C.3            1 S1                 0.0000
     30 ****        -6.4033   2.4765  -4.0684 H              1 S1                 0.0000
     31 ****        -7.5890   1.5253  -3.1700 H              1 S1                 0.0000
     32 ****        -6.0749   0.7881  -3.6571 H              1 S1                 0.0000
     33 ****        -6.5557   4.1814  -2.0700 H              1 S1                 0.0000
     34 ****        -6.2567   3.5452  -0.4470 H              1 S1                 0.0000
     35 ****        -7.7042   3.0651  -1.3225 H              1 S1                 0.0000
     36 ****        -4.2651   3.1206  -2.9255 H              1 S1                 0.0000
     37 ****        -4.1361   2.9000  -1.1972 H              1 S1                 0.0000
     38 ****        -3.9411   0.3673  -1.5802 H              1 S1                 0.0000
     39 ****        -3.8333   0.6792  -3.2885 H              1 S1                 0.0000
     40 ****        -2.1107   2.0228  -4.1732 H              1 S1                 0.0000
     41 ****        -1.8048   3.2555  -2.9750 H              1 S1                 0.0000
     42 ****         0.0923   0.9767  -3.7864 H              1 S1                 0.0000
     43 ****         0.2103   2.6438  -4.2664 H              1 S1                 0.0000
     44 ****         1.7877   2.4763  -2.5928 H              1 S1                 0.0000
     45 ****         0.4687   3.2614  -1.7639 H              1 S1                 0.0000
     46 ****         4.7877   2.2371   0.2093 H              1 S1                 0.0000
     47 ****         2.0311  -3.5805   0.3419 H              1 S1                 0.0000
     48 ****         4.4096  -3.8484   1.1201 H              1 S1                 0.0000
     49 ****         5.5205  -2.5572   0.7241 H              1 S1                 0.0000
     50 ****         5.0787  -1.4244   2.8631 H              1 S1                 0.0000
     51 ****         5.5315  -4.1837   3.1938 H              1 S1                 0.0000
     52 ****         2.6598  -2.0995   3.1416 H              1 S1                 0.0000
     53 ****         2.4118  -4.4777   2.9339 H              1 S1                 0.0000
     54 ****         3.8212  -4.7966   3.9506 H              1 S1                 0.0000
     55 ****         1.1944  -3.5591   4.8214 H              1 S1                 0.0000
     56 ****         2.0270  -4.9322   5.5626 H              1 S1                 0.0000
     57 ****         2.4065  -2.4329   6.5769 H              1 S1                 0.0000
     58 ****         3.7959  -3.5065   6.3970 H              1 S1                 0.0000
     59 ****        -0.6061  -0.1242  -0.4336 H              1 S1                 0.0000
     60 ****        -0.1910   1.1991   0.6265 H              1 S1                 0.0000
     61 ****        -1.6290   2.7465  -0.6986 H              1 S1                 0.0000
     62 ****        -2.4839   1.3597  -0.0966 H              1 S1                 0.0000
     63 ****        -6.0302   1.3883  -1.3662 H              1 S1                 0.0000
     64 ****        -1.7684   0.3991  -2.3727 H              1 S1                 0.0000
     65 ****         2.7559   2.7386  -0.7542 LP             1 S1                 0.0000
     66 ****         5.3472   0.0503   0.9348 LP             1 S1                 0.0000
     67 ****         0.5741  -1.8197  -0.6651 LP             1 S1                 0.0000
     68 ****         5.9862  -3.0510   4.2138 LP             1 S1                 0.0000
     69 ****         6.6309  -3.1382   2.7160 LP             1 S1                 0.0000
     70 ****         3.1612  -1.2254   4.9326 LP             1 S1                 0.0000
     71 ****         4.5804  -2.0121   5.1157 LP             1 S1                 0.0000
@<TRIPOS>BOND
    1    1    2 1     
    2    1   30 1     
    3    1   31 1     
    4    1   32 1     
    5    2    3 1     
    6    2    4 1     
    7    2   63 1     
    8    3   33 1     
    9    3   34 1     
   10    3   35 1     
   11    4    5 1     
   12    4   36 1     
   13    4   37 1     
   14    5    6 1     
   15    5   38 1     
   16    5   39 1     
   17    6   29 1     
   18    6    7 1     
   19    6   64 1     
   20    7    8 1     
   21    7   40 1     
   22    7   41 1     
   23    8    9 1     
   24    8   42 1     
   25    8   43 1     
   26    9   10 1     
   27    9   44 1     
   28    9   45 1     
   29   10   11 1     
   30   10   28 1     
   31   11   16 ar    
   32   11   12 ar    
   33   12   13 ar    
   34   13   14 ar    
   35   13   46 1     
   36   14   15 ar    
   37   15   19 1     
   38   15   16 ar    
   39   16   17 1     
   40   17   18 2     
   41   18   19 1     
   42   18   47 1     
   43   19   20 1     
   44   20   21 1     
   45   20   48 1     
   46   20   49 1     
   47   21   22 1     
   48   21   23 1     
   49   21   50 1     
   50   22   51 1     
   51   23   27 1     
   52   23   24 1     
   53   23   52 1     
   54   24   25 1     
   55   24   53 1     
   56   24   54 1     
   57   25   26 1     
   58   25   55 1     
   59   25   56 1     
   60   26   27 1     
   61   26   57 1     
   62   26   58 1     
   63   28   29 1     
   64   28   59 1     
   65   28   60 1     
   66   29   61 1     
   67   29   62 1     
   68   12   65 1     
   69   14   66 1     
   70   17   67 1     
   71   22   68 1     
   72   22   69 1     
   73   27   70 1     
   74   27   71 1     
@<TRIPOS>SUBSTRUCTURE
      1 S1             1
@<TRIPOS>SET
LONE_PAIRS      STATIC     ATOMS    <user>   **** ""
7 65 66 67 68 69 70 71
DONOR_HYDROGENS      STATIC     ATOMS    <user>   **** ""
3 63 64 51
ATOM$BLUE        STATIC     ATOMS    COLORGROUP SYSTEM
7 65 66 67 68 69 70 71
ATOM$RED        STATIC     ATOMS    COLORGROUP SYSTEM
3 63 64 51
