#       Name:                AV-unprocessed.smi:1985
#       Creating user name   scv26
#       Creation time:       Fri Mar 27 10:23:51 2020


#       File generated by GOLD software.
#

@<TRIPOS>MOLECULE
AV-unprocessed.smi:1985
    59    60     1
SMALL
NO_CHARGES


@<TRIPOS>ATOM
      1 ****        -0.1436  -2.5141   0.2852 C.3            1 S1                 0.0000
      2 ****        -0.7488  -1.1078   0.1372 C.3            1 S1                 0.0000
      3 ****        -0.3348  -0.3349  -1.1593 C.3            1 S1                 0.0000
      4 ****        -1.0187   1.0558  -1.0798 C.3            1 S1                 0.0000
      5 ****         1.2113  -0.1017  -1.1317 C.3            1 S1                 0.0000
      6 ****         1.6781   0.4445   0.1354 N.am           1 S1                 0.0000
      7 ****         2.8702   1.0119   0.3714 C.2            1 S1                 0.0000
      8 ****         3.7414   1.1224  -0.4898 O.2            1 S1                 0.0000
      9 ****         3.1363   1.5392   1.7930 C.3            1 S1                 0.0000
     10 ****         2.0150   1.3480   2.7283 N.am           1 S1                 0.0000
     11 ****         1.9993   0.2369   3.5523 C.2            1 S1                 0.0000
     12 ****         0.9837  -0.0520   4.3944 C.2            1 S1                 0.0000
     13 ****        -0.1833   0.8163   4.4816 C.2            1 S1                 0.0000
     14 ****        -1.1439   0.5892   5.2183 O.2            1 S1                 0.0000
     15 ****        -0.1375   1.9516   3.6409 N.am           1 S1                 0.0000
     16 ****        -1.2860   2.8326   3.6856 C.3            1 S1                 0.0000
     17 ****         0.9276   2.2499   2.7595 C.2            1 S1                 0.0000
     18 ****         0.9197   3.2387   2.0231 O.2            1 S1                 0.0000
     19 ****        -0.7265  -1.0888  -2.3876 N.3            1 S1                 0.0000
     20 ****        -2.1520  -1.4328  -2.4856 C.3            1 S1                 0.0000
     21 ****        -2.4571  -2.3123  -3.7097 C.3            1 S1                 0.0000
     22 ****        -2.0255  -1.6532  -4.8927 O.3            1 S1                 0.0000
     23 ****        -0.6339  -1.3634  -4.8690 C.3            1 S1                 0.0000
     24 ****        -0.3076  -0.4760  -3.6556 C.3            1 S1                 0.0000
     25 ****        -0.5218  -2.9997   1.1847 H              1 S1                 0.0000
     26 ****         0.9424  -2.4797   0.3691 H              1 S1                 0.0000
     27 ****        -0.3960  -3.1516  -0.5619 H              1 S1                 0.0000
     28 ****        -1.8330  -1.1825   0.2085 H              1 S1                 0.0000
     29 ****        -0.4868  -0.5341   1.0269 H              1 S1                 0.0000
     30 ****        -0.7434   1.5867  -0.1678 H              1 S1                 0.0000
     31 ****        -2.1054   0.9806  -1.0724 H              1 S1                 0.0000
     32 ****        -0.7370   1.7002  -1.9120 H              1 S1                 0.0000
     33 ****         1.7460  -1.0324  -1.3261 H              1 S1                 0.0000
     34 ****         1.5078   0.5986  -1.9132 H              1 S1                 0.0000
     35 ****         1.0274   0.3975   0.9059 H              1 S1                 0.0000
     36 ****         4.0240   1.0362   2.1791 H              1 S1                 0.0000
     37 ****         3.4042   2.5953   1.7322 H              1 S1                 0.0000
     38 ****         2.8385  -0.4430   3.5160 H              1 S1                 0.0000
     39 ****         1.0319  -0.9405   5.0069 H              1 S1                 0.0000
     40 ****        -1.1156   3.7369   3.1022 H              1 S1                 0.0000
     41 ****        -1.4504   3.1067   4.7294 H              1 S1                 0.0000
     42 ****        -2.1325   2.2741   3.2822 H              1 S1                 0.0000
     43 ****        -2.4856  -1.9811  -1.6074 H              1 S1                 0.0000
     44 ****        -2.7571  -0.5282  -2.5457 H              1 S1                 0.0000
     45 ****        -1.9633  -3.2812  -3.6217 H              1 S1                 0.0000
     46 ****        -3.5277  -2.5043  -3.7797 H              1 S1                 0.0000
     47 ****        -0.0617  -2.2918  -4.8328 H              1 S1                 0.0000
     48 ****        -0.3606  -0.8551  -5.7938 H              1 S1                 0.0000
     49 ****        -0.7932   0.4909  -3.7867 H              1 S1                 0.0000
     50 ****         0.7655  -0.2975  -3.6695 H              1 S1                 0.0000
     51 ****         3.5760   0.7810  -1.4150 LP             1 S1                 0.0000
     52 ****         4.6151   1.5536  -0.2647 LP             1 S1                 0.0000
     53 ****        -1.1485  -0.2264   5.7969 LP             1 S1                 0.0000
     54 ****        -1.9192   1.2204   5.2379 LP             1 S1                 0.0000
     55 ****         1.6846   3.4048   1.4008 LP             1 S1                 0.0000
     56 ****         0.1483   3.8746   2.0482 LP             1 S1                 0.0000
     57 ****        -0.2076  -1.9334  -2.2559 LP             1 S1                 0.0000
     58 ****        -2.5314  -0.7958  -4.9864 LP             1 S1                 0.0000
     59 ****        -2.2185  -2.2417  -5.6778 LP             1 S1                 0.0000
@<TRIPOS>BOND
    1    1    2 1     
    2    1   25 1     
    3    1   26 1     
    4    1   27 1     
    5    2    3 1     
    6    2   28 1     
    7    2   29 1     
    8    3    4 1     
    9    3    5 1     
   10    3   19 1     
   11    4   30 1     
   12    4   31 1     
   13    4   32 1     
   14    5    6 1     
   15    5   33 1     
   16    5   34 1     
   17    6    7 am    
   18    6   35 1     
   19    7    8 2     
   20    7    9 1     
   21    9   10 1     
   22    9   36 1     
   23    9   37 1     
   24   10   17 am    
   25   10   11 1     
   26   11   12 2     
   27   11   38 1     
   28   12   13 1     
   29   12   39 1     
   30   13   14 2     
   31   13   15 am    
   32   15   16 1     
   33   15   17 am    
   34   16   40 1     
   35   16   41 1     
   36   16   42 1     
   37   17   18 2     
   38   19   24 1     
   39   19   20 1     
   40   20   21 1     
   41   20   43 1     
   42   20   44 1     
   43   21   22 1     
   44   21   45 1     
   45   21   46 1     
   46   22   23 1     
   47   23   24 1     
   48   23   47 1     
   49   23   48 1     
   50   24   49 1     
   51   24   50 1     
   52    8   51 1     
   53    8   52 1     
   54   14   53 1     
   55   14   54 1     
   56   18   55 1     
   57   18   56 1     
   58   19   57 1     
   59   22   58 1     
   60   22   59 1     
@<TRIPOS>SUBSTRUCTURE
      1 S1             1
@<TRIPOS>SET
LONE_PAIRS      STATIC     ATOMS    <user>   **** ""
9 51 52 53 54 55 56 57 58 59
DONOR_HYDROGENS      STATIC     ATOMS    <user>   **** ""
1 35
ATOM$BLUE        STATIC     ATOMS    COLORGROUP SYSTEM
9 51 52 53 54 55 56 57 58 59
ATOM$RED        STATIC     ATOMS    COLORGROUP SYSTEM
1 35
