AV-unprocessed.smi:2037|AV-procd|sdf|8277|dock7
  -GOLD-   2272010543D 1   1.00000     0.00000
 Structure written by MMmdl.
 39 40  0  0  0  0  0  0  0  0  2 V2000
  151.0857  137.6202  156.9425 C   0  0  0  0  0  0  0  0  0  0  0  0
  151.0630  136.9899  155.5389 C   0  0  2  0  0  0  0  0  0  0  0  0
  151.3240  138.0150  154.4207 C   0  0  0  0  0  0  0  0  0  0  0  0
  150.1130  138.9340  154.1781 C   0  0  0  0  0  0  0  0  0  0  0  0
  148.8860  138.1478  153.8873 N   0  3  2  0  0  0  0  0  0  0  0  0
  147.7382  139.0170  153.5237 C   0  0  0  0  0  0  0  0  0  0  0  0
  146.4232  138.2261  153.3774 C   0  0  0  0  0  0  0  0  0  0  0  0
  146.6279  136.9667  152.6705 N   0  0  0  0  0  0  0  0  0  0  0  0
  145.6453  136.1653  152.2340 C   0  0  0  0  0  0  0  0  0  0  0  0
  144.4502  136.4119  152.3990 O   0  0  0  0  0  0  0  0  0  0  0  0
  146.1379  135.0831  151.6065 N   0  0  0  0  0  0  0  0  0  0  0  0
  145.4202  134.0001  151.0342 C   0  0  0  0  0  0  0  0  0  0  0  0
  145.9342  133.1390  150.1481 N   0  0  0  0  0  0  0  0  0  0  0  0
  145.0020  132.1774  149.7501 C   0  0  0  0  0  0  0  0  0  0  0  0
  143.7744  132.3228  150.3471 C   0  0  0  0  0  0  0  0  0  0  0  0
  143.7390  133.6829  151.4373 S   0  0  0  0  0  0  0  0  0  0  0  0
  148.5754  137.1936  154.9850 C   0  0  0  0  0  0  0  0  0  0  0  0
  149.7534  136.2371  155.2443 C   0  0  0  0  0  0  0  0  0  0  0  0
  150.3091  138.3738  157.0692 H   0  0  0  0  0  0  0  0  0  0  0  0
  152.0450  138.1001  157.1385 H   0  0  0  0  0  0  0  0  0  0  0  0
  150.9379  136.8627  157.7126 H   0  0  0  0  0  0  0  0  0  0  0  0
  151.8747  136.2614  155.5153 H   0  0  0  0  0  0  0  0  0  0  0  0
  152.2065  138.6121  154.6533 H   0  0  0  0  0  0  0  0  0  0  0  0
  151.5550  137.4840  153.4962 H   0  0  0  0  0  0  0  0  0  0  0  0
  149.9400  139.5780  155.0414 H   0  0  0  0  0  0  0  0  0  0  0  0
  150.3347  139.5922  153.3370 H   0  0  0  0  0  0  0  0  0  0  0  0
  147.6312  139.8172  154.2578 H   0  0  0  0  0  0  0  0  0  0  0  0
  147.9543  139.5031  152.5713 H   0  0  0  0  0  0  0  0  0  0  0  0
  145.9817  138.0332  154.3568 H   0  0  0  0  0  0  0  0  0  0  0  0
  145.6869  138.7959  152.8118 H   0  0  0  0  0  0  0  0  0  0  0  0
  147.5830  136.6919  152.4919 H   0  0  0  0  0  0  0  0  0  0  0  0
  147.1428  135.0236  151.5309 H   0  0  0  0  0  0  0  0  0  0  0  0
  145.2982  131.4240  149.0354 H   0  0  0  0  0  0  0  0  0  0  0  0
  142.8923  131.7152  150.2112 H   0  0  0  0  0  0  0  0  0  0  0  0
  148.3263  137.7457  155.8920 H   0  0  0  0  0  0  0  0  0  0  0  0
  147.6978  136.6002  154.7325 H   0  0  0  0  0  0  0  0  0  0  0  0
  149.8946  135.6056  154.3661 H   0  0  0  0  0  0  0  0  0  0  0  0
  149.5134  135.5612  156.0659 H   0  0  0  0  0  0  0  0  0  0  0  0
  149.0966  137.5970  153.0672 H   0  0  0  0  0  0  0  0  0  0  0  0
  1  2  1  0  0  0  0
  1 19  1  0  0  0  0
  1 20  1  0  0  0  0
  1 21  1  0  0  0  0
  2 18  1  0  0  0  0
  2  3  1  0  0  0  0
  2 22  1  0  0  0  0
  3  4  1  0  0  0  0
  3 23  1  0  0  0  0
  3 24  1  0  0  0  0
  4  5  1  0  0  0  0
  4 25  1  0  0  0  0
  4 26  1  0  0  0  0
  5  6  1  0  0  0  0
  5 17  1  0  0  0  0
  5 39  1  0  0  0  0
  6  7  1  0  0  0  0
  6 27  1  0  0  0  0
  6 28  1  0  0  0  0
  7  8  1  0  0  0  0
  7 29  1  0  0  0  0
  7 30  1  0  0  0  0
  8  9  1  0  0  0  0
  8 31  1  0  0  0  0
  9 10  2  0  0  0  0
  9 11  1  0  0  0  0
 11 12  1  0  0  0  0
 11 32  1  0  0  0  0
 12 16  1  0  0  0  0
 12 13  2  0  0  0  0
 13 14  1  0  0  0  0
 14 15  2  0  0  0  0
 14 33  1  0  0  0  0
 15 16  1  0  0  0  0
 15 34  1  0  0  0  0
 17 18  1  0  0  0  0
 17 35  1  0  0  0  0
 17 36  1  0  0  0  0
 18 37  1  0  0  0  0
 18 38  1  0  0  0  0
M  CHG  1   5   1
M  END
> <s_m_source_file>
AV-unprocessed.smi

> <i_m_source_file_index>
2037

> <i_lp_mmshare_version>
43012

> <i_f3d_flags>
0

> <s_epik_input>
W0NIM11bQ0hdMVtDSDJdW0NIMl1OKFtDSDJdW0NIMl0xKVtDSDJdW0NIMl1bTkhdQyg9TylbTkhdYzJuW2NIXVtjSF1zMg==

> <s_epik_cmdline>
J2VwaWtfcHl0aG9uJywgJy1waCcsICc3LjAnLCAnLXRuJywgJzgnLCAnLW1hJywgJzIwMCcsICctbWV0YWxfYmluZGluZycsICctaW1hZScsICc8aW5maWxlLm1hZT4nLCAnLW9tYWUnLCAnPG91dGZpbGUubWFlPic=

> <r_lp_tautomer_probability>
0.999

> <r_epik_Ionization_Penalty>
0.00182893

> <r_epik_Ionization_Penalty_Charging>
0.00168873

> <r_epik_Ionization_Penalty_Neutral>
0.000140204

> <r_epik_State_Penalty>
0.00114045

> <r_epik_Charging_Adjusted_Penalty>
0.00282917

> <i_epik_Tot_Q>
1

> <i_epik_Tot_abs_Q>
1

> <r_epik_Metal_State_Penalty>
0.0569426

> <b_epik_Metal_Only>
0

> <s_lp_Force_Field>
OPLS_2005

> <r_lp_Energy>
15.966

> <b_lp_Chiralities_Consistent>
1

> <s_lp_Variant>
AV-unprocessed.smi:2037-2

> <Gold.Version>
5.8.1

> <Gold.Id.Protein>
6NUR|6NUR_protein|mol2

> <Gold.PLP.Fitness>
42.2790

> <Gold.PLP.PLP>
-29.2704

> <Gold.PLP.part.hbond>
-3.0000

> <Gold.PLP.part.metal>
0.0000

> <Gold.PLP.part.buried>
-5.4764

> <Gold.PLP.part.nonpolar>
-21.7881

> <Gold.PLP.part.repulsive>
0.8252

> <Gold.PLP.ligand.clash>
0.0000

> <Gold.PLP.ligand.torsion>
0.2446

> <Gold.PLP.Chemscore.Hbond>
3.5925

> <Gold.PLP.Chemscore.CHOScore>
0.9012

> <Gold.PLP.Chemscore.Metal>
0.0000

> <Gold.Chemscore.Hbonds>
donor molecule, donor type, donor heavy atom, donor atom, acceptor molecule, acceptor atom, score
      L1  H     5    39       P1  7948  2.00
      L1  H     8    31       P1  7948  1.00
      L1  H    11    32       P1  7948  0.59
      L1  C    15    34       P1 10952  0.92

> <Gold.PLP.Chemscore.Internal.Correction>
0.0166

> <Gold.Rescore>
     Score         DG    S(hbond)    S(metal)    S(lipo)     H(rot)  DE(clash)    DE(int)     intcor
     17.29     -18.58       2.78        0.00      67.67       1.60       0.01       1.27       ----

> <Gold.Chemscore.Fitness>
17.2894

> <Gold.Chemscore.DG>
-18.5754

> <Gold.Chemscore.ZeroCoef>
-5.4800

> <Gold.Chemscore.Hbond>
2.7767

> <Gold.Chemscore.Metal>
0.0000

> <Gold.Chemscore.Lipo>
67.6714

> <Gold.Chemscore.Internal_Hbond>
0.0000

> <Gold.Chemscore.DEClash>
0.0121

> <Gold.Chemscore.DEInternal>
1.2738

> <Gold.Chemscore.Rot>
1.6001

> <Gold.Chemscore.Internal.Correction>
   9.000000E+99

> <Gold.Chemscore.Hbonds>
donor molecule, donor type, donor heavy atom, donor atom, acceptor molecule, acceptor atom, score
      L1  H     5    39       P1  7948  0.99
      L1  H     8    31       P1  7948  0.97
      L1  H    11    32       P1  7948  0.49

> <Gold.Chemscore.Hbond.Weighted>
-9.2741

> <Gold.Chemscore.Metal.Weighted>
-0.0000

> <Gold.Chemscore.Lipo.Weighted>
-7.9175

> <Gold.Chemscore.Internal_Hbond.Weighted>
0.0000

> <Gold.Chemscore.DEClash.Weighted>
0.0121

> <Gold.Chemscore.DEInternal.Weighted>
1.2738

> <Gold.Chemscore.Rot.Weighted>
4.0963

> <Gold.Chemscore.Internal.Correction.Weighted>
   9.000000E+99

> <Gold.Protein.RotatedTorsions>
[ 6907 6896 6895 6894 ] final -134.94 input  -60.11 | X-H torsion
[ 7974 7965 7964 7962 ] final -138.45 input  175.53 | X-H torsion
[ 8008 7997 7996 7995 ] final   80.24 input   59.86 | X-H torsion
[ 10167 10162 10161 10158 ] final   64.17 input  -65.29 | X-H torsion
[ 10718 10713 10712 10709 ] final  -31.76 input   66.30 | X-H torsion
[ 10763 10752 10751 10750 ] final  -16.51 input  -60.55 | X-H torsion
[ 11005 11000 10999 10996 ] final  146.57 input  -57.11 | X-H torsion

> <Gold.Protein.ActiveResidues>
 VAL166  LYS551  ARG553  GLY616  TRP617  ASP618  TYR619  PRO620  LYS621  CYS622 
 ASP623  PHE694  ASN695  SER759  ASP760  ASP761  ALA762  ILE779  LEU786  VAL792 
 PHE793  MET794  SER795  GLU796  ALA797  LYS798  CYS799  TRP800  GLU811  SER814 

> <Gold.Protein.RotatedAtoms>
  150.9918  133.6142  159.2706 H   0  0  0  0  0  0  0  0  0  0  0  0  # atno 6907 bound_to 6896
  151.3359  135.0851  159.9364 H   0  0  0  0  0  0  0  0  0  0  0  0  # atno 6908 bound_to 6896
  152.5248  133.9539  159.7739 H   0  0  0  0  0  0  0  0  0  0  0  0  # atno 6909 bound_to 6896
  144.8757  140.6434  143.5238 H   0  0  0  0  0  0  0  0  0  0  0  0  # atno 7974 bound_to 7965
  155.8808  140.3444  155.5886 H   0  0  0  0  0  0  0  0  0  0  0  0  # atno 8008 bound_to 7997
  155.7722  140.0847  157.2121 H   0  0  0  0  0  0  0  0  0  0  0  0  # atno 8009 bound_to 7997
  154.4024  140.1516  156.2942 H   0  0  0  0  0  0  0  0  0  0  0  0  # atno 8010 bound_to 7997
  140.1251  144.4695  150.6897 H   0  0  0  0  0  0  0  0  0  0  0  0  # atno 10167 bound_to 10162
  156.3832  130.4360  149.7452 H   0  0  0  0  0  0  0  0  0  0  0  0  # atno 10718 bound_to 10713
  153.5597  135.7010  153.5553 H   0  0  0  0  0  0  0  0  0  0  0  0  # atno 10763 bound_to 10752
  153.3440  135.4013  155.1594 H   0  0  0  0  0  0  0  0  0  0  0  0  # atno 10764 bound_to 10752
  154.8649  135.3749  154.5114 H   0  0  0  0  0  0  0  0  0  0  0  0  # atno 10765 bound_to 10752
  140.0804  134.9100  157.1491 H   0  0  0  0  0  0  0  0  0  0  0  0  # atno 11005 bound_to 11000
  145.4047  139.1591  143.4158 LP  0  0  0  0  0  0  0  0  0  0  0  0  # atno 17320 bound_to 7965
  146.2961  140.4146  142.8721 LP  0  0  0  0  0  0  0  0  0  0  0  0  # atno 17321 bound_to 7965
  140.6850  143.2345  151.5285 LP  0  0  0  0  0  0  0  0  0  0  0  0  # atno 17342 bound_to 10162
  139.5548  144.2302  152.1594 LP  0  0  0  0  0  0  0  0  0  0  0  0  # atno 17343 bound_to 10162
  156.4534  130.7917  151.2939 LP  0  0  0  0  0  0  0  0  0  0  0  0  # atno 17370 bound_to 10713
  157.7494  131.0088  150.3243 LP  0  0  0  0  0  0  0  0  0  0  0  0  # atno 17371 bound_to 10713
  140.3496  134.2613  155.7200 LP  0  0  0  0  0  0  0  0  0  0  0  0  # atno 17394 bound_to 11000
  141.2044  133.7886  157.0286 LP  0  0  0  0  0  0  0  0  0  0  0  0  # atno 17395 bound_to 11000

$$$$
