AV-unprocessed.smi:2973|AV-procd|sdf|11351|dock4
  -GOLD-   2272016263D 1   1.00000     0.00000
 Structure written by MMmdl.
 49 51  0  0  0  0  0  0  0  0  3 V2000
  150.5926  141.8468  157.7088 C   0  0  0  0  0  0  0  0  0  0  0  0
  151.4834  140.8759  158.5144 C   0  0  2  0  0  0  0  0  0  0  0  0
  152.7470  141.5956  159.0332 C   0  0  0  0  0  0  0  0  0  0  0  0
  153.5970  140.6831  159.9295 C   0  0  0  0  0  0  0  0  0  0  0  0
  153.9882  139.3951  159.1943 C   0  0  0  0  0  0  0  0  0  0  0  0
  152.7457  138.6527  158.6739 C   0  0  0  0  0  0  0  0  0  0  0  0
  151.8440  139.5431  157.7798 C   0  0  2  0  0  0  0  0  0  0  0  0
  152.4919  139.7851  156.5010 N   0  5  0  0  0  0  0  0  0  0  0  0
  151.7492  139.2280  155.5164 C   0  0  0  0  0  0  0  0  0  0  0  0
  152.0052  139.2279  154.3129 O   0  0  0  0  0  0  0  0  0  0  0  0
  150.6469  138.6391  156.0181 N   0  0  0  0  0  0  0  0  0  0  0  0
  149.6388  137.9122  155.2354 C   0  0  0  0  0  0  0  0  0  0  0  0
  149.5290  136.4414  155.6553 C   0  0  0  0  0  0  0  0  0  0  0  0
  149.4623  136.1334  156.8461 O   0  0  0  0  0  0  0  0  0  0  0  0
  149.5132  135.5381  154.6625 N   0  0  0  0  0  0  0  0  0  0  0  0
  149.3710  134.0942  154.8364 C   0  0  0  0  0  0  0  0  0  0  0  0
  149.4570  133.3246  153.5023 C   0  0  0  0  0  0  0  0  0  0  0  0
  148.1078  133.0353  152.8657 C   0  0  0  0  0  0  0  0  0  0  0  0
  147.5441  131.7408  152.8540 C   0  0  0  0  0  0  0  0  0  0  0  0
  146.3010  131.5361  152.2204 C   0  0  0  0  0  0  0  0  0  0  0  0
  145.6476  132.6275  151.6128 C   0  0  0  0  0  0  0  0  0  0  0  0
  146.2536  133.8992  151.6568 C   0  0  0  0  0  0  0  0  0  0  0  0
  147.4437  134.0564  152.2770 N   0  3  0  0  0  0  0  0  0  0  0  0
  150.6104  138.7633  157.3493 C   0  0  0  0  0  0  0  0  0  0  0  0
  149.7509  138.3304  158.1190 O   0  0  0  0  0  0  0  0  0  0  0  0
  151.0933  142.1945  156.8048 H   0  0  0  0  0  0  0  0  0  0  0  0
  150.3437  142.7269  158.3018 H   0  0  0  0  0  0  0  0  0  0  0  0
  149.6509  141.3858  157.4120 H   0  0  0  0  0  0  0  0  0  0  0  0
  150.9046  140.6026  159.3985 H   0  0  0  0  0  0  0  0  0  0  0  0
  153.3478  141.9436  158.1919 H   0  0  0  0  0  0  0  0  0  0  0  0
  152.4636  142.4866  159.5943 H   0  0  0  0  0  0  0  0  0  0  0  0
  154.4938  141.2119  160.2532 H   0  0  0  0  0  0  0  0  0  0  0  0
  153.0396  140.4349  160.8335 H   0  0  0  0  0  0  0  0  0  0  0  0
  154.6511  139.6351  158.3620 H   0  0  0  0  0  0  0  0  0  0  0  0
  154.5554  138.7449  159.8606 H   0  0  0  0  0  0  0  0  0  0  0  0
  153.0578  137.7570  158.1343 H   0  0  0  0  0  0  0  0  0  0  0  0
  152.1730  138.3018  159.5336 H   0  0  0  0  0  0  0  0  0  0  0  0
  148.6696  138.4034  155.3416 H   0  0  0  0  0  0  0  0  0  0  0  0
  149.8755  137.9528  154.1713 H   0  0  0  0  0  0  0  0  0  0  0  0
  149.5851  135.8789  153.7145 H   0  0  0  0  0  0  0  0  0  0  0  0
  150.1612  133.7528  155.5053 H   0  0  0  0  0  0  0  0  0  0  0  0
  148.4311  133.8636  155.3408 H   0  0  0  0  0  0  0  0  0  0  0  0
  150.0627  133.8930  152.7954 H   0  0  0  0  0  0  0  0  0  0  0  0
  149.9814  132.3810  153.6568 H   0  0  0  0  0  0  0  0  0  0  0  0
  148.0622  130.9094  153.3089 H   0  0  0  0  0  0  0  0  0  0  0  0
  145.8603  130.5504  152.1909 H   0  0  0  0  0  0  0  0  0  0  0  0
  144.7002  132.4884  151.1128 H   0  0  0  0  0  0  0  0  0  0  0  0
  145.8291  134.7873  151.2123 H   0  0  0  0  0  0  0  0  0  0  0  0
  147.8687  134.9838  152.2857 H   0  0  0  0  0  0  0  0  0  0  0  0
  1  2  1  0  0  0  0
  1 26  1  0  0  0  0
  1 27  1  0  0  0  0
  1 28  1  0  0  0  0
  2  7  1  0  0  0  0
  2  3  1  0  0  0  0
  2 29  1  0  0  0  0
  3  4  1  0  0  0  0
  3 30  1  0  0  0  0
  3 31  1  0  0  0  0
  4  5  1  0  0  0  0
  4 32  1  0  0  0  0
  4 33  1  0  0  0  0
  5  6  1  0  0  0  0
  5 34  1  0  0  0  0
  5 35  1  0  0  0  0
  6  7  1  0  0  0  0
  6 36  1  0  0  0  0
  6 37  1  0  0  0  0
  7 24  1  0  0  0  0
  7  8  1  0  0  0  0
  8  9  1  0  0  0  0
  9 10  2  0  0  0  0
  9 11  1  0  0  0  0
 11 12  1  0  0  0  0
 11 24  1  0  0  0  0
 12 13  1  0  0  0  0
 12 38  1  0  0  0  0
 12 39  1  0  0  0  0
 13 14  2  0  0  0  0
 13 15  1  0  0  0  0
 15 16  1  0  0  0  0
 15 40  1  0  0  0  0
 16 17  1  0  0  0  0
 16 41  1  0  0  0  0
 16 42  1  0  0  0  0
 17 18  1  0  0  0  0
 17 43  1  0  0  0  0
 17 44  1  0  0  0  0
 18 23  1  0  0  0  0
 18 19  2  0  0  0  0
 19 20  1  0  0  0  0
 19 45  1  0  0  0  0
 20 21  2  0  0  0  0
 20 46  1  0  0  0  0
 21 22  1  0  0  0  0
 21 47  1  0  0  0  0
 22 23  2  0  0  0  0
 22 48  1  0  0  0  0
 23 49  1  0  0  0  0
 24 25  2  0  0  0  0
M  CHG  1   8  -1
M  CHG  1  23   1
M  END
> <s_m_source_file>
AV-unprocessed.smi

> <i_m_source_file_index>
2973

> <i_lp_mmshare_version>
43012

> <i_f3d_flags>
0

> <s_epik_input>
W0NIMl0xW0NIMl1bQ0gyXVtDSDJdW0NAQEhdKFtDSDNdKVtDQF0xMltOSF1DKD1PKU4oQzI9TylbQ0gyXUMoPU8pW05IXVtDSDJdW0NIMl1jM1tjSF1bY0hdW2NIXVtjSF1uMw==

> <s_epik_cmdline>
J2VwaWtfcHl0aG9uJywgJy1waCcsICc3LjAnLCAnLXRuJywgJzgnLCAnLW1hJywgJzIwMCcsICctbWV0YWxfYmluZGluZycsICctaW1hZScsICc8aW5maWxlLm1hZT4nLCAnLW9tYWUnLCAnPG91dGZpbGUubWFlPic=

> <r_lp_tautomer_probability>
1

> <r_epik_Ionization_Penalty>
7.89073

> <r_epik_Ionization_Penalty_Charging>
7.89073

> <r_epik_Ionization_Penalty_Neutral>
1.56557e-07

> <r_epik_State_Penalty>
8.01193

> <r_epik_Charging_Adjusted_Penalty>
15.9027

> <i_epik_Tot_Q>
0

> <i_epik_Tot_abs_Q>
2

> <r_epik_Metal_State_Penalty>
3.98737

> <b_epik_Metal_Only>
1

> <s_lp_Force_Field>
OPLS_2005

> <r_lp_Energy>
16.8567

> <b_lp_Chiralities_Consistent>
1

> <s_lp_Variant>
AV-unprocessed.smi:2973-15

> <Gold.Version>
5.8.1

> <Gold.Id.Protein>
6NUR|6NUR_protein|mol2

> <Gold.PLP.Fitness>
54.3718

> <Gold.PLP.PLP>
-37.8643

> <Gold.PLP.part.hbond>
-4.0000

> <Gold.PLP.part.metal>
0.0000

> <Gold.PLP.part.buried>
-3.7144

> <Gold.PLP.part.nonpolar>
-29.8773

> <Gold.PLP.part.repulsive>
0.1448

> <Gold.PLP.ligand.clash>
0.0000

> <Gold.PLP.ligand.torsion>
0.5490

> <Gold.PLP.Chemscore.Hbond>
5.8480

> <Gold.PLP.Chemscore.CHOScore>
0.0000

> <Gold.PLP.Chemscore.Metal>
0.0000

> <Gold.Chemscore.Hbonds>
donor molecule, donor type, donor heavy atom, donor atom, acceptor molecule, acceptor atom, score
      L1  H    15    40       P1  7948  1.00
      L1  H    23    49       P1  7948  2.00
      P1  H  7989  7998       L1    10  0.85
      P1  H  7997  8008       L1     8  2.00

> <Gold.PLP.Chemscore.Internal.Correction>
0.0616

> <Gold.Rescore>
     Score         DG    S(hbond)    S(metal)    S(lipo)     H(rot)  DE(clash)    DE(int)     intcor
     18.89     -22.50       3.61        0.00      84.37       1.92       0.03       3.58       ----

> <Gold.Chemscore.Fitness>
18.8899

> <Gold.Chemscore.DG>
-22.4994

> <Gold.Chemscore.ZeroCoef>
-5.4800

> <Gold.Chemscore.Hbond>
3.6097

> <Gold.Chemscore.Metal>
0.0000

> <Gold.Chemscore.Lipo>
84.3741

> <Gold.Chemscore.Internal_Hbond>
0.0000

> <Gold.Chemscore.DEClash>
0.0341

> <Gold.Chemscore.DEInternal>
3.5754

> <Gold.Chemscore.Rot>
1.9175

> <Gold.Chemscore.Internal.Correction>
   9.000000E+99

> <Gold.Chemscore.Hbonds>
donor molecule, donor type, donor heavy atom, donor atom, acceptor molecule, acceptor atom, score
      L1  H    15    40       P1  7948  0.34
      L1  H    23    49       P1  7948  0.84
      P1  H  7989  7998       L1    10  0.73
      P1  H  7997  8008       L1     8  0.98

> <Gold.Chemscore.Hbond.Weighted>
-12.0564

> <Gold.Chemscore.Metal.Weighted>
-0.0000

> <Gold.Chemscore.Lipo.Weighted>
-9.8718

> <Gold.Chemscore.Internal_Hbond.Weighted>
0.0000

> <Gold.Chemscore.DEClash.Weighted>
0.0341

> <Gold.Chemscore.DEInternal.Weighted>
3.5754

> <Gold.Chemscore.Rot.Weighted>
4.9087

> <Gold.Chemscore.Internal.Correction.Weighted>
   9.000000E+99

> <Gold.Protein.RotatedTorsions>
[ 6907 6896 6895 6894 ] final   59.46 input  -60.11 | X-H torsion
[ 7974 7965 7964 7962 ] final -106.08 input  175.53 | X-H torsion
[ 8008 7997 7996 7995 ] final  -49.16 input   59.86 | X-H torsion
[ 10167 10162 10161 10158 ] final -156.90 input  -65.29 | X-H torsion
[ 10718 10713 10712 10709 ] final   -0.21 input   66.30 | X-H torsion
[ 10763 10752 10751 10750 ] final  -46.84 input  -60.55 | X-H torsion
[ 11005 11000 10999 10996 ] final   83.25 input  -57.11 | X-H torsion

> <Gold.Protein.ActiveResidues>
 VAL166  LYS551  ARG553  GLY616  TRP617  ASP618  TYR619  PRO620  LYS621  CYS622 
 ASP623  PHE694  ASN695  SER759  ASP760  ASP761  ALA762  ILE779  LEU786  VAL792 
 PHE793  MET794  SER795  GLU796  ALA797  LYS798  CYS799  TRP800  GLU811  SER814 

> <Gold.Protein.RotatedAtoms>
  152.3916  134.6432  160.0104 H   0  0  0  0  0  0  0  0  0  0  0  0  # atno 6907 bound_to 6896
  151.6664  133.3309  159.3194 H   0  0  0  0  0  0  0  0  0  0  0  0  # atno 6908 bound_to 6896
  150.7831  134.6837  159.6503 H   0  0  0  0  0  0  0  0  0  0  0  0  # atno 6909 bound_to 6896
  145.2223  140.9139  143.3252 H   0  0  0  0  0  0  0  0  0  0  0  0  # atno 7974 bound_to 7965
  154.4039  140.1303  156.4457 H   0  0  0  0  0  0  0  0  0  0  0  0  # atno 8008 bound_to 7997
  155.7415  140.3489  155.5087 H   0  0  0  0  0  0  0  0  0  0  0  0  # atno 8009 bound_to 7997
  155.9034  140.1023  157.1323 H   0  0  0  0  0  0  0  0  0  0  0  0  # atno 8010 bound_to 7997
  139.6813  143.9576  152.2338 H   0  0  0  0  0  0  0  0  0  0  0  0  # atno 10167 bound_to 10162
  156.8238  130.5465  149.5694 H   0  0  0  0  0  0  0  0  0  0  0  0  # atno 10718 bound_to 10713
  154.0515  135.6630  153.4801 H   0  0  0  0  0  0  0  0  0  0  0  0  # atno 10763 bound_to 10752
  153.0462  135.5113  154.7746 H   0  0  0  0  0  0  0  0  0  0  0  0  # atno 10764 bound_to 10752
  154.6754  135.3036  154.9652 H   0  0  0  0  0  0  0  0  0  0  0  0  # atno 10765 bound_to 10752
  139.9037  134.8131  156.2284 H   0  0  0  0  0  0  0  0  0  0  0  0  # atno 11005 bound_to 11000
  144.9754  139.3837  143.6288 LP  0  0  0  0  0  0  0  0  0  0  0  0  # atno 17320 bound_to 7965
  146.3373  139.8870  142.8815 LP  0  0  0  0  0  0  0  0  0  0  0  0  # atno 17321 bound_to 7965
  139.9367  144.6708  150.8308 LP  0  0  0  0  0  0  0  0  0  0  0  0  # atno 17342 bound_to 10162
  140.7653  143.3272  151.2489 LP  0  0  0  0  0  0  0  0  0  0  0  0  # atno 17343 bound_to 10162
  156.0973  130.5942  150.9835 LP  0  0  0  0  0  0  0  0  0  0  0  0  # atno 17370 bound_to 10713
  157.6443  131.0906  150.8187 LP  0  0  0  0  0  0  0  0  0  0  0  0  # atno 17371 bound_to 10713
  141.0361  133.6962  156.1515 LP  0  0  0  0  0  0  0  0  0  0  0  0  # atno 17394 bound_to 11000
  140.7024  134.4549  157.5585 LP  0  0  0  0  0  0  0  0  0  0  0  0  # atno 17395 bound_to 11000

$$$$
