AV-unprocessed.smi:2691|AV-procd|sdf|10390|dock5
  -GOLD-   2272014423D 1   1.00000     0.00000
 Structure written by MMmdl.
 49 51  0  0  0  0  0  0  0  0  1 V2000
  153.0650  142.9975  161.1512 C   0  0  0  0  0  0  0  0  0  0  0  0
  152.3542  142.5643  159.8813 C   0  0  0  0  0  0  0  0  0  0  0  0
  152.4246  141.2106  159.4822 C   0  0  0  0  0  0  0  0  0  0  0  0
  151.7820  140.7679  158.3057 C   0  0  0  0  0  0  0  0  0  0  0  0
  151.7200  139.5076  157.7360 N   0  0  0  0  0  0  0  0  0  0  0  0
  150.9829  139.7396  156.6539 C   0  0  0  0  0  0  0  0  0  0  0  0
  150.5669  141.0044  156.4495 N   0  0  0  0  0  0  0  0  0  0  0  0
  149.7717  141.4972  155.3389 C   0  0  0  0  0  0  0  0  0  0  0  0
  149.1087  140.3579  154.5389 C   0  0  2  0  0  0  0  0  0  0  0  0
  150.1198  139.7671  153.7485 O   0  0  0  0  0  0  0  0  0  0  0  0
  147.9660  140.8329  153.6074 C   0  0  0  0  0  0  0  0  0  0  0  0
  146.9796  141.6526  154.3277 N   0  0  0  0  0  0  0  0  0  0  0  0
  146.5523  142.8281  153.6826 C   0  0  0  0  0  0  0  0  0  0  0  0
  145.6787  143.6198  154.2180 N   0  0  0  0  0  0  0  0  0  0  0  0
  145.1343  143.3107  155.4709 C   0  0  0  0  0  0  0  0  0  0  0  0
  144.1057  144.2723  156.0518 C   0  0  0  0  0  0  0  0  0  0  0  0
  143.7935  145.4244  155.0831 C   0  0  0  0  0  0  0  0  0  0  0  0
  144.5465  144.7955  157.4274 C   0  0  0  0  0  0  0  0  0  0  0  0
  145.5097  142.1868  156.1269 C   0  0  0  0  0  0  0  0  0  0  0  0
  146.4945  141.2740  155.5465 C   0  0  0  0  0  0  0  0  0  0  0  0
  146.8546  140.2407  156.1107 O   0  0  0  0  0  0  0  0  0  0  0  0
  151.0622  141.7243  157.5314 C   0  0  0  0  0  0  0  0  0  0  0  0
  150.9798  143.0728  157.9211 C   0  0  0  0  0  0  0  0  0  0  0  0
  151.6274  143.4982  159.0999 C   0  0  0  0  0  0  0  0  0  0  0  0
  151.5358  144.9572  159.5098 C   0  0  0  0  0  0  0  0  0  0  0  0
  153.6012  142.1665  161.6106 H   0  0  0  0  0  0  0  0  0  0  0  0
  152.3482  143.3770  161.8797 H   0  0  0  0  0  0  0  0  0  0  0  0
  153.7894  143.7827  160.9347 H   0  0  0  0  0  0  0  0  0  0  0  0
  152.9767  140.4986  160.0777 H   0  0  0  0  0  0  0  0  0  0  0  0
  150.7403  138.9458  155.9627 H   0  0  0  0  0  0  0  0  0  0  0  0
  149.0155  142.1828  155.7248 H   0  0  0  0  0  0  0  0  0  0  0  0
  150.4264  142.0834  154.6925 H   0  0  0  0  0  0  0  0  0  0  0  0
  148.7468  139.6043  155.2394 H   0  0  0  0  0  0  0  0  0  0  0  0
  149.8003  139.6857  152.8628 H   0  0  0  0  0  0  0  0  0  0  0  0
  148.3621  141.4349  152.7891 H   0  0  0  0  0  0  0  0  0  0  0  0
  147.5044  139.9842  153.0979 H   0  0  0  0  0  0  0  0  0  0  0  0
  147.0033  143.0187  152.7073 H   0  0  0  0  0  0  0  0  0  0  0  0
  143.1787  143.7166  156.1994 H   0  0  0  0  0  0  0  0  0  0  0  0
  143.4587  145.0449  154.1173 H   0  0  0  0  0  0  0  0  0  0  0  0
  144.6679  146.0526  154.9099 H   0  0  0  0  0  0  0  0  0  0  0  0
  143.0025  146.0630  155.4773 H   0  0  0  0  0  0  0  0  0  0  0  0
  144.7410  143.9725  158.1159 H   0  0  0  0  0  0  0  0  0  0  0  0
  143.7735  145.4216  157.8736 H   0  0  0  0  0  0  0  0  0  0  0  0
  145.4564  145.3924  157.3565 H   0  0  0  0  0  0  0  0  0  0  0  0
  145.0826  141.9522  157.0910 H   0  0  0  0  0  0  0  0  0  0  0  0
  150.4261  143.7745  157.3153 H   0  0  0  0  0  0  0  0  0  0  0  0
  150.8924  145.5206  158.8335 H   0  0  0  0  0  0  0  0  0  0  0  0
  152.5233  145.4190  159.4965 H   0  0  0  0  0  0  0  0  0  0  0  0
  151.1234  145.0485  160.5150 H   0  0  0  0  0  0  0  0  0  0  0  0
  1  2  1  0  0  0  0
  1 26  1  0  0  0  0
  1 27  1  0  0  0  0
  1 28  1  0  0  0  0
  2 24  1  0  0  0  0
  2  3  2  0  0  0  0
  3  4  1  0  0  0  0
  3 29  1  0  0  0  0
  4 22  2  0  0  0  0
  4  5  1  0  0  0  0
  5  6  2  0  0  0  0
  6  7  1  0  0  0  0
  6 30  1  0  0  0  0
  7  8  1  0  0  0  0
  7 22  1  0  0  0  0
  8  9  1  0  0  0  0
  8 31  1  0  0  0  0
  8 32  1  0  0  0  0
  9 10  1  0  0  0  0
  9 11  1  0  0  0  0
  9 33  1  0  0  0  0
 10 34  1  0  0  0  0
 11 12  1  0  0  0  0
 11 35  1  0  0  0  0
 11 36  1  0  0  0  0
 12 20  1  0  0  0  0
 12 13  1  0  0  0  0
 13 14  2  0  0  0  0
 13 37  1  0  0  0  0
 14 15  1  0  0  0  0
 15 16  1  0  0  0  0
 15 19  2  0  0  0  0
 16 17  1  0  0  0  0
 16 18  1  0  0  0  0
 16 38  1  0  0  0  0
 17 39  1  0  0  0  0
 17 40  1  0  0  0  0
 17 41  1  0  0  0  0
 18 42  1  0  0  0  0
 18 43  1  0  0  0  0
 18 44  1  0  0  0  0
 19 20  1  0  0  0  0
 19 45  1  0  0  0  0
 20 21  2  0  0  0  0
 22 23  1  0  0  0  0
 23 24  2  0  0  0  0
 23 46  1  0  0  0  0
 24 25  1  0  0  0  0
 25 47  1  0  0  0  0
 25 48  1  0  0  0  0
 25 49  1  0  0  0  0
M  END
> <s_m_source_file>
AV-unprocessed.smi

> <i_m_source_file_index>
2691

> <i_lp_mmshare_version>
43012

> <i_f3d_flags>
0

> <s_epik_input>
W0NIM11jKFtjSF0xKWMoW0NIM10pW2NIXWMoYzEyKW4oW2NIXW4yKVtDSDJdW0NASF0oW09IXSlbQ0gyXW4zW2NIXW5jKFtDSF0oW0NIM10pW0NIM10pW2NIXWMzPU8=

> <s_epik_cmdline>
J2VwaWtfcHl0aG9uJywgJy1waCcsICc3LjAnLCAnLXRuJywgJzgnLCAnLW1hJywgJzIwMCcsICctbWV0YWxfYmluZGluZycsICctaW1hZScsICc8aW5maWxlLm1hZT4nLCAnLW9tYWUnLCAnPG91dGZpbGUubWFlPic=

> <r_lp_tautomer_probability>
1

> <r_epik_Ionization_Penalty>
0.113357

> <r_epik_Ionization_Penalty_Charging>
3.84185e-08

> <r_epik_Ionization_Penalty_Neutral>
0.113357

> <r_epik_State_Penalty>
0.103025

> <r_epik_Charging_Adjusted_Penalty>
0.103025

> <i_epik_Tot_Q>
0

> <i_epik_Tot_abs_Q>
0

> <r_epik_Metal_State_Penalty>
0.0863451

> <b_epik_Metal_Only>
0

> <s_lp_Force_Field>
OPLS_2005

> <r_lp_Energy>
18.3457

> <b_lp_Chiralities_Consistent>
1

> <s_lp_Variant>
AV-unprocessed.smi:2691-1

> <Gold.Version>
5.8.1

> <Gold.Id.Protein>
6NUR|6NUR_protein|mol2

> <Gold.PLP.Fitness>
54.6731

> <Gold.PLP.PLP>
-50.0501

> <Gold.PLP.part.hbond>
-2.0000

> <Gold.PLP.part.metal>
0.0000

> <Gold.PLP.part.buried>
-6.3984

> <Gold.PLP.part.nonpolar>
-42.2205

> <Gold.PLP.part.repulsive>
0.2218

> <Gold.PLP.ligand.clash>
0.0000

> <Gold.PLP.ligand.torsion>
0.5399

> <Gold.PLP.Chemscore.Hbond>
1.8800

> <Gold.PLP.Chemscore.CHOScore>
0.0000

> <Gold.PLP.Chemscore.Metal>
0.0000

> <Gold.Chemscore.Hbonds>
donor molecule, donor type, donor heavy atom, donor atom, acceptor molecule, acceptor atom, score
      L1  H    10    34       P1  7957  1.00
      P1  H  7989  7998       L1    10  0.88

> <Gold.PLP.Chemscore.Internal.Correction>
0.0627

> <Gold.Rescore>
     Score         DG    S(hbond)    S(metal)    S(lipo)     H(rot)  DE(clash)    DE(int)     intcor
     15.71     -18.13       1.45        0.00     120.55       2.45       0.44       1.98       ----

> <Gold.Chemscore.Fitness>
15.7148

> <Gold.Chemscore.DG>
-18.1298

> <Gold.Chemscore.ZeroCoef>
-5.4800

> <Gold.Chemscore.Hbond>
1.4451

> <Gold.Chemscore.Metal>
0.0000

> <Gold.Chemscore.Lipo>
120.5492

> <Gold.Chemscore.Internal_Hbond>
0.0000

> <Gold.Chemscore.DEClash>
0.4355

> <Gold.Chemscore.DEInternal>
1.9795

> <Gold.Chemscore.Rot>
2.4536

> <Gold.Chemscore.Internal.Correction>
   9.000000E+99

> <Gold.Chemscore.Hbonds>
donor molecule, donor type, donor heavy atom, donor atom, acceptor molecule, acceptor atom, score
      L1  H    10    34       P1  7957  0.99
      P1  H  7989  7998       L1    10  0.20

> <Gold.Chemscore.Hbond.Weighted>
-4.8268

> <Gold.Chemscore.Metal.Weighted>
-0.0000

> <Gold.Chemscore.Lipo.Weighted>
-14.1043

> <Gold.Chemscore.Internal_Hbond.Weighted>
0.0000

> <Gold.Chemscore.DEClash.Weighted>
0.4355

> <Gold.Chemscore.DEInternal.Weighted>
1.9795

> <Gold.Chemscore.Rot.Weighted>
6.2812

> <Gold.Chemscore.Internal.Correction.Weighted>
   9.000000E+99

> <Gold.Protein.RotatedTorsions>
[ 6907 6896 6895 6894 ] final   71.85 input  -60.11 | X-H torsion
[ 7974 7965 7964 7962 ] final  -90.68 input  175.53 | X-H torsion
[ 8008 7997 7996 7995 ] final  152.60 input   59.86 | X-H torsion
[ 10167 10162 10161 10158 ] final   43.88 input  -65.29 | X-H torsion
[ 10718 10713 10712 10709 ] final   -9.09 input   66.30 | X-H torsion
[ 10763 10752 10751 10750 ] final  173.61 input  -60.55 | X-H torsion
[ 11005 11000 10999 10996 ] final  -49.28 input  -57.11 | X-H torsion

> <Gold.Protein.ActiveResidues>
 VAL166  LYS551  ARG553  GLY616  TRP617  ASP618  TYR619  PRO620  LYS621  CYS622 
 ASP623  PHE694  ASN695  SER759  ASP760  ASP761  ALA762  ILE779  LEU786  VAL792 
 PHE793  MET794  SER795  GLU796  ALA797  LYS798  CYS799  TRP800  GLU811  SER814 

> <Gold.Protein.RotatedAtoms>
  152.4834  134.4659  159.9619 H   0  0  0  0  0  0  0  0  0  0  0  0  # atno 6907 bound_to 6896
  151.4660  133.3575  159.2824 H   0  0  0  0  0  0  0  0  0  0  0  0  # atno 6908 bound_to 6896
  150.8924  134.8355  159.7363 H   0  0  0  0  0  0  0  0  0  0  0  0  # atno 6909 bound_to 6896
  145.4232  140.9552  143.2169 H   0  0  0  0  0  0  0  0  0  0  0  0  # atno 7974 bound_to 7965
  156.2621  140.2016  156.6359 H   0  0  0  0  0  0  0  0  0  0  0  0  # atno 8008 bound_to 7997
  154.6647  140.0557  157.0125 H   0  0  0  0  0  0  0  0  0  0  0  0  # atno 8009 bound_to 7997
  155.1225  140.3226  155.4496 H   0  0  0  0  0  0  0  0  0  0  0  0  # atno 8010 bound_to 7997
  140.3399  144.2483  150.6157 H   0  0  0  0  0  0  0  0  0  0  0  0  # atno 10167 bound_to 10162
  156.6931  130.5071  149.5938 H   0  0  0  0  0  0  0  0  0  0  0  0  # atno 10718 bound_to 10713
  154.4424  135.2762  155.1838 H   0  0  0  0  0  0  0  0  0  0  0  0  # atno 10763 bound_to 10752
  154.3699  135.6111  153.5738 H   0  0  0  0  0  0  0  0  0  0  0  0  # atno 10764 bound_to 10752
  152.9841  135.5855  154.4754 H   0  0  0  0  0  0  0  0  0  0  0  0  # atno 10765 bound_to 10752
  141.0750  133.6668  156.3562 H   0  0  0  0  0  0  0  0  0  0  0  0  # atno 11005 bound_to 11000
  144.8231  139.5756  143.6977 LP  0  0  0  0  0  0  0  0  0  0  0  0  # atno 17320 bound_to 7965
  146.2646  139.6489  142.9338 LP  0  0  0  0  0  0  0  0  0  0  0  0  # atno 17321 bound_to 7965
  140.5318  143.2241  151.8226 LP  0  0  0  0  0  0  0  0  0  0  0  0  # atno 17342 bound_to 10162
  139.4842  144.4710  151.9425 LP  0  0  0  0  0  0  0  0  0  0  0  0  # atno 17343 bound_to 10162
  156.1783  130.6482  151.0921 LP  0  0  0  0  0  0  0  0  0  0  0  0  # atno 17370 bound_to 10713
  157.7001  131.0779  150.6846 LP  0  0  0  0  0  0  0  0  0  0  0  0  # atno 17371 bound_to 10713
  140.5593  134.5950  157.5429 LP  0  0  0  0  0  0  0  0  0  0  0  0  # atno 17394 bound_to 11000
  139.9562  134.7531  156.0336 LP  0  0  0  0  0  0  0  0  0  0  0  0  # atno 17395 bound_to 11000

$$$$
