AV-unprocessed.smi:610|AV-procd|sdf|3053|dock1
  -GOLD-   2262023573D 1   1.00000     0.00000
 Structure written by MMmdl.
 39 40  0  0  0  0  0  0  0  0  3 V2000
  150.0093  134.3101  156.3434 C   0  0  0  0  0  0  0  0  0  0  0  0
  149.0154  134.7114  155.2455 C   0  0  2  0  0  0  0  0  0  0  0  0
  148.8891  133.6055  154.1757 C   0  0  0  0  0  0  0  0  0  0  0  0
  147.5114  133.4125  153.7090 N   0  0  0  0  0  0  0  0  0  0  0  0
  146.9974  133.7382  152.4798 C   0  0  0  0  0  0  0  0  0  0  0  0
  145.6754  133.3750  152.4999 C   0  0  0  0  0  0  0  0  0  0  0  0
  145.4358  132.8526  153.7427 N   0  3  0  0  0  0  0  0  0  0  0  0
  146.5516  132.8826  154.4788 C   0  0  0  0  0  0  0  0  0  0  0  0
  149.4571  135.9708  154.6472 N   0  0  0  0  0  0  0  0  0  0  0  0
  149.6299  137.1366  155.2940 C   0  0  0  0  0  0  0  0  0  0  0  0
  149.4350  137.2532  156.5042 O   0  0  0  0  0  0  0  0  0  0  0  0
  150.1095  138.3613  154.4786 C   0  0  0  0  0  0  0  0  0  0  0  0
  149.1765  138.5263  153.3487 N   0  3  0  0  0  0  0  0  0  0  0  0
  150.2402  139.6632  155.2963 C   0  0  0  0  0  0  0  0  0  0  0  0
  151.5896  139.5522  156.0185 C   0  0  0  0  0  0  0  0  0  0  0  0
  152.4504  138.6173  155.1542 C   0  0  0  0  0  0  0  0  0  0  0  0
  151.5573  138.1735  153.9861 C   0  0  0  0  0  0  0  0  0  0  0  0
  149.6980  133.3891  156.8370 H   0  0  0  0  0  0  0  0  0  0  0  0
  150.0832  135.0826  157.1095 H   0  0  0  0  0  0  0  0  0  0  0  0
  151.0081  134.1467  155.9367 H   0  0  0  0  0  0  0  0  0  0  0  0
  148.0457  134.8492  155.7269 H   0  0  0  0  0  0  0  0  0  0  0  0
  149.5252  133.8218  153.3156 H   0  0  0  0  0  0  0  0  0  0  0  0
  149.2226  132.6493  154.5813 H   0  0  0  0  0  0  0  0  0  0  0  0
  147.5967  134.1867  151.7005 H   0  0  0  0  0  0  0  0  0  0  0  0
  144.9072  133.4498  151.7438 H   0  0  0  0  0  0  0  0  0  0  0  0
  146.6562  132.5398  155.4929 H   0  0  0  0  0  0  0  0  0  0  0  0
  149.6438  135.9535  153.6546 H   0  0  0  0  0  0  0  0  0  0  0  0
  149.0037  137.6296  152.9174 H   0  0  0  0  0  0  0  0  0  0  0  0
  149.5764  139.1573  152.6689 H   0  0  0  0  0  0  0  0  0  0  0  0
  150.2776  140.5160  154.6160 H   0  0  0  0  0  0  0  0  0  0  0  0
  149.4137  139.8575  155.9808 H   0  0  0  0  0  0  0  0  0  0  0  0
  152.0539  140.5296  156.1534 H   0  0  0  0  0  0  0  0  0  0  0  0
  151.4522  139.1169  157.0090 H   0  0  0  0  0  0  0  0  0  0  0  0
  153.3527  139.1130  154.7944 H   0  0  0  0  0  0  0  0  0  0  0  0
  152.7660  137.7536  155.7402 H   0  0  0  0  0  0  0  0  0  0  0  0
  151.7893  137.1590  153.6594 H   0  0  0  0  0  0  0  0  0  0  0  0
  151.7429  138.8258  153.1310 H   0  0  0  0  0  0  0  0  0  0  0  0
  148.3063  138.9102  153.6891 H   0  0  0  0  0  0  0  0  0  0  0  0
  144.5419  132.5011  154.0630 H   0  0  0  0  0  0  0  0  0  0  0  0
  1  2  1  0  0  0  0
  1 18  1  0  0  0  0
  1 19  1  0  0  0  0
  1 20  1  0  0  0  0
  2  3  1  0  0  0  0
  2  9  1  0  0  0  0
  2 21  1  0  0  0  0
  3  4  1  0  0  0  0
  3 22  1  0  0  0  0
  3 23  1  0  0  0  0
  4  8  1  0  0  0  0
  4  5  1  0  0  0  0
  5  6  2  0  0  0  0
  5 24  1  0  0  0  0
  6  7  1  0  0  0  0
  6 25  1  0  0  0  0
  7  8  2  0  0  0  0
  7 39  1  0  0  0  0
  8 26  1  0  0  0  0
  9 10  1  0  0  0  0
  9 27  1  0  0  0  0
 10 11  2  0  0  0  0
 10 12  1  0  0  0  0
 12 17  1  0  0  0  0
 12 13  1  0  0  0  0
 12 14  1  0  0  0  0
 13 28  1  0  0  0  0
 13 29  1  0  0  0  0
 13 38  1  0  0  0  0
 14 15  1  0  0  0  0
 14 30  1  0  0  0  0
 14 31  1  0  0  0  0
 15 16  1  0  0  0  0
 15 32  1  0  0  0  0
 15 33  1  0  0  0  0
 16 17  1  0  0  0  0
 16 34  1  0  0  0  0
 16 35  1  0  0  0  0
 17 36  1  0  0  0  0
 17 37  1  0  0  0  0
M  CHG  1   7   1
M  CHG  1  13   1
M  END
> <s_m_source_file>
AV-unprocessed.smi

> <i_m_source_file_index>
610

> <i_lp_mmshare_version>
43012

> <i_f3d_flags>
0

> <s_epik_input>
W2NIXTFuW2NIXVtjSF1uMVtDSDJdW0NAQEhdKFtDSDNdKVtOSF1DKD1PKUMyKFtOSDJdKVtDSDJdW0NIMl1bQ0gyXVtDSDJdMg==

> <s_epik_cmdline>
J2VwaWtfcHl0aG9uJywgJy1waCcsICc3LjAnLCAnLXRuJywgJzgnLCAnLW1hJywgJzIwMCcsICctbWV0YWxfYmluZGluZycsICctaW1hZScsICc8aW5maWxlLm1hZT4nLCAnLW9tYWUnLCAnPG91dGZpbGUubWFlPic=

> <r_lp_tautomer_probability>
1

> <r_epik_Ionization_Penalty>
0.349719

> <r_epik_Ionization_Penalty_Charging>
0.0753376

> <r_epik_Ionization_Penalty_Neutral>
0.274381

> <r_epik_State_Penalty>
0.326418

> <r_epik_Charging_Adjusted_Penalty>
0.401755

> <i_epik_Tot_Q>
2

> <i_epik_Tot_abs_Q>
2

> <r_epik_Metal_State_Penalty>
0.608513

> <b_epik_Metal_Only>
0

> <s_lp_Force_Field>
OPLS_2005

> <r_lp_Energy>
30.886

> <b_lp_Chiralities_Consistent>
1

> <s_lp_Variant>
AV-unprocessed.smi:610-1

> <Gold.Version>
5.8.1

> <Gold.Id.Protein>
6NUR|6NUR_protein|mol2

> <Gold.PLP.Fitness>
46.2402

> <Gold.PLP.PLP>
-26.7335

> <Gold.PLP.part.hbond>
-3.9371

> <Gold.PLP.part.metal>
0.0000

> <Gold.PLP.part.buried>
-4.4053

> <Gold.PLP.part.nonpolar>
-19.5627

> <Gold.PLP.part.repulsive>
0.1020

> <Gold.PLP.ligand.clash>
0.0000

> <Gold.PLP.ligand.torsion>
0.7545

> <Gold.PLP.Chemscore.Hbond>
5.9825

> <Gold.PLP.Chemscore.CHOScore>
0.9911

> <Gold.PLP.Chemscore.Metal>
0.0000

> <Gold.Chemscore.Hbonds>
donor molecule, donor type, donor heavy atom, donor atom, acceptor molecule, acceptor atom, score
      L1  H     7    39       P1 10957  1.53
      L1  H     9    27       P1  7948  0.98
      L1  H    13    28       P1  7948  2.00
      L1  H    13    29       P1  7957  1.00
      L1  C     5    24       P1  7948  0.81

> <Gold.PLP.Chemscore.Internal.Correction>
0.0948

> <Gold.Rescore>
     Score         DG    S(hbond)    S(metal)    S(lipo)     H(rot)  DE(clash)    DE(int)     intcor
     17.31     -18.92       3.64        0.00      56.27       2.06       0.13       1.49       ----

> <Gold.Chemscore.Fitness>
17.3050

> <Gold.Chemscore.DG>
-18.9246

> <Gold.Chemscore.ZeroCoef>
-5.4800

> <Gold.Chemscore.Hbond>
3.6364

> <Gold.Chemscore.Metal>
0.0000

> <Gold.Chemscore.Lipo>
56.2713

> <Gold.Chemscore.Internal_Hbond>
0.0000

> <Gold.Chemscore.DEClash>
0.1343

> <Gold.Chemscore.DEInternal>
1.4853

> <Gold.Chemscore.Rot>
2.0644

> <Gold.Chemscore.Internal.Correction>
   9.000000E+99

> <Gold.Chemscore.Hbonds>
donor molecule, donor type, donor heavy atom, donor atom, acceptor molecule, acceptor atom, score
      L1  H     7    39       P1 10957  0.41
      L1  H     9    27       P1  7948  0.28
      L1  H    13    28       P1  7948  1.00
      L1  H    13    29       P1  7957  0.95

> <Gold.Chemscore.Hbond.Weighted>
-12.1456

> <Gold.Chemscore.Metal.Weighted>
-0.0000

> <Gold.Chemscore.Lipo.Weighted>
-6.5837

> <Gold.Chemscore.Internal_Hbond.Weighted>
0.0000

> <Gold.Chemscore.DEClash.Weighted>
0.1343

> <Gold.Chemscore.DEInternal.Weighted>
1.4853

> <Gold.Chemscore.Rot.Weighted>
5.2848

> <Gold.Chemscore.Internal.Correction.Weighted>
   9.000000E+99

> <Gold.Protein.RotatedTorsions>
[ 6907 6896 6895 6894 ] final  104.45 input  -60.11 | X-H torsion
[ 7974 7965 7964 7962 ] final    8.06 input  175.53 | X-H torsion
[ 8008 7997 7996 7995 ] final  -67.77 input   59.86 | X-H torsion
[ 10167 10162 10161 10158 ] final  126.38 input  -65.29 | X-H torsion
[ 10718 10713 10712 10709 ] final  -64.40 input   66.30 | X-H torsion
[ 10763 10752 10751 10750 ] final  142.37 input  -60.55 | X-H torsion
[ 11005 11000 10999 10996 ] final  -19.87 input  -57.11 | X-H torsion

> <Gold.Protein.ActiveResidues>
 VAL166  LYS551  ARG553  GLY616  TRP617  ASP618  TYR619  PRO620  LYS621  CYS622 
 ASP623  PHE694  ASN695  SER759  ASP760  ASP761  ALA762  ILE779  LEU786  VAL792 
 PHE793  MET794  SER795  GLU796  ALA797  LYS798  CYS799  TRP800  GLU811  SER814 

> <Gold.Protein.RotatedAtoms>
  152.5264  133.9675  159.7746 H   0  0  0  0  0  0  0  0  0  0  0  0  # atno 6907 bound_to 6896
  150.9954  133.6100  159.2709 H   0  0  0  0  0  0  0  0  0  0  0  0  # atno 6908 bound_to 6896
  151.3229  135.0829  159.9365 H   0  0  0  0  0  0  0  0  0  0  0  0  # atno 6909 bound_to 6896
  146.2420  139.9989  142.8418 H   0  0  0  0  0  0  0  0  0  0  0  0  # atno 7974 bound_to 7965
  154.4822  140.0886  156.7404 H   0  0  0  0  0  0  0  0  0  0  0  0  # atno 8008 bound_to 7997
  155.4440  140.3455  155.4275 H   0  0  0  0  0  0  0  0  0  0  0  0  # atno 8009 bound_to 7997
  156.1209  140.1474  156.9194 H   0  0  0  0  0  0  0  0  0  0  0  0  # atno 8010 bound_to 7997
  139.5634  144.6896  151.3979 H   0  0  0  0  0  0  0  0  0  0  0  0  # atno 10167 bound_to 10162
  156.0732  130.4233  150.1414 H   0  0  0  0  0  0  0  0  0  0  0  0  # atno 10718 bound_to 10713
  153.9547  135.2966  155.3437 H   0  0  0  0  0  0  0  0  0  0  0  0  # atno 10763 bound_to 10752
  154.7407  135.5026  153.9121 H   0  0  0  0  0  0  0  0  0  0  0  0  # atno 10764 bound_to 10752
  153.0976  135.6725  153.9842 H   0  0  0  0  0  0  0  0  0  0  0  0  # atno 10765 bound_to 10752
  140.8409  133.7927  155.9859 H   0  0  0  0  0  0  0  0  0  0  0  0  # atno 11005 bound_to 11000
  145.1434  140.9583  143.4475 LP  0  0  0  0  0  0  0  0  0  0  0  0  # atno 17320 bound_to 7965
  145.0274  139.3370  143.6041 LP  0  0  0  0  0  0  0  0  0  0  0  0  # atno 17321 bound_to 7965
  140.6916  143.7849  150.7263 LP  0  0  0  0  0  0  0  0  0  0  0  0  # atno 17342 bound_to 10162
  140.1332  143.4507  152.2241 LP  0  0  0  0  0  0  0  0  0  0  0  0  # atno 17343 bound_to 10162
  156.9461  130.9760  151.3507 LP  0  0  0  0  0  0  0  0  0  0  0  0  # atno 17370 bound_to 10713
  157.5813  130.8379  149.8527 LP  0  0  0  0  0  0  0  0  0  0  0  0  # atno 17371 bound_to 10713
  140.8896  134.2511  157.5101 LP  0  0  0  0  0  0  0  0  0  0  0  0  # atno 17394 bound_to 11000
  139.8703  134.9655  156.4531 LP  0  0  0  0  0  0  0  0  0  0  0  0  # atno 17395 bound_to 11000

$$$$
