#       Name:                AV-unprocessed.smi:118
#       Creating user name   scv26
#       Creation time:       Thu Mar 26 18:26:05 2020


#       File generated by GOLD software.
#

@<TRIPOS>MOLECULE
AV-unprocessed.smi:118
    51    54     1
SMALL
NO_CHARGES


@<TRIPOS>ATOM
      1 ****        -1.2908  -0.8148  -0.9477 O.2            1 S1                 0.0000
      2 ****        -0.6818  -1.5130  -0.1361 C.2            1 S1                 0.0000
      3 ****         0.8550  -1.5139  -0.1029 C.3            1 S1                 0.0000
      4 ****         1.4697  -0.5279  -1.0192 N.am           1 S1                 0.0000
      5 ****         1.7782  -0.9300  -2.3426 C.2            1 S1                 0.0000
      6 ****         1.5636  -2.0803  -2.7276 O.2            1 S1                 0.0000
      7 ****         2.3452   0.1054  -3.1989 C.2            1 S1                 0.0000
      8 ****         2.6539  -0.1809  -4.4751 F              1 S1                 0.0000
      9 ****         2.5607   1.3520  -2.7312 C.2            1 S1                 0.0000
     10 ****         2.2762   1.7259  -1.4326 N.am           1 S1                 0.0000
     11 ****         2.5013   3.1597  -1.0112 C.3            1 S1                 0.0000
     12 ****         3.4355   3.3070   0.2049 C.3            1 S1                 0.0000
     13 ****         2.5679   4.0423   1.2133 C.3            1 S1                 0.0000
     14 ****         1.5044   4.6930   0.3357 C.3            1 S1                 0.0000
     15 ****         1.2711   3.7212  -0.6715 O.3            1 S1                 0.0000
     16 ****         1.6888   0.7898  -0.5501 C.2            1 S1                 0.0000
     17 ****         1.3672   1.1114   0.5950 O.2            1 S1                 0.0000
     18 ****        -1.2700  -2.3353   0.7507 N.am           1 S1                 0.0000
     19 ****        -2.6582  -2.5567   0.9681 C.ar           1 S1                 0.0000
     20 ****        -3.6551  -1.5833   0.7005 C.ar           1 S1                 0.0000
     21 ****        -5.0182  -1.8539   0.9552 C.ar           1 S1                 0.0000
     22 ****        -5.4174  -3.0949   1.4914 C.ar           1 S1                 0.0000
     23 ****        -4.4313  -4.0567   1.7750 C.ar           1 S1                 0.0000
     24 ****        -3.0655  -3.7904   1.5221 C.ar           1 S1                 0.0000
     25 ****        -2.2234  -4.8477   1.8631 N.2            1 S1                 0.0000
     26 ****        -3.2459  -5.8596   2.3805 S.2            1 S1                 0.0000
     27 ****        -4.6734  -5.3172   2.3112 N.2            1 S1                 0.0000
     28 ****         1.1807  -1.3417   0.9242 H              1 S1                 0.0000
     29 ****         1.2029  -2.5245  -0.3225 H              1 S1                 0.0000
     30 ****         2.9764   2.0833  -3.4089 H              1 S1                 0.0000
     31 ****         2.8992   3.6725  -1.8880 H              1 S1                 0.0000
     32 ****         3.7988   2.3475   0.5741 H              1 S1                 0.0000
     33 ****         4.2942   3.9114  -0.0887 H              1 S1                 0.0000
     34 ****         2.1019   3.3324   1.8970 H              1 S1                 0.0000
     35 ****         3.1267   4.7650   1.8083 H              1 S1                 0.0000
     36 ****         0.5927   4.9313   0.8838 H              1 S1                 0.0000
     37 ****         1.8829   5.6088  -0.1212 H              1 S1                 0.0000
     38 ****        -0.6494  -2.9260   1.2849 H              1 S1                 0.0000
     39 ****        -3.3950  -0.6113   0.3107 H              1 S1                 0.0000
     40 ****        -5.7611  -1.0998   0.7413 H              1 S1                 0.0000
     41 ****        -6.4600  -3.2992   1.6861 H              1 S1                 0.0000
     42 ****        -0.7853  -0.2418  -1.5928 LP             1 S1                 0.0000
     43 ****        -2.2907  -0.8210  -0.9616 LP             1 S1                 0.0000
     44 ****         1.1644  -2.7507  -2.1021 LP             1 S1                 0.0000
     45 ****         1.7887  -2.3438  -3.6657 LP             1 S1                 0.0000
     46 ****         0.6570   3.0121  -0.3250 LP             1 S1                 0.0000
     47 ****         0.8610   4.1542  -1.4742 LP             1 S1                 0.0000
     48 ****         0.9467   0.4387   1.2038 LP             1 S1                 0.0000
     49 ****         1.5268   2.0451   0.9156 LP             1 S1                 0.0000
     50 ****        -1.2289  -4.9232   1.7898 LP             1 S1                 0.0000
     51 ****        -5.5366  -5.7468   2.5762 LP             1 S1                 0.0000
@<TRIPOS>BOND
    1    1    2 2     
    2    2    3 1     
    3    2   18 am    
    4    3    4 1     
    5    3   28 1     
    6    3   29 1     
    7    4   16 am    
    8    4    5 am    
    9    5    6 2     
   10    5    7 1     
   11    7    8 1     
   12    7    9 2     
   13    9   10 1     
   14    9   30 1     
   15   10   11 1     
   16   10   16 am    
   17   11   15 1     
   18   11   12 1     
   19   11   31 1     
   20   12   13 1     
   21   12   32 1     
   22   12   33 1     
   23   13   14 1     
   24   13   34 1     
   25   13   35 1     
   26   14   15 1     
   27   14   36 1     
   28   14   37 1     
   29   16   17 2     
   30   18   19 1     
   31   18   38 1     
   32   19   24 ar    
   33   19   20 ar    
   34   20   21 ar    
   35   20   39 1     
   36   21   22 ar    
   37   21   40 1     
   38   22   23 ar    
   39   22   41 1     
   40   23   27 1     
   41   23   24 ar    
   42   24   25 1     
   43   25   26 2     
   44   26   27 2     
   45    1   42 1     
   46    1   43 1     
   47    6   44 1     
   48    6   45 1     
   49   15   46 1     
   50   15   47 1     
   51   17   48 1     
   52   17   49 1     
   53   25   50 1     
   54   27   51 1     
@<TRIPOS>SUBSTRUCTURE
      1 S1             1
@<TRIPOS>SET
LONE_PAIRS      STATIC     ATOMS    <user>   **** ""
10 42 43 44 45 46 47 48 49 50 51
DONOR_HYDROGENS      STATIC     ATOMS    <user>   **** ""
1 38
ATOM$BLUE        STATIC     ATOMS    COLORGROUP SYSTEM
10 42 43 44 45 46 47 48 49 50 51
ATOM$RED        STATIC     ATOMS    COLORGROUP SYSTEM
1 38
