#       Name:                AV-unprocessed.smi:3287
#       Creating user name   scv26
#       Creation time:       Fri Mar 27 18:52:15 2020


#       File generated by GOLD software.
#

@<TRIPOS>MOLECULE
AV-unprocessed.smi:3287
    46    47     1
SMALL
NO_CHARGES


@<TRIPOS>ATOM
      1 ****        -3.5053   3.8177  -0.9375 C.3            1 S1                 0.0000
      2 ****        -2.8495   2.4298  -0.8503 C.3            1 S1                 0.0000
      3 ****        -1.3581   2.4752  -1.2350 C.3            1 S1                 0.0000
      4 ****        -0.7290   1.0726  -1.2303 C.3            1 S1                 0.0000
      5 ****        -0.9207   0.3647   0.1273 C.3            1 S1                 0.0000
      6 ****        -0.3845  -1.0149   0.1095 N.4            1 S1                 1.0000
      7 ****         1.0888  -1.1285   0.0380 C.3            1 S1                 0.0000
      8 ****         1.5491  -2.5868   0.2077 C.3            1 S1                 0.0000
      9 ****         1.0001  -3.3667  -0.8373 O.3            1 S1                 0.0000
     10 ****         3.0667  -2.6817   0.2494 C.ar           1 S1                 0.0000
     11 ****         3.8355  -2.6632  -0.9351 C.ar           1 S1                 0.0000
     12 ****         5.2382  -2.7494  -0.8301 C.ar           1 S1                 0.0000
     13 ****         5.8883  -2.8447   0.3493 N.ar           1 S1                 0.0000
     14 ****         5.1491  -2.8583   1.4787 C.ar           1 S1                 0.0000
     15 ****         3.7420  -2.7785   1.4840 C.ar           1 S1                 0.0000
     16 ****        -2.4154   0.3323   0.5060 C.3            1 S1                 0.0000
     17 ****        -3.0627   1.7334   0.5178 C.3            1 S1                 0.0000
     18 ****        -2.6008   2.5651   1.7316 C.3            1 S1                 0.0000
     19 ****        -3.0148   4.5396  -0.2842 H              1 S1                 0.0000
     20 ****        -4.5587   3.7739  -0.6598 H              1 S1                 0.0000
     21 ****        -3.4511   4.2101  -1.9535 H              1 S1                 0.0000
     22 ****        -3.3497   1.8119  -1.5980 H              1 S1                 0.0000
     23 ****        -1.2448   2.9164  -2.2259 H              1 S1                 0.0000
     24 ****        -0.8127   3.1258  -0.5508 H              1 S1                 0.0000
     25 ****        -1.1754   0.4734  -2.0255 H              1 S1                 0.0000
     26 ****         0.3300   1.1656  -1.4708 H              1 S1                 0.0000
     27 ****        -0.3820   0.9184   0.8973 H              1 S1                 0.0000
     28 ****        -0.6807  -1.4672   0.9626 H              1 S1                 0.0000
     29 ****         1.4500  -0.7327  -0.9115 H              1 S1                 0.0000
     30 ****         1.5261  -0.5163   0.8280 H              1 S1                 0.0000
     31 ****         1.1556  -2.9812   1.1458 H              1 S1                 0.0000
     32 ****         1.2480  -4.2689  -0.6996 H              1 S1                 0.0000
     33 ****         3.3668  -2.5849  -1.9051 H              1 S1                 0.0000
     34 ****         5.8541  -2.7396  -1.7172 H              1 S1                 0.0000
     35 ****         5.6951  -2.9338   2.4075 H              1 S1                 0.0000
     36 ****         3.1991  -2.7916   2.4177 H              1 S1                 0.0000
     37 ****        -2.9517  -0.2956  -0.2074 H              1 S1                 0.0000
     38 ****        -2.5458  -0.1435   1.4788 H              1 S1                 0.0000
     39 ****        -4.1362   1.5842   0.6427 H              1 S1                 0.0000
     40 ****        -1.5460   2.8320   1.6728 H              1 S1                 0.0000
     41 ****        -2.7479   2.0121   2.6597 H              1 S1                 0.0000
     42 ****        -3.1710   3.4895   1.8216 H              1 S1                 0.0000
     43 ****        -0.7869  -1.5148  -0.6708 H              1 S1                 0.0000
     44 ****         1.3546  -3.0498  -1.7170 LP             1 S1                 0.0000
     45 ****         0.0034  -3.2858  -0.8309 LP             1 S1                 0.0000
     46 ****         6.8859  -2.9034   0.3851 LP             1 S1                 0.0000
@<TRIPOS>BOND
    1    1    2 1     
    2    1   19 1     
    3    1   20 1     
    4    1   21 1     
    5    2   17 1     
    6    2    3 1     
    7    2   22 1     
    8    3    4 1     
    9    3   23 1     
   10    3   24 1     
   11    4    5 1     
   12    4   25 1     
   13    4   26 1     
   14    5    6 1     
   15    5   16 1     
   16    5   27 1     
   17    6    7 1     
   18    6   28 1     
   19    6   43 1     
   20    7    8 1     
   21    7   29 1     
   22    7   30 1     
   23    8    9 1     
   24    8   10 1     
   25    8   31 1     
   26    9   32 1     
   27   10   15 ar    
   28   10   11 ar    
   29   11   12 ar    
   30   11   33 1     
   31   12   13 ar    
   32   12   34 1     
   33   13   14 ar    
   34   14   15 ar    
   35   14   35 1     
   36   15   36 1     
   37   16   17 1     
   38   16   37 1     
   39   16   38 1     
   40   17   18 1     
   41   17   39 1     
   42   18   40 1     
   43   18   41 1     
   44   18   42 1     
   45    9   44 1     
   46    9   45 1     
   47   13   46 1     
@<TRIPOS>SUBSTRUCTURE
      1 S1             1
@<TRIPOS>SET
LONE_PAIRS      STATIC     ATOMS    <user>   **** ""
3 44 45 46
DONOR_HYDROGENS      STATIC     ATOMS    <user>   **** ""
3 28 43 32
ATOM$BLUE        STATIC     ATOMS    COLORGROUP SYSTEM
3 44 45 46
ATOM$RED        STATIC     ATOMS    COLORGROUP SYSTEM
3 28 43 32
