AV-unprocessed.smi:1346|AV-procd|sdf|5513|dock1
  -GOLD-   22720 5 93D 1   1.00000     0.00000
 Structure written by MMmdl.
 47 48  0  0  0  0  0  0  0  0  1 V2000
  148.6958  140.1274  154.2955 C   0  0  0  0  0  0  0  0  0  0  0  0
  149.0013  138.7029  154.6591 C   0  0  0  0  0  0  0  0  0  0  0  0
  148.0029  137.8621  154.8705 N   0  0  0  0  0  0  0  0  0  0  0  0
  148.5947  136.6346  155.1820 O   0  0  0  0  0  0  0  0  0  0  0  0
  149.9428  136.7865  155.1474 C   0  0  0  0  0  0  0  0  0  0  0  0
  150.7567  135.5744  155.4512 C   0  0  0  0  0  0  0  0  0  0  0  0
  150.2700  138.0753  154.8252 C   0  0  0  0  0  0  0  0  0  0  0  0
  151.6391  138.6877  154.6763 C   0  0  0  0  0  0  0  0  0  0  0  0
  151.9298  139.5963  155.8709 C   0  0  0  0  0  0  0  0  0  0  0  0
  152.9368  139.4109  156.5543 O   0  0  0  0  0  0  0  0  0  0  0  0
  151.0413  140.5722  156.1123 N   0  0  0  0  0  0  0  0  0  0  0  0
  151.1223  141.5333  157.2063 C   0  0  0  0  0  0  0  0  0  0  0  0
  151.6374  140.8845  158.4994 C   0  0  0  0  0  0  0  0  0  0  0  0
  151.5749  141.8326  159.5540 O   0  0  0  0  0  0  0  0  0  0  0  0
  152.7309  142.6558  159.6662 C   0  0  1  0  0  0  0  0  0  0  0  0
  152.6628  143.7264  158.5618 C   0  0  0  0  0  0  0  0  0  0  0  0
  151.4966  144.7044  158.7805 C   0  0  0  0  0  0  0  0  0  0  0  0
  151.5632  145.3475  160.1738 C   0  0  0  0  0  0  0  0  0  0  0  0
  151.6085  144.2800  161.2786 C   0  0  0  0  0  0  0  0  0  0  0  0
  152.7810  143.3005  161.0711 C   0  0  1  0  0  0  0  0  0  0  0  0
  152.8527  142.2540  162.1939 C   0  0  0  0  0  0  0  0  0  0  0  0
  149.5463  140.6053  153.8100 H   0  0  0  0  0  0  0  0  0  0  0  0
  148.4481  140.7111  155.1823 H   0  0  0  0  0  0  0  0  0  0  0  0
  147.8508  140.1883  153.6089 H   0  0  0  0  0  0  0  0  0  0  0  0
  151.7920  135.7085  155.1373 H   0  0  0  0  0  0  0  0  0  0  0  0
  150.3601  134.7016  154.9323 H   0  0  0  0  0  0  0  0  0  0  0  0
  150.7522  135.3650  156.5207 H   0  0  0  0  0  0  0  0  0  0  0  0
  152.4120  137.9223  154.5948 H   0  0  0  0  0  0  0  0  0  0  0  0
  151.7112  139.2820  153.7650 H   0  0  0  0  0  0  0  0  0  0  0  0
  150.2426  140.6485  155.4993 H   0  0  0  0  0  0  0  0  0  0  0  0
  151.7681  142.3645  156.9189 H   0  0  0  0  0  0  0  0  0  0  0  0
  150.1299  141.9533  157.3711 H   0  0  0  0  0  0  0  0  0  0  0  0
  151.0480  139.9993  158.7428 H   0  0  0  0  0  0  0  0  0  0  0  0
  152.6696  140.5587  158.3644 H   0  0  0  0  0  0  0  0  0  0  0  0
  153.6419  142.0730  159.5133 H   0  0  0  0  0  0  0  0  0  0  0  0
  153.5997  144.2845  158.5439 H   0  0  0  0  0  0  0  0  0  0  0  0
  152.5719  143.2492  157.5854 H   0  0  0  0  0  0  0  0  0  0  0  0
  151.5125  145.4785  158.0130 H   0  0  0  0  0  0  0  0  0  0  0  0
  150.5487  144.1774  158.6667 H   0  0  0  0  0  0  0  0  0  0  0  0
  152.4481  145.9816  160.2418 H   0  0  0  0  0  0  0  0  0  0  0  0
  150.7029  146.0006  160.3230 H   0  0  0  0  0  0  0  0  0  0  0  0
  151.6985  144.7673  162.2500 H   0  0  0  0  0  0  0  0  0  0  0  0
  150.6654  143.7320  161.2960 H   0  0  0  0  0  0  0  0  0  0  0  0
  153.7023  143.8826  161.1244 H   0  0  0  0  0  0  0  0  0  0  0  0
  151.9445  141.6526  162.2373 H   0  0  0  0  0  0  0  0  0  0  0  0
  152.9782  142.7310  163.1661 H   0  0  0  0  0  0  0  0  0  0  0  0
  153.6947  141.5770  162.0474 H   0  0  0  0  0  0  0  0  0  0  0  0
  1  2  1  0  0  0  0
  1 22  1  0  0  0  0
  1 23  1  0  0  0  0
  1 24  1  0  0  0  0
  2  7  1  0  0  0  0
  2  3  2  0  0  0  0
  3  4  1  0  0  0  0
  4  5  1  0  0  0  0
  5  6  1  0  0  0  0
  5  7  2  0  0  0  0
  6 25  1  0  0  0  0
  6 26  1  0  0  0  0
  6 27  1  0  0  0  0
  7  8  1  0  0  0  0
  8  9  1  0  0  0  0
  8 28  1  0  0  0  0
  8 29  1  0  0  0  0
  9 10  2  0  0  0  0
  9 11  1  0  0  0  0
 11 12  1  0  0  0  0
 11 30  1  0  0  0  0
 12 13  1  0  0  0  0
 12 31  1  0  0  0  0
 12 32  1  0  0  0  0
 13 14  1  0  0  0  0
 13 33  1  0  0  0  0
 13 34  1  0  0  0  0
 14 15  1  0  0  0  0
 15 20  1  0  0  0  0
 15 16  1  0  0  0  0
 15 35  1  0  0  0  0
 16 17  1  0  0  0  0
 16 36  1  0  0  0  0
 16 37  1  0  0  0  0
 17 18  1  0  0  0  0
 17 38  1  0  0  0  0
 17 39  1  0  0  0  0
 18 19  1  0  0  0  0
 18 40  1  0  0  0  0
 18 41  1  0  0  0  0
 19 20  1  0  0  0  0
 19 42  1  0  0  0  0
 19 43  1  0  0  0  0
 20 21  1  0  0  0  0
 20 44  1  0  0  0  0
 21 45  1  0  0  0  0
 21 46  1  0  0  0  0
 21 47  1  0  0  0  0
M  END
> <s_m_source_file>
AV-unprocessed.smi

> <i_m_source_file_index>
1346

> <i_lp_mmshare_version>
43012

> <i_f3d_flags>
0

> <s_epik_input>
W0NIM11jMW5vYyhbQ0gzXSljMVtDSDJdQyg9TylbTkhdW0NIMl1bQ0gyXU9bQ0BASF0yW0NIMl1bQ0gyXVtDSDJdW0NIMl1bQ0BIXTJbQ0gzXQ==

> <s_epik_cmdline>
J2VwaWtfcHl0aG9uJywgJy1waCcsICc3LjAnLCAnLXRuJywgJzgnLCAnLW1hJywgJzIwMCcsICctbWV0YWxfYmluZGluZycsICctaW1hZScsICc8aW5maWxlLm1hZT4nLCAnLW9tYWUnLCAnPG91dGZpbGUubWFlPic=

> <r_lp_tautomer_probability>
1

> <r_epik_Ionization_Penalty>
3.26154e-08

> <r_epik_Ionization_Penalty_Charging>
0

> <r_epik_Ionization_Penalty_Neutral>
3.26154e-08

> <r_epik_State_Penalty>
-0

> <r_epik_Charging_Adjusted_Penalty>
0

> <i_epik_Tot_Q>
0

> <i_epik_Tot_abs_Q>
0

> <r_epik_Metal_State_Penalty>
-0

> <b_epik_Metal_Only>
0

> <s_lp_Force_Field>
OPLS_2005

> <r_lp_Energy>
6.45158

> <b_lp_Chiralities_Consistent>
1

> <s_lp_Variant>
AV-unprocessed.smi:1346-2

> <Gold.Version>
5.8.1

> <Gold.Id.Protein>
6NUR|6NUR_protein|mol2

> <Gold.PLP.Fitness>
51.0195

> <Gold.PLP.PLP>
-49.1228

> <Gold.PLP.part.hbond>
-1.0000

> <Gold.PLP.part.metal>
0.0000

> <Gold.PLP.part.buried>
-5.6495

> <Gold.PLP.part.nonpolar>
-43.2298

> <Gold.PLP.part.repulsive>
0.3698

> <Gold.PLP.ligand.clash>
0.0000

> <Gold.PLP.ligand.torsion>
0.6521

> <Gold.PLP.Chemscore.Hbond>
1.0000

> <Gold.PLP.Chemscore.CHOScore>
0.0000

> <Gold.PLP.Chemscore.Metal>
0.0000

> <Gold.Chemscore.Hbonds>
donor molecule, donor type, donor heavy atom, donor atom, acceptor molecule, acceptor atom, score
      P1  H  7997  8009       L1    10  1.00

> <Gold.PLP.Chemscore.Internal.Correction>
0.2008

> <Gold.Rescore>
     Score         DG    S(hbond)    S(metal)    S(lipo)     H(rot)  DE(clash)    DE(int)     intcor
     17.77     -20.09       1.00        0.00     134.40       1.74       0.08       2.24       ----

> <Gold.Chemscore.Fitness>
17.7734

> <Gold.Chemscore.DG>
-20.0947

> <Gold.Chemscore.ZeroCoef>
-5.4800

> <Gold.Chemscore.Hbond>
0.9975

> <Gold.Chemscore.Metal>
0.0000

> <Gold.Chemscore.Lipo>
134.4030

> <Gold.Chemscore.Internal_Hbond>
0.0000

> <Gold.Chemscore.DEClash>
0.0804

> <Gold.Chemscore.DEInternal>
2.2409

> <Gold.Chemscore.Rot>
1.7352

> <Gold.Chemscore.Internal.Correction>
   9.000000E+99

> <Gold.Chemscore.Hbonds>
donor molecule, donor type, donor heavy atom, donor atom, acceptor molecule, acceptor atom, score
      P1  H  7997  8009       L1    10  0.97

> <Gold.Chemscore.Hbond.Weighted>
-3.3316

> <Gold.Chemscore.Metal.Weighted>
-0.0000

> <Gold.Chemscore.Lipo.Weighted>
-15.7251

> <Gold.Chemscore.Internal_Hbond.Weighted>
0.0000

> <Gold.Chemscore.DEClash.Weighted>
0.0804

> <Gold.Chemscore.DEInternal.Weighted>
2.2409

> <Gold.Chemscore.Rot.Weighted>
4.4420

> <Gold.Chemscore.Internal.Correction.Weighted>
   9.000000E+99

> <Gold.Protein.RotatedTorsions>
[ 6907 6896 6895 6894 ] final   97.84 input  -60.11 | X-H torsion
[ 7974 7965 7964 7962 ] final  -50.01 input  175.53 | X-H torsion
[ 8008 7997 7996 7995 ] final -175.27 input   59.86 | X-H torsion
[ 10167 10162 10161 10158 ] final  125.69 input  -65.29 | X-H torsion
[ 10718 10713 10712 10709 ] final   50.40 input   66.30 | X-H torsion
[ 10763 10752 10751 10750 ] final  -73.02 input  -60.55 | X-H torsion
[ 11005 11000 10999 10996 ] final  -86.73 input  -57.11 | X-H torsion

> <Gold.Protein.ActiveResidues>
 VAL166  LYS551  ARG553  GLY616  TRP617  ASP618  TYR619  PRO620  LYS621  CYS622 
 ASP623  PHE694  ASN695  SER759  ASP760  ASP761  ALA762  ILE779  LEU786  VAL792 
 PHE793  MET794  SER795  GLU796  ALA797  LYS798  CYS799  TRP800  GLU811  SER814 

> <Gold.Protein.RotatedAtoms>
  152.5418  134.0672  159.8177 H   0  0  0  0  0  0  0  0  0  0  0  0  # atno 6907 bound_to 6896
  151.0792  133.5396  159.2629 H   0  0  0  0  0  0  0  0  0  0  0  0  # atno 6908 bound_to 6896
  151.2230  135.0534  159.9011 H   0  0  0  0  0  0  0  0  0  0  0  0  # atno 6909 bound_to 6896
  145.9344  140.7720  142.9583 H   0  0  0  0  0  0  0  0  0  0  0  0  # atno 7974 bound_to 7965
  155.9805  140.1181  157.0730 H   0  0  0  0  0  0  0  0  0  0  0  0  # atno 8008 bound_to 7997
  154.4181  140.1145  156.5497 H   0  0  0  0  0  0  0  0  0  0  0  0  # atno 8009 bound_to 7997
  155.6477  140.3473  155.4739 H   0  0  0  0  0  0  0  0  0  0  0  0  # atno 8010 bound_to 7997
  139.5672  144.6918  151.3879 H   0  0  0  0  0  0  0  0  0  0  0  0  # atno 10167 bound_to 10162
  157.4881  130.8358  149.8170 H   0  0  0  0  0  0  0  0  0  0  0  0  # atno 10718 bound_to 10713
  154.4537  135.5911  153.6209 H   0  0  0  0  0  0  0  0  0  0  0  0  # atno 10763 bound_to 10752
  152.9816  135.6027  154.3573 H   0  0  0  0  0  0  0  0  0  0  0  0  # atno 10764 bound_to 10752
  154.3437  135.2841  155.2388 H   0  0  0  0  0  0  0  0  0  0  0  0  # atno 10765 bound_to 10752
  141.1626  133.7471  156.9204 H   0  0  0  0  0  0  0  0  0  0  0  0  # atno 11005 bound_to 11000
  144.6769  140.2179  143.7369 LP  0  0  0  0  0  0  0  0  0  0  0  0  # atno 17320 bound_to 7965
  145.8383  139.2118  143.1842 LP  0  0  0  0  0  0  0  0  0  0  0  0  # atno 17321 bound_to 7965
  140.6955  143.7758  150.7321 LP  0  0  0  0  0  0  0  0  0  0  0  0  # atno 17342 bound_to 10162
  140.1253  143.4574  152.2288 LP  0  0  0  0  0  0  0  0  0  0  0  0  # atno 17343 bound_to 10162
  156.0158  130.3814  150.2116 LP  0  0  0  0  0  0  0  0  0  0  0  0  # atno 17370 bound_to 10713
  157.0304  131.0005  151.3314 LP  0  0  0  0  0  0  0  0  0  0  0  0  # atno 17371 bound_to 10713
  140.1455  134.9265  157.2524 LP  0  0  0  0  0  0  0  0  0  0  0  0  # atno 17394 bound_to 11000
  140.2785  134.3378  155.7350 LP  0  0  0  0  0  0  0  0  0  0  0  0  # atno 17395 bound_to 11000

$$$$
