AV-unprocessed.smi:1644|AV-procd|sdf|6598|dock6
  -GOLD-   22720 7303D 1   1.00000     0.00000
 Structure written by MMmdl.
 49 51  0  0  0  0  0  0  0  0  3 V2000
  147.5818  134.4312  162.3996 C   0  0  0  0  0  0  0  0  0  0  0  0
  148.0822  135.8687  162.2196 C   0  0  0  0  0  0  0  0  0  0  0  0
  147.6133  136.4939  160.8956 C   0  0  0  0  0  0  0  0  0  0  0  0
  148.5110  136.1249  159.6952 C   0  0  2  0  0  0  0  0  0  0  0  0
  149.9015  136.4362  159.9557 N   0  5  0  0  0  0  0  0  0  0  0  0
  150.3322  137.3162  159.0225 C   0  0  0  0  0  0  0  0  0  0  0  0
  151.4645  137.7881  158.9259 O   0  0  0  0  0  0  0  0  0  0  0  0
  149.3445  137.6312  158.1623 N   0  0  0  0  0  0  0  0  0  0  0  0
  149.4659  138.5547  157.0281 C   0  0  0  0  0  0  0  0  0  0  0  0
  150.7221  138.2831  156.1752 C   0  0  1  0  0  0  0  0  0  0  0  0
  150.3182  138.2065  154.8224 O   0  0  0  0  0  0  0  0  0  0  0  0
  151.8223  139.3521  156.3463 C   0  0  0  0  0  0  0  0  0  0  0  0
  151.2829  140.7056  156.5342 N   0  0  0  0  0  0  0  0  0  0  0  0
  150.4109  141.4067  155.7610 C   0  0  0  0  0  0  0  0  0  0  0  0
  150.2222  142.6192  156.3516 N   0  3  0  0  0  0  0  0  0  0  0  0
  150.9848  142.6923  157.5194 C   0  0  0  0  0  0  0  0  0  0  0  0
  151.1255  143.7128  158.4525 C   0  0  0  0  0  0  0  0  0  0  0  0
  151.9868  143.4722  159.5470 C   0  0  0  0  0  0  0  0  0  0  0  0
  152.1647  144.5674  160.5849 C   0  0  0  0  0  0  0  0  0  0  0  0
  152.6711  142.2363  159.6794 C   0  0  0  0  0  0  0  0  0  0  0  0
  153.5909  141.9858  160.8622 C   0  0  0  0  0  0  0  0  0  0  0  0
  152.5152  141.2116  158.7191 C   0  0  0  0  0  0  0  0  0  0  0  0
  151.6663  141.4663  157.6446 C   0  0  0  0  0  0  0  0  0  0  0  0
  148.2207  136.9804  158.4786 C   0  0  0  0  0  0  0  0  0  0  0  0
  147.1330  137.0345  157.9035 O   0  0  0  0  0  0  0  0  0  0  0  0
  147.9317  134.0136  163.3438 H   0  0  0  0  0  0  0  0  0  0  0  0
  147.9399  133.7861  161.5969 H   0  0  0  0  0  0  0  0  0  0  0  0
  146.4922  134.3919  162.4019 H   0  0  0  0  0  0  0  0  0  0  0  0
  147.7356  136.4740  163.0580 H   0  0  0  0  0  0  0  0  0  0  0  0
  149.1718  135.8788  162.2625 H   0  0  0  0  0  0  0  0  0  0  0  0
  146.5942  136.1568  160.6999 H   0  0  0  0  0  0  0  0  0  0  0  0
  147.5547  137.5787  161.0022 H   0  0  0  0  0  0  0  0  0  0  0  0
  148.3612  135.0795  159.4222 H   0  0  0  0  0  0  0  0  0  0  0  0
  148.5730  138.4620  156.4071 H   0  0  0  0  0  0  0  0  0  0  0  0
  149.4678  139.5893  157.3756 H   0  0  0  0  0  0  0  0  0  0  0  0
  151.1326  137.3078  156.4395 H   0  0  0  0  0  0  0  0  0  0  0  0
  151.0767  138.0036  154.2962 H   0  0  0  0  0  0  0  0  0  0  0  0
  152.4849  139.1080  157.1766 H   0  0  0  0  0  0  0  0  0  0  0  0
  152.4522  139.3879  155.4569 H   0  0  0  0  0  0  0  0  0  0  0  0
  149.9533  141.0629  154.8445 H   0  0  0  0  0  0  0  0  0  0  0  0
  150.5992  144.6500  158.3466 H   0  0  0  0  0  0  0  0  0  0  0  0
  153.2137  144.8536  160.6645 H   0  0  0  0  0  0  0  0  0  0  0  0
  151.8230  144.2270  161.5628 H   0  0  0  0  0  0  0  0  0  0  0  0
  151.5958  145.4607  160.3247 H   0  0  0  0  0  0  0  0  0  0  0  0
  154.0231  140.9852  160.8260 H   0  0  0  0  0  0  0  0  0  0  0  0
  153.0432  142.0778  161.8005 H   0  0  0  0  0  0  0  0  0  0  0  0
  154.4118  142.7033  160.8669 H   0  0  0  0  0  0  0  0  0  0  0  0
  153.0319  140.2689  158.8231 H   0  0  0  0  0  0  0  0  0  0  0  0
  149.6168  143.3410  155.9823 H   0  0  0  0  0  0  0  0  0  0  0  0
  1  2  1  0  0  0  0
  1 26  1  0  0  0  0
  1 27  1  0  0  0  0
  1 28  1  0  0  0  0
  2  3  1  0  0  0  0
  2 29  1  0  0  0  0
  2 30  1  0  0  0  0
  3  4  1  0  0  0  0
  3 31  1  0  0  0  0
  3 32  1  0  0  0  0
  4 24  1  0  0  0  0
  4  5  1  0  0  0  0
  4 33  1  0  0  0  0
  5  6  1  0  0  0  0
  6  7  2  0  0  0  0
  6  8  1  0  0  0  0
  8  9  1  0  0  0  0
  8 24  1  0  0  0  0
  9 10  1  0  0  0  0
  9 34  1  0  0  0  0
  9 35  1  0  0  0  0
 10 11  1  0  0  0  0
 10 12  1  0  0  0  0
 10 36  1  0  0  0  0
 11 37  1  0  0  0  0
 12 13  1  0  0  0  0
 12 38  1  0  0  0  0
 12 39  1  0  0  0  0
 13 23  1  0  0  0  0
 13 14  1  0  0  0  0
 14 15  2  0  0  0  0
 14 40  1  0  0  0  0
 15 16  1  0  0  0  0
 15 49  1  0  0  0  0
 16 23  2  0  0  0  0
 16 17  1  0  0  0  0
 17 18  2  0  0  0  0
 17 41  1  0  0  0  0
 18 19  1  0  0  0  0
 18 20  1  0  0  0  0
 19 42  1  0  0  0  0
 19 43  1  0  0  0  0
 19 44  1  0  0  0  0
 20 21  1  0  0  0  0
 20 22  2  0  0  0  0
 21 45  1  0  0  0  0
 21 46  1  0  0  0  0
 21 47  1  0  0  0  0
 22 23  1  0  0  0  0
 22 48  1  0  0  0  0
 24 25  2  0  0  0  0
M  CHG  1   5  -1
M  CHG  1  15   1
M  END
> <s_m_source_file>
AV-unprocessed.smi

> <i_m_source_file_index>
1644

> <i_lp_mmshare_version>
43012

> <i_f3d_flags>
0

> <s_epik_input>
W0NIM11bQ0gyXVtDSDJdW0NAQEhdMVtOSF1DKD1PKU4oQzE9TylbQ0gyXVtDQEhdKFtPSF0pW0NIMl1uKFtjSF1uMiljKGMyMylbY0hdYyhbQ0gzXSljKFtjSF0zKVtDSDNd

> <s_epik_cmdline>
J2VwaWtfcHl0aG9uJywgJy1waCcsICc3LjAnLCAnLXRuJywgJzgnLCAnLW1hJywgJzIwMCcsICctbWV0YWxfYmluZGluZycsICctaW1hZScsICc8aW5maWxlLm1hZT4nLCAnLW9tYWUnLCAnPG91dGZpbGUubWFlPic=

> <r_lp_tautomer_probability>
1

> <r_epik_Ionization_Penalty>
6.86868

> <r_epik_Ionization_Penalty_Charging>
6.86868

> <r_epik_Ionization_Penalty_Neutral>
5.84798e-07

> <r_epik_State_Penalty>
6.92818

> <r_epik_Charging_Adjusted_Penalty>
13.7969

> <i_epik_Tot_Q>
0

> <i_epik_Tot_abs_Q>
2

> <r_epik_Metal_State_Penalty>
2.98017

> <b_epik_Metal_Only>
1

> <s_lp_Force_Field>
OPLS_2005

> <r_lp_Energy>
19.1239

> <b_lp_Chiralities_Consistent>
1

> <s_lp_Variant>
AV-unprocessed.smi:1644-15

> <Gold.Version>
5.8.1

> <Gold.Id.Protein>
6NUR|6NUR_protein|mol2

> <Gold.PLP.Fitness>
58.7554

> <Gold.PLP.PLP>
-49.2767

> <Gold.PLP.part.hbond>
-2.0854

> <Gold.PLP.part.metal>
0.0000

> <Gold.PLP.part.buried>
-6.4262

> <Gold.PLP.part.nonpolar>
-41.1339

> <Gold.PLP.part.repulsive>
0.1112

> <Gold.PLP.ligand.clash>
0.0000

> <Gold.PLP.ligand.torsion>
1.3054

> <Gold.PLP.Chemscore.Hbond>
4.0000

> <Gold.PLP.Chemscore.CHOScore>
0.0000

> <Gold.PLP.Chemscore.Metal>
0.0000

> <Gold.Chemscore.Hbonds>
donor molecule, donor type, donor heavy atom, donor atom, acceptor molecule, acceptor atom, score
      L1  H    15    49       P1  8028  2.00
      P1  H  6896  6908       L1     5  2.00

> <Gold.PLP.Chemscore.Internal.Correction>
0.0895

> <Gold.Rescore>
     Score         DG    S(hbond)    S(metal)    S(lipo)     H(rot)  DE(clash)    DE(int)     intcor
     15.98     -18.87       1.89        0.00     120.04       2.72       0.03       2.87       ----

> <Gold.Chemscore.Fitness>
15.9790

> <Gold.Chemscore.DG>
-18.8724

> <Gold.Chemscore.ZeroCoef>
-5.4800

> <Gold.Chemscore.Hbond>
1.8930

> <Gold.Chemscore.Metal>
0.0000

> <Gold.Chemscore.Lipo>
120.0397

> <Gold.Chemscore.Internal_Hbond>
0.0000

> <Gold.Chemscore.DEClash>
0.0272

> <Gold.Chemscore.DEInternal>
2.8662

> <Gold.Chemscore.Rot>
2.7245

> <Gold.Chemscore.Internal.Correction>
   9.000000E+99

> <Gold.Chemscore.Hbonds>
donor molecule, donor type, donor heavy atom, donor atom, acceptor molecule, acceptor atom, score
      L1  H    15    49       P1  8028  0.98
      P1  H  6896  6908       L1     5  0.31

> <Gold.Chemscore.Hbond.Weighted>
-6.3226

> <Gold.Chemscore.Metal.Weighted>
-0.0000

> <Gold.Chemscore.Lipo.Weighted>
-14.0446

> <Gold.Chemscore.Internal_Hbond.Weighted>
0.0000

> <Gold.Chemscore.DEClash.Weighted>
0.0272

> <Gold.Chemscore.DEInternal.Weighted>
2.8662

> <Gold.Chemscore.Rot.Weighted>
6.9748

> <Gold.Chemscore.Internal.Correction.Weighted>
   9.000000E+99

> <Gold.Protein.RotatedTorsions>
[ 6907 6896 6895 6894 ] final -174.72 input  -60.11 | X-H torsion
[ 7974 7965 7964 7962 ] final   64.00 input  175.53 | X-H torsion
[ 8008 7997 7996 7995 ] final  -37.04 input   59.86 | X-H torsion
[ 10167 10162 10161 10158 ] final  -54.44 input  -65.29 | X-H torsion
[ 10718 10713 10712 10709 ] final  -40.23 input   66.30 | X-H torsion
[ 10763 10752 10751 10750 ] final   33.30 input  -60.55 | X-H torsion
[ 11005 11000 10999 10996 ] final  -68.49 input  -57.11 | X-H torsion

> <Gold.Protein.ActiveResidues>
 VAL166  LYS551  ARG553  GLY616  TRP617  ASP618  TYR619  PRO620  LYS621  CYS622 
 ASP623  PHE694  ASN695  SER759  ASP760  ASP761  ALA762  ILE779  LEU786  VAL792 
 PHE793  MET794  SER795  GLU796  ALA797  LYS798  CYS799  TRP800  GLU811  SER814 

> <Gold.Protein.RotatedAtoms>
  151.5769  133.3382  159.3000 H   0  0  0  0  0  0  0  0  0  0  0  0  # atno 6907 bound_to 6896
  150.8335  134.7602  159.6885 H   0  0  0  0  0  0  0  0  0  0  0  0  # atno 6908 bound_to 6896
  152.4415  134.5587  159.9939 H   0  0  0  0  0  0  0  0  0  0  0  0  # atno 6909 bound_to 6896
  145.8553  139.3280  143.0851 H   0  0  0  0  0  0  0  0  0  0  0  0  # atno 7974 bound_to 7965
  154.4061  140.1614  156.2472 H   0  0  0  0  0  0  0  0  0  0  0  0  # atno 8008 bound_to 7997
  155.9150  140.3425  155.6105 H   0  0  0  0  0  0  0  0  0  0  0  0  # atno 8009 bound_to 7997
  155.7290  140.0778  157.2288 H   0  0  0  0  0  0  0  0  0  0  0  0  # atno 8010 bound_to 7997
  140.6430  143.2519  151.4936 H   0  0  0  0  0  0  0  0  0  0  0  0  # atno 10167 bound_to 10162
  156.2837  130.4220  149.8310 H   0  0  0  0  0  0  0  0  0  0  0  0  # atno 10718 bound_to 10713
  153.0219  135.6390  154.1489 H   0  0  0  0  0  0  0  0  0  0  0  0  # atno 10763 bound_to 10752
  154.1223  135.2846  155.3207 H   0  0  0  0  0  0  0  0  0  0  0  0  # atno 10764 bound_to 10752
  154.6254  135.5510  153.7684 H   0  0  0  0  0  0  0  0  0  0  0  0  # atno 10765 bound_to 10752
  141.1533  133.6742  156.6453 H   0  0  0  0  0  0  0  0  0  0  0  0  # atno 11005 bound_to 11000
  145.9310  140.9048  143.0356 LP  0  0  0  0  0  0  0  0  0  0  0  0  # atno 17320 bound_to 7965
  144.6728  140.1419  143.7436 LP  0  0  0  0  0  0  0  0  0  0  0  0  # atno 17321 bound_to 7965
  139.5640  144.2087  152.1736 LP  0  0  0  0  0  0  0  0  0  0  0  0  # atno 17342 bound_to 10162
  140.1364  144.5242  150.6771 LP  0  0  0  0  0  0  0  0  0  0  0  0  # atno 17343 bound_to 10162
  156.5748  130.8440  151.3367 LP  0  0  0  0  0  0  0  0  0  0  0  0  # atno 17370 bound_to 10713
  157.7322  130.9711  150.1917 LP  0  0  0  0  0  0  0  0  0  0  0  0  # atno 17371 bound_to 10713
  140.3362  134.7888  157.4363 LP  0  0  0  0  0  0  0  0  0  0  0  0  # atno 17394 bound_to 11000
  140.0976  134.5516  155.8383 LP  0  0  0  0  0  0  0  0  0  0  0  0  # atno 17395 bound_to 11000

$$$$
