AV-unprocessed.smi:905|AV-procd|sdf|4099|dock5
  -GOLD-   22720 1593D 1   1.00000     0.00000
 Structure written by MMmdl.
 37 38  0  0  0  0  0  0  0  0  1 V2000
  144.3904  145.1688  153.5953 N   0  0  0  0  0  0  0  0  0  0  0  0
  144.9743  144.0227  154.1592 C   0  0  0  0  0  0  0  0  0  0  0  0
  144.8001  143.6801  155.4283 N   0  0  0  0  0  0  0  0  0  0  0  0
  145.5429  142.4966  155.5473 O   0  0  0  0  0  0  0  0  0  0  0  0
  146.0923  142.2813  154.3277 C   0  0  0  0  0  0  0  0  0  0  0  0
  146.9160  141.0558  154.1153 C   0  0  0  0  0  0  0  0  0  0  0  0
  148.3877  141.3838  153.8140 C   0  0  0  0  0  0  0  0  0  0  0  0
  148.9947  142.1722  154.8805 N   0  0  0  0  0  0  0  0  0  0  0  0
  150.0875  141.8128  155.5684 C   0  0  0  0  0  0  0  0  0  0  0  0
  150.7063  140.7655  155.3786 O   0  0  0  0  0  0  0  0  0  0  0  0
  150.4221  142.7272  156.4898 N   0  0  0  0  0  0  0  0  0  0  0  0
  151.5577  142.6222  157.4016 C   0  0  0  0  0  0  0  0  0  0  0  0
  151.3550  141.4562  158.3919 C   0  0  0  0  0  0  0  0  0  0  0  0
  152.5071  141.3740  159.4064 C   0  0  0  0  0  0  0  0  0  0  0  0
  152.6927  142.7055  160.1509 C   0  0  0  0  0  0  0  0  0  0  0  0
  152.8985  143.8679  159.1667 C   0  0  0  0  0  0  0  0  0  0  0  0
  151.7436  143.9526  158.1557 C   0  0  0  0  0  0  0  0  0  0  0  0
  145.7562  143.1927  153.4178 N   0  0  0  0  0  0  0  0  0  0  0  0
  144.5447  145.3938  152.6231 H   0  0  0  0  0  0  0  0  0  0  0  0
  143.8016  145.7693  154.1538 H   0  0  0  0  0  0  0  0  0  0  0  0
  146.8449  140.4294  155.0056 H   0  0  0  0  0  0  0  0  0  0  0  0
  146.4756  140.4856  153.2965 H   0  0  0  0  0  0  0  0  0  0  0  0
  148.9596  140.4671  153.6592 H   0  0  0  0  0  0  0  0  0  0  0  0
  148.4584  141.9543  152.8872 H   0  0  0  0  0  0  0  0  0  0  0  0
  148.5548  143.0523  155.1065 H   0  0  0  0  0  0  0  0  0  0  0  0
  149.8507  143.5556  156.5690 H   0  0  0  0  0  0  0  0  0  0  0  0
  152.4626  142.4359  156.8199 H   0  0  0  0  0  0  0  0  0  0  0  0
  150.4122  141.5840  158.9256 H   0  0  0  0  0  0  0  0  0  0  0  0
  151.2782  140.5114  157.8524 H   0  0  0  0  0  0  0  0  0  0  0  0
  152.3165  140.5721  160.1205 H   0  0  0  0  0  0  0  0  0  0  0  0
  153.4308  141.1133  158.8882 H   0  0  0  0  0  0  0  0  0  0  0  0
  151.8175  142.9024  160.7714 H   0  0  0  0  0  0  0  0  0  0  0  0
  153.5436  142.6369  160.8294 H   0  0  0  0  0  0  0  0  0  0  0  0
  152.9839  144.8074  159.7133 H   0  0  0  0  0  0  0  0  0  0  0  0
  153.8407  143.7334  158.6337 H   0  0  0  0  0  0  0  0  0  0  0  0
  151.9354  144.7604  157.4481 H   0  0  0  0  0  0  0  0  0  0  0  0
  150.8235  144.2139  158.6808 H   0  0  0  0  0  0  0  0  0  0  0  0
  1  2  1  0  0  0  0
  1 19  1  0  0  0  0
  1 20  1  0  0  0  0
  2 18  1  0  0  0  0
  2  3  2  0  0  0  0
  3  4  1  0  0  0  0
  4  5  1  0  0  0  0
  5  6  1  0  0  0  0
  5 18  2  0  0  0  0
  6  7  1  0  0  0  0
  6 21  1  0  0  0  0
  6 22  1  0  0  0  0
  7  8  1  0  0  0  0
  7 23  1  0  0  0  0
  7 24  1  0  0  0  0
  8  9  1  0  0  0  0
  8 25  1  0  0  0  0
  9 10  2  0  0  0  0
  9 11  1  0  0  0  0
 11 12  1  0  0  0  0
 11 26  1  0  0  0  0
 12 17  1  0  0  0  0
 12 13  1  0  0  0  0
 12 27  1  0  0  0  0
 13 14  1  0  0  0  0
 13 28  1  0  0  0  0
 13 29  1  0  0  0  0
 14 15  1  0  0  0  0
 14 30  1  0  0  0  0
 14 31  1  0  0  0  0
 15 16  1  0  0  0  0
 15 32  1  0  0  0  0
 15 33  1  0  0  0  0
 16 17  1  0  0  0  0
 16 34  1  0  0  0  0
 16 35  1  0  0  0  0
 17 36  1  0  0  0  0
 17 37  1  0  0  0  0
M  END
> <s_m_source_file>
AV-unprocessed.smi

> <i_m_source_file_index>
905

> <i_lp_mmshare_version>
43012

> <i_f3d_flags>
0

> <s_epik_input>
W05IMl1jMW5vYyhuMSlbQ0gyXVtDSDJdW05IXUMoPU8pW05IXVtDSF0yW0NIMl1bQ0gyXVtDSDJdW0NIMl1bQ0gyXTI=

> <s_epik_cmdline>
J2VwaWtfcHl0aG9uJywgJy1waCcsICc3LjAnLCAnLXRuJywgJzgnLCAnLW1hJywgJzIwMCcsICctbWV0YWxfYmluZGluZycsICctaW1hZScsICc8aW5maWxlLm1hZT4nLCAnLW9tYWUnLCAnPG91dGZpbGUubWFlPic=

> <r_lp_tautomer_probability>
1

> <r_epik_Ionization_Penalty>
0.000203748

> <r_epik_Ionization_Penalty_Charging>
0

> <r_epik_Ionization_Penalty_Neutral>
0.000203748

> <r_epik_State_Penalty>
-0

> <r_epik_Charging_Adjusted_Penalty>
0

> <i_epik_Tot_Q>
0

> <i_epik_Tot_abs_Q>
0

> <r_epik_Metal_State_Penalty>
-0

> <b_epik_Metal_Only>
0

> <s_lp_Force_Field>
OPLS_2005

> <r_lp_Energy>
0.830847

> <b_lp_Chiralities_Consistent>
1

> <s_lp_Variant>
AV-unprocessed.smi:905-1

> <Gold.Version>
5.8.1

> <Gold.Id.Protein>
6NUR|6NUR_protein|mol2

> <Gold.PLP.Fitness>
43.0294

> <Gold.PLP.PLP>
-35.7225

> <Gold.PLP.part.hbond>
-3.0000

> <Gold.PLP.part.metal>
0.0000

> <Gold.PLP.part.buried>
-4.4497

> <Gold.PLP.part.nonpolar>
-27.9414

> <Gold.PLP.part.repulsive>
1.0359

> <Gold.PLP.ligand.clash>
0.0000

> <Gold.PLP.ligand.torsion>
0.1069

> <Gold.PLP.Chemscore.Hbond>
2.5014

> <Gold.PLP.Chemscore.CHOScore>
0.0000

> <Gold.PLP.Chemscore.Metal>
0.0000

> <Gold.Chemscore.Hbonds>
donor molecule, donor type, donor heavy atom, donor atom, acceptor molecule, acceptor atom, score
      L1  H     8    25       P1  8028  0.90
      L1  H    11    26       P1  8028  0.90
      P1  H  7989  7998       L1    10  0.72

> <Gold.PLP.Chemscore.Internal.Correction>
0.0163

> <Gold.Rescore>
     Score         DG    S(hbond)    S(metal)    S(lipo)     H(rot)  DE(clash)    DE(int)     intcor
     14.41     -14.64       1.82        0.00      78.44       2.39       0.18       0.05       ----

> <Gold.Chemscore.Fitness>
14.4082

> <Gold.Chemscore.DG>
-14.6404

> <Gold.Chemscore.ZeroCoef>
-5.4800

> <Gold.Chemscore.Hbond>
1.8240

> <Gold.Chemscore.Metal>
0.0000

> <Gold.Chemscore.Lipo>
78.4398

> <Gold.Chemscore.Internal_Hbond>
0.0000

> <Gold.Chemscore.DEClash>
0.1809

> <Gold.Chemscore.DEInternal>
0.0514

> <Gold.Chemscore.Rot>
2.3865

> <Gold.Chemscore.Internal.Correction>
   9.000000E+99

> <Gold.Chemscore.Hbonds>
donor molecule, donor type, donor heavy atom, donor atom, acceptor molecule, acceptor atom, score
      L1  H     8    25       P1  8028  0.87
      L1  H    11    26       P1  8028  0.88
      P1  H  7989  7998       L1    10  0.45

> <Gold.Chemscore.Hbond.Weighted>
-6.0923

> <Gold.Chemscore.Metal.Weighted>
-0.0000

> <Gold.Chemscore.Lipo.Weighted>
-9.1775

> <Gold.Chemscore.Internal_Hbond.Weighted>
0.0000

> <Gold.Chemscore.DEClash.Weighted>
0.1809

> <Gold.Chemscore.DEInternal.Weighted>
0.0514

> <Gold.Chemscore.Rot.Weighted>
6.1093

> <Gold.Chemscore.Internal.Correction.Weighted>
   9.000000E+99

> <Gold.Protein.RotatedTorsions>
[ 6907 6896 6895 6894 ] final  -78.83 input  -60.11 | X-H torsion
[ 7974 7965 7964 7962 ] final  154.93 input  175.53 | X-H torsion
[ 8008 7997 7996 7995 ] final  130.73 input   59.86 | X-H torsion
[ 10167 10162 10161 10158 ] final  139.63 input  -65.29 | X-H torsion
[ 10718 10713 10712 10709 ] final   91.63 input   66.30 | X-H torsion
[ 10763 10752 10751 10750 ] final  155.97 input  -60.55 | X-H torsion
[ 11005 11000 10999 10996 ] final  108.96 input  -57.11 | X-H torsion

> <Gold.Protein.ActiveResidues>
 VAL166  LYS551  ARG553  GLY616  TRP617  ASP618  TYR619  PRO620  LYS621  CYS622 
 ASP623  PHE694  ASN695  SER759  ASP760  ASP761  ALA762  ILE779  LEU786  VAL792 
 PHE793  MET794  SER795  GLU796  ALA797  LYS798  CYS799  TRP800  GLU811  SER814 

> <Gold.Protein.RotatedAtoms>
  150.6963  134.4213  159.5205 H   0  0  0  0  0  0  0  0  0  0  0  0  # atno 6907 bound_to 6896
  152.1955  134.8631  160.0522 H   0  0  0  0  0  0  0  0  0  0  0  0  # atno 6908 bound_to 6896
  151.9571  133.3649  159.4058 H   0  0  0  0  0  0  0  0  0  0  0  0  # atno 6909 bound_to 6896
  144.8057  139.6999  143.6163 H   0  0  0  0  0  0  0  0  0  0  0  0  # atno 7974 bound_to 7965
  156.2959  140.2589  156.2809 H   0  0  0  0  0  0  0  0  0  0  0  0  # atno 8008 bound_to 7997
  154.9603  140.0392  157.2205 H   0  0  0  0  0  0  0  0  0  0  0  0  # atno 8009 bound_to 7997
  154.7953  140.2819  155.5966 H   0  0  0  0  0  0  0  0  0  0  0  0  # atno 8010 bound_to 7997
  139.5073  144.6283  151.5882 H   0  0  0  0  0  0  0  0  0  0  0  0  # atno 10167 bound_to 10162
  157.6960  131.0414  150.3758 H   0  0  0  0  0  0  0  0  0  0  0  0  # atno 10718 bound_to 10713
  154.1769  135.2801  155.3064 H   0  0  0  0  0  0  0  0  0  0  0  0  # atno 10763 bound_to 10752
  154.6032  135.5523  153.7399 H   0  0  0  0  0  0  0  0  0  0  0  0  # atno 10764 bound_to 10752
  153.0149  135.6397  154.1908 H   0  0  0  0  0  0  0  0  0  0  0  0  # atno 10765 bound_to 10752
  139.8853  134.9445  156.6053 H   0  0  0  0  0  0  0  0  0  0  0  0  # atno 11005 bound_to 11000
  146.2348  139.5883  142.9531 LP  0  0  0  0  0  0  0  0  0  0  0  0  # atno 17320 bound_to 7965
  145.5444  141.0418  143.2313 LP  0  0  0  0  0  0  0  0  0  0  0  0  # atno 17321 bound_to 7965
  140.6007  143.9615  150.6384 LP  0  0  0  0  0  0  0  0  0  0  0  0  # atno 17342 bound_to 10162
  140.2825  143.3379  152.1137 LP  0  0  0  0  0  0  0  0  0  0  0  0  # atno 17343 bound_to 10162
  156.4178  130.3947  149.6846 LP  0  0  0  0  0  0  0  0  0  0  0  0  # atno 17370 bound_to 10713
  156.4108  130.7721  151.2734 LP  0  0  0  0  0  0  0  0  0  0  0  0  # atno 17371 bound_to 10713
  140.7853  133.8627  155.8601 LP  0  0  0  0  0  0  0  0  0  0  0  0  # atno 17394 bound_to 11000
  140.9725  134.1512  157.4564 LP  0  0  0  0  0  0  0  0  0  0  0  0  # atno 17395 bound_to 11000

$$$$
