AV-unprocessed.smi:2973|AV-procd|sdf|11348|dock2
  -GOLD-   2272016263D 1   1.00000     0.00000
 Structure written by MMmdl.
 48 50  0  0  0  0  0  0  0  0  2 V2000
  149.0487  140.4226  154.3994 C   0  0  0  0  0  0  0  0  0  0  0  0
  150.1029  140.9225  155.4119 C   0  0  1  0  0  0  0  0  0  0  0  0
  149.4089  141.6989  156.5534 C   0  0  0  0  0  0  0  0  0  0  0  0
  150.4214  142.2852  157.5476 C   0  0  0  0  0  0  0  0  0  0  0  0
  151.3257  141.1915  158.1289 C   0  0  0  0  0  0  0  0  0  0  0  0
  152.0380  140.4128  157.0093 C   0  0  0  0  0  0  0  0  0  0  0  0
  151.0663  139.8145  155.9562 C   0  0  2  0  0  0  0  0  0  0  0  0
  151.8537  139.2531  154.8721 N   0  5  0  0  0  0  0  0  0  0  0  0
  151.6334  137.9199  154.8066 C   0  0  0  0  0  0  0  0  0  0  0  0
  152.1429  137.1286  154.0136 O   0  0  0  0  0  0  0  0  0  0  0  0
  150.7515  137.5295  155.7455 N   0  0  0  0  0  0  0  0  0  0  0  0
  150.3084  136.1450  155.9553 C   0  0  0  0  0  0  0  0  0  0  0  0
  148.9754  135.8273  155.2641 C   0  0  0  0  0  0  0  0  0  0  0  0
  148.1668  136.7194  155.0039 O   0  0  0  0  0  0  0  0  0  0  0  0
  148.7709  134.5390  154.9523 N   0  0  0  0  0  0  0  0  0  0  0  0
  147.5797  134.0153  154.2950 C   0  0  0  0  0  0  0  0  0  0  0  0
  147.9309  133.2517  153.0072 C   0  0  0  0  0  0  0  0  0  0  0  0
  146.7451  133.1379  152.0687 C   0  0  0  0  0  0  0  0  0  0  0  0
  146.1934  131.8772  151.7548 C   0  0  0  0  0  0  0  0  0  0  0  0
  145.0868  131.8269  150.8852 C   0  0  0  0  0  0  0  0  0  0  0  0
  144.5758  133.0327  150.3671 C   0  0  0  0  0  0  0  0  0  0  0  0
  145.1972  134.2404  150.7432 C   0  0  0  0  0  0  0  0  0  0  0  0
  146.2584  134.2997  151.5763 N   0  0  0  0  0  0  0  0  0  0  0  0
  150.3557  138.5704  156.4863 C   0  0  0  0  0  0  0  0  0  0  0  0
  149.5610  138.5536  157.4275 O   0  0  0  0  0  0  0  0  0  0  0  0
  148.3464  139.7245  154.8553 H   0  0  0  0  0  0  0  0  0  0  0  0
  149.5122  139.9225  153.5490 H   0  0  0  0  0  0  0  0  0  0  0  0
  148.4675  141.2552  154.0027 H   0  0  0  0  0  0  0  0  0  0  0  0
  150.7210  141.6453  154.8761 H   0  0  0  0  0  0  0  0  0  0  0  0
  148.8103  142.5093  156.1362 H   0  0  0  0  0  0  0  0  0  0  0  0
  148.7099  141.0506  157.0821 H   0  0  0  0  0  0  0  0  0  0  0  0
  151.0329  143.0362  157.0459 H   0  0  0  0  0  0  0  0  0  0  0  0
  149.8968  142.8006  158.3526 H   0  0  0  0  0  0  0  0  0  0  0  0
  152.0659  141.6398  158.7918 H   0  0  0  0  0  0  0  0  0  0  0  0
  150.7369  140.5144  158.7475 H   0  0  0  0  0  0  0  0  0  0  0  0
  152.7398  141.0858  156.5136 H   0  0  0  0  0  0  0  0  0  0  0  0
  152.6492  139.6256  157.4549 H   0  0  0  0  0  0  0  0  0  0  0  0
  151.0607  135.4456  155.5877 H   0  0  0  0  0  0  0  0  0  0  0  0
  150.2206  135.9479  157.0253 H   0  0  0  0  0  0  0  0  0  0  0  0
  149.4880  133.8728  155.1997 H   0  0  0  0  0  0  0  0  0  0  0  0
  147.0761  133.3480  154.9949 H   0  0  0  0  0  0  0  0  0  0  0  0
  146.8822  134.8276  154.0830 H   0  0  0  0  0  0  0  0  0  0  0  0
  148.7472  133.7498  152.4818 H   0  0  0  0  0  0  0  0  0  0  0  0
  148.2912  132.2518  153.2527 H   0  0  0  0  0  0  0  0  0  0  0  0
  146.6061  130.9698  152.1713 H   0  0  0  0  0  0  0  0  0  0  0  0
  144.6376  130.8808  150.6212 H   0  0  0  0  0  0  0  0  0  0  0  0
  143.7280  133.0328  149.6979 H   0  0  0  0  0  0  0  0  0  0  0  0
  144.8317  135.1838  150.3649 H   0  0  0  0  0  0  0  0  0  0  0  0
  1  2  1  0  0  0  0
  1 26  1  0  0  0  0
  1 27  1  0  0  0  0
  1 28  1  0  0  0  0
  2  7  1  0  0  0  0
  2  3  1  0  0  0  0
  2 29  1  0  0  0  0
  3  4  1  0  0  0  0
  3 30  1  0  0  0  0
  3 31  1  0  0  0  0
  4  5  1  0  0  0  0
  4 32  1  0  0  0  0
  4 33  1  0  0  0  0
  5  6  1  0  0  0  0
  5 34  1  0  0  0  0
  5 35  1  0  0  0  0
  6  7  1  0  0  0  0
  6 36  1  0  0  0  0
  6 37  1  0  0  0  0
  7 24  1  0  0  0  0
  7  8  1  0  0  0  0
  8  9  1  0  0  0  0
  9 10  2  0  0  0  0
  9 11  1  0  0  0  0
 11 12  1  0  0  0  0
 11 24  1  0  0  0  0
 12 13  1  0  0  0  0
 12 38  1  0  0  0  0
 12 39  1  0  0  0  0
 13 14  2  0  0  0  0
 13 15  1  0  0  0  0
 15 16  1  0  0  0  0
 15 40  1  0  0  0  0
 16 17  1  0  0  0  0
 16 41  1  0  0  0  0
 16 42  1  0  0  0  0
 17 18  1  0  0  0  0
 17 43  1  0  0  0  0
 17 44  1  0  0  0  0
 18 23  1  0  0  0  0
 18 19  2  0  0  0  0
 19 20  1  0  0  0  0
 19 45  1  0  0  0  0
 20 21  2  0  0  0  0
 20 46  1  0  0  0  0
 21 22  1  0  0  0  0
 21 47  1  0  0  0  0
 22 23  2  0  0  0  0
 22 48  1  0  0  0  0
 24 25  2  0  0  0  0
M  CHG  1   8  -1
M  END
> <s_m_source_file>
AV-unprocessed.smi

> <i_m_source_file_index>
2973

> <i_lp_mmshare_version>
43012

> <i_f3d_flags>
0

> <s_epik_input>
W0NIMl0xW0NIMl1bQ0gyXVtDSDJdW0NAQEhdKFtDSDNdKVtDQF0xMltOSF1DKD1PKU4oQzI9TylbQ0gyXUMoPU8pW05IXVtDSDJdW0NIMl1jM1tjSF1bY0hdW2NIXVtjSF1uMw==

> <s_epik_cmdline>
J2VwaWtfcHl0aG9uJywgJy1waCcsICc3LjAnLCAnLXRuJywgJzgnLCAnLW1hJywgJzIwMCcsICctbWV0YWxfYmluZGluZycsICctaW1hZScsICc8aW5maWxlLm1hZT4nLCAnLW9tYWUnLCAnPG91dGZpbGUubWFlPic=

> <r_lp_tautomer_probability>
1

> <r_epik_Ionization_Penalty>
6.04175

> <r_epik_Ionization_Penalty_Charging>
6.01728

> <r_epik_Ionization_Penalty_Neutral>
0.0244696

> <r_epik_State_Penalty>
6.03712

> <r_epik_Charging_Adjusted_Penalty>
12.0544

> <i_epik_Tot_Q>
-1

> <i_epik_Tot_abs_Q>
1

> <r_epik_Metal_State_Penalty>
2.01153

> <b_epik_Metal_Only>
1

> <s_lp_Force_Field>
OPLS_2005

> <r_lp_Energy>
9.40787

> <b_lp_Chiralities_Consistent>
1

> <s_lp_Variant>
AV-unprocessed.smi:2973-12

> <Gold.Version>
5.8.1

> <Gold.Id.Protein>
6NUR|6NUR_protein|mol2

> <Gold.PLP.Fitness>
42.5750

> <Gold.PLP.PLP>
-38.1503

> <Gold.PLP.part.hbond>
-2.0000

> <Gold.PLP.part.metal>
0.0000

> <Gold.PLP.part.buried>
-5.9552

> <Gold.PLP.part.nonpolar>
-32.2619

> <Gold.PLP.part.repulsive>
2.4217

> <Gold.PLP.ligand.clash>
0.0000

> <Gold.PLP.ligand.torsion>
0.8074

> <Gold.PLP.Chemscore.Hbond>
1.9920

> <Gold.PLP.Chemscore.CHOScore>
0.0000

> <Gold.PLP.Chemscore.Metal>
0.0000

> <Gold.Chemscore.Hbonds>
donor molecule, donor type, donor heavy atom, donor atom, acceptor molecule, acceptor atom, score
      P1  H  7989  7998       L1     8  0.70
      P1  H 10752 10763       L1    10  0.94

> <Gold.PLP.Chemscore.Internal.Correction>
0.0634

> <Gold.Rescore>
     Score         DG    S(hbond)    S(metal)    S(lipo)     H(rot)  DE(clash)    DE(int)     intcor
     15.65     -16.53       1.53        0.00      90.35       1.81       0.15       0.73       ----

> <Gold.Chemscore.Fitness>
15.6535

> <Gold.Chemscore.DG>
-16.5349

> <Gold.Chemscore.ZeroCoef>
-5.4800

> <Gold.Chemscore.Hbond>
1.5314

> <Gold.Chemscore.Metal>
0.0000

> <Gold.Chemscore.Lipo>
90.3498

> <Gold.Chemscore.Internal_Hbond>
0.0000

> <Gold.Chemscore.DEClash>
0.1498

> <Gold.Chemscore.DEInternal>
0.7316

> <Gold.Chemscore.Rot>
1.8090

> <Gold.Chemscore.Internal.Correction>
   9.000000E+99

> <Gold.Chemscore.Hbonds>
donor molecule, donor type, donor heavy atom, donor atom, acceptor molecule, acceptor atom, score
      P1  H  7989  7998       L1     8  0.13
      P1  H 10752 10763       L1    10  0.92

> <Gold.Chemscore.Hbond.Weighted>
-5.1150

> <Gold.Chemscore.Metal.Weighted>
-0.0000

> <Gold.Chemscore.Lipo.Weighted>
-10.5709

> <Gold.Chemscore.Internal_Hbond.Weighted>
0.0000

> <Gold.Chemscore.DEClash.Weighted>
0.1498

> <Gold.Chemscore.DEInternal.Weighted>
0.7316

> <Gold.Chemscore.Rot.Weighted>
4.6310

> <Gold.Chemscore.Internal.Correction.Weighted>
   9.000000E+99

> <Gold.Protein.RotatedTorsions>
[ 6907 6896 6895 6894 ] final    1.05 input  -60.11 | X-H torsion
[ 7974 7965 7964 7962 ] final  115.77 input  175.53 | X-H torsion
[ 8008 7997 7996 7995 ] final  -18.54 input   59.86 | X-H torsion
[ 10167 10162 10161 10158 ] final  -51.42 input  -65.29 | X-H torsion
[ 10718 10713 10712 10709 ] final -163.05 input   66.30 | X-H torsion
[ 10763 10752 10751 10750 ] final   23.20 input  -60.55 | X-H torsion
[ 11005 11000 10999 10996 ] final  -13.79 input  -57.11 | X-H torsion

> <Gold.Protein.ActiveResidues>
 VAL166  LYS551  ARG553  GLY616  TRP617  ASP618  TYR619  PRO620  LYS621  CYS622 
 ASP623  PHE694  ASN695  SER759  ASP760  ASP761  ALA762  ILE779  LEU786  VAL792 
 PHE793  MET794  SER795  GLU796  ALA797  LYS798  CYS799  TRP800  GLU811  SER814 

> <Gold.Protein.RotatedAtoms>
  151.5864  135.1056  160.0028 H   0  0  0  0  0  0  0  0  0  0  0  0  # atno 6907 bound_to 6896
  152.4328  133.7304  159.6594 H   0  0  0  0  0  0  0  0  0  0  0  0  # atno 6908 bound_to 6896
  150.8222  133.8162  159.3157 H   0  0  0  0  0  0  0  0  0  0  0  0  # atno 6909 bound_to 6896
  145.1879  139.3015  143.4384 H   0  0  0  0  0  0  0  0  0  0  0  0  # atno 7974 bound_to 7965
  154.4899  140.2113  155.9571 H   0  0  0  0  0  0  0  0  0  0  0  0  # atno 8008 bound_to 7997
  156.1290  140.3200  155.8289 H   0  0  0  0  0  0  0  0  0  0  0  0  # atno 8009 bound_to 7997
  155.4330  140.0505  157.3007 H   0  0  0  0  0  0  0  0  0  0  0  0  # atno 8010 bound_to 7997
  140.6589  143.2620  151.4501 H   0  0  0  0  0  0  0  0  0  0  0  0  # atno 10167 bound_to 10162
  156.6192  130.8883  151.2954 H   0  0  0  0  0  0  0  0  0  0  0  0  # atno 10718 bound_to 10713
  153.0856  135.6632  153.9955 H   0  0  0  0  0  0  0  0  0  0  0  0  # atno 10763 bound_to 10752
  153.9566  135.2978  155.3437 H   0  0  0  0  0  0  0  0  0  0  0  0  # atno 10764 bound_to 10752
  154.7264  135.5142  153.8965 H   0  0  0  0  0  0  0  0  0  0  0  0  # atno 10765 bound_to 10752
  140.7797  133.8372  155.9281 H   0  0  0  0  0  0  0  0  0  0  0  0  # atno 11005 bound_to 11000
  146.3441  140.2081  142.8590 LP  0  0  0  0  0  0  0  0  0  0  0  0  # atno 17320 bound_to 7965
  145.0071  140.8682  143.5247 LP  0  0  0  0  0  0  0  0  0  0  0  0  # atno 17321 bound_to 7965
  139.5818  144.1693  152.1978 LP  0  0  0  0  0  0  0  0  0  0  0  0  # atno 17342 bound_to 10162
  140.1020  144.5531  150.6982 LP  0  0  0  0  0  0  0  0  0  0  0  0  # atno 17343 bound_to 10162
  157.7232  130.9587  150.1526 LP  0  0  0  0  0  0  0  0  0  0  0  0  # atno 17370 bound_to 10713
  156.2326  130.3683  149.8428 LP  0  0  0  0  0  0  0  0  0  0  0  0  # atno 17371 bound_to 10713
  140.9494  134.1798  157.4739 LP  0  0  0  0  0  0  0  0  0  0  0  0  # atno 17394 bound_to 11000
  139.8744  134.9903  156.5497 LP  0  0  0  0  0  0  0  0  0  0  0  0  # atno 17395 bound_to 11000

$$$$
