AV-unprocessed.smi:1208|AV-procd|sdf|5068|dock5
  -GOLD-   22720 4113D 1   1.00000     0.00000
 Structure written by MMmdl.
 36 37  0  0  0  0  0  0  0  0  1 V2000
  153.4096  141.7194  161.2731 C   0  0  0  0  0  0  0  0  0  0  0  0
  153.1918  142.1916  159.8271 C   0  0  1  0  0  0  0  0  0  0  0  0
  152.1079  141.4051  159.2428 N   0  0  0  0  0  0  0  0  0  0  0  0
  152.2580  140.3108  158.4804 C   0  0  0  0  0  0  0  0  0  0  0  0
  153.3573  139.8365  158.1898 O   0  0  0  0  0  0  0  0  0  0  0  0
  150.9572  139.6730  157.9693 C   0  0  0  0  0  0  0  0  0  0  0  0
  150.9640  139.3950  156.5255 N   0  0  0  0  0  0  0  0  0  0  0  0
  150.0095  140.1027  155.8105 N   0  0  0  0  0  0  0  0  0  0  0  0
  149.9267  139.9616  154.5310 C   0  0  0  0  0  0  0  0  0  0  0  0
  148.9697  140.6848  153.8625 O   0  0  0  0  0  0  0  0  0  0  0  0
  150.8130  139.0690  153.8172 C   0  0  0  0  0  0  0  0  0  0  0  0
  151.7377  138.3817  154.5226 C   0  0  0  0  0  0  0  0  0  0  0  0
  151.8610  138.5200  155.9750 C   0  0  0  0  0  0  0  0  0  0  0  0
  152.6963  137.9094  156.6417 O   0  0  0  0  0  0  0  0  0  0  0  0
  152.8561  143.6963  159.7470 C   0  0  1  0  0  0  0  0  0  0  0  0
  152.2863  144.1548  158.4048 C   0  0  0  0  0  0  0  0  0  0  0  0
  151.5294  145.4240  158.7583 C   0  0  0  0  0  0  0  0  0  0  0  0
  151.3098  145.3161  160.2697 C   0  0  0  0  0  0  0  0  0  0  0  0
  151.7972  144.0314  160.6316 O   0  0  0  0  0  0  0  0  0  0  0  0
  149.1513  140.5518  152.9448 H   0  0  0  0  0  0  0  0  0  0  0  0
  154.2498  142.2348  161.7383 H   0  0  0  0  0  0  0  0  0  0  0  0
  153.6271  140.6515  161.3079 H   0  0  0  0  0  0  0  0  0  0  0  0
  152.5269  141.8997  161.8876 H   0  0  0  0  0  0  0  0  0  0  0  0
  154.1157  142.0048  159.2765 H   0  0  0  0  0  0  0  0  0  0  0  0
  151.1680  141.7246  159.4263 H   0  0  0  0  0  0  0  0  0  0  0  0
  150.7658  138.7583  158.5332 H   0  0  0  0  0  0  0  0  0  0  0  0
  150.1293  140.3416  158.2120 H   0  0  0  0  0  0  0  0  0  0  0  0
  150.7299  138.9619  152.7457 H   0  0  0  0  0  0  0  0  0  0  0  0
  152.4064  137.7119  154.0024 H   0  0  0  0  0  0  0  0  0  0  0  0
  153.7315  144.2971  160.0020 H   0  0  0  0  0  0  0  0  0  0  0  0
  153.0564  144.3195  157.6508 H   0  0  0  0  0  0  0  0  0  0  0  0
  151.5892  143.4098  158.0187 H   0  0  0  0  0  0  0  0  0  0  0  0
  152.1191  146.3109  158.5236 H   0  0  0  0  0  0  0  0  0  0  0  0
  150.5889  145.4905  158.2105 H   0  0  0  0  0  0  0  0  0  0  0  0
  151.8822  146.0807  160.7965 H   0  0  0  0  0  0  0  0  0  0  0  0
  150.2612  145.4236  160.5478 H   0  0  0  0  0  0  0  0  0  0  0  0
  1  2  1  0  0  0  0
  1 21  1  0  0  0  0
  1 22  1  0  0  0  0
  1 23  1  0  0  0  0
  2  3  1  0  0  0  0
  2 15  1  0  0  0  0
  2 24  1  0  0  0  0
  3  4  1  0  0  0  0
  3 25  1  0  0  0  0
  4  5  2  0  0  0  0
  4  6  1  0  0  0  0
  6 26  1  0  0  0  0
  6 27  1  0  0  0  0
  6  7  1  0  0  0  0
  7  8  1  0  0  0  0
  7 13  1  0  0  0  0
  8  9  2  0  0  0  0
  9 10  1  0  0  0  0
  9 11  1  0  0  0  0
 10 20  1  0  0  0  0
 11 28  1  0  0  0  0
 11 12  2  0  0  0  0
 12 29  1  0  0  0  0
 12 13  1  0  0  0  0
 13 14  2  0  0  0  0
 15 19  1  0  0  0  0
 15 16  1  0  0  0  0
 15 30  1  0  0  0  0
 16 17  1  0  0  0  0
 16 31  1  0  0  0  0
 16 32  1  0  0  0  0
 17 18  1  0  0  0  0
 17 33  1  0  0  0  0
 17 34  1  0  0  0  0
 18 19  1  0  0  0  0
 18 35  1  0  0  0  0
 18 36  1  0  0  0  0
M  END
> <s_m_source_file>
AV-unprocessed.smi

> <i_m_source_file_index>
1208

> <i_lp_mmshare_version>
43012

> <i_f3d_flags>
0

> <s_epik_input>
TzFbQ0gyXVtDSDJdW0NIMl1bQ0BIXTFbQ0BIXShbQ0gzXSlbTkhdQyg9TylbQ0gyXW4yW25IXWMoPU8pW2NIXVtjSF1jMj1P

> <s_epik_cmdline>
J2VwaWtfcHl0aG9uJywgJy1waCcsICc3LjAnLCAnLXRuJywgJzgnLCAnLW1hJywgJzIwMCcsICctbWV0YWxfYmluZGluZycsICctaW1hZScsICc8aW5maWxlLm1hZT4nLCAnLW9tYWUnLCAnPG91dGZpbGUubWFlPic=

> <r_lp_tautomer_probability>
0.9996

> <r_epik_Ionization_Penalty>
2.12735

> <r_epik_Ionization_Penalty_Charging>
3.86665e-08

> <r_epik_Ionization_Penalty_Neutral>
2.12735

> <r_epik_State_Penalty>
1.70441

> <r_epik_Charging_Adjusted_Penalty>
1.70441

> <i_epik_Tot_Q>
0

> <i_epik_Tot_abs_Q>
0

> <r_epik_Metal_State_Penalty>
1.70441

> <b_epik_Metal_Only>
0

> <s_lp_Force_Field>
OPLS_2005

> <r_lp_Energy>
29.9915

> <b_lp_Chiralities_Consistent>
1

> <s_lp_Variant>
AV-unprocessed.smi:1208-8

> <Gold.Version>
5.8.1

> <Gold.Id.Protein>
6NUR|6NUR_protein|mol2

> <Gold.PLP.Fitness>
45.2211

> <Gold.PLP.PLP>
-40.3663

> <Gold.PLP.part.hbond>
-2.0000

> <Gold.PLP.part.metal>
0.0000

> <Gold.PLP.part.buried>
-6.2720

> <Gold.PLP.part.nonpolar>
-31.8032

> <Gold.PLP.part.repulsive>
0.2336

> <Gold.PLP.ligand.clash>
0.0000

> <Gold.PLP.ligand.torsion>
0.5890

> <Gold.PLP.Chemscore.Hbond>
2.0000

> <Gold.PLP.Chemscore.CHOScore>
0.0000

> <Gold.PLP.Chemscore.Metal>
0.0000

> <Gold.Chemscore.Hbonds>
donor molecule, donor type, donor heavy atom, donor atom, acceptor molecule, acceptor atom, score
      L1  H    10    20       P1  7957  1.00
      P1  H  7997  8010       L1     5  1.00

> <Gold.PLP.Chemscore.Internal.Correction>
0.0328

> <Gold.Rescore>
     Score         DG    S(hbond)    S(metal)    S(lipo)     H(rot)  DE(clash)    DE(int)     intcor
     14.38     -16.46       2.00        0.00      94.23       2.63       0.07       2.00       ----

> <Gold.Chemscore.Fitness>
14.3838

> <Gold.Chemscore.DG>
-16.4584

> <Gold.Chemscore.ZeroCoef>
-5.4800

> <Gold.Chemscore.Hbond>
1.9992

> <Gold.Chemscore.Metal>
0.0000

> <Gold.Chemscore.Lipo>
94.2295

> <Gold.Chemscore.Internal_Hbond>
0.0000

> <Gold.Chemscore.DEClash>
0.0737

> <Gold.Chemscore.DEInternal>
2.0009

> <Gold.Chemscore.Rot>
2.6264

> <Gold.Chemscore.Internal.Correction>
   9.000000E+99

> <Gold.Chemscore.Hbonds>
donor molecule, donor type, donor heavy atom, donor atom, acceptor molecule, acceptor atom, score
      L1  H    10    20       P1  7957  1.00
      P1  H  7997  8010       L1     5  0.99

> <Gold.Chemscore.Hbond.Weighted>
-6.6772

> <Gold.Chemscore.Metal.Weighted>
-0.0000

> <Gold.Chemscore.Lipo.Weighted>
-11.0249

> <Gold.Chemscore.Internal_Hbond.Weighted>
0.0000

> <Gold.Chemscore.DEClash.Weighted>
0.0737

> <Gold.Chemscore.DEInternal.Weighted>
2.0009

> <Gold.Chemscore.Rot.Weighted>
6.7237

> <Gold.Chemscore.Internal.Correction.Weighted>
   9.000000E+99

> <Gold.Protein.RotatedTorsions>
[ 6907 6896 6895 6894 ] final   59.33 input  -60.11 | X-H torsion
[ 7974 7965 7964 7962 ] final   24.75 input  175.53 | X-H torsion
[ 8008 7997 7996 7995 ] final   35.17 input   59.86 | X-H torsion
[ 10167 10162 10161 10158 ] final  -87.33 input  -65.29 | X-H torsion
[ 10718 10713 10712 10709 ] final   21.08 input   66.30 | X-H torsion
[ 10763 10752 10751 10750 ] final   -7.69 input  -60.55 | X-H torsion
[ 11005 11000 10999 10996 ] final  -74.83 input  -57.11 | X-H torsion

> <Gold.Protein.ActiveResidues>
 VAL166  LYS551  ARG553  GLY616  TRP617  ASP618  TYR619  PRO620  LYS621  CYS622 
 ASP623  PHE694  ASN695  SER759  ASP760  ASP761  ALA762  ILE779  LEU786  VAL792 
 PHE793  MET794  SER795  GLU796  ALA797  LYS798  CYS799  TRP800  GLU811  SER814 

> <Gold.Protein.RotatedAtoms>
  152.3905  134.6449  160.0109 H   0  0  0  0  0  0  0  0  0  0  0  0  # atno 6907 bound_to 6896
  151.6685  133.3309  159.3199 H   0  0  0  0  0  0  0  0  0  0  0  0  # atno 6908 bound_to 6896
  150.7822  134.6820  159.6494 H   0  0  0  0  0  0  0  0  0  0  0  0  # atno 6909 bound_to 6896
  146.1922  139.7561  142.8823 H   0  0  0  0  0  0  0  0  0  0  0  0  # atno 7974 bound_to 7965
  155.1667  140.3288  155.4400 H   0  0  0  0  0  0  0  0  0  0  0  0  # atno 8008 bound_to 7997
  156.2524  140.1950  156.6722 H   0  0  0  0  0  0  0  0  0  0  0  0  # atno 8009 bound_to 7997
  154.6366  140.0575  156.9783 H   0  0  0  0  0  0  0  0  0  0  0  0  # atno 8010 bound_to 7997
  140.3855  143.2729  151.9330 H   0  0  0  0  0  0  0  0  0  0  0  0  # atno 10167 bound_to 10162
  157.1334  130.6601  149.5959 H   0  0  0  0  0  0  0  0  0  0  0  0  # atno 10718 bound_to 10713
  153.4299  135.7012  153.6238 H   0  0  0  0  0  0  0  0  0  0  0  0  # atno 10763 bound_to 10752
  153.4657  135.3726  155.2363 H   0  0  0  0  0  0  0  0  0  0  0  0  # atno 10764 bound_to 10752
  154.8725  135.4031  154.3681 H   0  0  0  0  0  0  0  0  0  0  0  0  # atno 10765 bound_to 10752
  141.1639  133.6925  156.7424 H   0  0  0  0  0  0  0  0  0  0  0  0  # atno 11005 bound_to 11000
  145.3757  141.0350  143.3206 LP  0  0  0  0  0  0  0  0  0  0  0  0  # atno 17320 bound_to 7965
  144.8509  139.5323  143.6857 LP  0  0  0  0  0  0  0  0  0  0  0  0  # atno 17321 bound_to 7965
  139.4792  144.5778  151.7983 LP  0  0  0  0  0  0  0  0  0  0  0  0  # atno 17342 bound_to 10162
  140.4894  144.1333  150.5947 LP  0  0  0  0  0  0  0  0  0  0  0  0  # atno 17343 bound_to 10162
  155.9803  130.4803  150.6765 LP  0  0  0  0  0  0  0  0  0  0  0  0  # atno 17370 bound_to 10713
  157.4372  131.0856  151.0980 LP  0  0  0  0  0  0  0  0  0  0  0  0  # atno 17371 bound_to 10713
  140.2665  134.8426  157.3807 LP  0  0  0  0  0  0  0  0  0  0  0  0  # atno 17394 bound_to 11000
  140.1562  134.4787  155.7926 LP  0  0  0  0  0  0  0  0  0  0  0  0  # atno 17395 bound_to 11000

$$$$
