AV-unprocessed.smi:218|AV-procd|sdf|1676|dock2
  -GOLD-   2262020103D 1   1.00000     0.00000
 Structure written by MMmdl.
 54 57  0  0  0  0  0  0  0  0  1 V2000
  151.1793  141.9586  157.9206 C   0  0  0  0  0  0  0  0  0  0  0  0
  151.6452  141.1504  159.1378 C   0  0  0  0  0  0  0  0  0  0  0  0
  152.3521  142.0508  160.1658 C   0  0  0  0  0  0  0  0  0  0  0  0
  152.5447  140.1511  158.6533 O   0  0  0  0  0  0  0  0  0  0  0  0
  152.1713  139.3295  157.6069 C   0  0  0  0  0  0  0  0  0  0  0  0
  151.7352  138.0226  157.9065 C   0  0  0  0  0  0  0  0  0  0  0  0
  151.3471  137.1741  156.8499 C   0  0  0  0  0  0  0  0  0  0  0  0
  150.8643  135.7650  157.1278 C   0  0  0  0  0  0  0  0  0  0  0  0
  150.3515  135.0936  155.9412 N   0  0  0  0  0  0  0  0  0  0  0  0
  149.0586  135.2451  155.5834 C   0  0  0  0  0  0  0  0  0  0  0  0
  148.2591  136.1446  156.2135 N   0  0  0  0  0  0  0  0  0  0  0  0
  146.9825  136.2771  155.8416 C   0  0  0  0  0  0  0  0  0  0  0  0
  146.3211  135.6234  154.8844 N   0  0  0  0  0  0  0  0  0  0  0  0
  147.1190  134.7191  154.2460 C   0  0  0  0  0  0  0  0  0  0  0  0
  148.4896  134.4719  154.5385 C   0  0  0  0  0  0  0  0  0  0  0  0
  148.9808  133.4840  153.6956 N   0  0  0  0  0  0  0  0  0  0  0  0
  147.9570  133.1695  152.9487 C   0  0  0  0  0  0  0  0  0  0  0  0
  146.7955  133.8616  153.2115 N   0  0  0  0  0  0  0  0  0  0  0  0
  145.4760  133.7078  152.5144 C   0  0  2  0  0  0  0  0  0  0  0  0
  145.5510  132.6564  151.5959 O   0  0  0  0  0  0  0  0  0  0  0  0
  145.2832  133.1236  150.2733 C   0  0  1  0  0  0  0  0  0  0  0  0
  144.5936  132.0170  149.4604 C   0  0  0  0  0  0  0  0  0  0  0  0
  143.4771  131.5196  150.1663 O   0  0  0  0  0  0  0  0  0  0  0  0
  144.3955  134.3449  150.5191 C   0  0  2  0  0  0  0  0  0  0  0  0
  144.3363  135.2301  149.4171 O   0  0  0  0  0  0  0  0  0  0  0  0
  145.0381  134.9703  151.7482 C   0  0  2  0  0  0  0  0  0  0  0  0
  146.1128  135.8385  151.4196 O   0  0  0  0  0  0  0  0  0  0  0  0
  151.4187  137.6643  155.5300 C   0  0  0  0  0  0  0  0  0  0  0  0
  151.8720  138.9820  155.3287 C   0  0  0  0  0  0  0  0  0  0  0  0
  152.2404  139.8005  156.3367 N   0  0  0  0  0  0  0  0  0  0  0  0
  144.7773  133.4312  153.3050 H   0  0  0  0  0  0  0  0  0  0  0  0
  146.2129  133.4399  149.7975 H   0  0  0  0  0  0  0  0  0  0  0  0
  143.3843  134.0179  150.7672 H   0  0  0  0  0  0  0  0  0  0  0  0
  144.3156  135.5286  152.3442 H   0  0  0  0  0  0  0  0  0  0  0  0
  150.4741  142.7373  158.2119 H   0  0  0  0  0  0  0  0  0  0  0  0
  150.6814  141.3163  157.1938 H   0  0  0  0  0  0  0  0  0  0  0  0
  152.0200  142.4389  157.4191 H   0  0  0  0  0  0  0  0  0  0  0  0
  150.7577  140.6990  159.5840 H   0  0  0  0  0  0  0  0  0  0  0  0
  151.6890  142.8443  160.5108 H   0  0  0  0  0  0  0  0  0  0  0  0
  153.2362  142.5201  159.7335 H   0  0  0  0  0  0  0  0  0  0  0  0
  152.6725  141.4902  161.0434 H   0  0  0  0  0  0  0  0  0  0  0  0
  151.6958  137.6833  158.9313 H   0  0  0  0  0  0  0  0  0  0  0  0
  151.6973  135.1925  157.5379 H   0  0  0  0  0  0  0  0  0  0  0  0
  150.0852  135.7928  157.8910 H   0  0  0  0  0  0  0  0  0  0  0  0
  151.0209  134.5578  155.4076 H   0  0  0  0  0  0  0  0  0  0  0  0
  146.4087  137.0114  156.3875 H   0  0  0  0  0  0  0  0  0  0  0  0
  148.0215  132.4149  152.1781 H   0  0  0  0  0  0  0  0  0  0  0  0
  144.2929  132.3763  148.4759 H   0  0  0  0  0  0  0  0  0  0  0  0
  145.2784  131.1828  149.3056 H   0  0  0  0  0  0  0  0  0  0  0  0
  142.8227  131.2469  149.5413 H   0  0  0  0  0  0  0  0  0  0  0  0
  144.9788  134.9521  148.7813 H   0  0  0  0  0  0  0  0  0  0  0  0
  146.8869  135.5404  151.8722 H   0  0  0  0  0  0  0  0  0  0  0  0
  151.1353  137.0467  154.6901 H   0  0  0  0  0  0  0  0  0  0  0  0
  151.9402  139.3901  154.3311 H   0  0  0  0  0  0  0  0  0  0  0  0
  1  2  1  0  0  0  0
  1 35  1  0  0  0  0
  1 36  1  0  0  0  0
  1 37  1  0  0  0  0
  2  3  1  0  0  0  0
  2  4  1  0  0  0  0
  2 38  1  0  0  0  0
  3 39  1  0  0  0  0
  3 40  1  0  0  0  0
  3 41  1  0  0  0  0
  4  5  1  0  0  0  0
  5 30  1  0  0  0  0
  5  6  2  0  0  0  0
  6  7  1  0  0  0  0
  6 42  1  0  0  0  0
  7  8  1  0  0  0  0
  7 28  2  0  0  0  0
  8  9  1  0  0  0  0
  8 43  1  0  0  0  0
  8 44  1  0  0  0  0
  9 10  1  0  0  0  0
  9 45  1  0  0  0  0
 10 15  1  0  0  0  0
 10 11  2  0  0  0  0
 11 12  1  0  0  0  0
 12 13  2  0  0  0  0
 12 46  1  0  0  0  0
 13 14  1  0  0  0  0
 14 18  1  0  0  0  0
 14 15  2  0  0  0  0
 15 16  1  0  0  0  0
 16 17  2  0  0  0  0
 17 18  1  0  0  0  0
 17 47  1  0  0  0  0
 18 19  1  0  0  0  0
 19 31  1  0  0  0  0
 19 26  1  0  0  0  0
 19 20  1  0  0  0  0
 20 21  1  0  0  0  0
 21 32  1  0  0  0  0
 21 22  1  0  0  0  0
 21 24  1  0  0  0  0
 22 23  1  0  0  0  0
 22 48  1  0  0  0  0
 22 49  1  0  0  0  0
 23 50  1  0  0  0  0
 24 33  1  0  0  0  0
 24 25  1  0  0  0  0
 24 26  1  0  0  0  0
 25 51  1  0  0  0  0
 26 34  1  0  0  0  0
 26 27  1  0  0  0  0
 27 52  1  0  0  0  0
 28 29  1  0  0  0  0
 28 53  1  0  0  0  0
 29 30  2  0  0  0  0
 29 54  1  0  0  0  0
M  END
> <s_m_source_file>
AV-unprocessed.smi

> <i_m_source_file_index>
218

> <i_lp_mmshare_version>
43012

> <i_f3d_flags>
0

> <s_epik_input>
W0NIM11bQ0hdKFtDSDNdKU9jMVtjSF1jKFtjSF1bY0hdbjEpW0NIMl1bTkhdYyhuW2NIXW4yKWMoYzIzKW5bY0hdbjNbQ0BASF00T1tDQEhdKFtDSDJdW09IXSlbQ0BASF0oW09IXSlbQ0BIXTRbT0hd

> <s_epik_cmdline>
J2VwaWtfcHl0aG9uJywgJy1waCcsICc3LjAnLCAnLXRuJywgJzgnLCAnLW1hJywgJzIwMCcsICctbWV0YWxfYmluZGluZycsICctaW1hZScsICc8aW5maWxlLm1hZT4nLCAnLW9tYWUnLCAnPG91dGZpbGUubWFlPic=

> <r_lp_tautomer_probability>
1

> <r_epik_Ionization_Penalty>
0.00457014

> <r_epik_Ionization_Penalty_Charging>
0

> <r_epik_Ionization_Penalty_Neutral>
0.00457014

> <r_epik_State_Penalty>
-0

> <r_epik_Charging_Adjusted_Penalty>
0

> <i_epik_Tot_Q>
0

> <i_epik_Tot_abs_Q>
0

> <r_epik_Metal_State_Penalty>
-0

> <b_epik_Metal_Only>
0

> <s_epik_Chemistry_Notes>
This compound contains an acetal/aminal-like group ( X-CH(R)-Y where X, Y are N, S, or O) that may be acid/base labile, releasing an aldehyde.

> <s_lp_Force_Field>
OPLS_2005

> <r_lp_Energy>
48.139

> <b_lp_Chiralities_Consistent>
1

> <s_lp_Variant>
AV-unprocessed.smi:218-15

> <Gold.Version>
5.8.1

> <Gold.Id.Protein>
6NUR|6NUR_protein|mol2

> <Gold.PLP.Fitness>
53.5160

> <Gold.PLP.PLP>
-42.2306

> <Gold.PLP.part.hbond>
-5.8271

> <Gold.PLP.part.metal>
0.0000

> <Gold.PLP.part.buried>
-5.1361

> <Gold.PLP.part.nonpolar>
-31.7562

> <Gold.PLP.part.repulsive>
0.5220

> <Gold.PLP.ligand.clash>
0.0000

> <Gold.PLP.ligand.torsion>
0.6075

> <Gold.PLP.Chemscore.Hbond>
3.0754

> <Gold.PLP.Chemscore.CHOScore>
1.0000

> <Gold.PLP.Chemscore.Metal>
0.0000

> <Gold.Chemscore.Hbonds>
donor molecule, donor type, donor heavy atom, donor atom, acceptor molecule, acceptor atom, score
      L1  H    23    50       P1 10952  0.45
      L1  H    25    51       P1  7921  1.00
      L1  H    27    52       P1  7948  0.46
      P1  H  7997  8009       L1    30  0.45
      L1  C    17    47       P1 10747  0.75

> <Gold.PLP.Chemscore.Internal.Correction>
0.2741

> <Gold.Rescore>
     Score         DG    S(hbond)    S(metal)    S(lipo)     H(rot)  DE(clash)    DE(int)     intcor
     10.79     -11.83       2.75        0.00      83.05       4.90       0.19       0.85       ----

> <Gold.Chemscore.Fitness>
10.7899

> <Gold.Chemscore.DG>
-11.8275

> <Gold.Chemscore.ZeroCoef>
-5.4800

> <Gold.Chemscore.Hbond>
2.7493

> <Gold.Chemscore.Metal>
0.0000

> <Gold.Chemscore.Lipo>
83.0457

> <Gold.Chemscore.Internal_Hbond>
0.0000

> <Gold.Chemscore.DEClash>
0.1925

> <Gold.Chemscore.DEInternal>
0.8451

> <Gold.Chemscore.Rot>
4.9029

> <Gold.Chemscore.Internal.Correction>
   9.000000E+99

> <Gold.Chemscore.Hbonds>
donor molecule, donor type, donor heavy atom, donor atom, acceptor molecule, acceptor atom, score
      L1  H    23    50       P1 10952  0.44
      L1  H    25    51       P1  7921  0.99
      L1  H    27    52       P1  7948  0.45
      P1  H  7997  8009       L1    30  0.11

> <Gold.Chemscore.Hbond.Weighted>
-9.1827

> <Gold.Chemscore.Metal.Weighted>
-0.0000

> <Gold.Chemscore.Lipo.Weighted>
-9.7163

> <Gold.Chemscore.Internal_Hbond.Weighted>
0.0000

> <Gold.Chemscore.DEClash.Weighted>
0.1925

> <Gold.Chemscore.DEInternal.Weighted>
0.8451

> <Gold.Chemscore.Rot.Weighted>
12.5515

> <Gold.Chemscore.Internal.Correction.Weighted>
   9.000000E+99

> <Gold.Protein.RotatedTorsions>
[ 6907 6896 6895 6894 ] final -122.04 input  -60.11 | X-H torsion
[ 7974 7965 7964 7962 ] final -173.48 input  175.53 | X-H torsion
[ 8008 7997 7996 7995 ] final -140.26 input   59.86 | X-H torsion
[ 10167 10162 10161 10158 ] final -148.01 input  -65.29 | X-H torsion
[ 10718 10713 10712 10709 ] final   80.25 input   66.30 | X-H torsion
[ 10763 10752 10751 10750 ] final  111.53 input  -60.55 | X-H torsion
[ 11005 11000 10999 10996 ] final  171.68 input  -57.11 | X-H torsion

> <Gold.Protein.ActiveResidues>
 VAL166  LYS551  ARG553  GLY616  TRP617  ASP618  TYR619  PRO620  LYS621  CYS622 
 ASP623  PHE694  ASN695  SER759  ASP760  ASP761  ALA762  ILE779  LEU786  VAL792 
 PHE793  MET794  SER795  GLU796  ALA797  LYS798  CYS799  TRP800  GLU811  SER814 

> <Gold.Protein.RotatedAtoms>
  150.8539  133.7746  159.3015 H   0  0  0  0  0  0  0  0  0  0  0  0  # atno 6907 bound_to 6896
  151.5409  135.1067  159.9935 H   0  0  0  0  0  0  0  0  0  0  0  0  # atno 6908 bound_to 6896
  152.4574  133.7708  159.6853 H   0  0  0  0  0  0  0  0  0  0  0  0  # atno 6909 bound_to 6896
  144.7138  140.1616  143.6375 H   0  0  0  0  0  0  0  0  0  0  0  0  # atno 7974 bound_to 7965
  155.4584  140.0544  157.2993 H   0  0  0  0  0  0  0  0  0  0  0  0  # atno 8008 bound_to 7997
  154.4748  140.2056  155.9861 H   0  0  0  0  0  0  0  0  0  0  0  0  # atno 8009 bound_to 7997
  156.1114  140.3203  155.8082 H   0  0  0  0  0  0  0  0  0  0  0  0  # atno 8010 bound_to 7997
  139.7570  143.8433  152.2599 H   0  0  0  0  0  0  0  0  0  0  0  0  # atno 10167 bound_to 10162
  157.6801  130.9951  150.2052 H   0  0  0  0  0  0  0  0  0  0  0  0  # atno 10718 bound_to 10713
  153.4646  135.3714  155.2357 H   0  0  0  0  0  0  0  0  0  0  0  0  # atno 10763 bound_to 10752
  154.8757  135.3917  154.3884 H   0  0  0  0  0  0  0  0  0  0  0  0  # atno 10764 bound_to 10752
  153.4462  135.7085  153.6202 H   0  0  0  0  0  0  0  0  0  0  0  0  # atno 10765 bound_to 10752
  140.3216  134.7432  157.4068 H   0  0  0  0  0  0  0  0  0  0  0  0  # atno 11005 bound_to 11000
  145.9025  139.2439  143.1485 LP  0  0  0  0  0  0  0  0  0  0  0  0  # atno 17320 bound_to 7965
  145.9796  140.8693  143.0121 LP  0  0  0  0  0  0  0  0  0  0  0  0  # atno 17321 bound_to 7965
  139.8428  144.7202  150.9310 LP  0  0  0  0  0  0  0  0  0  0  0  0  # atno 17342 bound_to 10162
  140.7803  143.3968  151.1216 LP  0  0  0  0  0  0  0  0  0  0  0  0  # atno 17343 bound_to 10162
  156.2734  130.3724  149.8008 LP  0  0  0  0  0  0  0  0  0  0  0  0  # atno 17370 bound_to 10713
  156.5718  130.8428  151.3358 LP  0  0  0  0  0  0  0  0  0  0  0  0  # atno 17371 bound_to 10713
  140.0937  134.5567  155.8420 LP  0  0  0  0  0  0  0  0  0  0  0  0  # atno 17394 bound_to 11000
  141.2085  133.6674  156.6375 LP  0  0  0  0  0  0  0  0  0  0  0  0  # atno 17395 bound_to 11000

$$$$
