AV-unprocessed.smi:2822|AV-procd|sdf|10864|dock8
  -GOLD-   2272015313D 1   1.00000     0.00000
 Structure written by MMmdl.
 41 43  0  0  0  0  0  0  0  0  3 V2000
  151.3341  145.2662  158.7386 Cl  0  0  0  0  0  0  0  0  0  0  0  0
  151.9221  144.1705  159.9401 C   0  0  0  0  0  0  0  0  0  0  0  0
  152.0752  144.6214  161.2676 C   0  0  0  0  0  0  0  0  0  0  0  0
  152.5355  143.7806  162.2180 N   0  3  0  0  0  0  0  0  0  0  0  0
  152.8636  142.4974  161.9589 C   0  0  0  0  0  0  0  0  0  0  0  0
  152.7312  141.9880  160.6511 C   0  0  0  0  0  0  0  0  0  0  0  0
  152.2546  142.8316  159.6163 C   0  0  0  0  0  0  0  0  0  0  0  0
  152.1011  142.3844  158.2945 N   0  0  0  0  0  0  0  0  0  0  0  0
  151.8222  140.9851  158.0073 C   0  0  0  0  0  0  0  0  0  0  0  0
  151.5029  140.7638  156.5215 C   0  0  2  0  0  0  0  0  0  0  0  0
  150.1381  141.3653  156.1394 C   0  0  0  0  0  0  0  0  0  0  0  0
  149.8126  141.0645  154.7231 N   0  3  2  0  0  0  0  0  0  0  0  0
  148.5336  141.6628  154.2589 C   0  0  0  0  0  0  0  0  0  0  0  0
  147.3056  140.9056  154.7995 C   0  0  0  0  0  0  0  0  0  0  0  0
  147.3864  139.4107  154.4624 C   0  0  0  0  0  0  0  0  0  0  0  0
  148.7121  138.8203  154.9629 C   0  0  0  0  0  0  0  0  0  0  0  0
  149.9177  139.6124  154.4103 C   0  0  2  0  0  0  0  0  0  0  0  0
  151.2689  139.0578  154.9024 C   0  0  0  0  0  0  0  0  0  0  0  0
  151.4561  139.3615  156.2797 O   0  0  0  0  0  0  0  0  0  0  0  0
  151.8446  145.6246  161.5951 H   0  0  0  0  0  0  0  0  0  0  0  0
  153.2191  141.9193  162.7995 H   0  0  0  0  0  0  0  0  0  0  0  0
  152.9950  140.9577  160.4651 H   0  0  0  0  0  0  0  0  0  0  0  0
  152.4373  142.9692  157.5421 H   0  0  0  0  0  0  0  0  0  0  0  0
  152.6720  140.3685  158.3040 H   0  0  0  0  0  0  0  0  0  0  0  0
  150.9678  140.6745  158.6101 H   0  0  0  0  0  0  0  0  0  0  0  0
  152.2865  141.2206  155.9132 H   0  0  0  0  0  0  0  0  0  0  0  0
  149.3638  140.9737  156.7993 H   0  0  0  0  0  0  0  0  0  0  0  0
  150.1564  142.4464  156.2825 H   0  0  0  0  0  0  0  0  0  0  0  0
  148.4894  142.7151  154.5422 H   0  0  0  0  0  0  0  0  0  0  0  0
  148.5214  141.6392  153.1685 H   0  0  0  0  0  0  0  0  0  0  0  0
  147.2272  141.0359  155.8791 H   0  0  0  0  0  0  0  0  0  0  0  0
  146.3947  141.3303  154.3765 H   0  0  0  0  0  0  0  0  0  0  0  0
  146.5449  138.8781  154.9066 H   0  0  0  0  0  0  0  0  0  0  0  0
  147.3071  139.2727  153.3833 H   0  0  0  0  0  0  0  0  0  0  0  0
  148.7242  138.8173  156.0533 H   0  0  0  0  0  0  0  0  0  0  0  0
  148.7822  137.7759  154.6570 H   0  0  0  0  0  0  0  0  0  0  0  0
  149.9003  139.5163  153.3235 H   0  0  0  0  0  0  0  0  0  0  0  0
  151.3091  137.9768  154.7667 H   0  0  0  0  0  0  0  0  0  0  0  0
  152.0912  139.4757  154.3195 H   0  0  0  0  0  0  0  0  0  0  0  0
  150.5385  141.5159  154.1849 H   0  0  0  0  0  0  0  0  0  0  0  0
  152.6382  144.1293  163.1715 H   0  0  0  0  0  0  0  0  0  0  0  0
  1  2  1  0  0  0  0
  2  7  1  0  0  0  0
  2  3  2  0  0  0  0
  3  4  1  0  0  0  0
  3 20  1  0  0  0  0
  4  5  2  0  0  0  0
  4 41  1  0  0  0  0
  5  6  1  0  0  0  0
  5 21  1  0  0  0  0
  6  7  2  0  0  0  0
  6 22  1  0  0  0  0
  7  8  1  0  0  0  0
  8  9  1  0  0  0  0
  8 23  1  0  0  0  0
  9 10  1  0  0  0  0
  9 24  1  0  0  0  0
  9 25  1  0  0  0  0
 10 19  1  0  0  0  0
 10 11  1  0  0  0  0
 10 26  1  0  0  0  0
 11 12  1  0  0  0  0
 11 27  1  0  0  0  0
 11 28  1  0  0  0  0
 12 17  1  0  0  0  0
 12 13  1  0  0  0  0
 12 40  1  0  0  0  0
 13 14  1  0  0  0  0
 13 29  1  0  0  0  0
 13 30  1  0  0  0  0
 14 15  1  0  0  0  0
 14 31  1  0  0  0  0
 14 32  1  0  0  0  0
 15 16  1  0  0  0  0
 15 33  1  0  0  0  0
 15 34  1  0  0  0  0
 16 17  1  0  0  0  0
 16 35  1  0  0  0  0
 16 36  1  0  0  0  0
 17 18  1  0  0  0  0
 17 37  1  0  0  0  0
 18 19  1  0  0  0  0
 18 38  1  0  0  0  0
 18 39  1  0  0  0  0
M  CHG  1   4   1
M  CHG  1  12   1
M  END
> <s_m_source_file>
AV-unprocessed.smi

> <i_m_source_file_index>
2822

> <i_lp_mmshare_version>
43012

> <i_f3d_flags>
0

> <s_epik_input>
Q2xjMVtjSF1uW2NIXVtjSF1jMVtOSF1bQ0gyXVtDQEhdKFtDSDJdMilPW0NIMl1bQ0BASF0oTjIzKVtDSDJdW0NIMl1bQ0gyXVtDSDJdMw==

> <s_epik_cmdline>
J2VwaWtfcHl0aG9uJywgJy1waCcsICc3LjAnLCAnLXRuJywgJzgnLCAnLW1hJywgJzIwMCcsICctbWV0YWxfYmluZGluZycsICctaW1hZScsICc8aW5maWxlLm1hZT4nLCAnLW9tYWUnLCAnPG91dGZpbGUubWFlPic=

> <r_lp_tautomer_probability>
1

> <r_epik_Ionization_Penalty>
0.254999

> <r_epik_Ionization_Penalty_Charging>
0.254956

> <r_epik_Ionization_Penalty_Neutral>
4.33524e-05

> <r_epik_State_Penalty>
0.230978

> <r_epik_Charging_Adjusted_Penalty>
0.485934

> <i_epik_Tot_Q>
2

> <i_epik_Tot_abs_Q>
2

> <r_epik_Metal_State_Penalty>
3.47007

> <b_epik_Metal_Only>
0

> <s_lp_Force_Field>
OPLS_2005

> <r_lp_Energy>
39.695

> <b_lp_Chiralities_Consistent>
1

> <s_lp_Variant>
AV-unprocessed.smi:2822-5

> <Gold.Version>
5.8.1

> <Gold.Id.Protein>
6NUR|6NUR_protein|mol2

> <Gold.PLP.Fitness>
41.6747

> <Gold.PLP.PLP>
-42.1713

> <Gold.PLP.part.hbond>
-0.3088

> <Gold.PLP.part.metal>
0.0000

> <Gold.PLP.part.buried>
-2.6128

> <Gold.PLP.part.nonpolar>
-37.6194

> <Gold.PLP.part.repulsive>
1.4798

> <Gold.PLP.ligand.clash>
0.0000

> <Gold.PLP.ligand.torsion>
0.2486

> <Gold.PLP.Chemscore.Hbond>
0.0000

> <Gold.PLP.Chemscore.CHOScore>
0.0000

> <Gold.PLP.Chemscore.Metal>
0.0000

> <Gold.PLP.Chemscore.Internal.Correction>
0.0006

> <Gold.Rescore>
     Score         DG    S(hbond)    S(metal)    S(lipo)     H(rot)  DE(clash)    DE(int)     intcor
     16.06     -16.72       0.00        0.00     122.28       1.20       0.46       0.21       ----

> <Gold.Chemscore.Fitness>
16.0553

> <Gold.Chemscore.DG>
-16.7248

> <Gold.Chemscore.ZeroCoef>
-5.4800

> <Gold.Chemscore.Hbond>
0.0000

> <Gold.Chemscore.Metal>
0.0000

> <Gold.Chemscore.Lipo>
122.2832

> <Gold.Chemscore.Internal_Hbond>
0.0000

> <Gold.Chemscore.DEClash>
0.4555

> <Gold.Chemscore.DEInternal>
0.2141

> <Gold.Chemscore.Rot>
1.1962

> <Gold.Chemscore.Internal.Correction>
   9.000000E+99

> <Gold.Chemscore.Hbond.Weighted>
-0.0000

> <Gold.Chemscore.Metal.Weighted>
-0.0000

> <Gold.Chemscore.Lipo.Weighted>
-14.3071

> <Gold.Chemscore.Internal_Hbond.Weighted>
0.0000

> <Gold.Chemscore.DEClash.Weighted>
0.4555

> <Gold.Chemscore.DEInternal.Weighted>
0.2141

> <Gold.Chemscore.Rot.Weighted>
3.0623

> <Gold.Chemscore.Internal.Correction.Weighted>
   9.000000E+99

> <Gold.Protein.RotatedTorsions>
[ 6907 6896 6895 6894 ] final  -25.56 input  -60.11 | X-H torsion
[ 7974 7965 7964 7962 ] final   60.98 input  175.53 | X-H torsion
[ 8008 7997 7996 7995 ] final -159.48 input   59.86 | X-H torsion
[ 10167 10162 10161 10158 ] final -145.01 input  -65.29 | X-H torsion
[ 10718 10713 10712 10709 ] final   42.14 input   66.30 | X-H torsion
[ 10763 10752 10751 10750 ] final  119.14 input  -60.55 | X-H torsion
[ 11005 11000 10999 10996 ] final -100.92 input  -57.11 | X-H torsion

> <Gold.Protein.ActiveResidues>
 VAL166  LYS551  ARG553  GLY616  TRP617  ASP618  TYR619  PRO620  LYS621  CYS622 
 ASP623  PHE694  ASN695  SER759  ASP760  ASP761  ALA762  ILE779  LEU786  VAL792 
 PHE793  MET794  SER795  GLU796  ALA797  LYS798  CYS799  TRP800  GLU811  SER814 

> <Gold.Protein.RotatedAtoms>
  151.1734  135.0328  159.8761 H   0  0  0  0  0  0  0  0  0  0  0  0  # atno 6907 bound_to 6896
  152.5448  134.1145  159.8383 H   0  0  0  0  0  0  0  0  0  0  0  0  # atno 6908 bound_to 6896
  151.1253  133.5028  159.2633 H   0  0  0  0  0  0  0  0  0  0  0  0  # atno 6909 bound_to 6896
  145.8899  139.3503  143.0655 H   0  0  0  0  0  0  0  0  0  0  0  0  # atno 7974 bound_to 7965
  155.7632  140.0842  157.2145 H   0  0  0  0  0  0  0  0  0  0  0  0  # atno 8008 bound_to 7997
  154.4002  140.1539  156.2913 H   0  0  0  0  0  0  0  0  0  0  0  0  # atno 8009 bound_to 7997
  155.8819  140.3420  155.5896 H   0  0  0  0  0  0  0  0  0  0  0  0  # atno 8010 bound_to 7997
  139.7845  143.8053  152.2643 H   0  0  0  0  0  0  0  0  0  0  0  0  # atno 10167 bound_to 10162
  157.4015  130.7862  149.7352 H   0  0  0  0  0  0  0  0  0  0  0  0  # atno 10718 bound_to 10713
  153.5785  135.3488  155.2865 H   0  0  0  0  0  0  0  0  0  0  0  0  # atno 10763 bound_to 10752
  154.8671  135.4176  154.2646 H   0  0  0  0  0  0  0  0  0  0  0  0  # atno 10764 bound_to 10752
  153.3428  135.7051  153.6923 H   0  0  0  0  0  0  0  0  0  0  0  0  # atno 10765 bound_to 10752
  141.1251  133.8437  157.1165 H   0  0  0  0  0  0  0  0  0  0  0  0  # atno 11005 bound_to 11000
  145.8921  140.9297  143.0547 LP  0  0  0  0  0  0  0  0  0  0  0  0  # atno 17320 bound_to 7965
  144.6730  140.0919  143.7464 LP  0  0  0  0  0  0  0  0  0  0  0  0  # atno 17321 bound_to 7965
  139.8126  144.7329  150.9677 LP  0  0  0  0  0  0  0  0  0  0  0  0  # atno 17342 bound_to 10162
  140.7819  143.4236  151.0803 LP  0  0  0  0  0  0  0  0  0  0  0  0  # atno 17343 bound_to 10162
  155.9824  130.4010  150.3416 LP  0  0  0  0  0  0  0  0  0  0  0  0  # atno 17370 bound_to 10713
  157.1544  131.0329  151.2870 LP  0  0  0  0  0  0  0  0  0  0  0  0  # atno 17371 bound_to 10713
  140.0243  134.9931  157.0654 LP  0  0  0  0  0  0  0  0  0  0  0  0  # atno 17394 bound_to 11000
  140.4389  134.1702  155.7172 LP  0  0  0  0  0  0  0  0  0  0  0  0  # atno 17395 bound_to 11000

$$$$
