AV-unprocessed.smi:243|AV-procd|sdf|1856|dock10
  -GOLD-   2262020483D 1   1.00000     0.00000
 Structure written by MMmdl.
 58 61  0  0  0  0  0  0  0  0  2 V2000
  145.3456  135.4484  151.3714 C   0  0  0  0  0  0  0  0  0  0  0  0
  145.7906  135.6094  152.8325 C   0  0  0  0  0  0  0  0  0  0  0  0
  146.7072  136.7613  153.0291 N   0  3  2  0  0  0  0  0  0  0  0  0
  147.0591  136.9565  154.4577 C   0  0  0  0  0  0  0  0  0  0  0  0
  148.1409  138.0335  154.6137 C   0  0  0  0  0  0  0  0  0  0  0  0
  147.6964  139.3682  153.9763 C   0  0  1  0  0  0  0  0  0  0  0  0
  148.6795  140.4468  154.1639 N   0  0  0  0  0  0  0  0  0  0  0  0
  148.2115  141.8264  154.0976 C   0  0  0  0  0  0  0  0  0  0  0  0
  149.7910  140.2888  154.9287 C   0  0  0  0  0  0  0  0  0  0  0  0
  150.7945  139.4683  154.5221 N   0  0  0  0  0  0  0  0  0  0  0  0
  151.8831  139.3057  155.2798 C   0  0  0  0  0  0  0  0  0  0  0  0
  152.1687  139.8593  156.4595 N   0  0  0  0  0  0  0  0  0  0  0  0
  151.1634  140.6811  156.8762 C   0  0  0  0  0  0  0  0  0  0  0  0
  149.9517  140.9488  156.1790 C   0  0  0  0  0  0  0  0  0  0  0  0
  149.1780  141.8471  156.9034 N   0  0  0  0  0  0  0  0  0  0  0  0
  149.8895  142.0938  157.9691 C   0  0  0  0  0  0  0  0  0  0  0  0
  151.0931  141.4286  158.0393 N   0  0  0  0  0  0  0  0  0  0  0  0
  152.0807  141.5168  159.1044 C   0  0  0  0  0  0  0  0  0  0  0  0
  152.3532  142.9632  159.5816 C   0  0  1  0  0  0  0  0  0  0  0  0
  153.4038  142.9498  160.5328 O   0  0  0  0  0  0  0  0  0  0  0  0
  152.7505  143.8947  158.4432 C   0  0  0  0  0  0  0  0  0  0  0  0
  152.2607  145.2511  158.9317 C   0  0  0  0  0  0  0  0  0  0  0  0
  151.0213  144.9369  159.5432 O   0  0  0  0  0  0  0  0  0  0  0  0
  151.1378  143.6805  160.2055 C   0  0  0  0  0  0  0  0  0  0  0  0
  147.2520  139.1537  152.5042 C   0  0  2  0  0  0  0  0  0  0  0  0
  146.6835  140.4380  151.8741 C   0  0  0  0  0  0  0  0  0  0  0  0
  146.2054  138.0228  152.4235 C   0  0  0  0  0  0  0  0  0  0  0  0
  144.7646  134.5341  151.2476 H   0  0  0  0  0  0  0  0  0  0  0  0
  146.2037  135.3860  150.7016 H   0  0  0  0  0  0  0  0  0  0  0  0
  144.7170  136.2739  151.0393 H   0  0  0  0  0  0  0  0  0  0  0  0
  144.9258  135.7013  153.4912 H   0  0  0  0  0  0  0  0  0  0  0  0
  146.3031  134.6914  153.1231 H   0  0  0  0  0  0  0  0  0  0  0  0
  146.1662  137.2308  155.0220 H   0  0  0  0  0  0  0  0  0  0  0  0
  147.4272  136.0209  154.8809 H   0  0  0  0  0  0  0  0  0  0  0  0
  148.3574  138.1751  155.6731 H   0  0  0  0  0  0  0  0  0  0  0  0
  149.0616  137.6693  154.1601 H   0  0  0  0  0  0  0  0  0  0  0  0
  146.8075  139.6931  154.5192 H   0  0  0  0  0  0  0  0  0  0  0  0
  148.2196  142.2889  155.0856 H   0  0  0  0  0  0  0  0  0  0  0  0
  147.1930  141.8787  153.7128 H   0  0  0  0  0  0  0  0  0  0  0  0
  148.8441  142.4175  153.4356 H   0  0  0  0  0  0  0  0  0  0  0  0
  152.6326  138.6357  154.8854 H   0  0  0  0  0  0  0  0  0  0  0  0
  149.5527  142.7752  158.7366 H   0  0  0  0  0  0  0  0  0  0  0  0
  151.7385  140.9040  159.9397 H   0  0  0  0  0  0  0  0  0  0  0  0
  153.0041  141.0578  158.7490 H   0  0  0  0  0  0  0  0  0  0  0  0
  153.2454  143.6341  161.1648 H   0  0  0  0  0  0  0  0  0  0  0  0
  153.8169  143.8792  158.2141 H   0  0  0  0  0  0  0  0  0  0  0  0
  152.2115  143.6299  157.5325 H   0  0  0  0  0  0  0  0  0  0  0  0
  152.9414  145.6702  159.6743 H   0  0  0  0  0  0  0  0  0  0  0  0
  152.1407  145.9743  158.1249 H   0  0  0  0  0  0  0  0  0  0  0  0
  150.2089  143.1335  160.0490 H   0  0  0  0  0  0  0  0  0  0  0  0
  151.2516  143.8304  161.2802 H   0  0  0  0  0  0  0  0  0  0  0  0
  148.1062  138.8395  151.9049 H   0  0  0  0  0  0  0  0  0  0  0  0
  145.8256  140.8087  152.4359 H   0  0  0  0  0  0  0  0  0  0  0  0
  146.3573  140.2603  150.8490 H   0  0  0  0  0  0  0  0  0  0  0  0
  147.4262  141.2349  151.8402 H   0  0  0  0  0  0  0  0  0  0  0  0
  145.9508  137.8580  151.3771 H   0  0  0  0  0  0  0  0  0  0  0  0
  145.2841  138.3230  152.9256 H   0  0  0  0  0  0  0  0  0  0  0  0
  147.5677  136.5264  152.5550 H   0  0  0  0  0  0  0  0  0  0  0  0
  1  2  1  0  0  0  0
  1 28  1  0  0  0  0
  1 29  1  0  0  0  0
  1 30  1  0  0  0  0
  2  3  1  0  0  0  0
  2 31  1  0  0  0  0
  2 32  1  0  0  0  0
  3 27  1  0  0  0  0
  3  4  1  0  0  0  0
  3 58  1  0  0  0  0
  4  5  1  0  0  0  0
  4 33  1  0  0  0  0
  4 34  1  0  0  0  0
  5  6  1  0  0  0  0
  5 35  1  0  0  0  0
  5 36  1  0  0  0  0
  6  7  1  0  0  0  0
  6 25  1  0  0  0  0
  6 37  1  0  0  0  0
  7  8  1  0  0  0  0
  7  9  1  0  0  0  0
  8 38  1  0  0  0  0
  8 39  1  0  0  0  0
  8 40  1  0  0  0  0
  9 14  1  0  0  0  0
  9 10  2  0  0  0  0
 10 11  1  0  0  0  0
 11 12  2  0  0  0  0
 11 41  1  0  0  0  0
 12 13  1  0  0  0  0
 13 17  1  0  0  0  0
 13 14  2  0  0  0  0
 14 15  1  0  0  0  0
 15 16  2  0  0  0  0
 16 17  1  0  0  0  0
 16 42  1  0  0  0  0
 17 18  1  0  0  0  0
 18 19  1  0  0  0  0
 18 43  1  0  0  0  0
 18 44  1  0  0  0  0
 19 24  1  0  0  0  0
 19 20  1  0  0  0  0
 19 21  1  0  0  0  0
 20 45  1  0  0  0  0
 21 22  1  0  0  0  0
 21 46  1  0  0  0  0
 21 47  1  0  0  0  0
 22 23  1  0  0  0  0
 22 48  1  0  0  0  0
 22 49  1  0  0  0  0
 23 24  1  0  0  0  0
 24 50  1  0  0  0  0
 24 51  1  0  0  0  0
 25 26  1  0  0  0  0
 25 27  1  0  0  0  0
 25 52  1  0  0  0  0
 26 53  1  0  0  0  0
 26 54  1  0  0  0  0
 26 55  1  0  0  0  0
 27 56  1  0  0  0  0
 27 57  1  0  0  0  0
M  CHG  1   3   1
M  END
> <s_m_source_file>
AV-unprocessed.smi

> <i_m_source_file_index>
243

> <i_lp_mmshare_version>
43012

> <i_f3d_flags>
0

> <s_epik_input>
W0NIM11bQ0gyXU4xW0NIMl1bQ0gyXVtDQEhdKFtDQEBIXShbQ0gzXSlbQ0gyXTEpTihbQ0gzXSljKG5bY0hdbjIpYyhjMjMpbltjSF1uM1tDSDJdW0NAQF00KFtPSF0pW0NIMl1bQ0gyXU9bQ0gyXTQ=

> <s_epik_cmdline>
J2VwaWtfcHl0aG9uJywgJy1waCcsICc3LjAnLCAnLXRuJywgJzgnLCAnLW1hJywgJzIwMCcsICctbWV0YWxfYmluZGluZycsICctaW1hZScsICc8aW5maWxlLm1hZT4nLCAnLW9tYWUnLCAnPG91dGZpbGUubWFlPic=

> <r_lp_tautomer_probability>
1

> <r_epik_Ionization_Penalty>
0.00253099

> <r_epik_Ionization_Penalty_Charging>
0.00137877

> <r_epik_Ionization_Penalty_Neutral>
0.00115221

> <r_epik_State_Penalty>
-0

> <r_epik_Charging_Adjusted_Penalty>
0.00137877

> <i_epik_Tot_Q>
1

> <i_epik_Tot_abs_Q>
1

> <r_epik_Metal_State_Penalty>
-0

> <b_epik_Metal_Only>
0

> <s_lp_Force_Field>
OPLS_2005

> <r_lp_Energy>
45.5206

> <b_lp_Chiralities_Consistent>
1

> <s_lp_Variant>
AV-unprocessed.smi:243-9

> <Gold.Version>
5.8.1

> <Gold.Id.Protein>
6NUR|6NUR_protein|mol2

> <Gold.PLP.Fitness>
53.2218

> <Gold.PLP.PLP>
-46.1082

> <Gold.PLP.part.hbond>
-2.6601

> <Gold.PLP.part.metal>
0.0000

> <Gold.PLP.part.buried>
1.4031

> <Gold.PLP.part.nonpolar>
-45.9518

> <Gold.PLP.part.repulsive>
0.3988

> <Gold.PLP.ligand.clash>
0.0000

> <Gold.PLP.ligand.torsion>
1.5922

> <Gold.PLP.Chemscore.Hbond>
3.1188

> <Gold.PLP.Chemscore.CHOScore>
0.0000

> <Gold.PLP.Chemscore.Metal>
0.0000

> <Gold.Chemscore.Hbonds>
donor molecule, donor type, donor heavy atom, donor atom, acceptor molecule, acceptor atom, score
      L1  H     3    58       P1  7948  2.00
      P1  H  7989  7998       L1    10  0.39
      P1  H  7997  8008       L1    12  0.62

> <Gold.PLP.Chemscore.Internal.Correction>
0.9419

> <Gold.Rescore>
     Score         DG    S(hbond)    S(metal)    S(lipo)     H(rot)  DE(clash)    DE(int)     intcor
     11.95     -17.55       1.43        0.00     111.20       2.24       1.42       4.17       ----

> <Gold.Chemscore.Fitness>
11.9518

> <Gold.Chemscore.DG>
-17.5456

> <Gold.Chemscore.ZeroCoef>
-5.4800

> <Gold.Chemscore.Hbond>
1.4323

> <Gold.Chemscore.Metal>
0.0000

> <Gold.Chemscore.Lipo>
111.2023

> <Gold.Chemscore.Internal_Hbond>
0.0000

> <Gold.Chemscore.DEClash>
1.4244

> <Gold.Chemscore.DEInternal>
4.1694

> <Gold.Chemscore.Rot>
2.2379

> <Gold.Chemscore.Internal.Correction>
   9.000000E+99

> <Gold.Chemscore.Hbonds>
donor molecule, donor type, donor heavy atom, donor atom, acceptor molecule, acceptor atom, score
      L1  H     3    58       P1  7948  0.97
      P1  H  7997  8008       L1    12  0.28

> <Gold.Chemscore.Hbond.Weighted>
-4.7840

> <Gold.Chemscore.Metal.Weighted>
-0.0000

> <Gold.Chemscore.Lipo.Weighted>
-13.0107

> <Gold.Chemscore.Internal_Hbond.Weighted>
0.0000

> <Gold.Chemscore.DEClash.Weighted>
1.4244

> <Gold.Chemscore.DEInternal.Weighted>
4.1694

> <Gold.Chemscore.Rot.Weighted>
5.7291

> <Gold.Chemscore.Internal.Correction.Weighted>
   9.000000E+99

> <Gold.Protein.RotatedTorsions>
[ 6907 6896 6895 6894 ] final  -81.32 input  -60.11 | X-H torsion
[ 7974 7965 7964 7962 ] final -135.37 input  175.53 | X-H torsion
[ 8008 7997 7996 7995 ] final  -47.97 input   59.86 | X-H torsion
[ 10167 10162 10161 10158 ] final -101.28 input  -65.29 | X-H torsion
[ 10718 10713 10712 10709 ] final -152.17 input   66.30 | X-H torsion
[ 10763 10752 10751 10750 ] final  -51.45 input  -60.55 | X-H torsion
[ 11005 11000 10999 10996 ] final  -64.04 input  -57.11 | X-H torsion

> <Gold.Protein.ActiveResidues>
 VAL166  LYS551  ARG553  GLY616  TRP617  ASP618  TYR619  PRO620  LYS621  CYS622 
 ASP623  PHE694  ASN695  SER759  ASP760  ASP761  ALA762  ILE779  LEU786  VAL792 
 PHE793  MET794  SER795  GLU796  ALA797  LYS798  CYS799  TRP800  GLU811  SER814 

> <Gold.Protein.RotatedAtoms>
  150.6914  134.3835  159.5044 H   0  0  0  0  0  0  0  0  0  0  0  0  # atno 6907 bound_to 6896
  152.1634  134.8891  160.0549 H   0  0  0  0  0  0  0  0  0  0  0  0  # atno 6908 bound_to 6896
  151.9944  133.3768  159.4194 H   0  0  0  0  0  0  0  0  0  0  0  0  # atno 6909 bound_to 6896
  144.9020  140.6783  143.5079 H   0  0  0  0  0  0  0  0  0  0  0  0  # atno 7974 bound_to 7965
  154.4023  140.1333  156.4262 H   0  0  0  0  0  0  0  0  0  0  0  0  # atno 8008 bound_to 7997
  155.7595  140.3486  155.5170 H   0  0  0  0  0  0  0  0  0  0  0  0  # atno 8009 bound_to 7997
  155.8873  140.0997  157.1434 H   0  0  0  0  0  0  0  0  0  0  0  0  # atno 8010 bound_to 7997
  140.2429  143.3526  152.0785 H   0  0  0  0  0  0  0  0  0  0  0  0  # atno 10167 bound_to 10162
  156.4689  130.8249  151.2479 H   0  0  0  0  0  0  0  0  0  0  0  0  # atno 10718 bound_to 10713
  154.1268  135.6526  153.4914 H   0  0  0  0  0  0  0  0  0  0  0  0  # atno 10763 bound_to 10752
  153.0208  135.5283  154.7042 H   0  0  0  0  0  0  0  0  0  0  0  0  # atno 10764 bound_to 10752
  154.6265  135.2971  155.0237 H   0  0  0  0  0  0  0  0  0  0  0  0  # atno 10765 bound_to 10752
  141.1412  133.6660  156.5772 H   0  0  0  0  0  0  0  0  0  0  0  0  # atno 11005 bound_to 11000
  145.3600  139.1684  143.4388 LP  0  0  0  0  0  0  0  0  0  0  0  0  # atno 17320 bound_to 7965
  146.3113  140.3661  142.8669 LP  0  0  0  0  0  0  0  0  0  0  0  0  # atno 17321 bound_to 7965
  139.5071  144.6826  151.5970 LP  0  0  0  0  0  0  0  0  0  0  0  0  # atno 17342 bound_to 10162
  140.6099  143.9455  150.6446 LP  0  0  0  0  0  0  0  0  0  0  0  0  # atno 17343 bound_to 10162
  157.7493  131.0082  150.3221 LP  0  0  0  0  0  0  0  0  0  0  0  0  # atno 17370 bound_to 10713
  156.3638  130.3851  149.7230 LP  0  0  0  0  0  0  0  0  0  0  0  0  # atno 17371 bound_to 10713
  140.3866  134.7476  157.4695 LP  0  0  0  0  0  0  0  0  0  0  0  0  # atno 17394 bound_to 11000
  140.0597  134.6013  155.8763 LP  0  0  0  0  0  0  0  0  0  0  0  0  # atno 17395 bound_to 11000

$$$$
