AV-unprocessed.smi:2702|AV-procd|sdf|10431|dock9
  -GOLD-   2272014473D 1   1.00000     0.00000
 Structure written by MMmdl.
 47 48  0  0  0  0  0  0  0  0  1 V2000
  154.1272  132.9454  164.8163 C   0  0  0  0  0  0  0  0  0  0  0  0
  154.4153  134.2472  164.3376 O   0  0  0  0  0  0  0  0  0  0  0  0
  154.7429  134.2589  162.9587 C   0  0  0  0  0  0  0  0  0  0  0  0
  155.0456  135.6705  162.4997 C   0  0  0  0  0  0  0  0  0  0  0  0
  155.5428  135.9312  161.2681 C   0  0  0  0  0  0  0  0  0  0  0  0
  155.8405  137.3037  160.8584 C   0  0  0  0  0  0  0  0  0  0  0  0
  156.2808  137.5829  159.7429 O   0  0  0  0  0  0  0  0  0  0  0  0
  155.5949  138.2530  161.8091 N   0  0  0  0  0  0  0  0  0  0  0  0
  155.8534  139.6817  161.5513 C   0  0  0  0  0  0  0  0  0  0  0  0
  155.0513  140.2519  160.3724 C   0  0  0  0  0  0  0  0  0  0  0  0
  155.1380  139.7600  159.2461 O   0  0  0  0  0  0  0  0  0  0  0  0
  154.2574  141.2940  160.6598 N   0  0  0  0  0  0  0  0  0  0  0  0
  153.4010  141.9951  159.7061 C   0  0  1  0  0  0  0  0  0  0  0  0
  152.2166  141.0931  159.3096 C   0  0  0  0  0  0  0  0  0  0  0  0
  151.3112  141.7841  158.2793 C   0  0  0  0  0  0  0  0  0  0  0  0
  150.8327  143.1564  158.7787 C   0  0  0  0  0  0  0  0  0  0  0  0
  152.0190  144.0558  159.1813 C   0  0  1  0  0  0  0  0  0  0  0  0
  151.5554  145.4660  159.5824 C   0  0  0  0  0  0  0  0  0  0  0  0
  152.9202  143.3713  160.2437 C   0  0  1  0  0  0  0  0  0  0  0  0
  152.2687  143.2842  161.6439 C   0  0  0  0  0  0  0  0  0  0  0  0
  155.0788  137.9258  163.0790 C   0  0  0  0  0  0  0  0  0  0  0  0
  154.8199  136.7024  163.4161 N   0  0  0  0  0  0  0  0  0  0  0  0
  153.8839  132.9918  165.8778 H   0  0  0  0  0  0  0  0  0  0  0  0
  154.9847  132.2819  164.6959 H   0  0  0  0  0  0  0  0  0  0  0  0
  153.2730  132.5129  164.2936 H   0  0  0  0  0  0  0  0  0  0  0  0
  155.6140  133.6274  162.7749 H   0  0  0  0  0  0  0  0  0  0  0  0
  153.9189  133.8507  162.3708 H   0  0  0  0  0  0  0  0  0  0  0  0
  155.7214  135.1224  160.5745 H   0  0  0  0  0  0  0  0  0  0  0  0
  155.6388  140.2871  162.4339 H   0  0  0  0  0  0  0  0  0  0  0  0
  156.9167  139.8369  161.3581 H   0  0  0  0  0  0  0  0  0  0  0  0
  154.2486  141.6327  161.6109 H   0  0  0  0  0  0  0  0  0  0  0  0
  153.9857  142.1703  158.8004 H   0  0  0  0  0  0  0  0  0  0  0  0
  152.5866  140.1552  158.8933 H   0  0  0  0  0  0  0  0  0  0  0  0
  151.6322  140.8264  160.1909 H   0  0  0  0  0  0  0  0  0  0  0  0
  151.8572  141.9094  157.3432 H   0  0  0  0  0  0  0  0  0  0  0  0
  150.4535  141.1503  158.0531 H   0  0  0  0  0  0  0  0  0  0  0  0
  150.2498  143.6404  157.9944 H   0  0  0  0  0  0  0  0  0  0  0  0
  150.1550  143.0254  159.6228 H   0  0  0  0  0  0  0  0  0  0  0  0
  152.6329  144.1857  158.2883 H   0  0  0  0  0  0  0  0  0  0  0  0
  150.8508  145.4412  160.4137 H   0  0  0  0  0  0  0  0  0  0  0  0
  151.0551  145.9603  158.7494 H   0  0  0  0  0  0  0  0  0  0  0  0
  152.4001  146.0905  159.8744 H   0  0  0  0  0  0  0  0  0  0  0  0
  153.8055  143.9986  160.3596 H   0  0  0  0  0  0  0  0  0  0  0  0
  151.3524  142.6950  161.6348 H   0  0  0  0  0  0  0  0  0  0  0  0
  152.0216  144.2719  162.0316 H   0  0  0  0  0  0  0  0  0  0  0  0
  152.9414  142.8313  162.3720 H   0  0  0  0  0  0  0  0  0  0  0  0
  154.9122  138.7705  163.7494 H   0  0  0  0  0  0  0  0  0  0  0  0
  1  2  1  0  0  0  0
  1 23  1  0  0  0  0
  1 24  1  0  0  0  0
  1 25  1  0  0  0  0
  2  3  1  0  0  0  0
  3  4  1  0  0  0  0
  3 26  1  0  0  0  0
  3 27  1  0  0  0  0
  4 22  1  0  0  0  0
  4  5  2  0  0  0  0
  5  6  1  0  0  0  0
  5 28  1  0  0  0  0
  6  7  2  0  0  0  0
  6  8  1  0  0  0  0
  8  9  1  0  0  0  0
  8 21  1  0  0  0  0
  9 10  1  0  0  0  0
  9 29  1  0  0  0  0
  9 30  1  0  0  0  0
 10 11  2  0  0  0  0
 10 12  1  0  0  0  0
 12 13  1  0  0  0  0
 12 31  1  0  0  0  0
 13 19  1  0  0  0  0
 13 14  1  0  0  0  0
 13 32  1  0  0  0  0
 14 15  1  0  0  0  0
 14 33  1  0  0  0  0
 14 34  1  0  0  0  0
 15 16  1  0  0  0  0
 15 35  1  0  0  0  0
 15 36  1  0  0  0  0
 16 17  1  0  0  0  0
 16 37  1  0  0  0  0
 16 38  1  0  0  0  0
 17 18  1  0  0  0  0
 17 19  1  0  0  0  0
 17 39  1  0  0  0  0
 18 40  1  0  0  0  0
 18 41  1  0  0  0  0
 18 42  1  0  0  0  0
 19 20  1  0  0  0  0
 19 43  1  0  0  0  0
 20 44  1  0  0  0  0
 20 45  1  0  0  0  0
 20 46  1  0  0  0  0
 21 22  2  0  0  0  0
 21 47  1  0  0  0  0
M  END
> <s_m_source_file>
AV-unprocessed.smi

> <i_m_source_file_index>
2702

> <i_lp_mmshare_version>
43012

> <i_f3d_flags>
0

> <s_epik_input>
W0NIM11PW0NIMl1jMVtjSF1jKD1PKW4oW2NIXW4xKVtDSDJdQyg9TylbTkhdW0NAQEhdMltDSDJdW0NIMl1bQ0gyXVtDQEBIXShbQ0gzXSlbQ0BIXTJbQ0gzXQ==

> <s_epik_cmdline>
J2VwaWtfcHl0aG9uJywgJy1waCcsICc3LjAnLCAnLXRuJywgJzgnLCAnLW1hJywgJzIwMCcsICctbWV0YWxfYmluZGluZycsICctaW1hZScsICc8aW5maWxlLm1hZT4nLCAnLW9tYWUnLCAnPG91dGZpbGUubWFlPic=

> <r_lp_tautomer_probability>
1

> <r_epik_Ionization_Penalty>
1.22164e-06

> <r_epik_Ionization_Penalty_Charging>
3.17988e-07

> <r_epik_Ionization_Penalty_Neutral>
9.03656e-07

> <r_epik_State_Penalty>
-0

> <r_epik_Charging_Adjusted_Penalty>
3.17988e-07

> <i_epik_Tot_Q>
0

> <i_epik_Tot_abs_Q>
0

> <r_epik_Metal_State_Penalty>
-0

> <b_epik_Metal_Only>
0

> <s_lp_Force_Field>
OPLS_2005

> <r_lp_Energy>
18.9829

> <b_lp_Chiralities_Consistent>
1

> <s_lp_Variant>
AV-unprocessed.smi:2702-2

> <Gold.Version>
5.8.1

> <Gold.Id.Protein>
6NUR|6NUR_protein|mol2

> <Gold.PLP.Fitness>
46.1031

> <Gold.PLP.PLP>
-43.5156

> <Gold.PLP.part.hbond>
-1.0000

> <Gold.PLP.part.metal>
0.0000

> <Gold.PLP.part.buried>
-5.8861

> <Gold.PLP.part.nonpolar>
-37.0384

> <Gold.PLP.part.repulsive>
0.2530

> <Gold.PLP.ligand.clash>
0.0000

> <Gold.PLP.ligand.torsion>
0.2169

> <Gold.PLP.Chemscore.Hbond>
1.0000

> <Gold.PLP.Chemscore.CHOScore>
0.0000

> <Gold.PLP.Chemscore.Metal>
0.0000

> <Gold.Chemscore.Hbonds>
donor molecule, donor type, donor heavy atom, donor atom, acceptor molecule, acceptor atom, score
      P1  H  7997  8009       L1    11  1.00

> <Gold.PLP.Chemscore.Internal.Correction>
0.0212

> <Gold.Rescore>
     Score         DG    S(hbond)    S(metal)    S(lipo)     H(rot)  DE(clash)    DE(int)     intcor
     15.89     -17.69       0.98        0.00     118.60       1.93       0.07       1.73       ----

> <Gold.Chemscore.Fitness>
15.8926

> <Gold.Chemscore.DG>
-17.6859

> <Gold.Chemscore.ZeroCoef>
-5.4800

> <Gold.Chemscore.Hbond>
0.9779

> <Gold.Chemscore.Metal>
0.0000

> <Gold.Chemscore.Lipo>
118.6022

> <Gold.Chemscore.Internal_Hbond>
0.0000

> <Gold.Chemscore.DEClash>
0.0650

> <Gold.Chemscore.DEInternal>
1.7283

> <Gold.Chemscore.Rot>
1.9284

> <Gold.Chemscore.Internal.Correction>
   9.000000E+99

> <Gold.Chemscore.Hbonds>
donor molecule, donor type, donor heavy atom, donor atom, acceptor molecule, acceptor atom, score
      P1  H  7997  8009       L1    11  0.99

> <Gold.Chemscore.Hbond.Weighted>
-3.2662

> <Gold.Chemscore.Metal.Weighted>
-0.0000

> <Gold.Chemscore.Lipo.Weighted>
-13.8765

> <Gold.Chemscore.Internal_Hbond.Weighted>
0.0000

> <Gold.Chemscore.DEClash.Weighted>
0.0650

> <Gold.Chemscore.DEInternal.Weighted>
1.7283

> <Gold.Chemscore.Rot.Weighted>
4.9368

> <Gold.Chemscore.Internal.Correction.Weighted>
   9.000000E+99

> <Gold.Protein.RotatedTorsions>
[ 6907 6896 6895 6894 ] final  -19.57 input  -60.11 | X-H torsion
[ 7974 7965 7964 7962 ] final  -65.60 input  175.53 | X-H torsion
[ 8008 7997 7996 7995 ] final  112.05 input   59.86 | X-H torsion
[ 10167 10162 10161 10158 ] final  -44.18 input  -65.29 | X-H torsion
[ 10718 10713 10712 10709 ] final   64.90 input   66.30 | X-H torsion
[ 10763 10752 10751 10750 ] final -122.47 input  -60.55 | X-H torsion
[ 11005 11000 10999 10996 ] final  135.15 input  -57.11 | X-H torsion

> <Gold.Protein.ActiveResidues>
 VAL166  LYS551  ARG553  GLY616  TRP617  ASP618  TYR619  PRO620  LYS621  CYS622 
 ASP623  PHE694  ASN695  SER759  ASP760  ASP761  ALA762  ILE779  LEU786  VAL792 
 PHE793  MET794  SER795  GLU796  ALA797  LYS798  CYS799  TRP800  GLU811  SER814 

> <Gold.Protein.RotatedAtoms>
  151.2611  135.0654  159.9098 H   0  0  0  0  0  0  0  0  0  0  0  0  # atno 6907 bound_to 6896
  152.5366  134.0230  159.8000 H   0  0  0  0  0  0  0  0  0  0  0  0  # atno 6908 bound_to 6896
  151.0453  133.5621  159.2678 H   0  0  0  0  0  0  0  0  0  0  0  0  # atno 6909 bound_to 6896
  145.7522  140.8902  143.0474 H   0  0  0  0  0  0  0  0  0  0  0  0  # atno 7974 bound_to 7965
  156.2166  140.3007  155.9854 H   0  0  0  0  0  0  0  0  0  0  0  0  # atno 8008 bound_to 7997
  155.2589  140.0429  157.3012 H   0  0  0  0  0  0  0  0  0  0  0  0  # atno 8009 bound_to 7997
  154.5777  140.2366  155.8107 H   0  0  0  0  0  0  0  0  0  0  0  0  # atno 8010 bound_to 7997
  140.6906  143.2943  151.3459 H   0  0  0  0  0  0  0  0  0  0  0  0  # atno 10167 bound_to 10162
  157.6070  130.9185  149.9906 H   0  0  0  0  0  0  0  0  0  0  0  0  # atno 10718 bound_to 10713
  154.8690  135.4131  154.2787 H   0  0  0  0  0  0  0  0  0  0  0  0  # atno 10763 bound_to 10752
  153.3684  135.7006  153.6662 H   0  0  0  0  0  0  0  0  0  0  0  0  # atno 10764 bound_to 10752
  153.5534  135.3624  155.2741 H   0  0  0  0  0  0  0  0  0  0  0  0  # atno 10765 bound_to 10752
  139.9961  134.9497  156.9967 H   0  0  0  0  0  0  0  0  0  0  0  0  # atno 11005 bound_to 11000
  144.6847  139.9607  143.7480 LP  0  0  0  0  0  0  0  0  0  0  0  0  # atno 17320 bound_to 7965
  146.0345  139.3365  143.0735 LP  0  0  0  0  0  0  0  0  0  0  0  0  # atno 17321 bound_to 7965
  139.6306  144.0729  152.2473 LP  0  0  0  0  0  0  0  0  0  0  0  0  # atno 17342 bound_to 10162
  140.0202  144.6159  150.7573 LP  0  0  0  0  0  0  0  0  0  0  0  0  # atno 17343 bound_to 10162
  156.1159  130.3648  149.9968 LP  0  0  0  0  0  0  0  0  0  0  0  0  # atno 17370 bound_to 10713
  156.8058  130.9307  151.3645 LP  0  0  0  0  0  0  0  0  0  0  0  0  # atno 17371 bound_to 10713
  140.4816  134.1284  155.7218 LP  0  0  0  0  0  0  0  0  0  0  0  0  # atno 17394 bound_to 11000
  141.1605  133.8801  157.1860 LP  0  0  0  0  0  0  0  0  0  0  0  0  # atno 17395 bound_to 11000

$$$$
