AV-unprocessed.smi:2932|AV-procd|sdf|11251|dock9
  -GOLD-   2272016143D 1   1.00000     0.00000
 Structure written by MMmdl.
 30 30  0  0  0  0  0  0  0  0  2 V2000
  153.8871  140.1006  160.2098 C   0  0  0  0  0  0  0  0  0  0  0  0
  153.0719  141.2668  159.7316 C   0  0  0  0  0  0  0  0  0  0  0  0
  152.5925  141.2775  158.4974 N   0  0  0  0  0  0  0  0  0  0  0  0
  151.9247  142.4536  158.3788 N   0  0  0  0  0  0  0  0  0  0  0  0
  151.2865  142.7762  157.1105 C   0  0  0  0  0  0  0  0  0  0  0  0
  150.6151  141.5498  156.4874 C   0  0  0  0  0  0  0  0  0  0  0  0
  149.3886  141.5059  156.3913 O   0  0  0  0  0  0  0  0  0  0  0  0
  151.4280  140.5680  156.0665 N   0  0  0  0  0  0  0  0  0  0  0  0
  151.0099  139.3238  155.4281 C   0  0  1  0  0  0  0  0  0  0  0  0
  149.8621  139.5783  154.4365 C   0  0  0  0  0  0  0  0  0  0  0  0
  152.2176  138.6205  154.8024 C   0  0  0  0  0  0  0  0  0  0  0  0
  152.0178  137.5148  154.2535 O   0  0  0  0  0  0  0  0  0  0  0  0
  153.3236  139.2003  154.8831 O   0  5  0  0  0  0  0  0  0  0  0  0
  151.9673  143.1991  159.5470 C   0  0  0  0  0  0  0  0  0  0  0  0
  151.3142  144.5353  159.6946 C   0  0  0  0  0  0  0  0  0  0  0  0
  152.7019  142.4516  160.4192 C   0  0  0  0  0  0  0  0  0  0  0  0
  153.1086  142.8678  162.0443 Cl  0  0  0  0  0  0  0  0  0  0  0  0
  150.6301  138.6577  156.2056 H   0  0  0  0  0  0  0  0  0  0  0  0
  153.9347  140.0708  161.2983 H   0  0  0  0  0  0  0  0  0  0  0  0
  154.9086  140.1594  159.8337 H   0  0  0  0  0  0  0  0  0  0  0  0
  153.4613  139.1552  159.8726 H   0  0  0  0  0  0  0  0  0  0  0  0
  150.5420  143.5593  157.2614 H   0  0  0  0  0  0  0  0  0  0  0  0
  152.0389  143.1790  156.4314 H   0  0  0  0  0  0  0  0  0  0  0  0
  152.4231  140.6891  156.1932 H   0  0  0  0  0  0  0  0  0  0  0  0
  149.5511  138.6527  153.9510 H   0  0  0  0  0  0  0  0  0  0  0  0
  150.1595  140.2799  153.6562 H   0  0  0  0  0  0  0  0  0  0  0  0
  148.9886  139.9931  154.9403 H   0  0  0  0  0  0  0  0  0  0  0  0
  151.3637  144.8853  160.7257 H   0  0  0  0  0  0  0  0  0  0  0  0
  150.2637  144.4901  159.4078 H   0  0  0  0  0  0  0  0  0  0  0  0
  151.8062  145.2776  159.0660 H   0  0  0  0  0  0  0  0  0  0  0  0
  1  2  1  0  0  0  0
  1 19  1  0  0  0  0
  1 20  1  0  0  0  0
  1 21  1  0  0  0  0
  2 16  1  0  0  0  0
  2  3  2  0  0  0  0
  3  4  1  0  0  0  0
  4  5  1  0  0  0  0
  4 14  1  0  0  0  0
  5  6  1  0  0  0  0
  5 22  1  0  0  0  0
  5 23  1  0  0  0  0
  6  7  2  0  0  0  0
  6  8  1  0  0  0  0
  8  9  1  0  0  0  0
  8 24  1  0  0  0  0
  9 18  1  0  0  0  0
  9 10  1  0  0  0  0
  9 11  1  0  0  0  0
 10 25  1  0  0  0  0
 10 26  1  0  0  0  0
 10 27  1  0  0  0  0
 11 12  2  0  0  0  0
 11 13  1  0  0  0  0
 14 15  1  0  0  0  0
 14 16  2  0  0  0  0
 15 28  1  0  0  0  0
 15 29  1  0  0  0  0
 15 30  1  0  0  0  0
 16 17  1  0  0  0  0
M  CHG  1  13  -1
M  END
> <s_m_source_file>
AV-unprocessed.smi

> <i_m_source_file_index>
2932

> <i_lp_mmshare_version>
43012

> <i_f3d_flags>
0

> <s_epik_input>
W0NIM11jMW5uKGMoW0NIM10pYzFDbClbQ0gyXUMoPU8pW05IXVtDQEhdKFtDSDNdKUMoPU8pW09IXQ==

> <s_epik_cmdline>
J2VwaWtfcHl0aG9uJywgJy1waCcsICc3LjAnLCAnLXRuJywgJzgnLCAnLW1hJywgJzIwMCcsICctbWV0YWxfYmluZGluZycsICctaW1hZScsICc8aW5maWxlLm1hZT4nLCAnLW9tYWUnLCAnPG91dGZpbGUubWFlPic=

> <r_lp_tautomer_probability>
1

> <r_epik_Ionization_Penalty>
0.000148999

> <r_epik_Ionization_Penalty_Charging>
0.000144005

> <r_epik_Ionization_Penalty_Neutral>
4.99331e-06

> <r_epik_State_Penalty>
-0

> <r_epik_Charging_Adjusted_Penalty>
0.000144005

> <i_epik_Tot_Q>
-1

> <i_epik_Tot_abs_Q>
1

> <r_epik_Metal_State_Penalty>
-0

> <b_epik_Metal_Only>
0

> <s_lp_Force_Field>
OPLS_2005

> <r_lp_Energy>
1.5608

> <b_lp_Chiralities_Consistent>
1

> <s_lp_Variant>
AV-unprocessed.smi:2932-2

> <Gold.Version>
5.8.1

> <Gold.Id.Protein>
6NUR|6NUR_protein|mol2

> <Gold.PLP.Fitness>
50.5284

> <Gold.PLP.PLP>
-40.3132

> <Gold.PLP.part.hbond>
-2.0000

> <Gold.PLP.part.metal>
0.0000

> <Gold.PLP.part.buried>
-6.8763

> <Gold.PLP.part.nonpolar>
-32.4578

> <Gold.PLP.part.repulsive>
0.3988

> <Gold.PLP.ligand.clash>
0.0000

> <Gold.PLP.ligand.torsion>
0.5615

> <Gold.PLP.Chemscore.Hbond>
3.7600

> <Gold.PLP.Chemscore.CHOScore>
0.0000

> <Gold.PLP.Chemscore.Metal>
0.0000

> <Gold.Chemscore.Hbonds>
donor molecule, donor type, donor heavy atom, donor atom, acceptor molecule, acceptor atom, score
      P1  H  7997  8009       L1    13  2.00
      P1  H 10752 10764       L1    12  1.60

> <Gold.PLP.Chemscore.Internal.Correction>
0.0581

> <Gold.Rescore>
     Score         DG    S(hbond)    S(metal)    S(lipo)     H(rot)  DE(clash)    DE(int)     intcor
     14.52     -16.14       1.88        0.00      84.50       2.15       0.04       1.59       ----

> <Gold.Chemscore.Fitness>
14.5233

> <Gold.Chemscore.DG>
-16.1446

> <Gold.Chemscore.ZeroCoef>
-5.4800

> <Gold.Chemscore.Hbond>
1.8839

> <Gold.Chemscore.Metal>
0.0000

> <Gold.Chemscore.Lipo>
84.5042

> <Gold.Chemscore.Internal_Hbond>
0.0000

> <Gold.Chemscore.DEClash>
0.0354

> <Gold.Chemscore.DEInternal>
1.5860

> <Gold.Chemscore.Rot>
2.1542

> <Gold.Chemscore.Internal.Correction>
   9.000000E+99

> <Gold.Chemscore.Hbonds>
donor molecule, donor type, donor heavy atom, donor atom, acceptor molecule, acceptor atom, score
      P1  H  7997  8009       L1    13  1.00
      P1  H 10752 10764       L1    12  0.77

> <Gold.Chemscore.Hbond.Weighted>
-6.2923

> <Gold.Chemscore.Metal.Weighted>
-0.0000

> <Gold.Chemscore.Lipo.Weighted>
-9.8870

> <Gold.Chemscore.Internal_Hbond.Weighted>
0.0000

> <Gold.Chemscore.DEClash.Weighted>
0.0354

> <Gold.Chemscore.DEInternal.Weighted>
1.5860

> <Gold.Chemscore.Rot.Weighted>
5.5146

> <Gold.Chemscore.Internal.Correction.Weighted>
   9.000000E+99

> <Gold.Protein.RotatedTorsions>
[ 6907 6896 6895 6894 ] final   66.31 input  -60.11 | X-H torsion
[ 7974 7965 7964 7962 ] final -116.83 input  175.53 | X-H torsion
[ 8008 7997 7996 7995 ] final -135.93 input   59.86 | X-H torsion
[ 10167 10162 10161 10158 ] final   47.00 input  -65.29 | X-H torsion
[ 10718 10713 10712 10709 ] final   53.41 input   66.30 | X-H torsion
[ 10763 10752 10751 10750 ] final  -77.67 input  -60.55 | X-H torsion
[ 11005 11000 10999 10996 ] final  -68.92 input  -57.11 | X-H torsion

> <Gold.Protein.ActiveResidues>
 VAL166  LYS551  ARG553  GLY616  TRP617  ASP618  TYR619  PRO620  LYS621  CYS622 
 ASP623  PHE694  ASN695  SER759  ASP760  ASP761  ALA762  ILE779  LEU786  VAL792 
 PHE793  MET794  SER795  GLU796  ALA797  LYS798  CYS799  TRP800  GLU811  SER814 

> <Gold.Protein.RotatedAtoms>
  152.4472  134.5470  159.9855 H   0  0  0  0  0  0  0  0  0  0  0  0  # atno 6907 bound_to 6896
  151.5552  133.3405  159.2968 H   0  0  0  0  0  0  0  0  0  0  0  0  # atno 6908 bound_to 6896
  150.8391  134.7708  159.6981 H   0  0  0  0  0  0  0  0  0  0  0  0  # atno 6909 bound_to 6896
  145.0922  140.8497  143.3976 H   0  0  0  0  0  0  0  0  0  0  0  0  # atno 7974 bound_to 7965
  155.3868  140.0497  157.3042 H   0  0  0  0  0  0  0  0  0  0  0  0  # atno 8008 bound_to 7997
  154.5056  140.2173  155.9220 H   0  0  0  0  0  0  0  0  0  0  0  0  # atno 8009 bound_to 7997
  156.1521  140.3134  155.8670 H   0  0  0  0  0  0  0  0  0  0  0  0  # atno 8010 bound_to 7997
  140.3081  144.2853  150.6205 H   0  0  0  0  0  0  0  0  0  0  0  0  # atno 10167 bound_to 10162
  157.5164  130.8535  149.8501 H   0  0  0  0  0  0  0  0  0  0  0  0  # atno 10718 bound_to 10713
  154.5159  135.5756  153.6642 H   0  0  0  0  0  0  0  0  0  0  0  0  # atno 10763 bound_to 10752
  152.9907  135.6170  154.2817 H   0  0  0  0  0  0  0  0  0  0  0  0  # atno 10764 bound_to 10752
  154.2735  135.2853  155.2707 H   0  0  0  0  0  0  0  0  0  0  0  0  # atno 10765 bound_to 10752
  141.1543  133.6752  156.6520 H   0  0  0  0  0  0  0  0  0  0  0  0  # atno 11005 bound_to 11000
  145.1053  139.2794  143.5665 LP  0  0  0  0  0  0  0  0  0  0  0  0  # atno 17320 bound_to 7965
  146.3531  140.0632  142.8628 LP  0  0  0  0  0  0  0  0  0  0  0  0  # atno 17321 bound_to 7965
  140.5592  143.2194  151.7794 LP  0  0  0  0  0  0  0  0  0  0  0  0  # atno 17342 bound_to 10162
  139.4900  144.4372  151.9806 LP  0  0  0  0  0  0  0  0  0  0  0  0  # atno 17343 bound_to 10162
  156.0323  130.3761  150.1653 LP  0  0  0  0  0  0  0  0  0  0  0  0  # atno 17370 bound_to 10713
  156.9842  130.9873  151.3430 LP  0  0  0  0  0  0  0  0  0  0  0  0  # atno 17371 bound_to 10713
  140.3313  134.7926  157.4328 LP  0  0  0  0  0  0  0  0  0  0  0  0  # atno 17394 bound_to 11000
  140.1014  134.5467  155.8349 LP  0  0  0  0  0  0  0  0  0  0  0  0  # atno 17395 bound_to 11000

$$$$
