#       Name:                AV-unprocessed.smi:26
#       Creating user name   scv26
#       Creation time:       Thu Mar 26 15:44:38 2020


#       File generated by GOLD software.
#

@<TRIPOS>MOLECULE
AV-unprocessed.smi:26
    66    69     1
SMALL
NO_CHARGES


@<TRIPOS>ATOM
      1 ****        -4.6140   1.4321  -0.7265 C.3            1 S1                 0.0000
      2 ****        -3.3881   0.7230  -0.2458 C.2            1 S1                 0.0000
      3 ****        -2.2721   1.2503   0.3308 C.2            1 S1                 0.0000
      4 ****        -1.3717   0.1925   0.6273 C.2            1 S1                 0.0000
      5 ****        -0.0242   0.2841   1.2474 C.2            1 S1                 0.0000
      6 ****         0.6995  -0.6937   1.4419 O.2            1 S1                 0.0000
      7 ****         0.4370   1.7019   1.6346 C.3            1 S1                 0.0000
      8 ****         1.7434   1.7250   2.2820 N.am           1 S1                 0.0000
      9 ****         1.7834   1.6071   3.6938 C.2            1 S1                 0.0000
     10 ****         0.7612   1.4841   4.3710 O.2            1 S1                 0.0000
     11 ****         3.1250   1.6280   4.2645 C.2            1 S1                 0.0000
     12 ****         3.2840   1.5151   5.5941 F              1 S1                 0.0000
     13 ****         4.2152   1.7557   3.4781 C.2            1 S1                 0.0000
     14 ****         4.1494   1.8812   2.1021 N.am           1 S1                 0.0000
     15 ****         5.4392   1.9610   1.3142 C.3            1 S1                 0.0000
     16 ****         5.5759   3.2387   0.4723 C.3            1 S1                 0.0000
     17 ****         6.3164   2.7138  -0.7387 C.3            1 S1                 0.0000
     18 ****         5.7349   1.3115  -0.8832 C.3            1 S1                 0.0000
     19 ****         5.5186   0.8627   0.4521 O.3            1 S1                 0.0000
     20 ****         2.8901   1.8364   1.4579 C.2            1 S1                 0.0000
     21 ****         2.7969   1.8798   0.2301 O.2            1 S1                 0.0000
     22 ****        -1.9711  -0.9816   0.2302 C.2            1 S1                 0.0000
     23 ****        -1.4621  -2.3940   0.3282 C.3            1 S1                 0.0000
     24 ****        -3.2127  -0.6563  -0.3362 N.pl3          1 S1                 0.0000
     25 ****        -4.2007  -1.5786  -0.9178 C.3            1 S1                 0.0000
     26 ****        -4.9770  -2.3335   0.1799 C.3            1 S1                 0.0000
     27 ****        -3.6092  -2.4329  -2.0433 C.ar           1 S1                 0.0000
     28 ****        -2.9567  -1.7889  -3.1190 C.ar           1 S1                 0.0000
     29 ****        -2.4078  -2.5371  -4.1780 C.ar           1 S1                 0.0000
     30 ****        -2.5111  -3.9403  -4.1755 C.ar           1 S1                 0.0000
     31 ****        -3.1649  -4.5925  -3.1135 C.ar           1 S1                 0.0000
     32 ****        -3.7142  -3.8442  -2.0541 C.ar           1 S1                 0.0000
     33 ****        -4.5705   2.4927  -0.4781 H              1 S1                 0.0000
     34 ****        -5.5119   1.0217  -0.2645 H              1 S1                 0.0000
     35 ****        -4.7125   1.3501  -1.8090 H              1 S1                 0.0000
     36 ****        -2.1199   2.3029   0.5190 H              1 S1                 0.0000
     37 ****         0.4840   2.3489   0.7573 H              1 S1                 0.0000
     38 ****        -0.2807   2.1777   2.3045 H              1 S1                 0.0000
     39 ****         5.1834   1.7602   3.9573 H              1 S1                 0.0000
     40 ****         6.2446   1.8725   2.0444 H              1 S1                 0.0000
     41 ****         4.6046   3.6380   0.1839 H              1 S1                 0.0000
     42 ****         6.1221   4.0089   1.0169 H              1 S1                 0.0000
     43 ****         6.1752   3.3287  -1.6278 H              1 S1                 0.0000
     44 ****         7.3849   2.6558  -0.5277 H              1 S1                 0.0000
     45 ****         4.7831   1.3445  -1.4137 H              1 S1                 0.0000
     46 ****         6.3980   0.6375  -1.4257 H              1 S1                 0.0000
     47 ****        -0.6622  -2.5628  -0.3926 H              1 S1                 0.0000
     48 ****        -2.2265  -3.1438   0.1528 H              1 S1                 0.0000
     49 ****        -1.0660  -2.5943   1.3234 H              1 S1                 0.0000
     50 ****        -4.9503  -0.9843  -1.4370 H              1 S1                 0.0000
     51 ****        -5.8035  -2.9035  -0.2452 H              1 S1                 0.0000
     52 ****        -5.4073  -1.6324   0.8957 H              1 S1                 0.0000
     53 ****        -4.3506  -3.0240   0.7426 H              1 S1                 0.0000
     54 ****        -2.8738  -0.7118  -3.1332 H              1 S1                 0.0000
     55 ****        -1.9085  -2.0333  -4.9926 H              1 S1                 0.0000
     56 ****        -2.0908  -4.5154  -4.9874 H              1 S1                 0.0000
     57 ****        -3.2468  -5.6694  -3.1113 H              1 S1                 0.0000
     58 ****        -4.2090  -4.3733  -1.2542 H              1 S1                 0.0000
     59 ****         0.3880  -1.6067   1.1783 LP             1 S1                 0.0000
     60 ****         1.5984  -0.5745   1.8634 LP             1 S1                 0.0000
     61 ****        -0.1341   1.4649   3.9260 LP             1 S1                 0.0000
     62 ****         0.8270   1.4034   5.3656 LP             1 S1                 0.0000
     63 ****         4.6639   0.3453   0.4941 LP             1 S1                 0.0000
     64 ****         6.2779   0.2752   0.7320 LP             1 S1                 0.0000
     65 ****         1.8975   1.8362  -0.2049 LP             1 S1                 0.0000
     66 ****         3.6206   1.9586  -0.3314 LP             1 S1                 0.0000
@<TRIPOS>BOND
    1    1    2 1     
    2    1   33 1     
    3    1   34 1     
    4    1   35 1     
    5    2   24 1     
    6    2    3 2     
    7    3    4 1     
    8    3   36 1     
    9    4    5 1     
   10    4   22 2     
   11    5    6 2     
   12    5    7 1     
   13    7    8 1     
   14    7   37 1     
   15    7   38 1     
   16    8   20 am    
   17    8    9 am    
   18    9   10 2     
   19    9   11 1     
   20   11   12 1     
   21   11   13 2     
   22   13   14 1     
   23   13   39 1     
   24   14   15 1     
   25   14   20 am    
   26   15   19 1     
   27   15   16 1     
   28   15   40 1     
   29   16   17 1     
   30   16   41 1     
   31   16   42 1     
   32   17   18 1     
   33   17   43 1     
   34   17   44 1     
   35   18   19 1     
   36   18   45 1     
   37   18   46 1     
   38   20   21 2     
   39   22   23 1     
   40   22   24 1     
   41   23   47 1     
   42   23   48 1     
   43   23   49 1     
   44   24   25 1     
   45   25   26 1     
   46   25   27 1     
   47   25   50 1     
   48   26   51 1     
   49   26   52 1     
   50   26   53 1     
   51   27   32 ar    
   52   27   28 ar    
   53   28   29 ar    
   54   28   54 1     
   55   29   30 ar    
   56   29   55 1     
   57   30   31 ar    
   58   30   56 1     
   59   31   32 ar    
   60   31   57 1     
   61   32   58 1     
   62    6   59 1     
   63    6   60 1     
   64   10   61 1     
   65   10   62 1     
   66   19   63 1     
   67   19   64 1     
   68   21   65 1     
   69   21   66 1     
@<TRIPOS>SUBSTRUCTURE
      1 S1             1
@<TRIPOS>SET
LONE_PAIRS      STATIC     ATOMS    <user>   **** ""
8 59 60 61 62 63 64 65 66
ATOM$BLUE        STATIC     ATOMS    COLORGROUP SYSTEM
8 59 60 61 62 63 64 65 66
