#       Name:                AV-unprocessed.smi:3034
#       Creating user name   scv26
#       Creation time:       Fri Mar 27 16:54:50 2020


#       File generated by GOLD software.
#

@<TRIPOS>MOLECULE
AV-unprocessed.smi:3034
    35    35     1
SMALL
NO_CHARGES


@<TRIPOS>ATOM
      1 ****        -2.5544   2.3692  -0.3050 C.3            1 S1                 0.0000
      2 ****        -2.7678   0.8897  -0.6422 C.3            1 S1                 0.0000
      3 ****        -1.4887   0.0636  -0.4615 C.3            1 S1                 0.0000
      4 ****        -1.7749  -1.7200  -0.8593 S.o2           1 S1                 0.0000
      5 ****        -2.7250  -2.2196   0.1490 O.2            1 S1                 0.0000
      6 ****        -2.2385  -1.7307  -2.2550 O.2            1 S1                 0.0000
      7 ****        -0.2839  -2.3592  -0.7332 N.pl3          1 S1                -1.0000
      8 ****         0.3329  -2.6043   0.5663 C.3            1 S1                 0.0000
      9 ****         1.7673  -2.0146   0.6137 C.3            1 S1                 0.0000
     10 ****         2.3885  -2.4629   1.8037 O.3            1 S1                 0.0000
     11 ****         1.8392  -0.4902   0.4706 C.ar           1 S1                 0.0000
     12 ****         2.1686   0.0923  -0.7753 C.ar           1 S1                 0.0000
     13 ****         2.2145   1.4956  -0.8773 C.ar           1 S1                 0.0000
     14 ****         1.9407   2.2685   0.2667 C.ar           1 S1                 0.0000
     15 ****         1.6365   1.6000   1.4684 C.ar           1 S1                 0.0000
     16 ****         1.5907   0.2554   1.5775 N.ar           1 S1                 0.0000
     17 ****        -3.4753   2.9363  -0.4415 H              1 S1                 0.0000
     18 ****        -1.7915   2.8120  -0.9462 H              1 S1                 0.0000
     19 ****        -2.2359   2.4940   0.7302 H              1 S1                 0.0000
     20 ****        -3.5570   0.4838  -0.0084 H              1 S1                 0.0000
     21 ****        -3.1204   0.8012  -1.6702 H              1 S1                 0.0000
     22 ****        -0.7006   0.4333  -1.1166 H              1 S1                 0.0000
     23 ****        -1.1356   0.1379   0.5666 H              1 S1                 0.0000
     24 ****        -0.2490  -2.1848   1.3880 H              1 S1                 0.0000
     25 ****         0.3823  -3.6759   0.7639 H              1 S1                 0.0000
     26 ****         2.3448  -2.4520  -0.2021 H              1 S1                 0.0000
     27 ****         3.2873  -2.1730   1.7947 H              1 S1                 0.0000
     28 ****         2.3645  -0.5247  -1.6399 H              1 S1                 0.0000
     29 ****         2.4522   1.9704  -1.8175 H              1 S1                 0.0000
     30 ****         1.9636   3.3472   0.2245 H              1 S1                 0.0000
     31 ****         1.4241   2.1605   2.3667 H              1 S1                 0.0000
     32 ****         0.2212  -2.5892  -1.5650 LP             1 S1                 0.0000
     33 ****         2.3553  -3.4614   1.8475 LP             1 S1                 0.0000
     34 ****         1.9168  -2.0786   2.5973 LP             1 S1                 0.0000
     35 ****         1.3790  -0.1807   2.4521 LP             1 S1                 0.0000
@<TRIPOS>BOND
    1    1    2 1     
    2    1   17 1     
    3    1   18 1     
    4    1   19 1     
    5    2    3 1     
    6    2   20 1     
    7    2   21 1     
    8    3    4 1     
    9    3   22 1     
   10    3   23 1     
   11    4    5 2     
   12    4    6 2     
   13    4    7 1     
   14    7    8 1     
   15    8    9 1     
   16    8   24 1     
   17    8   25 1     
   18    9   10 1     
   19    9   11 1     
   20    9   26 1     
   21   10   27 1     
   22   11   16 ar    
   23   11   12 ar    
   24   12   13 ar    
   25   12   28 1     
   26   13   14 ar    
   27   13   29 1     
   28   14   15 ar    
   29   14   30 1     
   30   15   16 ar    
   31   15   31 1     
   32    7   32 1     
   33   10   33 1     
   34   10   34 1     
   35   16   35 1     
@<TRIPOS>SUBSTRUCTURE
      1 S1             1
@<TRIPOS>SET
LONE_PAIRS      STATIC     ATOMS    <user>   **** ""
6 5 6 32 33 34 35
DONOR_HYDROGENS      STATIC     ATOMS    <user>   **** ""
1 27
ATOM$BLUE        STATIC     ATOMS    COLORGROUP SYSTEM
6 5 6 32 33 34 35
ATOM$RED        STATIC     ATOMS    COLORGROUP SYSTEM
1 27
