AV-unprocessed.smi:1099|AV-procd|sdf|4755|dock5
  -GOLD-   22720 3293D 1   1.00000     0.00000
 Structure written by MMmdl.
 41 43  0  0  0  0  0  0  0  0  1 V2000
  156.2852  140.3616  166.0254 C   0  0  0  0  0  0  0  0  0  0  0  0
  156.3741  138.8597  165.7352 C   0  0  0  0  0  0  0  0  0  0  0  0
  155.5533  138.4547  164.5567 C   0  0  0  0  0  0  0  0  0  0  0  0
  155.6062  139.0727  163.3735 N   0  0  0  0  0  0  0  0  0  0  0  0
  154.7693  138.4835  162.4203 C   0  0  0  0  0  0  0  0  0  0  0  0
  154.6896  139.0536  161.0368 C   0  0  0  0  0  0  0  0  0  0  0  0
  155.1850  140.5083  160.9776 C   0  0  0  0  0  0  0  0  0  0  0  0
  154.0872  141.4399  160.7449 N   0  0  0  0  0  0  0  0  0  0  0  0
  153.3143  141.4605  159.6479 C   0  0  0  0  0  0  0  0  0  0  0  0
  153.4558  140.6683  158.7159 O   0  0  0  0  0  0  0  0  0  0  0  0
  152.2224  142.5446  159.6055 C   0  0  2  0  0  0  0  0  0  0  0  0
  151.3878  142.5284  158.3007 C   0  0  0  0  0  0  0  0  0  0  0  0
  151.5334  143.9683  157.7702 C   0  0  1  0  0  0  0  0  0  0  0  0
  150.7761  144.9365  158.6991 C   0  0  0  0  0  0  0  0  0  0  0  0
  151.6685  144.9698  159.9551 C   0  0  0  0  0  0  0  0  0  0  0  0
  152.7963  143.9845  159.5921 C   0  0  2  0  0  0  0  0  0  0  0  0
  152.9841  144.2854  158.1056 C   0  0  0  0  0  0  0  0  0  0  0  0
  154.0838  137.3957  162.9006 C   0  0  0  0  0  0  0  0  0  0  0  0
  154.4684  137.0688  164.5678 S   0  0  0  0  0  0  0  0  0  0  0  0
  156.8960  140.6272  166.8886 H   0  0  0  0  0  0  0  0  0  0  0  0
  155.2585  140.6614  166.2383 H   0  0  0  0  0  0  0  0  0  0  0  0
  156.6364  140.9475  165.1756 H   0  0  0  0  0  0  0  0  0  0  0  0
  157.4111  138.5778  165.5513 H   0  0  0  0  0  0  0  0  0  0  0  0
  156.0459  138.2916  166.6064 H   0  0  0  0  0  0  0  0  0  0  0  0
  155.2757  138.4422  160.3496 H   0  0  0  0  0  0  0  0  0  0  0  0
  153.6609  139.0010  160.6781 H   0  0  0  0  0  0  0  0  0  0  0  0
  155.7092  140.7709  161.8982 H   0  0  0  0  0  0  0  0  0  0  0  0
  155.9050  140.6244  160.1670 H   0  0  0  0  0  0  0  0  0  0  0  0
  153.9051  142.1214  161.4676 H   0  0  0  0  0  0  0  0  0  0  0  0
  151.5681  142.4128  160.4692 H   0  0  0  0  0  0  0  0  0  0  0  0
  151.7746  141.8159  157.5703 H   0  0  0  0  0  0  0  0  0  0  0  0
  150.3453  142.2670  158.4860 H   0  0  0  0  0  0  0  0  0  0  0  0
  151.2691  144.0753  156.7177 H   0  0  0  0  0  0  0  0  0  0  0  0
  150.7051  145.9296  158.2539 H   0  0  0  0  0  0  0  0  0  0  0  0
  149.7638  144.5934  158.9161 H   0  0  0  0  0  0  0  0  0  0  0  0
  152.0676  145.9724  160.1140 H   0  0  0  0  0  0  0  0  0  0  0  0
  151.1310  144.6791  160.8584 H   0  0  0  0  0  0  0  0  0  0  0  0
  153.6944  144.1128  160.1980 H   0  0  0  0  0  0  0  0  0  0  0  0
  153.6973  143.6336  157.6007 H   0  0  0  0  0  0  0  0  0  0  0  0
  153.2562  145.3234  157.9058 H   0  0  0  0  0  0  0  0  0  0  0  0
  153.3797  136.7675  162.3753 H   0  0  0  0  0  0  0  0  0  0  0  0
  1  2  1  0  0  0  0
  1 20  1  0  0  0  0
  1 21  1  0  0  0  0
  1 22  1  0  0  0  0
  2  3  1  0  0  0  0
  2 23  1  0  0  0  0
  2 24  1  0  0  0  0
  3 19  1  0  0  0  0
  3  4  2  0  0  0  0
  4  5  1  0  0  0  0
  5  6  1  0  0  0  0
  5 18  2  0  0  0  0
  6  7  1  0  0  0  0
  6 25  1  0  0  0  0
  6 26  1  0  0  0  0
  7  8  1  0  0  0  0
  7 27  1  0  0  0  0
  7 28  1  0  0  0  0
  8  9  1  0  0  0  0
  8 29  1  0  0  0  0
  9 10  2  0  0  0  0
  9 11  1  0  0  0  0
 11 16  1  0  0  0  0
 11 12  1  0  0  0  0
 11 30  1  0  0  0  0
 12 13  1  0  0  0  0
 12 31  1  0  0  0  0
 12 32  1  0  0  0  0
 13 17  1  0  0  0  0
 13 14  1  0  0  0  0
 13 33  1  0  0  0  0
 14 15  1  0  0  0  0
 14 34  1  0  0  0  0
 14 35  1  0  0  0  0
 15 16  1  0  0  0  0
 15 36  1  0  0  0  0
 15 37  1  0  0  0  0
 16 17  1  0  0  0  0
 16 38  1  0  0  0  0
 17 39  1  0  0  0  0
 17 40  1  0  0  0  0
 18 19  1  0  0  0  0
 18 41  1  0  0  0  0
M  END
> <s_m_source_file>
AV-unprocessed.smi

> <i_m_source_file_index>
1099

> <i_lp_mmshare_version>
43012

> <i_f3d_flags>
0

> <s_epik_input>
W0NIM11bQ0gyXWMxbmMoW2NIXXMxKVtDSDJdW0NIMl1bTkhdQyg9TylbQ0BIXShbQ0gyXVtDQEBIXTIzKVtDQEBIXShbQ0gyXTMpW0NIMl1bQ0gyXTI=

> <s_epik_cmdline>
J2VwaWtfcHl0aG9uJywgJy1waCcsICc3LjAnLCAnLXRuJywgJzgnLCAnLW1hJywgJzIwMCcsICctbWV0YWxfYmluZGluZycsICctaW1hZScsICc8aW5maWxlLm1hZT4nLCAnLW9tYWUnLCAnPG91dGZpbGUubWFlPic=

> <r_epik_Ionization_Penalty>
0.00110131

> <r_epik_Ionization_Penalty_Charging>
0

> <r_epik_Ionization_Penalty_Neutral>
0.00110131

> <r_epik_State_Penalty>
0.00072257

> <r_epik_Charging_Adjusted_Penalty>
0.00072257

> <i_epik_Tot_Q>
0

> <i_epik_Tot_abs_Q>
0

> <r_epik_Metal_State_Penalty>
-0

> <b_epik_Metal_Only>
0

> <s_lp_Force_Field>
OPLS_2005

> <r_lp_Energy>
37.6271

> <b_lp_Chiralities_Consistent>
1

> <s_lp_Variant>
AV-unprocessed.smi:1099-1

> <Gold.Version>
5.8.1

> <Gold.Id.Protein>
6NUR|6NUR_protein|mol2

> <Gold.PLP.Fitness>
48.2306

> <Gold.PLP.PLP>
-47.7872

> <Gold.PLP.part.hbond>
-1.0000

> <Gold.PLP.part.metal>
0.0000

> <Gold.PLP.part.buried>
-3.7117

> <Gold.PLP.part.nonpolar>
-41.7765

> <Gold.PLP.part.repulsive>
0.0195

> <Gold.PLP.ligand.clash>
0.0000

> <Gold.PLP.ligand.torsion>
0.7612

> <Gold.PLP.Chemscore.Hbond>
0.6396

> <Gold.PLP.Chemscore.CHOScore>
0.0000

> <Gold.PLP.Chemscore.Metal>
0.0000

> <Gold.Chemscore.Hbonds>
donor molecule, donor type, donor heavy atom, donor atom, acceptor molecule, acceptor atom, score
      P1  H  7997  8009       L1    10  0.58

> <Gold.PLP.Chemscore.Internal.Correction>
0.0471

> <Gold.Rescore>
     Score         DG    S(hbond)    S(metal)    S(lipo)     H(rot)  DE(clash)    DE(int)     intcor
     18.49     -19.99       0.61        0.00     137.68       1.42       0.43       1.07       ----

> <Gold.Chemscore.Fitness>
18.4912

> <Gold.Chemscore.DG>
-19.9910

> <Gold.Chemscore.ZeroCoef>
-5.4800

> <Gold.Chemscore.Hbond>
0.6072

> <Gold.Chemscore.Metal>
0.0000

> <Gold.Chemscore.Lipo>
137.6846

> <Gold.Chemscore.Internal_Hbond>
0.0000

> <Gold.Chemscore.DEClash>
0.4318

> <Gold.Chemscore.DEInternal>
1.0680

> <Gold.Chemscore.Rot>
1.4165

> <Gold.Chemscore.Internal.Correction>
   9.000000E+99

> <Gold.Chemscore.Hbonds>
donor molecule, donor type, donor heavy atom, donor atom, acceptor molecule, acceptor atom, score
      P1  H  7997  8009       L1    10  0.56

> <Gold.Chemscore.Hbond.Weighted>
-2.0281

> <Gold.Chemscore.Metal.Weighted>
-0.0000

> <Gold.Chemscore.Lipo.Weighted>
-16.1091

> <Gold.Chemscore.Internal_Hbond.Weighted>
0.0000

> <Gold.Chemscore.DEClash.Weighted>
0.4318

> <Gold.Chemscore.DEInternal.Weighted>
1.0680

> <Gold.Chemscore.Rot.Weighted>
3.6262

> <Gold.Chemscore.Internal.Correction.Weighted>
   9.000000E+99

> <Gold.Protein.RotatedTorsions>
[ 6907 6896 6895 6894 ] final  -21.15 input  -60.11 | X-H torsion
[ 7974 7965 7964 7962 ] final  -36.54 input  175.53 | X-H torsion
[ 8008 7997 7996 7995 ] final  143.17 input   59.86 | X-H torsion
[ 10167 10162 10161 10158 ] final  -31.89 input  -65.29 | X-H torsion
[ 10718 10713 10712 10709 ] final  124.35 input   66.30 | X-H torsion
[ 10763 10752 10751 10750 ] final -134.38 input  -60.55 | X-H torsion
[ 11005 11000 10999 10996 ] final -134.60 input  -57.11 | X-H torsion

> <Gold.Protein.ActiveResidues>
 VAL166  LYS551  ARG553  GLY616  TRP617  ASP618  TYR619  PRO620  LYS621  CYS622 
 ASP623  PHE694  ASN695  SER759  ASP760  ASP761  ALA762  ILE779  LEU786  VAL792 
 PHE793  MET794  SER795  GLU796  ALA797  LYS798  CYS799  TRP800  GLU811  SER814 

> <Gold.Protein.RotatedAtoms>
  151.2375  135.0577  159.9011 H   0  0  0  0  0  0  0  0  0  0  0  0  # atno 6907 bound_to 6896
  152.5397  134.0470  159.8103 H   0  0  0  0  0  0  0  0  0  0  0  0  # atno 6908 bound_to 6896
  151.0659  133.5457  159.2662 H   0  0  0  0  0  0  0  0  0  0  0  0  # atno 6909 bound_to 6896
  146.0653  140.6290  142.8978 H   0  0  0  0  0  0  0  0  0  0  0  0  # atno 7974 bound_to 7965
  156.2935  140.2269  156.4847 H   0  0  0  0  0  0  0  0  0  0  0  0  # atno 8008 bound_to 7997
  154.7823  140.0459  157.1158 H   0  0  0  0  0  0  0  0  0  0  0  0  # atno 8009 bound_to 7997
  154.9744  140.3070  155.4977 H   0  0  0  0  0  0  0  0  0  0  0  0  # atno 8010 bound_to 7997
  140.7229  143.3736  151.1731 H   0  0  0  0  0  0  0  0  0  0  0  0  # atno 10167 bound_to 10162
  157.5592  131.1090  150.8568 H   0  0  0  0  0  0  0  0  0  0  0  0  # atno 10718 bound_to 10713
  154.8720  135.3736  154.4726 H   0  0  0  0  0  0  0  0  0  0  0  0  # atno 10763 bound_to 10752
  153.5385  135.7027  153.5653 H   0  0  0  0  0  0  0  0  0  0  0  0  # atno 10764 bound_to 10752
  153.3825  135.3993  155.1831 H   0  0  0  0  0  0  0  0  0  0  0  0  # atno 10765 bound_to 10752
  140.8975  134.1733  157.4484 H   0  0  0  0  0  0  0  0  0  0  0  0  # atno 11005 bound_to 11000
  144.7199  140.4336  143.7016 LP  0  0  0  0  0  0  0  0  0  0  0  0  # atno 17320 bound_to 7965
  145.6488  139.1561  143.2873 LP  0  0  0  0  0  0  0  0  0  0  0  0  # atno 17321 bound_to 7965
  139.7312  143.9069  152.3020 LP  0  0  0  0  0  0  0  0  0  0  0  0  # atno 17342 bound_to 10162
  139.8859  144.6992  150.8825 LP  0  0  0  0  0  0  0  0  0  0  0  0  # atno 17343 bound_to 10162
  156.9071  130.5267  149.5281 LP  0  0  0  0  0  0  0  0  0  0  0  0  # atno 17370 bound_to 10713
  156.0647  130.5692  150.9264 LP  0  0  0  0  0  0  0  0  0  0  0  0  # atno 17371 bound_to 10713
  139.8737  134.9884  156.5411 LP  0  0  0  0  0  0  0  0  0  0  0  0  # atno 17394 bound_to 11000
  140.8271  133.8308  155.8949 LP  0  0  0  0  0  0  0  0  0  0  0  0  # atno 17395 bound_to 11000

$$$$
