AV-unprocessed.smi:1033|AV-procd|sdf|4504|dock4
  -GOLD-   22720 2503D 1   1.00000     0.00000
 Structure written by MMmdl.
 57 59  0  0  0  0  0  0  0  0  3 V2000
  151.5698  144.0752  161.2868 C   0  0  0  0  0  0  0  0  0  0  0  0
  151.6343  143.1753  160.0646 C   0  0  0  0  0  0  0  0  0  0  0  0
  150.8495  143.5109  158.9378 C   0  0  0  0  0  0  0  0  0  0  0  0
  150.9286  142.6675  157.8361 C   0  0  0  0  0  0  0  0  0  0  0  0
  150.2925  142.7211  156.5938 N   0  3  0  0  0  0  0  0  0  0  0  0
  150.6896  141.6631  155.8339 C   0  0  0  0  0  0  0  0  0  0  0  0
  151.5708  140.9359  156.5729 N   0  0  0  0  0  0  0  0  0  0  0  0
  152.2953  139.7035  156.2357 C   0  0  0  0  0  0  0  0  0  0  0  0
  151.9969  138.5430  157.2067 C   0  0  2  0  0  0  0  0  0  0  0  0
  153.1236  137.6876  157.2366 O   0  0  0  0  0  0  0  0  0  0  0  0
  150.7589  137.7374  156.7620 C   0  0  0  0  0  0  0  0  0  0  0  0
  150.9352  136.9300  155.5489 N   0  0  0  0  0  0  0  0  0  0  0  0
  149.8537  135.9645  155.3531 C   0  0  0  0  0  0  0  0  0  0  0  0
  148.5191  136.6204  154.9426 C   0  0  0  0  0  0  0  0  0  0  0  0
  148.6949  137.4250  153.7061 N   0  3  0  0  0  0  0  0  0  0  0  0
  147.4207  138.0254  153.2362 C   0  0  0  0  0  0  0  0  0  0  0  0
  147.6308  139.0898  152.1410 C   0  0  1  0  0  0  0  0  0  0  0  0
  147.3164  138.5704  150.7301 C   0  0  0  0  0  0  0  0  0  0  0  0
  146.7758  140.1808  152.4104 O   0  0  0  0  0  0  0  0  0  0  0  0
  149.7932  138.4145  153.8740 C   0  0  0  0  0  0  0  0  0  0  0  0
  151.0898  137.7049  154.3155 C   0  0  0  0  0  0  0  0  0  0  0  0
  151.7505  141.5240  157.8288 C   0  0  0  0  0  0  0  0  0  0  0  0
  152.5303  141.1783  158.9296 C   0  0  0  0  0  0  0  0  0  0  0  0
  152.4649  142.0245  160.0597 C   0  0  0  0  0  0  0  0  0  0  0  0
  153.3068  141.6754  161.2753 C   0  0  0  0  0  0  0  0  0  0  0  0
  150.8868  144.9110  161.1316 H   0  0  0  0  0  0  0  0  0  0  0  0
  152.5538  144.4870  161.5119 H   0  0  0  0  0  0  0  0  0  0  0  0
  151.2200  143.5163  162.1552 H   0  0  0  0  0  0  0  0  0  0  0  0
  150.2157  144.3855  158.9341 H   0  0  0  0  0  0  0  0  0  0  0  0
  150.3663  141.4421  154.8267 H   0  0  0  0  0  0  0  0  0  0  0  0
  152.0454  139.4305  155.2096 H   0  0  0  0  0  0  0  0  0  0  0  0
  153.3607  139.9389  156.2426 H   0  0  0  0  0  0  0  0  0  0  0  0
  151.8362  138.9482  158.2065 H   0  0  0  0  0  0  0  0  0  0  0  0
  153.2675  137.4122  158.1289 H   0  0  0  0  0  0  0  0  0  0  0  0
  150.5177  137.0489  157.5729 H   0  0  0  0  0  0  0  0  0  0  0  0
  149.8925  138.3940  156.6830 H   0  0  0  0  0  0  0  0  0  0  0  0
  150.1488  135.2525  154.5809 H   0  0  0  0  0  0  0  0  0  0  0  0
  149.7135  135.3749  156.2598 H   0  0  0  0  0  0  0  0  0  0  0  0
  147.7774  135.8403  154.7667 H   0  0  0  0  0  0  0  0  0  0  0  0
  148.1283  137.2488  155.7440 H   0  0  0  0  0  0  0  0  0  0  0  0
  146.7747  137.2418  152.8366 H   0  0  0  0  0  0  0  0  0  0  0  0
  146.8898  138.4506  154.0900 H   0  0  0  0  0  0  0  0  0  0  0  0
  148.6503  139.4733  152.1685 H   0  0  0  0  0  0  0  0  0  0  0  0
  147.9790  137.7497  150.4541 H   0  0  0  0  0  0  0  0  0  0  0  0
  147.4444  139.3564  149.9851 H   0  0  0  0  0  0  0  0  0  0  0  0
  146.2901  138.2079  150.6581 H   0  0  0  0  0  0  0  0  0  0  0  0
  146.1485  140.2585  151.7076 H   0  0  0  0  0  0  0  0  0  0  0  0
  149.9797  138.9315  152.9334 H   0  0  0  0  0  0  0  0  0  0  0  0
  149.5034  139.1780  154.5970 H   0  0  0  0  0  0  0  0  0  0  0  0
  151.8976  138.4283  154.4186 H   0  0  0  0  0  0  0  0  0  0  0  0
  151.4077  137.0333  153.5165 H   0  0  0  0  0  0  0  0  0  0  0  0
  153.1615  140.3022  158.9249 H   0  0  0  0  0  0  0  0  0  0  0  0
  153.9026  140.7783  161.1043 H   0  0  0  0  0  0  0  0  0  0  0  0
  152.6705  141.4926  162.1414 H   0  0  0  0  0  0  0  0  0  0  0  0
  153.9926  142.4885  161.5138 H   0  0  0  0  0  0  0  0  0  0  0  0
  148.9897  136.7756  152.9908 H   0  0  0  0  0  0  0  0  0  0  0  0
  149.6356  143.4259  156.2845 H   0  0  0  0  0  0  0  0  0  0  0  0
  1  2  1  0  0  0  0
  1 26  1  0  0  0  0
  1 27  1  0  0  0  0
  1 28  1  0  0  0  0
  2 24  1  0  0  0  0
  2  3  2  0  0  0  0
  3  4  1  0  0  0  0
  3 29  1  0  0  0  0
  4 22  2  0  0  0  0
  4  5  1  0  0  0  0
  5  6  2  0  0  0  0
  5 57  1  0  0  0  0
  6  7  1  0  0  0  0
  6 30  1  0  0  0  0
  7  8  1  0  0  0  0
  7 22  1  0  0  0  0
  8  9  1  0  0  0  0
  8 31  1  0  0  0  0
  8 32  1  0  0  0  0
  9 10  1  0  0  0  0
  9 11  1  0  0  0  0
  9 33  1  0  0  0  0
 10 34  1  0  0  0  0
 11 12  1  0  0  0  0
 11 35  1  0  0  0  0
 11 36  1  0  0  0  0
 12 21  1  0  0  0  0
 12 13  1  0  0  0  0
 13 14  1  0  0  0  0
 13 37  1  0  0  0  0
 13 38  1  0  0  0  0
 14 15  1  0  0  0  0
 14 39  1  0  0  0  0
 14 40  1  0  0  0  0
 15 16  1  0  0  0  0
 15 20  1  0  0  0  0
 15 56  1  0  0  0  0
 16 17  1  0  0  0  0
 16 41  1  0  0  0  0
 16 42  1  0  0  0  0
 17 18  1  0  0  0  0
 17 19  1  0  0  0  0
 17 43  1  0  0  0  0
 18 44  1  0  0  0  0
 18 45  1  0  0  0  0
 18 46  1  0  0  0  0
 19 47  1  0  0  0  0
 20 21  1  0  0  0  0
 20 48  1  0  0  0  0
 20 49  1  0  0  0  0
 21 50  1  0  0  0  0
 21 51  1  0  0  0  0
 22 23  1  0  0  0  0
 23 24  2  0  0  0  0
 23 52  1  0  0  0  0
 24 25  1  0  0  0  0
 25 53  1  0  0  0  0
 25 54  1  0  0  0  0
 25 55  1  0  0  0  0
M  CHG  1   5   1
M  CHG  1  15   1
M  END
> <s_m_source_file>
AV-unprocessed.smi

> <i_m_source_file_index>
1033

> <i_lp_mmshare_version>
43012

> <i_f3d_flags>
0

> <s_epik_input>
W0NIM11jKFtjSF0xKWMoW0NIM10pW2NIXWMoYzEyKW4oW2NIXW4yKVtDSDJdW0NASF0oW09IXSlbQ0gyXU4zW0NIMl1bQ0gyXU4oW0NIMl1bQ0gyXTMpW0NIMl1bQ0BIXShbQ0gzXSlbT0hd

> <s_epik_cmdline>
J2VwaWtfcHl0aG9uJywgJy1waCcsICc3LjAnLCAnLXRuJywgJzgnLCAnLW1hJywgJzIwMCcsICctbWV0YWxfYmluZGluZycsICctaW1hZScsICc8aW5maWxlLm1hZT4nLCAnLW9tYWUnLCAnPG91dGZpbGUubWFlPic=

> <r_epik_Ionization_Penalty>
1.28617

> <r_epik_Ionization_Penalty_Charging>
1.23646

> <r_epik_Ionization_Penalty_Neutral>
0.0497112

> <r_epik_State_Penalty>
1.79157

> <r_epik_Charging_Adjusted_Penalty>
3.02803

> <i_epik_Tot_Q>
2

> <i_epik_Tot_abs_Q>
2

> <r_epik_Metal_State_Penalty>
5.81739

> <b_epik_Metal_Only>
0

> <s_lp_Force_Field>
OPLS_2005

> <r_lp_Energy>
41.725

> <b_lp_Chiralities_Consistent>
1

> <s_lp_Variant>
AV-unprocessed.smi:1033-15

> <Gold.Version>
5.8.1

> <Gold.Id.Protein>
6NUR|6NUR_protein|mol2

> <Gold.PLP.Fitness>
60.2949

> <Gold.PLP.PLP>
-47.6076

> <Gold.PLP.part.hbond>
-3.0000

> <Gold.PLP.part.metal>
0.0000

> <Gold.PLP.part.buried>
-4.2384

> <Gold.PLP.part.nonpolar>
-40.5477

> <Gold.PLP.part.repulsive>
0.0791

> <Gold.PLP.ligand.clash>
0.0000

> <Gold.PLP.ligand.torsion>
1.1646

> <Gold.PLP.Chemscore.Hbond>
4.9440

> <Gold.PLP.Chemscore.CHOScore>
0.0000

> <Gold.PLP.Chemscore.Metal>
0.0000

> <Gold.Chemscore.Hbonds>
donor molecule, donor type, donor heavy atom, donor atom, acceptor molecule, acceptor atom, score
      L1  H     5    57       P1  8028  2.00
      L1  H    15    56       P1  7948  0.55

> <Gold.PLP.Chemscore.Internal.Correction>
0.1844

> <Gold.Rescore>
     Score         DG    S(hbond)    S(metal)    S(lipo)     H(rot)  DE(clash)    DE(int)     intcor
     21.18     -22.88       2.97        0.00     132.95       3.15       0.26       1.44       ----

> <Gold.Chemscore.Fitness>
21.1793

> <Gold.Chemscore.DG>
-22.8847

> <Gold.Chemscore.ZeroCoef>
-5.4800

> <Gold.Chemscore.Hbond>
2.9669

> <Gold.Chemscore.Metal>
0.0000

> <Gold.Chemscore.Lipo>
132.9483

> <Gold.Chemscore.Internal_Hbond>
0.0000

> <Gold.Chemscore.DEClash>
0.2622

> <Gold.Chemscore.DEInternal>
1.4433

> <Gold.Chemscore.Rot>
3.1483

> <Gold.Chemscore.Internal.Correction>
   9.000000E+99

> <Gold.Chemscore.Hbonds>
donor molecule, donor type, donor heavy atom, donor atom, acceptor molecule, acceptor atom, score
      L1  H     5    57       P1  8028  0.99
      L1  H    15    56       P1  7948  0.27

> <Gold.Chemscore.Hbond.Weighted>
-9.9095

> <Gold.Chemscore.Metal.Weighted>
-0.0000

> <Gold.Chemscore.Lipo.Weighted>
-15.5550

> <Gold.Chemscore.Internal_Hbond.Weighted>
0.0000

> <Gold.Chemscore.DEClash.Weighted>
0.2622

> <Gold.Chemscore.DEInternal.Weighted>
1.4433

> <Gold.Chemscore.Rot.Weighted>
8.0597

> <Gold.Chemscore.Internal.Correction.Weighted>
   9.000000E+99

> <Gold.Protein.RotatedTorsions>
[ 6907 6896 6895 6894 ] final -135.13 input  -60.11 | X-H torsion
[ 7974 7965 7964 7962 ] final   18.46 input  175.53 | X-H torsion
[ 8008 7997 7996 7995 ] final  132.91 input   59.86 | X-H torsion
[ 10167 10162 10161 10158 ] final  -18.99 input  -65.29 | X-H torsion
[ 10718 10713 10712 10709 ] final  107.59 input   66.30 | X-H torsion
[ 10763 10752 10751 10750 ] final  169.67 input  -60.55 | X-H torsion
[ 11005 11000 10999 10996 ] final   11.43 input  -57.11 | X-H torsion

> <Gold.Protein.ActiveResidues>
 VAL166  LYS551  ARG553  GLY616  TRP617  ASP618  TYR619  PRO620  LYS621  CYS622 
 ASP623  PHE694  ASN695  SER759  ASP760  ASP761  ALA762  ILE779  LEU786  VAL792 
 PHE793  MET794  SER795  GLU796  ALA797  LYS798  CYS799  TRP800  GLU811  SER814 

> <Gold.Protein.RotatedAtoms>
  150.9941  133.6120  159.2703 H   0  0  0  0  0  0  0  0  0  0  0  0  # atno 6907 bound_to 6896
  151.3330  135.0845  159.9355 H   0  0  0  0  0  0  0  0  0  0  0  0  # atno 6908 bound_to 6896
  152.5255  133.9567  159.7752 H   0  0  0  0  0  0  0  0  0  0  0  0  # atno 6909 bound_to 6896
  146.2184  139.8454  142.8633 H   0  0  0  0  0  0  0  0  0  0  0  0  # atno 7974 bound_to 7965
  156.2987  140.2534  156.3166 H   0  0  0  0  0  0  0  0  0  0  0  0  # atno 8008 bound_to 7997
  154.9275  140.0399  157.2049 H   0  0  0  0  0  0  0  0  0  0  0  0  # atno 8009 bound_to 7997
  154.8250  140.2866  155.5765 H   0  0  0  0  0  0  0  0  0  0  0  0  # atno 8010 bound_to 7997
  140.7264  143.4862  151.0051 H   0  0  0  0  0  0  0  0  0  0  0  0  # atno 10167 bound_to 10162
  157.6622  131.0876  150.6178 H   0  0  0  0  0  0  0  0  0  0  0  0  # atno 10718 bound_to 10713
  154.3865  135.2753  155.2180 H   0  0  0  0  0  0  0  0  0  0  0  0  # atno 10763 bound_to 10752
  154.4264  135.5988  153.6045 H   0  0  0  0  0  0  0  0  0  0  0  0  # atno 10764 bound_to 10752
  152.9833  135.5985  154.4115 H   0  0  0  0  0  0  0  0  0  0  0  0  # atno 10765 bound_to 10752
  140.5033  134.0724  155.7799 H   0  0  0  0  0  0  0  0  0  0  0  0  # atno 11005 bound_to 11000
  145.2856  141.0152  143.3692 LP  0  0  0  0  0  0  0  0  0  0  0  0  # atno 17320 bound_to 7965
  144.9116  139.4521  143.6584 LP  0  0  0  0  0  0  0  0  0  0  0  0  # atno 17321 bound_to 7965
  139.8564  143.7371  152.3176 LP  0  0  0  0  0  0  0  0  0  0  0  0  # atno 17342 bound_to 10162
  139.7571  144.7517  151.0419 LP  0  0  0  0  0  0  0  0  0  0  0  0  # atno 17343 bound_to 10162
  156.6481  130.4477  149.5729 LP  0  0  0  0  0  0  0  0  0  0  0  0  # atno 17370 bound_to 10713
  156.2159  130.6707  151.1318 LP  0  0  0  0  0  0  0  0  0  0  0  0  # atno 17371 bound_to 10713
  141.1424  133.9115  157.2295 LP  0  0  0  0  0  0  0  0  0  0  0  0  # atno 17394 bound_to 11000
  139.9701  135.0131  156.9489 LP  0  0  0  0  0  0  0  0  0  0  0  0  # atno 17395 bound_to 11000

$$$$
