AV-unprocessed.smi:1555|AV-procd|sdf|6267|dock4
  -GOLD-   22720 6453D 1   1.00000     0.00000
 Structure written by MMmdl.
 41 42  0  0  0  0  0  0  0  0  1 V2000
  147.3470  135.1952  156.1316 C   0  0  0  0  0  0  0  0  0  0  0  0
  147.6038  136.3420  155.1414 C   0  0  1  0  0  0  0  0  0  0  0  0
  149.1038  136.4829  154.8198 C   0  0  0  0  0  0  0  0  0  0  0  0
  149.5063  137.8684  154.6609 N   0  0  0  0  0  0  0  0  0  0  0  0
  148.6770  138.9808  154.5980 C   0  0  0  0  0  0  0  0  0  0  0  0
  149.4985  140.0750  154.4481 C   0  0  0  0  0  0  0  0  0  0  0  0
  150.8283  139.6619  154.4145 N   0  0  0  0  0  0  0  0  0  0  0  0
  150.7537  138.3436  154.5447 C   0  0  0  0  0  0  0  0  0  0  0  0
  146.8513  136.1203  153.9089 N   0  0  0  0  0  0  0  0  0  0  0  0
  145.5233  135.9362  153.8195 C   0  0  0  0  0  0  0  0  0  0  0  0
  144.8004  135.8905  154.8158 O   0  0  0  0  0  0  0  0  0  0  0  0
  145.0550  135.8039  152.5525 N   0  0  0  0  0  0  0  0  0  0  0  0
  145.8639  135.6863  151.3274 C   0  0  0  0  0  0  0  0  0  0  0  0
  145.7621  134.2421  150.8060 C   0  0  0  0  0  0  0  0  0  0  0  0
  144.2927  133.8407  150.5475 C   0  0  0  0  0  0  0  0  0  0  0  0
  144.1864  132.3657  150.1196 C   0  0  0  0  0  0  0  0  0  0  0  0
  142.9256  132.1018  149.5406 O   0  0  0  0  0  0  0  0  0  0  0  0
  143.4180  134.1580  151.7834 C   0  0  0  0  0  0  0  0  0  0  0  0
  143.6295  135.6050  152.2651 C   0  0  0  0  0  0  0  0  0  0  0  0
  147.8926  135.3529  157.0624 H   0  0  0  0  0  0  0  0  0  0  0  0
  147.6622  134.2362  155.7193 H   0  0  0  0  0  0  0  0  0  0  0  0
  146.2885  135.1180  156.3825 H   0  0  0  0  0  0  0  0  0  0  0  0
  147.2673  137.2727  155.6024 H   0  0  0  0  0  0  0  0  0  0  0  0
  149.7034  136.0478  155.6205 H   0  0  0  0  0  0  0  0  0  0  0  0
  149.3553  135.9375  153.9089 H   0  0  0  0  0  0  0  0  0  0  0  0
  147.6017  138.9043  154.6658 H   0  0  0  0  0  0  0  0  0  0  0  0
  149.2370  141.1192  154.3623 H   0  0  0  0  0  0  0  0  0  0  0  0
  151.6272  137.7085  154.5599 H   0  0  0  0  0  0  0  0  0  0  0  0
  147.3782  136.1400  153.0480 H   0  0  0  0  0  0  0  0  0  0  0  0
  145.4789  136.3791  150.5775 H   0  0  0  0  0  0  0  0  0  0  0  0
  146.9106  135.9610  151.4571 H   0  0  0  0  0  0  0  0  0  0  0  0
  146.3431  134.1408  149.8888 H   0  0  0  0  0  0  0  0  0  0  0  0
  146.2103  133.5634  151.5333 H   0  0  0  0  0  0  0  0  0  0  0  0
  143.9344  134.4560  149.7203 H   0  0  0  0  0  0  0  0  0  0  0  0
  144.9534  132.1284  149.3818 H   0  0  0  0  0  0  0  0  0  0  0  0
  144.3406  131.7009  150.9701 H   0  0  0  0  0  0  0  0  0  0  0  0
  142.4743  132.9227  149.4156 H   0  0  0  0  0  0  0  0  0  0  0  0
  142.3645  134.0022  151.5499 H   0  0  0  0  0  0  0  0  0  0  0  0
  143.6593  133.4691  152.5940 H   0  0  0  0  0  0  0  0  0  0  0  0
  142.9915  135.8043  153.1272 H   0  0  0  0  0  0  0  0  0  0  0  0
  143.3120  136.3085  151.4943 H   0  0  0  0  0  0  0  0  0  0  0  0
  1  2  1  0  0  0  0
  1 20  1  0  0  0  0
  1 21  1  0  0  0  0
  1 22  1  0  0  0  0
  2  3  1  0  0  0  0
  2  9  1  0  0  0  0
  2 23  1  0  0  0  0
  3  4  1  0  0  0  0
  3 24  1  0  0  0  0
  3 25  1  0  0  0  0
  4  8  1  0  0  0  0
  4  5  1  0  0  0  0
  5  6  2  0  0  0  0
  5 26  1  0  0  0  0
  6  7  1  0  0  0  0
  6 27  1  0  0  0  0
  7  8  2  0  0  0  0
  8 28  1  0  0  0  0
  9 10  1  0  0  0  0
  9 29  1  0  0  0  0
 10 11  2  0  0  0  0
 10 12  1  0  0  0  0
 12 19  1  0  0  0  0
 12 13  1  0  0  0  0
 13 14  1  0  0  0  0
 13 30  1  0  0  0  0
 13 31  1  0  0  0  0
 14 15  1  0  0  0  0
 14 32  1  0  0  0  0
 14 33  1  0  0  0  0
 15 16  1  0  0  0  0
 15 18  1  0  0  0  0
 15 34  1  0  0  0  0
 16 17  1  0  0  0  0
 16 35  1  0  0  0  0
 16 36  1  0  0  0  0
 17 37  1  0  0  0  0
 18 19  1  0  0  0  0
 18 38  1  0  0  0  0
 18 39  1  0  0  0  0
 19 40  1  0  0  0  0
 19 41  1  0  0  0  0
M  END
> <s_m_source_file>
AV-unprocessed.smi

> <i_m_source_file_index>
1555

> <i_lp_mmshare_version>
43012

> <i_f3d_flags>
0

> <s_epik_input>
W2NIXTFuW2NIXVtjSF1uMVtDSDJdW0NAQEhdKFtDSDNdKVtOSF1DKD1PKU4yW0NIMl1bQ0gyXVtDSF0oW0NIMl1bT0hdKVtDSDJdW0NIMl0y

> <s_epik_cmdline>
J2VwaWtfcHl0aG9uJywgJy1waCcsICc3LjAnLCAnLXRuJywgJzgnLCAnLW1hJywgJzIwMCcsICctbWV0YWxfYmluZGluZycsICctaW1hZScsICc8aW5maWxlLm1hZT4nLCAnLW9tYWUnLCAnPG91dGZpbGUubWFlPic=

> <r_lp_tautomer_probability>
1

> <r_epik_Ionization_Penalty>
0.625883

> <r_epik_Ionization_Penalty_Charging>
0.625812

> <r_epik_Ionization_Penalty_Neutral>
7.07114e-05

> <r_epik_State_Penalty>
0.642234

> <r_epik_Charging_Adjusted_Penalty>
1.26805

> <i_epik_Tot_Q>
0

> <i_epik_Tot_abs_Q>
0

> <r_epik_Metal_State_Penalty>
0.307949

> <b_epik_Metal_Only>
0

> <s_lp_Force_Field>
OPLS_2005

> <r_lp_Energy>
32.573

> <b_lp_Chiralities_Consistent>
1

> <s_lp_Variant>
AV-unprocessed.smi:1555-4

> <Gold.Version>
5.8.1

> <Gold.Id.Protein>
6NUR|6NUR_protein|mol2

> <Gold.PLP.Fitness>
38.3174

> <Gold.PLP.PLP>
-28.8476

> <Gold.PLP.part.hbond>
-4.7114

> <Gold.PLP.part.metal>
0.0000

> <Gold.PLP.part.buried>
-1.9993

> <Gold.PLP.part.nonpolar>
-22.1791

> <Gold.PLP.part.repulsive>
0.1411

> <Gold.PLP.ligand.clash>
0.0000

> <Gold.PLP.ligand.torsion>
0.6754

> <Gold.PLP.Chemscore.Hbond>
3.5925

> <Gold.PLP.Chemscore.CHOScore>
0.0000

> <Gold.PLP.Chemscore.Metal>
0.0000

> <Gold.Chemscore.Hbonds>
donor molecule, donor type, donor heavy atom, donor atom, acceptor molecule, acceptor atom, score
      L1  H     9    29       P1  7948  1.00
      L1  H    17    37       P1 10186  0.84
      P1  H  7989  7998       L1     7  1.00
      P1  H 10785 10796       L1    17  0.75

> <Gold.PLP.Chemscore.Internal.Correction>
0.0432

> <Gold.Rescore>
     Score         DG    S(hbond)    S(metal)    S(lipo)     H(rot)  DE(clash)    DE(int)     intcor
     13.68     -15.35       3.03        0.00      52.19       2.49       0.06       1.61       ----

> <Gold.Chemscore.Fitness>
13.6821

> <Gold.Chemscore.DG>
-15.3481

> <Gold.Chemscore.ZeroCoef>
-5.4800

> <Gold.Chemscore.Hbond>
3.0324

> <Gold.Chemscore.Metal>
0.0000

> <Gold.Chemscore.Lipo>
52.1885

> <Gold.Chemscore.Internal_Hbond>
0.0000

> <Gold.Chemscore.DEClash>
0.0605

> <Gold.Chemscore.DEInternal>
1.6056

> <Gold.Chemscore.Rot>
2.4867

> <Gold.Chemscore.Internal.Correction>
   9.000000E+99

> <Gold.Chemscore.Hbonds>
donor molecule, donor type, donor heavy atom, donor atom, acceptor molecule, acceptor atom, score
      L1  H     9    29       P1  7948  0.98
      L1  H    17    37       P1 10186  0.82
      P1  H  7989  7998       L1     7  0.50
      P1  H 10785 10796       L1    17  0.25

> <Gold.Chemscore.Hbond.Weighted>
-10.1281

> <Gold.Chemscore.Metal.Weighted>
-0.0000

> <Gold.Chemscore.Lipo.Weighted>
-6.1061

> <Gold.Chemscore.Internal_Hbond.Weighted>
0.0000

> <Gold.Chemscore.DEClash.Weighted>
0.0605

> <Gold.Chemscore.DEInternal.Weighted>
1.6056

> <Gold.Chemscore.Rot.Weighted>
6.3660

> <Gold.Chemscore.Internal.Correction.Weighted>
   9.000000E+99

> <Gold.Protein.RotatedTorsions>
[ 6907 6896 6895 6894 ] final  118.69 input  -60.11 | X-H torsion
[ 7974 7965 7964 7962 ] final   -5.70 input  175.53 | X-H torsion
[ 8008 7997 7996 7995 ] final   45.66 input   59.86 | X-H torsion
[ 10167 10162 10161 10158 ] final   84.71 input  -65.29 | X-H torsion
[ 10718 10713 10712 10709 ] final  -70.81 input   66.30 | X-H torsion
[ 10763 10752 10751 10750 ] final   79.32 input  -60.55 | X-H torsion
[ 11005 11000 10999 10996 ] final    0.52 input  -57.11 | X-H torsion

> <Gold.Protein.ActiveResidues>
 VAL166  LYS551  ARG553  GLY616  TRP617  ASP618  TYR619  PRO620  LYS621  CYS622 
 ASP623  PHE694  ASN695  SER759  ASP760  ASP761  ALA762  ILE779  LEU786  VAL792 
 PHE793  MET794  SER795  GLU796  ALA797  LYS798  CYS799  TRP800  GLU811  SER814 

> <Gold.Protein.RotatedAtoms>
  152.4525  133.7657  159.6770 H   0  0  0  0  0  0  0  0  0  0  0  0  # atno 6907 bound_to 6896
  150.8441  133.7879  159.3056 H   0  0  0  0  0  0  0  0  0  0  0  0  # atno 6908 bound_to 6896
  151.5495  135.1070  159.9998 H   0  0  0  0  0  0  0  0  0  0  0  0  # atno 6909 bound_to 6896
  146.2347  140.2060  142.8334 H   0  0  0  0  0  0  0  0  0  0  0  0  # atno 7974 bound_to 7965
  155.3396  140.3407  155.4239 H   0  0  0  0  0  0  0  0  0  0  0  0  # atno 8008 bound_to 7997
  156.1820  140.1667  156.8293 H   0  0  0  0  0  0  0  0  0  0  0  0  # atno 8009 bound_to 7997
  154.5344  140.0738  156.8384 H   0  0  0  0  0  0  0  0  0  0  0  0  # atno 8010 bound_to 7997
  139.9052  144.6305  150.8595 H   0  0  0  0  0  0  0  0  0  0  0  0  # atno 10167 bound_to 10162
  156.0391  130.4339  150.2351 H   0  0  0  0  0  0  0  0  0  0  0  0  # atno 10718 bound_to 10713
  153.0943  135.4844  154.8749 H   0  0  0  0  0  0  0  0  0  0  0  0  # atno 10763 bound_to 10752
  154.7306  135.3059  154.8900 H   0  0  0  0  0  0  0  0  0  0  0  0  # atno 10764 bound_to 10752
  153.9536  135.6820  153.4797 H   0  0  0  0  0  0  0  0  0  0  0  0  # atno 10765 bound_to 10752
  140.6257  133.9621  155.8247 H   0  0  0  0  0  0  0  0  0  0  0  0  # atno 11005 bound_to 11000
  144.9744  140.8400  143.5435 LP  0  0  0  0  0  0  0  0  0  0  0  0  # atno 17320 bound_to 7965
  145.2045  139.2235  143.5175 LP  0  0  0  0  0  0  0  0  0  0  0  0  # atno 17321 bound_to 7965
  140.7698  143.3407  151.2215 LP  0  0  0  0  0  0  0  0  0  0  0  0  # atno 17342 bound_to 10162
  139.6990  143.9564  152.2896 LP  0  0  0  0  0  0  0  0  0  0  0  0  # atno 17343 bound_to 10162
  157.0447  131.0045  151.3272 LP  0  0  0  0  0  0  0  0  0  0  0  0  # atno 17370 bound_to 10713
  157.5184  130.7982  149.7781 LP  0  0  0  0  0  0  0  0  0  0  0  0  # atno 17371 bound_to 10713
  141.0711  134.0204  157.3524 LP  0  0  0  0  0  0  0  0  0  0  0  0  # atno 17394 bound_to 11000
  139.9136  135.0194  156.7791 LP  0  0  0  0  0  0  0  0  0  0  0  0  # atno 17395 bound_to 11000

$$$$
