AV-unprocessed.smi:2889|AV-procd|sdf|11109|dock5
  -GOLD-   2272015573D 1   1.00000     0.00000
 Structure written by MMmdl.
 36 37  0  0  0  0  0  0  0  0  1 V2000
  147.1855  142.0364  154.1542 C   0  0  0  0  0  0  0  0  0  0  0  0
  147.8329  140.3926  153.7459 S   0  0  0  0  0  0  0  0  0  0  0  0
  149.5330  140.5023  154.3933 C   0  0  1  0  0  0  0  0  0  0  0  0
  149.5676  141.3421  155.6843 C   0  0  0  0  0  0  0  0  0  0  0  0
  150.9921  141.4708  156.2429 C   0  0  0  0  0  0  0  0  0  0  0  0
  151.6127  140.0899  156.4931 C   0  0  0  0  0  0  0  0  0  0  0  0
  151.6081  139.2347  155.2158 C   0  0  0  0  0  0  0  0  0  0  0  0
  150.2033  139.1186  154.5862 C   0  0  1  0  0  0  0  0  0  0  0  0
  149.3472  138.2190  155.3721 N   0  0  0  0  0  0  0  0  0  0  0  0
  149.9870  136.7255  155.9591 S   0  0  0  0  0  0  0  0  0  0  0  0
  148.9191  135.7156  155.8882 O   0  0  0  0  0  0  0  0  0  0  0  0
  151.2664  136.5035  155.2684 O   0  0  0  0  0  0  0  0  0  0  0  0
  150.3296  137.1147  157.7305 C   0  0  0  0  0  0  0  0  0  0  0  0
  149.3485  136.4022  158.6182 C   0  0  0  0  0  0  0  0  0  0  0  0
  148.4181  136.9664  159.5340 C   0  0  0  0  0  0  0  0  0  0  0  0
  147.7846  135.8769  160.0577 C   0  0  0  0  0  0  0  0  0  0  0  0
  148.2854  134.7346  159.5237 O   0  0  0  0  0  0  0  0  0  0  0  0
  149.2873  135.0799  158.6096 N   0  0  0  0  0  0  0  0  0  0  0  0
  146.1221  142.0843  153.9208 H   0  0  0  0  0  0  0  0  0  0  0  0
  147.6927  142.8077  153.5750 H   0  0  0  0  0  0  0  0  0  0  0  0
  147.3163  142.2481  155.2154 H   0  0  0  0  0  0  0  0  0  0  0  0
  150.1086  141.0455  153.6424 H   0  0  0  0  0  0  0  0  0  0  0  0
  149.1618  142.3356  155.4905 H   0  0  0  0  0  0  0  0  0  0  0  0
  148.9218  140.8885  156.4373 H   0  0  0  0  0  0  0  0  0  0  0  0
  151.6123  142.0312  155.5423 H   0  0  0  0  0  0  0  0  0  0  0  0
  150.9762  142.0440  157.1701 H   0  0  0  0  0  0  0  0  0  0  0  0
  152.6337  140.2027  156.8582 H   0  0  0  0  0  0  0  0  0  0  0  0
  151.0599  139.5760  157.2804 H   0  0  0  0  0  0  0  0  0  0  0  0
  152.2784  139.6945  154.4886 H   0  0  0  0  0  0  0  0  0  0  0  0
  152.0264  138.2489  155.4204 H   0  0  0  0  0  0  0  0  0  0  0  0
  150.3282  138.6734  153.6000 H   0  0  0  0  0  0  0  0  0  0  0  0
  148.8599  138.7266  156.1101 H   0  0  0  0  0  0  0  0  0  0  0  0
  151.3494  136.7989  157.9515 H   0  0  0  0  0  0  0  0  0  0  0  0
  150.2834  138.1948  157.8667 H   0  0  0  0  0  0  0  0  0  0  0  0
  148.2379  138.0061  159.7634 H   0  0  0  0  0  0  0  0  0  0  0  0
  146.9959  135.7558  160.7853 H   0  0  0  0  0  0  0  0  0  0  0  0
  1  2  1  0  0  0  0
  1 19  1  0  0  0  0
  1 20  1  0  0  0  0
  1 21  1  0  0  0  0
  2  3  1  0  0  0  0
  3  8  1  0  0  0  0
  3  4  1  0  0  0  0
  3 22  1  0  0  0  0
  4  5  1  0  0  0  0
  4 23  1  0  0  0  0
  4 24  1  0  0  0  0
  5  6  1  0  0  0  0
  5 25  1  0  0  0  0
  5 26  1  0  0  0  0
  6  7  1  0  0  0  0
  6 27  1  0  0  0  0
  6 28  1  0  0  0  0
  7  8  1  0  0  0  0
  7 29  1  0  0  0  0
  7 30  1  0  0  0  0
  8  9  1  0  0  0  0
  8 31  1  0  0  0  0
  9 10  1  0  0  0  0
  9 32  1  0  0  0  0
 10 11  2  0  0  0  0
 10 12  2  0  0  0  0
 10 13  1  0  0  0  0
 13 14  1  0  0  0  0
 13 33  1  0  0  0  0
 13 34  1  0  0  0  0
 14 18  2  0  0  0  0
 14 15  1  0  0  0  0
 15 16  2  0  0  0  0
 15 35  1  0  0  0  0
 16 17  1  0  0  0  0
 16 36  1  0  0  0  0
 17 18  1  0  0  0  0
M  END
> <s_m_source_file>
AV-unprocessed.smi

> <i_m_source_file_index>
2889

> <i_lp_mmshare_version>
43012

> <i_f3d_flags>
0

> <s_epik_input>
W0NIM11TW0NAQEhdMVtDSDJdW0NIMl1bQ0gyXVtDSDJdW0NASF0xW05IXVMoPU8pKD1PKVtDSDJdYzJbY0hdW2NIXW9uMg==

> <s_epik_cmdline>
J2VwaWtfcHl0aG9uJywgJy1waCcsICc3LjAnLCAnLXRuJywgJzgnLCAnLW1hJywgJzIwMCcsICctbWV0YWxfYmluZGluZycsICctaW1hZScsICc8aW5maWxlLm1hZT4nLCAnLW9tYWUnLCAnPG91dGZpbGUubWFlPic=

> <r_lp_tautomer_probability>
1

> <r_epik_Ionization_Penalty>
0.000229547

> <r_epik_Ionization_Penalty_Charging>
0

> <r_epik_Ionization_Penalty_Neutral>
0.000229547

> <r_epik_State_Penalty>
-0

> <r_epik_Charging_Adjusted_Penalty>
0

> <i_epik_Tot_Q>
0

> <i_epik_Tot_abs_Q>
0

> <r_epik_Metal_State_Penalty>
0.145979

> <b_epik_Metal_Only>
0

> <s_lp_Force_Field>
OPLS_2005

> <r_lp_Energy>
4.05076

> <b_lp_Chiralities_Consistent>
1

> <s_lp_Variant>
AV-unprocessed.smi:2889-2

> <Gold.Version>
5.8.1

> <Gold.Id.Protein>
6NUR|6NUR_protein|mol2

> <Gold.PLP.Fitness>
33.9028

> <Gold.PLP.PLP>
-29.4653

> <Gold.PLP.part.hbond>
-2.0501

> <Gold.PLP.part.metal>
0.0000

> <Gold.PLP.part.buried>
-2.4916

> <Gold.PLP.part.nonpolar>
-25.7358

> <Gold.PLP.part.repulsive>
0.1553

> <Gold.PLP.ligand.clash>
0.0000

> <Gold.PLP.ligand.torsion>
0.8638

> <Gold.PLP.Chemscore.Hbond>
2.0000

> <Gold.PLP.Chemscore.CHOScore>
0.0000

> <Gold.PLP.Chemscore.Metal>
0.0000

> <Gold.Chemscore.Hbonds>
donor molecule, donor type, donor heavy atom, donor atom, acceptor molecule, acceptor atom, score
      P1  H  6896  6907       L1    18  0.90
      P1  H 10752 10764       L1    12  1.00

> <Gold.PLP.Chemscore.Internal.Correction>
0.1652

> <Gold.Rescore>
     Score         DG    S(hbond)    S(metal)    S(lipo)     H(rot)  DE(clash)    DE(int)     intcor
     11.59     -15.33       1.81        0.00      71.91       1.81       0.02       3.72       ----

> <Gold.Chemscore.Fitness>
11.5896

> <Gold.Chemscore.DG>
-15.3313

> <Gold.Chemscore.ZeroCoef>
-5.4800

> <Gold.Chemscore.Hbond>
1.8146

> <Gold.Chemscore.Metal>
0.0000

> <Gold.Chemscore.Lipo>
71.9103

> <Gold.Chemscore.Internal_Hbond>
0.0000

> <Gold.Chemscore.DEClash>
0.0222

> <Gold.Chemscore.DEInternal>
3.7195

> <Gold.Chemscore.Rot>
1.8058

> <Gold.Chemscore.Internal.Correction>
   9.000000E+99

> <Gold.Chemscore.Hbonds>
donor molecule, donor type, donor heavy atom, donor atom, acceptor molecule, acceptor atom, score
      P1  H  6896  6907       L1    18  0.10
      P1  H 10752 10764       L1    12  0.93

> <Gold.Chemscore.Hbond.Weighted>
-6.0606

> <Gold.Chemscore.Metal.Weighted>
-0.0000

> <Gold.Chemscore.Lipo.Weighted>
-8.4135

> <Gold.Chemscore.Internal_Hbond.Weighted>
0.0000

> <Gold.Chemscore.DEClash.Weighted>
0.0222

> <Gold.Chemscore.DEInternal.Weighted>
3.7195

> <Gold.Chemscore.Rot.Weighted>
4.6228

> <Gold.Chemscore.Internal.Correction.Weighted>
   9.000000E+99

> <Gold.Protein.RotatedTorsions>
[ 6907 6896 6895 6894 ] final  -72.08 input  -60.11 | X-H torsion
[ 7974 7965 7964 7962 ] final  -85.91 input  175.53 | X-H torsion
[ 8008 7997 7996 7995 ] final -118.88 input   59.86 | X-H torsion
[ 10167 10162 10161 10158 ] final  159.15 input  -65.29 | X-H torsion
[ 10718 10713 10712 10709 ] final   65.11 input   66.30 | X-H torsion
[ 10763 10752 10751 10750 ] final  -63.29 input  -60.55 | X-H torsion
[ 11005 11000 10999 10996 ] final  155.52 input  -57.11 | X-H torsion

> <Gold.Protein.ActiveResidues>
 VAL166  LYS551  ARG553  GLY616  TRP617  ASP618  TYR619  PRO620  LYS621  CYS622 
 ASP623  PHE694  ASN695  SER759  ASP760  ASP761  ALA762  ILE779  LEU786  VAL792 
 PHE793  MET794  SER795  GLU796  ALA797  LYS798  CYS799  TRP800  GLU811  SER814 

> <Gold.Protein.RotatedAtoms>
  150.7185  134.5214  159.5655 H   0  0  0  0  0  0  0  0  0  0  0  0  # atno 6907 bound_to 6896
  152.2768  134.7869  160.0413 H   0  0  0  0  0  0  0  0  0  0  0  0  # atno 6908 bound_to 6896
  151.8530  133.3408  159.3716 H   0  0  0  0  0  0  0  0  0  0  0  0  # atno 6909 bound_to 6896
  145.4869  140.9554  143.1833 H   0  0  0  0  0  0  0  0  0  0  0  0  # atno 7974 bound_to 7965
  155.1068  140.0396  157.2712 H   0  0  0  0  0  0  0  0  0  0  0  0  # atno 8008 bound_to 7997
  154.6716  140.2613  155.6976 H   0  0  0  0  0  0  0  0  0  0  0  0  # atno 8009 bound_to 7997
  156.2660  140.2796  156.1227 H   0  0  0  0  0  0  0  0  0  0  0  0  # atno 8010 bound_to 7997
  139.4830  144.4757  151.8514 H   0  0  0  0  0  0  0  0  0  0  0  0  # atno 10167 bound_to 10162
  157.6084  130.9196  149.9934 H   0  0  0  0  0  0  0  0  0  0  0  0  # atno 10718 bound_to 10713
  154.3128  135.6212  153.5473 H   0  0  0  0  0  0  0  0  0  0  0  0  # atno 10763 bound_to 10752
  152.9828  135.5705  154.5158 H   0  0  0  0  0  0  0  0  0  0  0  0  # atno 10764 bound_to 10752
  154.4811  135.2863  155.1546 H   0  0  0  0  0  0  0  0  0  0  0  0  # atno 10765 bound_to 10752
  140.1589  134.8623  157.2549 H   0  0  0  0  0  0  0  0  0  0  0  0  # atno 11005 bound_to 11000
  144.7856  139.6433  143.7135 LP  0  0  0  0  0  0  0  0  0  0  0  0  # atno 17320 bound_to 7965
  146.2307  139.5809  142.9557 LP  0  0  0  0  0  0  0  0  0  0  0  0  # atno 17321 bound_to 7965
  140.4229  144.2219  150.5887 LP  0  0  0  0  0  0  0  0  0  0  0  0  # atno 17342 bound_to 10162
  140.4856  143.2364  151.8893 LP  0  0  0  0  0  0  0  0  0  0  0  0  # atno 17343 bound_to 10162
  156.1178  130.3647  149.9938 LP  0  0  0  0  0  0  0  0  0  0  0  0  # atno 17370 bound_to 10713
  156.8024  130.9295  151.3645 LP  0  0  0  0  0  0  0  0  0  0  0  0  # atno 17371 bound_to 10713
  140.2514  134.3679  155.7441 LP  0  0  0  0  0  0  0  0  0  0  0  0  # atno 17394 bound_to 11000
  141.2207  133.7318  156.8941 LP  0  0  0  0  0  0  0  0  0  0  0  0  # atno 17395 bound_to 11000

$$$$
