AV-unprocessed.smi:2439|AV-procd|sdf|9609|dock10
  -GOLD-   2272013243D 1   1.00000     0.00000
 Structure written by MMmdl.
 41 43  0  0  0  0  0  0  0  0  2 V2000
  150.4928  138.4382  154.5112 N   0  0  0  0  0  0  0  0  0  0  0  0
  149.6638  139.2085  154.2704 C   0  0  0  0  0  0  0  0  0  0  0  0
  148.6194  140.1799  153.9688 C   0  0  0  0  0  0  0  0  0  0  0  0
  148.6527  141.4393  154.6036 C   0  0  0  0  0  0  0  0  0  0  0  0
  147.6446  142.3780  154.3176 C   0  0  0  0  0  0  0  0  0  0  0  0
  146.6389  142.0181  153.4025 C   0  0  0  0  0  0  0  0  0  0  0  0
  146.5948  140.8173  152.7881 N   0  0  0  0  0  0  0  0  0  0  0  0
  147.5621  139.9071  153.0595 C   0  0  0  0  0  0  0  0  0  0  0  0
  147.4870  138.6649  152.4048 N   0  0  0  0  0  0  0  0  0  0  0  0
  146.3376  138.3166  151.5818 C   0  0  0  0  0  0  0  0  0  0  0  0
  145.2752  137.5457  152.3897 C   0  0  2  0  0  0  0  0  0  0  0  0
  145.8878  136.5646  153.4068 C   0  0  0  0  0  0  0  0  0  0  0  0
  146.4992  135.3970  152.7292 N   0  3  1  0  0  0  0  0  0  0  0  0
  147.1324  134.4594  153.6915 C   0  0  0  0  0  0  0  0  0  0  0  0
  147.8343  133.3035  152.9617 C   0  0  0  0  0  0  0  0  0  0  0  0
  146.8537  132.5655  152.0420 C   0  0  0  0  0  0  0  0  0  0  0  0
  146.1964  133.5578  151.0740 C   0  0  0  0  0  0  0  0  0  0  0  0
  145.5242  134.7217  151.8304 C   0  0  2  0  0  0  0  0  0  0  0  0
  144.9175  135.7414  150.8476 C   0  0  0  0  0  0  0  0  0  0  0  0
  144.3552  136.8423  151.5542 O   0  0  0  0  0  0  0  0  0  0  0  0
  149.4380  141.6880  155.3031 H   0  0  0  0  0  0  0  0  0  0  0  0
  147.6428  143.3499  154.7887 H   0  0  0  0  0  0  0  0  0  0  0  0
  145.8480  142.7116  153.1577 H   0  0  0  0  0  0  0  0  0  0  0  0
  148.1777  137.9543  152.6021 H   0  0  0  0  0  0  0  0  0  0  0  0
  145.9132  139.2149  151.1339 H   0  0  0  0  0  0  0  0  0  0  0  0
  146.6862  137.6940  150.7568 H   0  0  0  0  0  0  0  0  0  0  0  0
  144.6925  138.2788  152.9489 H   0  0  0  0  0  0  0  0  0  0  0  0
  146.6350  137.0745  154.0164 H   0  0  0  0  0  0  0  0  0  0  0  0
  145.1109  136.2142  154.0883 H   0  0  0  0  0  0  0  0  0  0  0  0
  147.8578  134.9982  154.3023 H   0  0  0  0  0  0  0  0  0  0  0  0
  146.3749  134.0663  154.3715 H   0  0  0  0  0  0  0  0  0  0  0  0
  148.6689  133.6907  152.3756 H   0  0  0  0  0  0  0  0  0  0  0  0
  148.2602  132.6087  153.6862 H   0  0  0  0  0  0  0  0  0  0  0  0
  147.3732  131.7842  151.4863 H   0  0  0  0  0  0  0  0  0  0  0  0
  146.0880  132.0692  152.6396 H   0  0  0  0  0  0  0  0  0  0  0  0
  146.9514  133.9480  150.3896 H   0  0  0  0  0  0  0  0  0  0  0  0
  145.4619  133.0376  150.4579 H   0  0  0  0  0  0  0  0  0  0  0  0
  144.7193  134.3188  152.4481 H   0  0  0  0  0  0  0  0  0  0  0  0
  145.6596  136.0872  150.1276 H   0  0  0  0  0  0  0  0  0  0  0  0
  144.1254  135.2701  150.2655 H   0  0  0  0  0  0  0  0  0  0  0  0
  147.2387  135.7543  152.1411 H   0  0  0  0  0  0  0  0  0  0  0  0
  1  2  3  0  0  0  0
  2  3  1  0  0  0  0
  3  8  1  0  0  0  0
  3  4  2  0  0  0  0
  4  5  1  0  0  0  0
  4 21  1  0  0  0  0
  5  6  2  0  0  0  0
  5 22  1  0  0  0  0
  6  7  1  0  0  0  0
  6 23  1  0  0  0  0
  7  8  2  0  0  0  0
  8  9  1  0  0  0  0
  9 10  1  0  0  0  0
  9 24  1  0  0  0  0
 10 11  1  0  0  0  0
 10 25  1  0  0  0  0
 10 26  1  0  0  0  0
 11 20  1  0  0  0  0
 11 12  1  0  0  0  0
 11 27  1  0  0  0  0
 12 13  1  0  0  0  0
 12 28  1  0  0  0  0
 12 29  1  0  0  0  0
 13 18  1  0  0  0  0
 13 14  1  0  0  0  0
 13 41  1  0  0  0  0
 14 15  1  0  0  0  0
 14 30  1  0  0  0  0
 14 31  1  0  0  0  0
 15 16  1  0  0  0  0
 15 32  1  0  0  0  0
 15 33  1  0  0  0  0
 16 17  1  0  0  0  0
 16 34  1  0  0  0  0
 16 35  1  0  0  0  0
 17 18  1  0  0  0  0
 17 36  1  0  0  0  0
 17 37  1  0  0  0  0
 18 19  1  0  0  0  0
 18 38  1  0  0  0  0
 19 20  1  0  0  0  0
 19 39  1  0  0  0  0
 19 40  1  0  0  0  0
M  CHG  1  13   1
M  END
> <s_m_source_file>
AV-unprocessed.smi

> <i_m_source_file_index>
2439

> <i_lp_mmshare_version>
43012

> <i_f3d_flags>
0

> <s_epik_input>
TiNDYzFbY0hdW2NIXVtjSF1uYzFbTkhdW0NIMl1bQ0BIXShbQ0gyXTIpT1tDSDJdW0NAQEhdKE4yMylbQ0gyXVtDSDJdW0NIMl1bQ0gyXTM=

> <s_epik_cmdline>
J2VwaWtfcHl0aG9uJywgJy1waCcsICc3LjAnLCAnLXRuJywgJzgnLCAnLW1hJywgJzIwMCcsICctbWV0YWxfYmluZGluZycsICctaW1hZScsICc8aW5maWxlLm1hZT4nLCAnLW9tYWUnLCAnPG91dGZpbGUubWFlPic=

> <r_epik_Ionization_Penalty>
0.0803594

> <r_epik_Ionization_Penalty_Charging>
0.0803403

> <r_epik_Ionization_Penalty_Neutral>
1.90988e-05

> <r_epik_State_Penalty>
0.0711481

> <r_epik_Charging_Adjusted_Penalty>
0.151488

> <i_epik_Tot_Q>
1

> <i_epik_Tot_abs_Q>
1

> <r_epik_Metal_State_Penalty>
0.0711482

> <b_epik_Metal_Only>
0

> <s_lp_Force_Field>
OPLS_2005

> <r_lp_Energy>
31.556

> <b_lp_Chiralities_Consistent>
1

> <s_lp_Variant>
AV-unprocessed.smi:2439-7

> <Gold.Version>
5.8.1

> <Gold.Id.Protein>
6NUR|6NUR_protein|mol2

> <Gold.PLP.Fitness>
41.2716

> <Gold.PLP.PLP>
-33.4448

> <Gold.PLP.part.hbond>
-3.0000

> <Gold.PLP.part.metal>
0.0000

> <Gold.PLP.part.buried>
2.3738

> <Gold.PLP.part.nonpolar>
-34.4827

> <Gold.PLP.part.repulsive>
2.0316

> <Gold.PLP.ligand.clash>
0.0000

> <Gold.PLP.ligand.torsion>
0.3865

> <Gold.PLP.Chemscore.Hbond>
2.8640

> <Gold.PLP.Chemscore.CHOScore>
0.0000

> <Gold.PLP.Chemscore.Metal>
0.0000

> <Gold.Chemscore.Hbonds>
donor molecule, donor type, donor heavy atom, donor atom, acceptor molecule, acceptor atom, score
      L1  H     9    24       P1  7948  0.83
      L1  H    13    41       P1  7948  2.00

> <Gold.PLP.Chemscore.Internal.Correction>
0.0078

> <Gold.Rescore>
     Score         DG    S(hbond)    S(metal)    S(lipo)     H(rot)  DE(clash)    DE(int)     intcor
     15.78     -16.74       1.79        0.00      72.92       1.27       0.64       0.33       ----

> <Gold.Chemscore.Fitness>
15.7771

> <Gold.Chemscore.DG>
-16.7390

> <Gold.Chemscore.ZeroCoef>
-5.4800

> <Gold.Chemscore.Hbond>
1.7869

> <Gold.Chemscore.Metal>
0.0000

> <Gold.Chemscore.Lipo>
72.9206

> <Gold.Chemscore.Internal_Hbond>
0.0000

> <Gold.Chemscore.DEClash>
0.6359

> <Gold.Chemscore.DEInternal>
0.3260

> <Gold.Chemscore.Rot>
1.2659

> <Gold.Chemscore.Internal.Correction>
   9.000000E+99

> <Gold.Chemscore.Hbonds>
donor molecule, donor type, donor heavy atom, donor atom, acceptor molecule, acceptor atom, score
      L1  H     9    24       P1  7948  0.79
      L1  H    13    41       P1  7948  0.97

> <Gold.Chemscore.Hbond.Weighted>
-5.9681

> <Gold.Chemscore.Metal.Weighted>
-0.0000

> <Gold.Chemscore.Lipo.Weighted>
-8.5317

> <Gold.Chemscore.Internal_Hbond.Weighted>
0.0000

> <Gold.Chemscore.DEClash.Weighted>
0.6359

> <Gold.Chemscore.DEInternal.Weighted>
0.3260

> <Gold.Chemscore.Rot.Weighted>
3.2408

> <Gold.Chemscore.Internal.Correction.Weighted>
   9.000000E+99

> <Gold.Protein.RotatedTorsions>
[ 6907 6896 6895 6894 ] final  -18.45 input  -60.11 | X-H torsion
[ 7974 7965 7964 7962 ] final -153.60 input  175.53 | X-H torsion
[ 8008 7997 7996 7995 ] final  179.38 input   59.86 | X-H torsion
[ 10167 10162 10161 10158 ] final   21.01 input  -65.29 | X-H torsion
[ 10718 10713 10712 10709 ] final  -37.06 input   66.30 | X-H torsion
[ 10763 10752 10751 10750 ] final  -88.75 input  -60.55 | X-H torsion
[ 11005 11000 10999 10996 ] final  -45.02 input  -57.11 | X-H torsion

> <Gold.Protein.ActiveResidues>
 VAL166  LYS551  ARG553  GLY616  TRP617  ASP618  TYR619  PRO620  LYS621  CYS622 
 ASP623  PHE694  ASN695  SER759  ASP760  ASP761  ALA762  ILE779  LEU786  VAL792 
 PHE793  MET794  SER795  GLU796  ALA797  LYS798  CYS799  TRP800  GLU811  SER814 

> <Gold.Protein.RotatedAtoms>
  151.2779  135.0705  159.9158 H   0  0  0  0  0  0  0  0  0  0  0  0  # atno 6907 bound_to 6896
  152.5339  134.0061  159.7927 H   0  0  0  0  0  0  0  0  0  0  0  0  # atno 6908 bound_to 6896
  151.0310  133.5740  159.2691 H   0  0  0  0  0  0  0  0  0  0  0  0  # atno 6909 bound_to 6896
  144.7732  140.4503  143.5892 H   0  0  0  0  0  0  0  0  0  0  0  0  # atno 7974 bound_to 7965
  156.0441  140.1310  157.0123 H   0  0  0  0  0  0  0  0  0  0  0  0  # atno 8008 bound_to 7997
  154.4404  140.1024  156.6350 H   0  0  0  0  0  0  0  0  0  0  0  0  # atno 8009 bound_to 7997
  155.5623  140.3465  155.4496 H   0  0  0  0  0  0  0  0  0  0  0  0  # atno 8010 bound_to 7997
  140.5460  143.9594  150.6548 H   0  0  0  0  0  0  0  0  0  0  0  0  # atno 10167 bound_to 10162
  156.3196  130.4264  149.7973 H   0  0  0  0  0  0  0  0  0  0  0  0  # atno 10718 bound_to 10713
  154.6479  135.5366  153.7866 H   0  0  0  0  0  0  0  0  0  0  0  0  # atno 10763 bound_to 10752
  153.0369  135.6475  154.1062 H   0  0  0  0  0  0  0  0  0  0  0  0  # atno 10764 bound_to 10752
  154.0981  135.2935  155.3237 H   0  0  0  0  0  0  0  0  0  0  0  0  # atno 10765 bound_to 10752
  141.0489  133.6750  156.2955 H   0  0  0  0  0  0  0  0  0  0  0  0  # atno 11005 bound_to 11000
  145.6262  139.1530  143.2995 LP  0  0  0  0  0  0  0  0  0  0  0  0  # atno 17320 bound_to 7965
  146.1894  140.6369  142.9152 LP  0  0  0  0  0  0  0  0  0  0  0  0  # atno 17321 bound_to 7965
  140.3007  143.3262  152.0974 LP  0  0  0  0  0  0  0  0  0  0  0  0  # atno 17342 bound_to 10162
  139.5007  144.6698  151.6269 LP  0  0  0  0  0  0  0  0  0  0  0  0  # atno 17343 bound_to 10162
  156.5286  130.8247  151.3229 LP  0  0  0  0  0  0  0  0  0  0  0  0  # atno 17370 bound_to 10713
  157.7409  130.9859  150.2408 LP  0  0  0  0  0  0  0  0  0  0  0  0  # atno 17371 bound_to 10713
  140.6094  134.5474  157.5531 LP  0  0  0  0  0  0  0  0  0  0  0  0  # atno 17394 bound_to 11000
  139.9334  134.7921  156.0869 LP  0  0  0  0  0  0  0  0  0  0  0  0  # atno 17395 bound_to 11000

$$$$
