AV-unprocessed.smi:152|AV-procd|sdf|1246|dock9
  -GOLD-   2262018473D 1   1.00000     0.00000
 Structure written by MMmdl.
 58 61  0  0  0  0  0  0  0  0  2 V2000
  142.9133  136.8258  155.8985 C   0  0  0  0  0  0  0  0  0  0  0  0
  143.4942  137.9570  155.0385 C   0  0  0  0  0  0  0  0  0  0  0  0
  143.9690  137.4929  153.7091 N   0  3  2  0  0  0  0  0  0  0  0  0
  142.8818  136.9083  152.8870 C   0  0  0  0  0  0  0  0  0  0  0  0
  143.1871  135.4190  152.7667 C   0  0  0  0  0  0  0  0  0  0  0  0
  144.7058  135.3962  152.7677 C   0  0  0  0  0  0  0  0  0  0  0  0
  145.0879  136.5111  153.7540 C   0  0  1  0  0  0  0  0  0  0  0  0
  146.4367  137.1860  153.4177 C   0  0  0  0  0  0  0  0  0  0  0  0
  147.0745  137.8170  154.5736 N   0  0  0  0  0  0  0  0  0  0  0  0
  147.5888  136.9390  155.6213 C   0  0  0  0  0  0  0  0  0  0  0  0
  147.6609  139.0347  154.4134 C   0  0  0  0  0  0  0  0  0  0  0  0
  147.2091  139.8580  153.4292 N   0  0  0  0  0  0  0  0  0  0  0  0
  147.7440  141.0695  153.2550 C   0  0  0  0  0  0  0  0  0  0  0  0
  148.7291  141.6507  153.9397 N   0  0  0  0  0  0  0  0  0  0  0  0
  149.1994  140.8296  154.9208 C   0  0  0  0  0  0  0  0  0  0  0  0
  148.7290  139.5194  155.2249 C   0  0  0  0  0  0  0  0  0  0  0  0
  149.4642  138.9955  156.2827 N   0  0  0  0  0  0  0  0  0  0  0  0
  150.3097  139.9404  156.5899 C   0  0  0  0  0  0  0  0  0  0  0  0
  150.2241  141.0755  155.8176 N   0  0  0  0  0  0  0  0  0  0  0  0
  151.0439  142.2720  155.9347 C   0  0  0  0  0  0  0  0  0  0  0  0
  151.0044  142.9236  157.3391 C   0  0  0  0  0  0  0  0  0  0  0  0
  149.6436  143.1232  157.6824 O   0  0  0  0  0  0  0  0  0  0  0  0
  151.6573  142.0397  158.4244 C   0  0  0  0  0  0  0  0  0  0  0  0
  151.7953  142.7790  159.7673 C   0  0  0  0  0  0  0  0  0  0  0  0
  152.5087  143.9963  159.5859 O   0  0  0  0  0  0  0  0  0  0  0  0
  151.8362  144.9056  158.7229 C   0  0  0  0  0  0  0  0  0  0  0  0
  151.7056  144.2967  157.3156 C   0  0  0  0  0  0  0  0  0  0  0  0
  142.6599  137.1928  156.8931 H   0  0  0  0  0  0  0  0  0  0  0  0
  143.6298  136.0129  156.0202 H   0  0  0  0  0  0  0  0  0  0  0  0
  142.0018  136.4146  155.4648 H   0  0  0  0  0  0  0  0  0  0  0  0
  142.7600  138.7546  154.9148 H   0  0  0  0  0  0  0  0  0  0  0  0
  144.3374  138.3913  155.5772 H   0  0  0  0  0  0  0  0  0  0  0  0
  141.8835  137.0899  153.2880 H   0  0  0  0  0  0  0  0  0  0  0  0
  142.9238  137.3713  151.9005 H   0  0  0  0  0  0  0  0  0  0  0  0
  142.8050  134.8859  153.6381 H   0  0  0  0  0  0  0  0  0  0  0  0
  142.7542  134.9676  151.8735 H   0  0  0  0  0  0  0  0  0  0  0  0
  145.1112  134.4241  153.0501 H   0  0  0  0  0  0  0  0  0  0  0  0
  145.0674  135.6304  151.7654 H   0  0  0  0  0  0  0  0  0  0  0  0
  145.1266  136.0761  154.7543 H   0  0  0  0  0  0  0  0  0  0  0  0
  147.0975  136.4745  152.9283 H   0  0  0  0  0  0  0  0  0  0  0  0
  146.2779  137.9688  152.6769 H   0  0  0  0  0  0  0  0  0  0  0  0
  147.6650  137.4710  156.5703 H   0  0  0  0  0  0  0  0  0  0  0  0
  148.5750  136.5552  155.3586 H   0  0  0  0  0  0  0  0  0  0  0  0
  146.9239  136.0884  155.7720 H   0  0  0  0  0  0  0  0  0  0  0  0
  147.3217  141.6569  152.4529 H   0  0  0  0  0  0  0  0  0  0  0  0
  151.0300  139.8324  157.3879 H   0  0  0  0  0  0  0  0  0  0  0  0
  152.0694  142.0059  155.6757 H   0  0  0  0  0  0  0  0  0  0  0  0
  150.7167  142.9848  155.1764 H   0  0  0  0  0  0  0  0  0  0  0  0
  149.2160  143.5687  156.9669 H   0  0  0  0  0  0  0  0  0  0  0  0
  151.0912  141.1189  158.5709 H   0  0  0  0  0  0  0  0  0  0  0  0
  152.6513  141.7385  158.0912 H   0  0  0  0  0  0  0  0  0  0  0  0
  150.8177  142.9800  160.2081 H   0  0  0  0  0  0  0  0  0  0  0  0
  152.3389  142.1576  160.4792 H   0  0  0  0  0  0  0  0  0  0  0  0
  150.8588  145.1616  159.1342 H   0  0  0  0  0  0  0  0  0  0  0  0
  152.4096  145.8315  158.6755 H   0  0  0  0  0  0  0  0  0  0  0  0
  152.7064  144.1826  156.8969 H   0  0  0  0  0  0  0  0  0  0  0  0
  151.1766  144.9864  156.6565 H   0  0  0  0  0  0  0  0  0  0  0  0
  144.2972  138.3073  153.2098 H   0  0  0  0  0  0  0  0  0  0  0  0
  1  2  1  0  0  0  0
  1 28  1  0  0  0  0
  1 29  1  0  0  0  0
  1 30  1  0  0  0  0
  2  3  1  0  0  0  0
  2 31  1  0  0  0  0
  2 32  1  0  0  0  0
  3  7  1  0  0  0  0
  3  4  1  0  0  0  0
  3 58  1  0  0  0  0
  4  5  1  0  0  0  0
  4 33  1  0  0  0  0
  4 34  1  0  0  0  0
  5  6  1  0  0  0  0
  5 35  1  0  0  0  0
  5 36  1  0  0  0  0
  6  7  1  0  0  0  0
  6 37  1  0  0  0  0
  6 38  1  0  0  0  0
  7  8  1  0  0  0  0
  7 39  1  0  0  0  0
  8  9  1  0  0  0  0
  8 40  1  0  0  0  0
  8 41  1  0  0  0  0
  9 10  1  0  0  0  0
  9 11  1  0  0  0  0
 10 42  1  0  0  0  0
 10 43  1  0  0  0  0
 10 44  1  0  0  0  0
 11 16  1  0  0  0  0
 11 12  2  0  0  0  0
 12 13  1  0  0  0  0
 13 14  2  0  0  0  0
 13 45  1  0  0  0  0
 14 15  1  0  0  0  0
 15 19  1  0  0  0  0
 15 16  2  0  0  0  0
 16 17  1  0  0  0  0
 17 18  2  0  0  0  0
 18 19  1  0  0  0  0
 18 46  1  0  0  0  0
 19 20  1  0  0  0  0
 20 21  1  0  0  0  0
 20 47  1  0  0  0  0
 20 48  1  0  0  0  0
 21 27  1  0  0  0  0
 21 22  1  0  0  0  0
 21 23  1  0  0  0  0
 22 49  1  0  0  0  0
 23 24  1  0  0  0  0
 23 50  1  0  0  0  0
 23 51  1  0  0  0  0
 24 25  1  0  0  0  0
 24 52  1  0  0  0  0
 24 53  1  0  0  0  0
 25 26  1  0  0  0  0
 26 27  1  0  0  0  0
 26 54  1  0  0  0  0
 26 55  1  0  0  0  0
 27 56  1  0  0  0  0
 27 57  1  0  0  0  0
M  CHG  1   3   1
M  END
> <s_m_source_file>
AV-unprocessed.smi

> <i_m_source_file_index>
152

> <i_lp_mmshare_version>
43012

> <i_f3d_flags>
0

> <s_epik_input>
W0NIM11bQ0gyXU4xW0NIMl1bQ0gyXVtDSDJdW0NASF0xW0NIMl1OKFtDSDNdKWMobltjSF1uMiljKGMyMyluW2NIXW4zW0NIMl1DNChbT0hdKVtDSDJdW0NIMl1PW0NIMl1bQ0gyXTQ=

> <s_epik_cmdline>
J2VwaWtfcHl0aG9uJywgJy1waCcsICc3LjAnLCAnLXRuJywgJzgnLCAnLW1hJywgJzIwMCcsICctbWV0YWxfYmluZGluZycsICctaW1hZScsICc8aW5maWxlLm1hZT4nLCAnLW9tYWUnLCAnPG91dGZpbGUubWFlPic=

> <r_lp_tautomer_probability>
1

> <r_epik_Ionization_Penalty>
0.00152183

> <r_epik_Ionization_Penalty_Charging>
0.00112577

> <r_epik_Ionization_Penalty_Neutral>
0.000396066

> <r_epik_State_Penalty>
-0

> <r_epik_Charging_Adjusted_Penalty>
0.00112577

> <i_epik_Tot_Q>
1

> <i_epik_Tot_abs_Q>
1

> <r_epik_Metal_State_Penalty>
-0

> <b_epik_Metal_Only>
0

> <s_lp_Force_Field>
OPLS_2005

> <r_lp_Energy>
43.1926

> <b_lp_Chiralities_Consistent>
1

> <s_lp_Variant>
AV-unprocessed.smi:152-1

> <Gold.Version>
5.8.1

> <Gold.Id.Protein>
6NUR|6NUR_protein|mol2

> <Gold.PLP.Fitness>
47.4813

> <Gold.PLP.PLP>
-38.5956

> <Gold.PLP.part.hbond>
-3.0000

> <Gold.PLP.part.metal>
0.0000

> <Gold.PLP.part.buried>
-8.2641

> <Gold.PLP.part.nonpolar>
-27.5196

> <Gold.PLP.part.repulsive>
0.3464

> <Gold.PLP.ligand.clash>
0.0000

> <Gold.PLP.ligand.torsion>
0.6353

> <Gold.PLP.Chemscore.Hbond>
3.2038

> <Gold.PLP.Chemscore.CHOScore>
0.0000

> <Gold.PLP.Chemscore.Metal>
0.0000

> <Gold.Chemscore.Hbonds>
donor molecule, donor type, donor heavy atom, donor atom, acceptor molecule, acceptor atom, score
      L1  H     3    58       P1 10175  0.34
      L1  H    22    49       P1  8028  1.00
      P1  H  8011  8017       L1    14  0.49

> <Gold.PLP.Chemscore.Internal.Correction>
0.5449

> <Gold.Rescore>
     Score         DG    S(hbond)    S(metal)    S(lipo)     H(rot)  DE(clash)    DE(int)     intcor
     12.89     -15.41       1.85        0.00      85.76       2.46       0.57       1.94       ----

> <Gold.Chemscore.Fitness>
12.8925

> <Gold.Chemscore.DG>
-15.4053

> <Gold.Chemscore.ZeroCoef>
-5.4800

> <Gold.Chemscore.Hbond>
1.8541

> <Gold.Chemscore.Metal>
0.0000

> <Gold.Chemscore.Lipo>
85.7581

> <Gold.Chemscore.Internal_Hbond>
0.0000

> <Gold.Chemscore.DEClash>
0.5722

> <Gold.Chemscore.DEInternal>
1.9407

> <Gold.Chemscore.Rot>
2.4614

> <Gold.Chemscore.Internal.Correction>
   9.000000E+99

> <Gold.Chemscore.Hbonds>
donor molecule, donor type, donor heavy atom, donor atom, acceptor molecule, acceptor atom, score
      L1  H     3    58       P1 10175  0.18
      L1  H    22    49       P1  8028  0.78
      P1  H  8011  8017       L1    14  0.09

> <Gold.Chemscore.Hbond.Weighted>
-6.1928

> <Gold.Chemscore.Metal.Weighted>
-0.0000

> <Gold.Chemscore.Lipo.Weighted>
-10.0337

> <Gold.Chemscore.Internal_Hbond.Weighted>
0.0000

> <Gold.Chemscore.DEClash.Weighted>
0.5722

> <Gold.Chemscore.DEInternal.Weighted>
1.9407

> <Gold.Chemscore.Rot.Weighted>
6.3012

> <Gold.Chemscore.Internal.Correction.Weighted>
   9.000000E+99

> <Gold.Protein.RotatedTorsions>
[ 6907 6896 6895 6894 ] final   10.13 input  -60.11 | X-H torsion
[ 7974 7965 7964 7962 ] final   73.59 input  175.53 | X-H torsion
[ 8008 7997 7996 7995 ] final   -3.49 input   59.86 | X-H torsion
[ 10167 10162 10161 10158 ] final   80.81 input  -65.29 | X-H torsion
[ 10718 10713 10712 10709 ] final  -42.21 input   66.30 | X-H torsion
[ 10763 10752 10751 10750 ] final  167.70 input  -60.55 | X-H torsion
[ 11005 11000 10999 10996 ] final   31.66 input  -57.11 | X-H torsion

> <Gold.Protein.ActiveResidues>
 VAL166  LYS551  ARG553  GLY616  TRP617  ASP618  TYR619  PRO620  LYS621  CYS622 
 ASP623  PHE694  ASN695  SER759  ASP760  ASP761  ALA762  ILE779  LEU786  VAL792 
 PHE793  MET794  SER795  GLU796  ALA797  LYS798  CYS799  TRP800  GLU811  SER814 

> <Gold.Protein.RotatedAtoms>
  151.7333  135.0870  160.0303 H   0  0  0  0  0  0  0  0  0  0  0  0  # atno 6907 bound_to 6896
  152.3527  133.6195  159.5965 H   0  0  0  0  0  0  0  0  0  0  0  0  # atno 6908 bound_to 6896
  150.7550  133.9465  159.3514 H   0  0  0  0  0  0  0  0  0  0  0  0  # atno 6909 bound_to 6896
  145.7390  139.2713  143.1497 H   0  0  0  0  0  0  0  0  0  0  0  0  # atno 7974 bound_to 7965
  154.6243  140.2508  155.7511 H   0  0  0  0  0  0  0  0  0  0  0  0  # atno 8008 bound_to 7997
  156.2444  140.2920  156.0485 H   0  0  0  0  0  0  0  0  0  0  0  0  # atno 8009 bound_to 7997
  155.1846  140.0390  157.2879 H   0  0  0  0  0  0  0  0  0  0  0  0  # atno 8010 bound_to 7997
  139.9458  144.6059  150.8208 H   0  0  0  0  0  0  0  0  0  0  0  0  # atno 10167 bound_to 10162
  156.2620  130.4198  149.8531 H   0  0  0  0  0  0  0  0  0  0  0  0  # atno 10718 bound_to 10713
  154.3577  135.2753  155.2337 H   0  0  0  0  0  0  0  0  0  0  0  0  # atno 10763 bound_to 10752
  154.4539  135.5924  153.6213 H   0  0  0  0  0  0  0  0  0  0  0  0  # atno 10764 bound_to 10752
  152.9845  135.6048  154.3794 H   0  0  0  0  0  0  0  0  0  0  0  0  # atno 10765 bound_to 10752
  140.2815  134.2967  155.7799 H   0  0  0  0  0  0  0  0  0  0  0  0  # atno 11005 bound_to 11000
  146.0466  140.8112  142.9802 LP  0  0  0  0  0  0  0  0  0  0  0  0  # atno 17320 bound_to 7965
  144.6875  140.2990  143.7266 LP  0  0  0  0  0  0  0  0  0  0  0  0  # atno 17321 bound_to 7965
  140.7597  143.3136  151.2786 LP  0  0  0  0  0  0  0  0  0  0  0  0  # atno 17342 bound_to 10162
  139.6668  144.0091  152.2728 LP  0  0  0  0  0  0  0  0  0  0  0  0  # atno 17343 bound_to 10162
  156.6043  130.8560  151.3439 LP  0  0  0  0  0  0  0  0  0  0  0  0  # atno 17370 bound_to 10713
  157.7254  130.9615  150.1613 LP  0  0  0  0  0  0  0  0  0  0  0  0  # atno 17371 bound_to 10713
  141.2162  133.7528  156.9488 LP  0  0  0  0  0  0  0  0  0  0  0  0  # atno 17394 bound_to 11000
  140.1279  134.9375  157.2296 LP  0  0  0  0  0  0  0  0  0  0  0  0  # atno 17395 bound_to 11000

$$$$
