AV-unprocessed.smi:1047|AV-procd|sdf|4574|dock9
  -GOLD-   22720 3 33D 1   1.00000     0.00000
 Structure written by MMmdl.
 56 58  0  0  0  0  0  0  0  0  2 V2000
  147.5505  133.3091  161.6342 C   0  0  0  0  0  0  0  0  0  0  0  0
  146.0777  133.4504  161.2254 C   0  0  0  0  0  0  0  0  0  0  0  0
  145.6923  134.8639  160.9711 N   0  3  1  0  0  0  0  0  0  0  0  0
  145.8780  135.7767  162.1279 C   0  0  0  0  0  0  0  0  0  0  0  0
  147.3558  136.1757  162.2995 C   0  0  0  0  0  0  0  0  0  0  0  0
  147.8444  136.7335  161.0859 O   0  0  0  0  0  0  0  0  0  0  0  0
  147.7936  135.8122  160.0004 C   0  0  2  0  0  0  0  0  0  0  0  0
  148.4227  136.4904  158.7746 C   0  0  0  0  0  0  0  0  0  0  0  0
  149.8658  136.2777  158.7454 N   0  0  0  0  0  0  0  0  0  0  0  0
  150.6118  137.4172  158.2199 C   0  0  0  0  0  0  0  0  0  0  0  0
  152.0795  137.0384  157.9406 C   0  0  2  0  0  0  0  0  0  0  0  0
  152.8748  137.4899  159.0178 O   0  0  0  0  0  0  0  0  0  0  0  0
  152.6493  137.6771  156.6590 C   0  0  0  0  0  0  0  0  0  0  0  0
  151.9640  138.9010  156.2854 N   0  0  0  0  0  0  0  0  0  0  0  0
  151.3284  139.1501  155.1243 C   0  0  0  0  0  0  0  0  0  0  0  0
  150.7684  140.3478  154.9814 N   0  0  0  0  0  0  0  0  0  0  0  0
  151.0825  140.9481  156.1886 C   0  0  0  0  0  0  0  0  0  0  0  0
  150.7831  142.2396  156.6748 C   0  0  0  0  0  0  0  0  0  0  0  0
  151.2122  142.6487  157.9575 C   0  0  0  0  0  0  0  0  0  0  0  0
  150.8732  144.0489  158.4383 C   0  0  0  0  0  0  0  0  0  0  0  0
  151.9505  141.7579  158.7772 C   0  0  0  0  0  0  0  0  0  0  0  0
  152.4194  142.1741  160.1601 C   0  0  0  0  0  0  0  0  0  0  0  0
  152.2582  140.4641  158.3073 C   0  0  0  0  0  0  0  0  0  0  0  0
  151.8294  140.0698  157.0273 C   0  0  0  0  0  0  0  0  0  0  0  0
  146.3167  135.4383  159.7534 C   0  0  0  0  0  0  0  0  0  0  0  0
  147.7716  132.2797  161.9168 H   0  0  0  0  0  0  0  0  0  0  0  0
  147.7847  133.9427  162.4903 H   0  0  0  0  0  0  0  0  0  0  0  0
  148.2287  133.5725  160.8233 H   0  0  0  0  0  0  0  0  0  0  0  0
  145.8623  132.8247  160.3593 H   0  0  0  0  0  0  0  0  0  0  0  0
  145.4708  133.0598  162.0431 H   0  0  0  0  0  0  0  0  0  0  0  0
  145.2865  136.6751  161.9470 H   0  0  0  0  0  0  0  0  0  0  0  0
  145.4884  135.3393  163.0462 H   0  0  0  0  0  0  0  0  0  0  0  0
  147.4511  136.9204  163.0897 H   0  0  0  0  0  0  0  0  0  0  0  0
  147.9692  135.3244  162.5971 H   0  0  0  0  0  0  0  0  0  0  0  0
  148.3649  134.9146  160.2451 H   0  0  0  0  0  0  0  0  0  0  0  0
  147.9812  136.0810  157.8652 H   0  0  0  0  0  0  0  0  0  0  0  0
  148.1912  137.5564  158.7813 H   0  0  0  0  0  0  0  0  0  0  0  0
  150.1940  136.0625  159.6814 H   0  0  0  0  0  0  0  0  0  0  0  0
  150.1334  137.7489  157.2983 H   0  0  0  0  0  0  0  0  0  0  0  0
  150.5667  138.2609  158.9103 H   0  0  0  0  0  0  0  0  0  0  0  0
  152.1765  135.9540  157.8667 H   0  0  0  0  0  0  0  0  0  0  0  0
  153.6840  137.0024  159.0181 H   0  0  0  0  0  0  0  0  0  0  0  0
  153.7106  137.8954  156.7838 H   0  0  0  0  0  0  0  0  0  0  0  0
  152.5731  136.9795  155.8237 H   0  0  0  0  0  0  0  0  0  0  0  0
  151.2732  138.4090  154.3402 H   0  0  0  0  0  0  0  0  0  0  0  0
  150.2206  142.9177  156.0499 H   0  0  0  0  0  0  0  0  0  0  0  0
  151.7836  144.6153  158.6369 H   0  0  0  0  0  0  0  0  0  0  0  0
  150.2834  144.0068  159.3543 H   0  0  0  0  0  0  0  0  0  0  0  0
  150.2948  144.5966  157.6937 H   0  0  0  0  0  0  0  0  0  0  0  0
  152.9708  141.3719  160.6514 H   0  0  0  0  0  0  0  0  0  0  0  0
  151.5678  142.4297  160.7911 H   0  0  0  0  0  0  0  0  0  0  0  0
  153.0764  143.0416  160.0961 H   0  0  0  0  0  0  0  0  0  0  0  0
  152.8202  139.7769  158.9223 H   0  0  0  0  0  0  0  0  0  0  0  0
  146.2249  134.7450  158.9163 H   0  0  0  0  0  0  0  0  0  0  0  0
  145.7574  136.3316  159.4717 H   0  0  0  0  0  0  0  0  0  0  0  0
  144.7001  134.8351  160.7838 H   0  0  0  0  0  0  0  0  0  0  0  0
  1  2  1  0  0  0  0
  1 26  1  0  0  0  0
  1 27  1  0  0  0  0
  1 28  1  0  0  0  0
  2  3  1  0  0  0  0
  2 29  1  0  0  0  0
  2 30  1  0  0  0  0
  3 25  1  0  0  0  0
  3  4  1  0  0  0  0
  3 56  1  0  0  0  0
  4  5  1  0  0  0  0
  4 31  1  0  0  0  0
  4 32  1  0  0  0  0
  5  6  1  0  0  0  0
  5 33  1  0  0  0  0
  5 34  1  0  0  0  0
  6  7  1  0  0  0  0
  7  8  1  0  0  0  0
  7 25  1  0  0  0  0
  7 35  1  0  0  0  0
  8  9  1  0  0  0  0
  8 36  1  0  0  0  0
  8 37  1  0  0  0  0
  9 10  1  0  0  0  0
  9 38  1  0  0  0  0
 10 11  1  0  0  0  0
 10 39  1  0  0  0  0
 10 40  1  0  0  0  0
 11 12  1  0  0  0  0
 11 13  1  0  0  0  0
 11 41  1  0  0  0  0
 12 42  1  0  0  0  0
 13 14  1  0  0  0  0
 13 43  1  0  0  0  0
 13 44  1  0  0  0  0
 14 24  1  0  0  0  0
 14 15  1  0  0  0  0
 15 16  2  0  0  0  0
 15 45  1  0  0  0  0
 16 17  1  0  0  0  0
 17 24  2  0  0  0  0
 17 18  1  0  0  0  0
 18 19  2  0  0  0  0
 18 46  1  0  0  0  0
 19 20  1  0  0  0  0
 19 21  1  0  0  0  0
 20 47  1  0  0  0  0
 20 48  1  0  0  0  0
 20 49  1  0  0  0  0
 21 22  1  0  0  0  0
 21 23  2  0  0  0  0
 22 50  1  0  0  0  0
 22 51  1  0  0  0  0
 22 52  1  0  0  0  0
 23 24  1  0  0  0  0
 23 53  1  0  0  0  0
 25 54  1  0  0  0  0
 25 55  1  0  0  0  0
M  CHG  1   3   1
M  END
> <s_m_source_file>
AV-unprocessed.smi

> <i_m_source_file_index>
1047

> <i_lp_mmshare_version>
43012

> <i_f3d_flags>
0

> <s_epik_input>
W0NIM11bQ0gyXU4xW0NIMl1bQ0gyXU9bQ0BIXShbQ0gyXTEpW0NIMl1bTkhdW0NIMl1bQ0BIXShbT0hdKVtDSDJdbihbY0hdbjIpYyhjMjMpW2NIXWMoW0NIM10pYyhbY0hdMylbQ0gzXQ==

> <s_epik_cmdline>
J2VwaWtfcHl0aG9uJywgJy1waCcsICc3LjAnLCAnLXRuJywgJzgnLCAnLW1hJywgJzIwMCcsICctbWV0YWxfYmluZGluZycsICctaW1hZScsICc8aW5maWxlLm1hZT4nLCAnLW9tYWUnLCAnPG91dGZpbGUubWFlPic=

> <r_epik_Ionization_Penalty>
1.19246

> <r_epik_Ionization_Penalty_Charging>
0.210041

> <r_epik_Ionization_Penalty_Neutral>
0.982415

> <r_epik_State_Penalty>
1.57595

> <r_epik_Charging_Adjusted_Penalty>
1.78599

> <i_epik_Tot_Q>
1

> <i_epik_Tot_abs_Q>
1

> <r_epik_Metal_State_Penalty>
1.46172

> <b_epik_Metal_Only>
0

> <s_lp_Force_Field>
OPLS_2005

> <r_lp_Energy>
32.9743

> <b_lp_Chiralities_Consistent>
1

> <s_lp_Variant>
AV-unprocessed.smi:1047-15

> <Gold.Version>
5.8.1

> <Gold.Id.Protein>
6NUR|6NUR_protein|mol2

> <Gold.PLP.Fitness>
51.0010

> <Gold.PLP.PLP>
-48.8855

> <Gold.PLP.part.hbond>
-4.0000

> <Gold.PLP.part.metal>
0.0000

> <Gold.PLP.part.buried>
-6.4882

> <Gold.PLP.part.nonpolar>
-38.4570

> <Gold.PLP.part.repulsive>
0.0663

> <Gold.PLP.ligand.clash>
1.7142

> <Gold.PLP.ligand.torsion>
1.6404

> <Gold.PLP.Chemscore.Hbond>
2.3536

> <Gold.PLP.Chemscore.CHOScore>
0.0000

> <Gold.PLP.Chemscore.Metal>
0.0000

> <Gold.Chemscore.Hbonds>
donor molecule, donor type, donor heavy atom, donor atom, acceptor molecule, acceptor atom, score
      P1  H  6931  6943       L1     6  0.76
      P1  H  6934  6947       L1     6  0.10
      P1  H  7989  7998       L1    16  0.95

> <Gold.PLP.Chemscore.Internal.Correction>
0.0498

> <Gold.Rescore>
     Score         DG    S(hbond)    S(metal)    S(lipo)     H(rot)  DE(clash)    DE(int)     intcor
     15.39     -19.15       1.79        0.00     123.00       2.62       0.02       3.74       ----

> <Gold.Chemscore.Fitness>
15.3897

> <Gold.Chemscore.DG>
-19.1537

> <Gold.Chemscore.ZeroCoef>
-5.4800

> <Gold.Chemscore.Hbond>
1.7941

> <Gold.Chemscore.Metal>
0.0000

> <Gold.Chemscore.Lipo>
122.9994

> <Gold.Chemscore.Internal_Hbond>
0.0000

> <Gold.Chemscore.DEClash>
0.0243

> <Gold.Chemscore.DEInternal>
3.7397

> <Gold.Chemscore.Rot>
2.6209

> <Gold.Chemscore.Internal.Correction>
   9.000000E+99

> <Gold.Chemscore.Hbonds>
donor molecule, donor type, donor heavy atom, donor atom, acceptor molecule, acceptor atom, score
      P1  H  6931  6943       L1     6  0.15
      P1  H  6934  6947       L1     6  0.09
      P1  H  7989  7998       L1    16  0.21

> <Gold.Chemscore.Hbond.Weighted>
-5.9924

> <Gold.Chemscore.Metal.Weighted>
-0.0000

> <Gold.Chemscore.Lipo.Weighted>
-14.3909

> <Gold.Chemscore.Internal_Hbond.Weighted>
0.0000

> <Gold.Chemscore.DEClash.Weighted>
0.0243

> <Gold.Chemscore.DEInternal.Weighted>
3.7397

> <Gold.Chemscore.Rot.Weighted>
6.7096

> <Gold.Chemscore.Internal.Correction.Weighted>
   9.000000E+99

> <Gold.Protein.RotatedTorsions>
[ 6907 6896 6895 6894 ] final   41.61 input  -60.11 | X-H torsion
[ 7974 7965 7964 7962 ] final    2.41 input  175.53 | X-H torsion
[ 8008 7997 7996 7995 ] final  -66.58 input   59.86 | X-H torsion
[ 10167 10162 10161 10158 ] final  -15.70 input  -65.29 | X-H torsion
[ 10718 10713 10712 10709 ] final  -59.48 input   66.30 | X-H torsion
[ 10763 10752 10751 10750 ] final -133.59 input  -60.55 | X-H torsion
[ 11005 11000 10999 10996 ] final  -60.18 input  -57.11 | X-H torsion

> <Gold.Protein.ActiveResidues>
 VAL166  LYS551  ARG553  GLY616  TRP617  ASP618  TYR619  PRO620  LYS621  CYS622 
 ASP623  PHE694  ASN695  SER759  ASP760  ASP761  ALA762  ILE779  LEU786  VAL792 
 PHE793  MET794  SER795  GLU796  ALA797  LYS798  CYS799  TRP800  GLU811  SER814 

> <Gold.Protein.RotatedAtoms>
  152.1974  134.8618  160.0511 H   0  0  0  0  0  0  0  0  0  0  0  0  # atno 6907 bound_to 6896
  151.9484  133.3653  159.3999 H   0  0  0  0  0  0  0  0  0  0  0  0  # atno 6908 bound_to 6896
  150.6947  134.4290  159.5283 H   0  0  0  0  0  0  0  0  0  0  0  0  # atno 6909 bound_to 6896
  146.2443  140.0840  142.8355 H   0  0  0  0  0  0  0  0  0  0  0  0  # atno 7974 bound_to 7965
  154.4744  140.0910  156.7225 H   0  0  0  0  0  0  0  0  0  0  0  0  # atno 8008 bound_to 7997
  155.4637  140.3462  155.4298 H   0  0  0  0  0  0  0  0  0  0  0  0  # atno 8009 bound_to 7997
  156.1092  140.1443  156.9351 H   0  0  0  0  0  0  0  0  0  0  0  0  # atno 8010 bound_to 7997
  140.7222  143.5191  150.9656 H   0  0  0  0  0  0  0  0  0  0  0  0  # atno 10167 bound_to 10162
  156.1058  130.4180  150.0721 H   0  0  0  0  0  0  0  0  0  0  0  0  # atno 10718 bound_to 10713
  154.8730  135.3761  154.4598 H   0  0  0  0  0  0  0  0  0  0  0  0  # atno 10763 bound_to 10752
  153.5267  135.7028  153.5709 H   0  0  0  0  0  0  0  0  0  0  0  0  # atno 10764 bound_to 10752
  153.3932  135.3967  155.1902 H   0  0  0  0  0  0  0  0  0  0  0  0  # atno 10765 bound_to 10752
  141.1277  133.6620  156.5184 H   0  0  0  0  0  0  0  0  0  0  0  0  # atno 11005 bound_to 11000
  145.0708  140.9154  143.4883 LP  0  0  0  0  0  0  0  0  0  0  0  0  # atno 17320 bound_to 7965
  145.0973  139.2847  143.5704 LP  0  0  0  0  0  0  0  0  0  0  0  0  # atno 17321 bound_to 7965
  139.8907  143.6956  152.3145 LP  0  0  0  0  0  0  0  0  0  0  0  0  # atno 17342 bound_to 10162
  139.7271  144.7590  151.0861 LP  0  0  0  0  0  0  0  0  0  0  0  0  # atno 17343 bound_to 10162
  156.8697  130.9520  151.3610 LP  0  0  0  0  0  0  0  0  0  0  0  0  # atno 17370 bound_to 10713
  157.6235  130.8673  149.9149 LP  0  0  0  0  0  0  0  0  0  0  0  0  # atno 17371 bound_to 10713
  140.4312  134.7100  157.4943 LP  0  0  0  0  0  0  0  0  0  0  0  0  # atno 17394 bound_to 11000
  140.0292  134.6431  155.9129 LP  0  0  0  0  0  0  0  0  0  0  0  0  # atno 17395 bound_to 11000

$$$$
