AV-unprocessed.smi:1762|AV-procd|sdf|7118|dock10
  -GOLD-   22720 8353D 1   1.00000     0.00000
 Structure written by MMmdl.
 53 54  0  0  0  0  0  0  0  0  2 V2000
  155.5695  133.8488  158.2643 C   0  0  0  0  0  0  0  0  0  0  0  0
  154.6370  135.0406  157.9817 C   0  0  1  0  0  0  0  0  0  0  0  0
  154.3169  135.8802  159.2320 C   0  0  0  0  0  0  0  0  0  0  0  0
  155.4923  136.6873  159.6698 N   0  3  2  0  0  0  0  0  0  0  0  0
  155.2500  137.4243  160.9581 C   0  0  1  0  0  0  0  0  0  0  0  0
  154.2181  138.5560  160.7594 C   0  0  0  0  0  0  0  0  0  0  0  0
  153.1058  138.3044  160.2937 O   0  0  0  0  0  0  0  0  0  0  0  0
  154.6015  139.7912  161.1156 N   0  0  0  0  0  0  0  0  0  0  0  0
  153.7702  140.9831  161.0123 C   0  0  0  0  0  0  0  0  0  0  0  0
  153.2732  141.1681  159.5719 C   0  0  0  0  0  0  0  0  0  0  0  0
  152.4147  142.4090  159.4140 C   0  0  0  0  0  0  0  0  0  0  0  0
  152.5045  143.4705  160.3397 C   0  0  0  0  0  0  0  0  0  0  0  0
  151.6881  144.6015  160.1443 C   0  0  0  0  0  0  0  0  0  0  0  0
  150.8199  144.6279  159.0360 C   0  0  0  0  0  0  0  0  0  0  0  0
  150.8060  143.5172  158.1688 C   0  0  0  0  0  0  0  0  0  0  0  0
  151.5833  142.4273  158.3479 N   0  0  0  0  0  0  0  0  0  0  0  0
  154.8368  136.5082  162.1602 C   0  0  0  0  0  0  0  0  0  0  0  0
  154.6375  137.2683  163.4883 C   0  0  0  0  0  0  0  0  0  0  0  0
  155.7893  135.3149  162.3732 C   0  0  0  0  0  0  0  0  0  0  0  0
  155.9490  137.5258  158.5276 C   0  0  0  0  0  0  0  0  0  0  0  0
  156.2662  136.6566  157.2963 C   0  0  2  0  0  0  0  0  0  0  0  0
  156.6544  137.5057  156.0809 C   0  0  0  0  0  0  0  0  0  0  0  0
  155.1253  135.8838  156.9418 O   0  0  0  0  0  0  0  0  0  0  0  0
  155.1028  133.1509  158.9600 H   0  0  0  0  0  0  0  0  0  0  0  0
  156.5165  134.1576  158.7059 H   0  0  0  0  0  0  0  0  0  0  0  0
  155.7892  133.3014  157.3474 H   0  0  0  0  0  0  0  0  0  0  0  0
  153.6988  134.6245  157.6133 H   0  0  0  0  0  0  0  0  0  0  0  0
  153.4876  136.5550  159.0141 H   0  0  0  0  0  0  0  0  0  0  0  0
  153.9677  135.2091  160.0163 H   0  0  0  0  0  0  0  0  0  0  0  0
  156.2016  137.8882  161.2257 H   0  0  0  0  0  0  0  0  0  0  0  0
  155.5306  139.9136  161.4924 H   0  0  0  0  0  0  0  0  0  0  0  0
  152.9251  140.8822  161.6943 H   0  0  0  0  0  0  0  0  0  0  0  0
  154.3313  141.8664  161.3228 H   0  0  0  0  0  0  0  0  0  0  0  0
  154.1224  141.2387  158.8904 H   0  0  0  0  0  0  0  0  0  0  0  0
  152.7008  140.2939  159.2587 H   0  0  0  0  0  0  0  0  0  0  0  0
  153.1820  143.4222  161.1795 H   0  0  0  0  0  0  0  0  0  0  0  0
  151.7282  145.4338  160.8316 H   0  0  0  0  0  0  0  0  0  0  0  0
  150.1799  145.4787  158.8542 H   0  0  0  0  0  0  0  0  0  0  0  0
  150.1531  143.5037  157.3088 H   0  0  0  0  0  0  0  0  0  0  0  0
  153.8890  136.0351  161.9083 H   0  0  0  0  0  0  0  0  0  0  0  0
  155.5789  137.6601  163.8740 H   0  0  0  0  0  0  0  0  0  0  0  0
  154.2251  136.6096  164.2531 H   0  0  0  0  0  0  0  0  0  0  0  0
  153.9511  138.1078  163.3817 H   0  0  0  0  0  0  0  0  0  0  0  0
  156.7647  135.6280  162.7471 H   0  0  0  0  0  0  0  0  0  0  0  0
  155.9461  134.7644  161.4451 H   0  0  0  0  0  0  0  0  0  0  0  0
  155.3771  134.6146  163.1005 H   0  0  0  0  0  0  0  0  0  0  0  0
  155.1838  138.2665  158.2893 H   0  0  0  0  0  0  0  0  0  0  0  0
  156.8598  138.0688  158.7704 H   0  0  0  0  0  0  0  0  0  0  0  0
  157.1020  135.9946  157.5229 H   0  0  0  0  0  0  0  0  0  0  0  0
  157.5376  138.1102  156.2893 H   0  0  0  0  0  0  0  0  0  0  0  0
  155.8469  138.1805  155.7957 H   0  0  0  0  0  0  0  0  0  0  0  0
  156.8803  136.8748  155.2209 H   0  0  0  0  0  0  0  0  0  0  0  0
  156.2395  136.0348  159.8617 H   0  0  0  0  0  0  0  0  0  0  0  0
  1  2  1  0  0  0  0
  1 24  1  0  0  0  0
  1 25  1  0  0  0  0
  1 26  1  0  0  0  0
  2 23  1  0  0  0  0
  2  3  1  0  0  0  0
  2 27  1  0  0  0  0
  3  4  1  0  0  0  0
  3 28  1  0  0  0  0
  3 29  1  0  0  0  0
  4  5  1  0  0  0  0
  4 20  1  0  0  0  0
  4 53  1  0  0  0  0
  5  6  1  0  0  0  0
  5 17  1  0  0  0  0
  5 30  1  0  0  0  0
  6  7  2  0  0  0  0
  6  8  1  0  0  0  0
  8  9  1  0  0  0  0
  8 31  1  0  0  0  0
  9 10  1  0  0  0  0
  9 32  1  0  0  0  0
  9 33  1  0  0  0  0
 10 11  1  0  0  0  0
 10 34  1  0  0  0  0
 10 35  1  0  0  0  0
 11 16  1  0  0  0  0
 11 12  2  0  0  0  0
 12 13  1  0  0  0  0
 12 36  1  0  0  0  0
 13 14  2  0  0  0  0
 13 37  1  0  0  0  0
 14 15  1  0  0  0  0
 14 38  1  0  0  0  0
 15 16  2  0  0  0  0
 15 39  1  0  0  0  0
 17 18  1  0  0  0  0
 17 19  1  0  0  0  0
 17 40  1  0  0  0  0
 18 41  1  0  0  0  0
 18 42  1  0  0  0  0
 18 43  1  0  0  0  0
 19 44  1  0  0  0  0
 19 45  1  0  0  0  0
 19 46  1  0  0  0  0
 20 21  1  0  0  0  0
 20 47  1  0  0  0  0
 20 48  1  0  0  0  0
 21 22  1  0  0  0  0
 21 23  1  0  0  0  0
 21 49  1  0  0  0  0
 22 50  1  0  0  0  0
 22 51  1  0  0  0  0
 22 52  1  0  0  0  0
M  CHG  1   4   1
M  END
> <s_m_source_file>
AV-unprocessed.smi

> <i_m_source_file_index>
1762

> <i_lp_mmshare_version>
43012

> <i_f3d_flags>
0

> <s_epik_input>
W0NIM11bQ0BASF0xW0NIMl1OKFtDSDJdW0NASF0oTzEpW0NIM10pW0NAQEhdKFtDSF0oW0NIM10pW0NIM10pQyg9TylbTkhdW0NIMl1bQ0gyXWMyW2NIXVtjSF1bY0hdW2NIXW4y

> <s_epik_cmdline>
J2VwaWtfcHl0aG9uJywgJy1waCcsICc3LjAnLCAnLXRuJywgJzgnLCAnLW1hJywgJzIwMCcsICctbWV0YWxfYmluZGluZycsICctaW1hZScsICc8aW5maWxlLm1hZT4nLCAnLW9tYWUnLCAnPG91dGZpbGUubWFlPic=

> <r_epik_Ionization_Penalty>
2.27005

> <r_epik_Ionization_Penalty_Charging>
2.24983

> <r_epik_Ionization_Penalty_Neutral>
0.0202209

> <r_epik_State_Penalty>
2.40228

> <r_epik_Charging_Adjusted_Penalty>
4.65211

> <i_epik_Tot_Q>
1

> <i_epik_Tot_abs_Q>
1

> <r_epik_Metal_State_Penalty>
2.40762

> <b_epik_Metal_Only>
0

> <s_lp_Force_Field>
OPLS_2005

> <r_lp_Energy>
25.0813

> <b_lp_Chiralities_Consistent>
1

> <s_lp_Variant>
AV-unprocessed.smi:1762-20

> <Gold.Version>
5.8.1

> <Gold.Id.Protein>
6NUR|6NUR_protein|mol2

> <Gold.PLP.Fitness>
44.6298

> <Gold.PLP.PLP>
-39.4474

> <Gold.PLP.part.hbond>
-1.0000

> <Gold.PLP.part.metal>
0.0000

> <Gold.PLP.part.buried>
-4.5924

> <Gold.PLP.part.nonpolar>
-34.5060

> <Gold.PLP.part.repulsive>
0.0532

> <Gold.PLP.ligand.clash>
0.0000

> <Gold.PLP.ligand.torsion>
0.5280

> <Gold.PLP.Chemscore.Hbond>
1.0000

> <Gold.PLP.Chemscore.CHOScore>
1.0000

> <Gold.PLP.Chemscore.Metal>
0.0000

> <Gold.Chemscore.Hbonds>
donor molecule, donor type, donor heavy atom, donor atom, acceptor molecule, acceptor atom, score
      P1  H 10752 10765       L1    23  1.00
      L1  C    15    39       P1  8028  1.00

> <Gold.PLP.Chemscore.Internal.Correction>
0.2385

> <Gold.Rescore>
     Score         DG    S(hbond)    S(metal)    S(lipo)     H(rot)  DE(clash)    DE(int)     intcor
     15.70     -18.87       0.94        0.00     123.94       1.66       0.08       3.09       ----

> <Gold.Chemscore.Fitness>
15.7038

> <Gold.Chemscore.DG>
-18.8669

> <Gold.Chemscore.ZeroCoef>
-5.4800

> <Gold.Chemscore.Hbond>
0.9415

> <Gold.Chemscore.Metal>
0.0000

> <Gold.Chemscore.Lipo>
123.9387

> <Gold.Chemscore.Internal_Hbond>
0.0000

> <Gold.Chemscore.DEClash>
0.0770

> <Gold.Chemscore.DEInternal>
3.0862

> <Gold.Chemscore.Rot>
1.6635

> <Gold.Chemscore.Internal.Correction>
   9.000000E+99

> <Gold.Chemscore.Hbonds>
donor molecule, donor type, donor heavy atom, donor atom, acceptor molecule, acceptor atom, score
      P1  H 10752 10765       L1    23  0.84

> <Gold.Chemscore.Hbond.Weighted>
-3.1447

> <Gold.Chemscore.Metal.Weighted>
-0.0000

> <Gold.Chemscore.Lipo.Weighted>
-14.5008

> <Gold.Chemscore.Internal_Hbond.Weighted>
0.0000

> <Gold.Chemscore.DEClash.Weighted>
0.0770

> <Gold.Chemscore.DEInternal.Weighted>
3.0862

> <Gold.Chemscore.Rot.Weighted>
4.2586

> <Gold.Chemscore.Internal.Correction.Weighted>
   9.000000E+99

> <Gold.Protein.RotatedTorsions>
[ 6907 6896 6895 6894 ] final  -91.25 input  -60.11 | X-H torsion
[ 7974 7965 7964 7962 ] final   71.19 input  175.53 | X-H torsion
[ 8008 7997 7996 7995 ] final  -27.86 input   59.86 | X-H torsion
[ 10167 10162 10161 10158 ] final -152.24 input  -65.29 | X-H torsion
[ 10718 10713 10712 10709 ] final  -76.68 input   66.30 | X-H torsion
[ 10763 10752 10751 10750 ] final  -56.14 input  -60.55 | X-H torsion
[ 11005 11000 10999 10996 ] final -123.52 input  -57.11 | X-H torsion

> <Gold.Protein.ActiveResidues>
 VAL166  LYS551  ARG553  GLY616  TRP617  ASP618  TYR619  PRO620  LYS621  CYS622 
 ASP623  PHE694  ASN695  SER759  ASP760  ASP761  ALA762  ILE779  LEU786  VAL792 
 PHE793  MET794  SER795  GLU796  ALA797  LYS798  CYS799  TRP800  GLU811  SER814 

> <Gold.Protein.RotatedAtoms>
  150.6890  134.2307  159.4432 H   0  0  0  0  0  0  0  0  0  0  0  0  # atno 6907 bound_to 6896
  152.0258  134.9794  160.0581 H   0  0  0  0  0  0  0  0  0  0  0  0  # atno 6908 bound_to 6896
  152.1353  133.4397  159.4777 H   0  0  0  0  0  0  0  0  0  0  0  0  # atno 6909 bound_to 6896
  145.7689  139.2834  143.1332 H   0  0  0  0  0  0  0  0  0  0  0  0  # atno 7974 bound_to 7965
  154.4358  140.1861  156.0998 H   0  0  0  0  0  0  0  0  0  0  0  0  # atno 8008 bound_to 7997
  156.0301  140.3331  155.7105 H   0  0  0  0  0  0  0  0  0  0  0  0  # atno 8009 bound_to 7997
  155.5851  140.0625  157.2764 H   0  0  0  0  0  0  0  0  0  0  0  0  # atno 8010 bound_to 7997
  139.7199  143.8974  152.2499 H   0  0  0  0  0  0  0  0  0  0  0  0  # atno 10167 bound_to 10162
  156.0167  130.4472  150.3230 H   0  0  0  0  0  0  0  0  0  0  0  0  # atno 10718 bound_to 10713
  154.2019  135.6409  153.5089 H   0  0  0  0  0  0  0  0  0  0  0  0  # atno 10763 bound_to 10752
  153.0010  135.5453  154.6307 H   0  0  0  0  0  0  0  0  0  0  0  0  # atno 10764 bound_to 10752
  154.5722  135.2918  155.0789 H   0  0  0  0  0  0  0  0  0  0  0  0  # atno 10765 bound_to 10752
  140.9913  134.0535  157.3651 H   0  0  0  0  0  0  0  0  0  0  0  0  # atno 11005 bound_to 11000
  146.0190  140.8366  142.9933 LP  0  0  0  0  0  0  0  0  0  0  0  0  # atno 17320 bound_to 7965
  144.6816  140.2600  143.7320 LP  0  0  0  0  0  0  0  0  0  0  0  0  # atno 17321 bound_to 7965
  139.8867  144.6988  150.8816 LP  0  0  0  0  0  0  0  0  0  0  0  0  # atno 17342 bound_to 10162
  140.7751  143.3618  151.1814 LP  0  0  0  0  0  0  0  0  0  0  0  0  # atno 17343 bound_to 10162
  157.1330  131.0276  151.2961 LP  0  0  0  0  0  0  0  0  0  0  0  0  # atno 17370 bound_to 10713
  157.4535  130.7612  149.7172 LP  0  0  0  0  0  0  0  0  0  0  0  0  # atno 17371 bound_to 10713
  139.8993  135.0158  156.7191 LP  0  0  0  0  0  0  0  0  0  0  0  0  # atno 17394 bound_to 11000
  140.7036  133.9285  155.8039 LP  0  0  0  0  0  0  0  0  0  0  0  0  # atno 17395 bound_to 11000

$$$$
