AV-unprocessed.smi:521|AV-procd|sdf|2799|dock1
  -GOLD-   2262023273D 1   1.00000     0.00000
 Structure written by MMmdl.
 40 42  0  0  0  0  0  0  0  0  1 V2000
  154.3602  140.8151  161.4562 C   0  0  0  0  0  0  0  0  0  0  0  0
  153.5027  140.9209  160.3302 O   0  0  0  0  0  0  0  0  0  0  0  0
  152.8603  142.1211  160.1040 C   0  0  0  0  0  0  0  0  0  0  0  0
  152.8987  143.2167  161.0032 C   0  0  0  0  0  0  0  0  0  0  0  0
  152.2179  144.4106  160.7024 C   0  0  0  0  0  0  0  0  0  0  0  0
  151.4942  144.5241  159.5031 C   0  0  0  0  0  0  0  0  0  0  0  0
  151.4494  143.4435  158.6038 C   0  0  0  0  0  0  0  0  0  0  0  0
  152.1305  142.2360  158.8987 C   0  0  0  0  0  0  0  0  0  0  0  0
  152.1304  141.1353  158.0700 O   0  0  0  0  0  0  0  0  0  0  0  0
  151.0015  140.8976  157.2413 C   0  0  0  0  0  0  0  0  0  0  0  0
  151.4907  140.5575  155.8264 C   0  0  0  0  0  0  0  0  0  0  0  0
  150.4609  139.8971  155.0358 N   0  0  0  0  0  0  0  0  0  0  0  0
  150.4399  138.6168  154.5876 C   0  0  0  0  0  0  0  0  0  0  0  0
  151.5548  137.6557  154.8647 C   0  0  0  0  0  0  0  0  0  0  0  0
  152.2278  137.2500  153.6923 O   0  0  0  0  0  0  0  0  0  0  0  0
  149.3633  138.2653  153.8835 N   0  0  0  0  0  0  0  0  0  0  0  0
  148.6119  139.4243  153.8788 C   0  0  0  0  0  0  0  0  0  0  0  0
  147.3520  139.6995  153.3005 C   0  0  0  0  0  0  0  0  0  0  0  0
  146.7682  140.9763  153.4349 C   0  0  0  0  0  0  0  0  0  0  0  0
  147.4350  141.9948  154.1461 C   0  0  0  0  0  0  0  0  0  0  0  0
  148.6935  141.7433  154.7249 C   0  0  0  0  0  0  0  0  0  0  0  0
  149.2711  140.4662  154.5908 C   0  0  0  0  0  0  0  0  0  0  0  0
  154.7956  139.8163  161.4811 H   0  0  0  0  0  0  0  0  0  0  0  0
  153.8136  140.9608  162.3888 H   0  0  0  0  0  0  0  0  0  0  0  0
  155.1810  141.5313  161.4013 H   0  0  0  0  0  0  0  0  0  0  0  0
  153.4442  143.1657  161.9330 H   0  0  0  0  0  0  0  0  0  0  0  0
  152.2512  145.2401  161.3933 H   0  0  0  0  0  0  0  0  0  0  0  0
  150.9717  145.4407  159.2721 H   0  0  0  0  0  0  0  0  0  0  0  0
  150.8832  143.5649  157.6931 H   0  0  0  0  0  0  0  0  0  0  0  0
  150.4141  140.0665  157.6339 H   0  0  0  0  0  0  0  0  0  0  0  0
  150.3615  141.7805  157.2086 H   0  0  0  0  0  0  0  0  0  0  0  0
  151.7925  141.4682  155.3081 H   0  0  0  0  0  0  0  0  0  0  0  0
  152.3778  139.9262  155.8722 H   0  0  0  0  0  0  0  0  0  0  0  0
  152.2675  138.1048  155.5563 H   0  0  0  0  0  0  0  0  0  0  0  0
  151.1530  136.7707  155.3594 H   0  0  0  0  0  0  0  0  0  0  0  0
  151.5848  136.9744  153.0574 H   0  0  0  0  0  0  0  0  0  0  0  0
  146.8326  138.9257  152.7547 H   0  0  0  0  0  0  0  0  0  0  0  0
  145.8035  141.1748  152.9915 H   0  0  0  0  0  0  0  0  0  0  0  0
  146.9799  142.9691  154.2477 H   0  0  0  0  0  0  0  0  0  0  0  0
  149.2050  142.5202  155.2737 H   0  0  0  0  0  0  0  0  0  0  0  0
  1  2  1  0  0  0  0
  1 23  1  0  0  0  0
  1 24  1  0  0  0  0
  1 25  1  0  0  0  0
  2  3  1  0  0  0  0
  3  8  1  0  0  0  0
  3  4  2  0  0  0  0
  4  5  1  0  0  0  0
  4 26  1  0  0  0  0
  5  6  2  0  0  0  0
  5 27  1  0  0  0  0
  6  7  1  0  0  0  0
  6 28  1  0  0  0  0
  7  8  2  0  0  0  0
  7 29  1  0  0  0  0
  8  9  1  0  0  0  0
  9 10  1  0  0  0  0
 10 11  1  0  0  0  0
 10 30  1  0  0  0  0
 10 31  1  0  0  0  0
 11 12  1  0  0  0  0
 11 32  1  0  0  0  0
 11 33  1  0  0  0  0
 12 22  1  0  0  0  0
 12 13  1  0  0  0  0
 13 14  1  0  0  0  0
 13 16  2  0  0  0  0
 14 15  1  0  0  0  0
 14 34  1  0  0  0  0
 14 35  1  0  0  0  0
 15 36  1  0  0  0  0
 16 17  1  0  0  0  0
 17 22  2  0  0  0  0
 17 18  1  0  0  0  0
 18 19  2  0  0  0  0
 18 37  1  0  0  0  0
 19 20  1  0  0  0  0
 19 38  1  0  0  0  0
 20 21  2  0  0  0  0
 20 39  1  0  0  0  0
 21 22  1  0  0  0  0
 21 40  1  0  0  0  0
M  END
> <s_m_source_file>
AV-unprocessed.smi

> <i_m_source_file_index>
521

> <i_lp_mmshare_version>
43012

> <i_f3d_flags>
0

> <s_epik_input>
W0NIM11PYzFbY0hdW2NIXVtjSF1bY0hdYzFPW0NIMl1bQ0gyXW4oYyhuMilbQ0gyXVtPSF0pYyhjMjMpW2NIXVtjSF1bY0hdW2NIXTM=

> <s_epik_cmdline>
J2VwaWtfcHl0aG9uJywgJy1waCcsICc3LjAnLCAnLXRuJywgJzgnLCAnLW1hJywgJzIwMCcsICctbWV0YWxfYmluZGluZycsICctaW1hZScsICc8aW5maWxlLm1hZT4nLCAnLW9tYWUnLCAnPG91dGZpbGUubWFlPic=

> <r_lp_tautomer_probability>
1

> <r_epik_Ionization_Penalty>
0.048627

> <r_epik_Ionization_Penalty_Charging>
0

> <r_epik_Ionization_Penalty_Neutral>
0.048627

> <r_epik_State_Penalty>
0.0414172

> <r_epik_Charging_Adjusted_Penalty>
0.0414172

> <i_epik_Tot_Q>
0

> <i_epik_Tot_abs_Q>
0

> <r_epik_Metal_State_Penalty>
4.28976e-05

> <b_epik_Metal_Only>
0

> <s_lp_Force_Field>
OPLS_2005

> <r_lp_Energy>
18.4761

> <b_lp_Chiralities_Consistent>
1

> <s_lp_Variant>
AV-unprocessed.smi:521-1

> <Gold.Version>
5.8.1

> <Gold.Id.Protein>
6NUR|6NUR_protein|mol2

> <Gold.PLP.Fitness>
55.0015

> <Gold.PLP.PLP>
-50.7084

> <Gold.PLP.part.hbond>
-2.0000

> <Gold.PLP.part.metal>
0.0000

> <Gold.PLP.part.buried>
-3.1882

> <Gold.PLP.part.nonpolar>
-47.3042

> <Gold.PLP.part.repulsive>
1.7904

> <Gold.PLP.ligand.clash>
0.0000

> <Gold.PLP.ligand.torsion>
0.8988

> <Gold.PLP.Chemscore.Hbond>
1.9680

> <Gold.PLP.Chemscore.CHOScore>
0.0000

> <Gold.PLP.Chemscore.Metal>
0.0000

> <Gold.Chemscore.Hbonds>
donor molecule, donor type, donor heavy atom, donor atom, acceptor molecule, acceptor atom, score
      L1  H    15    36       P1  7949  0.98
      P1  H 10752 10764       L1    15  0.96

> <Gold.PLP.Chemscore.Internal.Correction>
0.1866

> <Gold.Rescore>
     Score         DG    S(hbond)    S(metal)    S(lipo)     H(rot)  DE(clash)    DE(int)     intcor
     17.62     -19.98       1.42        0.00     137.24       2.46       1.44       0.92       ----

> <Gold.Chemscore.Fitness>
17.6201

> <Gold.Chemscore.DG>
-19.9777

> <Gold.Chemscore.ZeroCoef>
-5.4800

> <Gold.Chemscore.Hbond>
1.4158

> <Gold.Chemscore.Metal>
0.0000

> <Gold.Chemscore.Lipo>
137.2388

> <Gold.Chemscore.Internal_Hbond>
0.0000

> <Gold.Chemscore.DEClash>
1.4380

> <Gold.Chemscore.DEInternal>
0.9196

> <Gold.Chemscore.Rot>
2.4562

> <Gold.Chemscore.Internal.Correction>
   9.000000E+99

> <Gold.Chemscore.Hbonds>
donor molecule, donor type, donor heavy atom, donor atom, acceptor molecule, acceptor atom, score
      L1  H    15    36       P1  7949  0.88
      P1  H 10752 10764       L1    15  0.17

> <Gold.Chemscore.Hbond.Weighted>
-4.7287

> <Gold.Chemscore.Metal.Weighted>
-0.0000

> <Gold.Chemscore.Lipo.Weighted>
-16.0569

> <Gold.Chemscore.Internal_Hbond.Weighted>
0.0000

> <Gold.Chemscore.DEClash.Weighted>
1.4380

> <Gold.Chemscore.DEInternal.Weighted>
0.9196

> <Gold.Chemscore.Rot.Weighted>
6.2880

> <Gold.Chemscore.Internal.Correction.Weighted>
   9.000000E+99

> <Gold.Protein.RotatedTorsions>
[ 6907 6896 6895 6894 ] final -103.38 input  -60.11 | X-H torsion
[ 7974 7965 7964 7962 ] final -156.31 input  175.53 | X-H torsion
[ 8008 7997 7996 7995 ] final  113.56 input   59.86 | X-H torsion
[ 10167 10162 10161 10158 ] final -110.74 input  -65.29 | X-H torsion
[ 10718 10713 10712 10709 ] final -168.95 input   66.30 | X-H torsion
[ 10763 10752 10751 10750 ] final  -91.24 input  -60.55 | X-H torsion
[ 11005 11000 10999 10996 ] final  140.51 input  -57.11 | X-H torsion

> <Gold.Protein.ActiveResidues>
 VAL166  LYS551  ARG553  GLY616  TRP617  ASP618  TYR619  PRO620  LYS621  CYS622 
 ASP623  PHE694  ASN695  SER759  ASP760  ASP761  ALA762  ILE779  LEU786  VAL792 
 PHE793  MET794  SER795  GLU796  ALA797  LYS798  CYS799  TRP800  GLU811  SER814 

> <Gold.Protein.RotatedAtoms>
  150.7237  134.0439  159.3774 H   0  0  0  0  0  0  0  0  0  0  0  0  # atno 6907 bound_to 6896
  151.8413  135.0587  160.0457 H   0  0  0  0  0  0  0  0  0  0  0  0  # atno 6908 bound_to 6896
  152.2860  133.5480  159.5564 H   0  0  0  0  0  0  0  0  0  0  0  0  # atno 6909 bound_to 6896
  144.7599  140.4128  143.5984 H   0  0  0  0  0  0  0  0  0  0  0  0  # atno 7974 bound_to 7965
  156.2266  140.2977  156.0082 H   0  0  0  0  0  0  0  0  0  0  0  0  # atno 8008 bound_to 7997
  155.2340  140.0420  157.2983 H   0  0  0  0  0  0  0  0  0  0  0  0  # atno 8009 bound_to 7997
  154.5925  140.2405  155.7909 H   0  0  0  0  0  0  0  0  0  0  0  0  # atno 8010 bound_to 7997
  140.1412  143.4278  152.1561 H   0  0  0  0  0  0  0  0  0  0  0  0  # atno 10167 bound_to 10162
  156.7044  130.9209  151.3083 H   0  0  0  0  0  0  0  0  0  0  0  0  # atno 10718 bound_to 10713
  154.6740  135.5275  153.8175 H   0  0  0  0  0  0  0  0  0  0  0  0  # atno 10763 bound_to 10752
  153.0520  135.6536  154.0680 H   0  0  0  0  0  0  0  0  0  0  0  0  # atno 10764 bound_to 10752
  154.0576  135.2964  155.3310 H   0  0  0  0  0  0  0  0  0  0  0  0  # atno 10765 bound_to 10752
  140.0332  134.9341  157.0703 H   0  0  0  0  0  0  0  0  0  0  0  0  # atno 11005 bound_to 11000
  145.6654  139.1589  143.2785 LP  0  0  0  0  0  0  0  0  0  0  0  0  # atno 17320 bound_to 7965
  146.1651  140.6730  142.9259 LP  0  0  0  0  0  0  0  0  0  0  0  0  # atno 17321 bound_to 7965
  139.5471  144.7307  151.4549 LP  0  0  0  0  0  0  0  0  0  0  0  0  # atno 17342 bound_to 10162
  140.6759  143.8190  150.7058 LP  0  0  0  0  0  0  0  0  0  0  0  0  # atno 17343 bound_to 10162
  157.6960  130.9283  150.0647 LP  0  0  0  0  0  0  0  0  0  0  0  0  # atno 17370 bound_to 10713
  156.1706  130.3646  149.9171 LP  0  0  0  0  0  0  0  0  0  0  0  0  # atno 17371 bound_to 10713
  140.4190  134.1900  155.7164 LP  0  0  0  0  0  0  0  0  0  0  0  0  # atno 17394 bound_to 11000
  141.1843  133.8347  157.1145 LP  0  0  0  0  0  0  0  0  0  0  0  0  # atno 17395 bound_to 11000

$$$$
