AV-unprocessed.smi:1126|AV-procd|sdf|4837|dock9
  -GOLD-   22720 3403D 1   1.00000     0.00000
 Structure written by MMmdl.
 48 49  0  0  0  0  0  0  0  0  2 V2000
  146.8723  133.1872  151.8571 C   0  0  0  0  0  0  0  0  0  0  0  0
  147.5420  132.3442  152.7788 O   0  0  0  0  0  0  0  0  0  0  0  0
  148.5500  133.0261  153.5065 C   0  0  0  0  0  0  0  0  0  0  0  0
  147.8998  134.1522  154.3258 C   0  0  0  0  0  0  0  0  0  0  0  0
  148.7642  135.3554  154.4337 N   0  3  2  0  0  0  0  0  0  0  0  0
  150.1562  135.0114  154.8210 C   0  0  0  0  0  0  0  0  0  0  0  0
  151.0685  136.2487  154.7839 C   0  0  0  0  0  0  0  0  0  0  0  0
  150.5270  137.3754  155.6855 C   0  0  1  0  0  0  0  0  0  0  0  0
  151.3949  138.6465  155.6320 C   0  0  0  0  0  0  0  0  0  0  0  0
  151.3777  139.3593  156.9023 N   0  0  0  0  0  0  0  0  0  0  0  0
  152.4442  139.5133  157.7002 C   0  0  0  0  0  0  0  0  0  0  0  0
  153.5558  139.0527  157.4422 O   0  0  0  0  0  0  0  0  0  0  0  0
  152.2241  140.3101  158.9865 C   0  0  0  0  0  0  0  0  0  0  0  0
  151.8602  141.6846  158.6930 N   0  0  0  0  0  0  0  0  0  0  0  0
  152.4201  142.8430  159.1897 C   0  0  0  0  0  0  0  0  0  0  0  0
  151.7561  143.8954  158.6259 C   0  0  0  0  0  0  0  0  0  0  0  0
  151.9795  145.3656  158.8351 C   0  0  0  0  0  0  0  0  0  0  0  0
  150.7939  143.2672  157.7849 C   0  0  0  0  0  0  0  0  0  0  0  0
  150.8586  141.9461  157.8255 N   0  0  0  0  0  0  0  0  0  0  0  0
  149.0734  137.6791  155.2839 C   0  0  0  0  0  0  0  0  0  0  0  0
  148.2028  136.4120  155.3160 C   0  0  0  0  0  0  0  0  0  0  0  0
  146.1176  132.6145  151.3181 H   0  0  0  0  0  0  0  0  0  0  0  0
  147.5660  133.6016  151.1245 H   0  0  0  0  0  0  0  0  0  0  0  0
  146.3693  134.0093  152.3680 H   0  0  0  0  0  0  0  0  0  0  0  0
  149.1028  132.3340  154.1419 H   0  0  0  0  0  0  0  0  0  0  0  0
  149.2692  133.4592  152.8096 H   0  0  0  0  0  0  0  0  0  0  0  0
  146.9368  134.4302  153.8951 H   0  0  0  0  0  0  0  0  0  0  0  0
  147.6890  133.7619  155.3225 H   0  0  0  0  0  0  0  0  0  0  0  0
  150.1591  134.5702  155.8190 H   0  0  0  0  0  0  0  0  0  0  0  0
  150.5528  134.2575  154.1399 H   0  0  0  0  0  0  0  0  0  0  0  0
  152.0736  135.9612  155.0940 H   0  0  0  0  0  0  0  0  0  0  0  0
  151.1544  136.6067  153.7567 H   0  0  0  0  0  0  0  0  0  0  0  0
  150.5214  137.0153  156.7158 H   0  0  0  0  0  0  0  0  0  0  0  0
  152.4229  138.3883  155.3718 H   0  0  0  0  0  0  0  0  0  0  0  0
  151.0278  139.3161  154.8525 H   0  0  0  0  0  0  0  0  0  0  0  0
  150.5040  139.7777  157.1878 H   0  0  0  0  0  0  0  0  0  0  0  0
  151.4424  139.8433  159.5883 H   0  0  0  0  0  0  0  0  0  0  0  0
  153.1350  140.3096  159.5866 H   0  0  0  0  0  0  0  0  0  0  0  0
  153.2380  142.8212  159.8950 H   0  0  0  0  0  0  0  0  0  0  0  0
  151.1715  145.9630  158.4123 H   0  0  0  0  0  0  0  0  0  0  0  0
  152.9055  145.7012  158.3679 H   0  0  0  0  0  0  0  0  0  0  0  0
  152.0436  145.6163  159.8939 H   0  0  0  0  0  0  0  0  0  0  0  0
  150.0545  143.7306  157.1485 H   0  0  0  0  0  0  0  0  0  0  0  0
  148.6506  138.4282  155.9544 H   0  0  0  0  0  0  0  0  0  0  0  0
  149.0479  138.1127  154.2829 H   0  0  0  0  0  0  0  0  0  0  0  0
  147.1934  136.6750  155.0026 H   0  0  0  0  0  0  0  0  0  0  0  0
  148.1272  136.0344  156.3371 H   0  0  0  0  0  0  0  0  0  0  0  0
  148.8204  135.7462  153.5038 H   0  0  0  0  0  0  0  0  0  0  0  0
  1  2  1  0  0  0  0
  1 22  1  0  0  0  0
  1 23  1  0  0  0  0
  1 24  1  0  0  0  0
  2  3  1  0  0  0  0
  3  4  1  0  0  0  0
  3 25  1  0  0  0  0
  3 26  1  0  0  0  0
  4  5  1  0  0  0  0
  4 27  1  0  0  0  0
  4 28  1  0  0  0  0
  5 21  1  0  0  0  0
  5  6  1  0  0  0  0
  5 48  1  0  0  0  0
  6  7  1  0  0  0  0
  6 29  1  0  0  0  0
  6 30  1  0  0  0  0
  7  8  1  0  0  0  0
  7 31  1  0  0  0  0
  7 32  1  0  0  0  0
  8  9  1  0  0  0  0
  8 20  1  0  0  0  0
  8 33  1  0  0  0  0
  9 10  1  0  0  0  0
  9 34  1  0  0  0  0
  9 35  1  0  0  0  0
 10 11  1  0  0  0  0
 10 36  1  0  0  0  0
 11 12  2  0  0  0  0
 11 13  1  0  0  0  0
 13 14  1  0  0  0  0
 13 37  1  0  0  0  0
 13 38  1  0  0  0  0
 14 19  1  0  0  0  0
 14 15  1  0  0  0  0
 15 16  2  0  0  0  0
 15 39  1  0  0  0  0
 16 17  1  0  0  0  0
 16 18  1  0  0  0  0
 17 40  1  0  0  0  0
 17 41  1  0  0  0  0
 17 42  1  0  0  0  0
 18 19  2  0  0  0  0
 18 43  1  0  0  0  0
 20 21  1  0  0  0  0
 20 44  1  0  0  0  0
 20 45  1  0  0  0  0
 21 46  1  0  0  0  0
 21 47  1  0  0  0  0
M  CHG  1   5   1
M  END
> <s_m_source_file>
AV-unprocessed.smi

> <i_m_source_file_index>
1126

> <i_lp_mmshare_version>
43012

> <i_f3d_flags>
0

> <s_epik_input>
W0NIM11PW0NIMl1bQ0gyXU4xW0NIMl1bQ0gyXVtDSF0oW0NIMl1bQ0gyXTEpW0NIMl1bTkhdQyg9TylbQ0gyXW4yW2NIXWMoW0NIM10pW2NIXW4y

> <s_epik_cmdline>
J2VwaWtfcHl0aG9uJywgJy1waCcsICc3LjAnLCAnLXRuJywgJzgnLCAnLW1hJywgJzIwMCcsICctbWV0YWxfYmluZGluZycsICctaW1hZScsICc8aW5maWxlLm1hZT4nLCAnLW9tYWUnLCAnPG91dGZpbGUubWFlPic=

> <r_lp_tautomer_probability>
1

> <r_epik_Ionization_Penalty>
0.00992859

> <r_epik_Ionization_Penalty_Charging>
0.00990284

> <r_epik_Ionization_Penalty_Neutral>
2.57527e-05

> <r_epik_State_Penalty>
0.00754525

> <r_epik_Charging_Adjusted_Penalty>
0.0174481

> <i_epik_Tot_Q>
1

> <i_epik_Tot_abs_Q>
1

> <r_epik_Metal_State_Penalty>
0.00754529

> <b_epik_Metal_Only>
0

> <s_lp_Force_Field>
OPLS_2005

> <r_lp_Energy>
19.6202

> <b_lp_Chiralities_Consistent>
1

> <s_lp_Variant>
AV-unprocessed.smi:1126-1

> <Gold.Version>
5.8.1

> <Gold.Id.Protein>
6NUR|6NUR_protein|mol2

> <Gold.PLP.Fitness>
45.7730

> <Gold.PLP.PLP>
-35.2800

> <Gold.PLP.part.hbond>
-2.0000

> <Gold.PLP.part.metal>
0.0000

> <Gold.PLP.part.buried>
-2.4350

> <Gold.PLP.part.nonpolar>
-31.2921

> <Gold.PLP.part.repulsive>
0.2536

> <Gold.PLP.ligand.clash>
0.0000

> <Gold.PLP.ligand.torsion>
0.7716

> <Gold.PLP.Chemscore.Hbond>
3.0000

> <Gold.PLP.Chemscore.CHOScore>
1.0000

> <Gold.PLP.Chemscore.Metal>
0.0000

> <Gold.Chemscore.Hbonds>
donor molecule, donor type, donor heavy atom, donor atom, acceptor molecule, acceptor atom, score
      L1  H     5    48       P1  7948  2.00
      P1  H  7997  8009       L1    12  0.89
      L1  C    18    43       P1  8028  1.00

> <Gold.PLP.Chemscore.Internal.Correction>
0.0362

> <Gold.Rescore>
     Score         DG    S(hbond)    S(metal)    S(lipo)     H(rot)  DE(clash)    DE(int)     intcor
     15.80     -17.72       1.99        0.00      93.78       2.10       0.08       1.84       ----

> <Gold.Chemscore.Fitness>
15.8016

> <Gold.Chemscore.DG>
-17.7207

> <Gold.Chemscore.ZeroCoef>
-5.4800

> <Gold.Chemscore.Hbond>
1.9898

> <Gold.Chemscore.Metal>
0.0000

> <Gold.Chemscore.Lipo>
93.7804

> <Gold.Chemscore.Internal_Hbond>
0.0000

> <Gold.Chemscore.DEClash>
0.0785

> <Gold.Chemscore.DEInternal>
1.8405

> <Gold.Chemscore.Rot>
2.1006

> <Gold.Chemscore.Internal.Correction>
   9.000000E+99

> <Gold.Chemscore.Hbonds>
donor molecule, donor type, donor heavy atom, donor atom, acceptor molecule, acceptor atom, score
      L1  H     5    48       P1  7948  0.97
      P1  H  7997  8009       L1    12  0.70

> <Gold.Chemscore.Hbond.Weighted>
-6.6459

> <Gold.Chemscore.Metal.Weighted>
-0.0000

> <Gold.Chemscore.Lipo.Weighted>
-10.9723

> <Gold.Chemscore.Internal_Hbond.Weighted>
0.0000

> <Gold.Chemscore.DEClash.Weighted>
0.0785

> <Gold.Chemscore.DEInternal.Weighted>
1.8405

> <Gold.Chemscore.Rot.Weighted>
5.3775

> <Gold.Chemscore.Internal.Correction.Weighted>
   9.000000E+99

> <Gold.Protein.RotatedTorsions>
[ 6907 6896 6895 6894 ] final   61.38 input  -60.11 | X-H torsion
[ 7974 7965 7964 7962 ] final  -15.26 input  175.53 | X-H torsion
[ 8008 7997 7996 7995 ] final  172.46 input   59.86 | X-H torsion
[ 10167 10162 10161 10158 ] final -114.29 input  -65.29 | X-H torsion
[ 10718 10713 10712 10709 ] final -156.63 input   66.30 | X-H torsion
[ 10763 10752 10751 10750 ] final  -74.75 input  -60.55 | X-H torsion
[ 11005 11000 10999 10996 ] final  160.48 input  -57.11 | X-H torsion

> <Gold.Protein.ActiveResidues>
 VAL166  LYS551  ARG553  GLY616  TRP617  ASP618  TYR619  PRO620  LYS621  CYS622 
 ASP623  PHE694  ASN695  SER759  ASP760  ASP761  ALA762  ILE779  LEU786  VAL792 
 PHE793  MET794  SER795  GLU796  ALA797  LYS798  CYS799  TRP800  GLU811  SER814 

> <Gold.Protein.RotatedAtoms>
  152.4083  134.6168  160.0039 H   0  0  0  0  0  0  0  0  0  0  0  0  # atno 6907 bound_to 6896
  151.6352  133.3324  159.3126 H   0  0  0  0  0  0  0  0  0  0  0  0  # atno 6908 bound_to 6896
  150.7976  134.7088  159.6637 H   0  0  0  0  0  0  0  0  0  0  0  0  # atno 6909 bound_to 6896
  146.2040  140.3466  142.8413 H   0  0  0  0  0  0  0  0  0  0  0  0  # atno 7974 bound_to 7965
  156.1172  140.1485  156.9256 H   0  0  0  0  0  0  0  0  0  0  0  0  # atno 8008 bound_to 7997
  154.4809  140.0880  156.7417 H   0  0  0  0  0  0  0  0  0  0  0  0  # atno 8009 bound_to 7997
  155.4493  140.3434  155.4301 H   0  0  0  0  0  0  0  0  0  0  0  0  # atno 8010 bound_to 7997
  140.1025  143.4600  152.1803 H   0  0  0  0  0  0  0  0  0  0  0  0  # atno 10167 bound_to 10162
  156.5292  130.8513  151.2710 H   0  0  0  0  0  0  0  0  0  0  0  0  # atno 10718 bound_to 10713
  154.4773  135.5854  153.6364 H   0  0  0  0  0  0  0  0  0  0  0  0  # atno 10763 bound_to 10752
  152.9842  135.6081  154.3291 H   0  0  0  0  0  0  0  0  0  0  0  0  # atno 10764 bound_to 10752
  154.3179  135.2844  155.2513 H   0  0  0  0  0  0  0  0  0  0  0  0  # atno 10765 bound_to 10752
  140.2063  134.8300  157.3073 H   0  0  0  0  0  0  0  0  0  0  0  0  # atno 11005 bound_to 11000
  144.8748  140.7321  143.6024 LP  0  0  0  0  0  0  0  0  0  0  0  0  # atno 17320 bound_to 7965
  145.3386  139.1739  143.4498 LP  0  0  0  0  0  0  0  0  0  0  0  0  # atno 17321 bound_to 7965
  139.5663  144.7437  151.4013 LP  0  0  0  0  0  0  0  0  0  0  0  0  # atno 17342 bound_to 10162
  140.6970  143.7725  150.7342 LP  0  0  0  0  0  0  0  0  0  0  0  0  # atno 17343 bound_to 10162
  157.7424  130.9890  150.2517 LP  0  0  0  0  0  0  0  0  0  0  0  0  # atno 17370 bound_to 10713
  156.3076  130.3767  149.7692 LP  0  0  0  0  0  0  0  0  0  0  0  0  # atno 17371 bound_to 10713
  140.1999  134.4268  155.7668 LP  0  0  0  0  0  0  0  0  0  0  0  0  # atno 17394 bound_to 11000
  141.2227  133.7067  156.8166 LP  0  0  0  0  0  0  0  0  0  0  0  0  # atno 17395 bound_to 11000

$$$$
