#       Name:                AV-unprocessed.smi:2126
#       Creating user name   scv26
#       Creation time:       Fri Mar 27 11:42:44 2020


#       File generated by GOLD software.
#

@<TRIPOS>MOLECULE
AV-unprocessed.smi:2126
    47    49     1
SMALL
NO_CHARGES


@<TRIPOS>ATOM
      1 ****        -4.8574   5.9005   0.7128 C.3            1 S1                 0.0000
      2 ****        -3.4393   5.8276   0.7001 O.3            1 S1                 0.0000
      3 ****        -2.8543   4.5799   0.7291 C.ar           1 S1                 0.0000
      4 ****        -3.5756   3.3613   0.7637 C.ar           1 S1                 0.0000
      5 ****        -2.8927   2.1301   0.7933 C.ar           1 S1                 0.0000
      6 ****        -1.4847   2.0811   0.7878 C.ar           1 S1                 0.0000
      7 ****        -0.8999   0.8331   0.8171 O.3            1 S1                 0.0000
      8 ****         0.5196   0.7558   0.8038 C.3            1 S1                 0.0000
      9 ****         0.9432  -0.7203   0.8172 C.3            1 S1                 0.0000
     10 ****         2.3426  -0.7795   1.0125 O.3            1 S1                 0.0000
     11 ****         0.5638  -1.4549  -0.4837 C.3            1 S1                 0.0000
     12 ****         0.9787  -2.8466  -0.4780 N.pl3          1 S1                 0.0000
     13 ****         0.3224  -3.8853   0.0738 C.2            1 S1                 0.0000
     14 ****         0.8827  -5.0867  -0.0337 N.2            1 S1                 0.0000
     15 ****         2.0377  -4.7945  -0.7389 C.ar           1 S1                 0.0000
     16 ****         3.0814  -5.6390  -1.1805 C.ar           1 S1                 0.0000
     17 ****         4.1781  -5.1078  -1.8909 C.ar           1 S1                 0.0000
     18 ****         4.2489  -3.7275  -2.1698 C.ar           1 S1                 0.0000
     19 ****         3.2211  -2.8662  -1.7401 C.ar           1 S1                 0.0000
     20 ****         2.1280  -3.4002  -1.0324 C.ar           1 S1                 0.0000
     21 ****        -0.7638   3.3000   0.7533 C.ar           1 S1                 0.0000
     22 ****        -1.4464   4.5310   0.7242 C.ar           1 S1                 0.0000
     23 ****        -5.1636   6.9463   0.6943 H              1 S1                 0.0000
     24 ****        -5.2720   5.4518   1.6165 H              1 S1                 0.0000
     25 ****        -5.2891   5.4147  -0.1634 H              1 S1                 0.0000
     26 ****        -4.6548   3.3432   0.7685 H              1 S1                 0.0000
     27 ****        -3.4588   1.2106   0.8207 H              1 S1                 0.0000
     28 ****         0.9267   1.2528  -0.0785 H              1 S1                 0.0000
     29 ****         0.9153   1.2584   1.6882 H              1 S1                 0.0000
     30 ****         0.4730  -1.2173   1.6667 H              1 S1                 0.0000
     31 ****         2.6016  -1.6878   1.0493 H              1 S1                 0.0000
     32 ****        -0.5160  -1.4224  -0.6347 H              1 S1                 0.0000
     33 ****         1.0113  -0.9609  -1.3470 H              1 S1                 0.0000
     34 ****        -0.6194  -3.7510   0.5859 H              1 S1                 0.0000
     35 ****         3.0391  -6.6976  -0.9713 H              1 S1                 0.0000
     36 ****         4.9699  -5.7630  -2.2228 H              1 S1                 0.0000
     37 ****         5.0938  -3.3303  -2.7132 H              1 S1                 0.0000
     38 ****         3.2731  -1.8080  -1.9492 H              1 S1                 0.0000
     39 ****         0.3152   3.3195   0.7493 H              1 S1                 0.0000
     40 ****        -0.8804   5.4506   0.6984 H              1 S1                 0.0000
     41 ****        -3.1087   6.3294   1.4994 LP             1 S1                 0.0000
     42 ****        -3.1257   6.2835  -0.1328 LP             1 S1                 0.0000
     43 ****        -1.2316   0.3314   0.0182 LP             1 S1                 0.0000
     44 ****        -1.2138   0.3780   1.6505 LP             1 S1                 0.0000
     45 ****         2.5832  -0.3250   1.8702 LP             1 S1                 0.0000
     46 ****         2.8089  -0.3262   0.2529 LP             1 S1                 0.0000
     47 ****         0.5558  -5.9688   0.3056 LP             1 S1                 0.0000
@<TRIPOS>BOND
    1    1    2 1     
    2    1   23 1     
    3    1   24 1     
    4    1   25 1     
    5    2    3 1     
    6    3   22 ar    
    7    3    4 ar    
    8    4    5 ar    
    9    4   26 1     
   10    5    6 ar    
   11    5   27 1     
   12    6    7 1     
   13    6   21 ar    
   14    7    8 1     
   15    8    9 1     
   16    8   28 1     
   17    8   29 1     
   18    9   10 1     
   19    9   11 1     
   20    9   30 1     
   21   10   31 1     
   22   11   12 1     
   23   11   32 1     
   24   11   33 1     
   25   12   20 1     
   26   12   13 1     
   27   13   14 2     
   28   13   34 1     
   29   14   15 1     
   30   15   20 ar    
   31   15   16 ar    
   32   16   17 ar    
   33   16   35 1     
   34   17   18 ar    
   35   17   36 1     
   36   18   19 ar    
   37   18   37 1     
   38   19   20 ar    
   39   19   38 1     
   40   21   22 ar    
   41   21   39 1     
   42   22   40 1     
   43    2   41 1     
   44    2   42 1     
   45    7   43 1     
   46    7   44 1     
   47   10   45 1     
   48   10   46 1     
   49   14   47 1     
@<TRIPOS>SUBSTRUCTURE
      1 S1             1
@<TRIPOS>SET
LONE_PAIRS      STATIC     ATOMS    <user>   **** ""
7 41 42 43 44 45 46 47
DONOR_HYDROGENS      STATIC     ATOMS    <user>   **** ""
1 31
ATOM$BLUE        STATIC     ATOMS    COLORGROUP SYSTEM
7 41 42 43 44 45 46 47
ATOM$RED        STATIC     ATOMS    COLORGROUP SYSTEM
1 31
