AV-unprocessed.smi:3117|AV-procd|sdf|11879|dock8
  -GOLD-   2272017263D 1   1.00000     0.00000
 Structure written by MMmdl.
 37 37  0  0  0  0  0  0  0  0  2 V2000
  151.7571  140.6191  156.9559 C   0  0  0  0  0  0  0  0  0  0  0  0
  151.2662  142.0739  157.0686 C   0  0  1  0  0  0  0  0  0  0  0  0
  150.1962  142.2938  156.0698 N   0  3  0  0  0  0  0  0  0  0  0  0
  149.1202  141.2785  156.0755 C   0  0  0  0  0  0  0  0  0  0  0  0
  148.5144  141.0578  154.6732 C   0  0  0  0  0  0  0  0  0  0  0  0
  147.8418  139.6770  154.5953 C   0  0  0  0  0  0  0  0  0  0  0  0
  147.5131  142.1614  154.2849 C   0  0  0  0  0  0  0  0  0  0  0  0
  149.5691  141.0535  153.7304 O   0  0  0  0  0  0  0  0  0  0  0  0
  150.7661  142.4358  158.4935 C   0  0  2  0  0  0  0  0  0  0  0  0
  150.1099  143.8283  158.5660 C   0  0  0  0  0  0  0  0  0  0  0  0
  151.8296  142.3351  159.4854 N   0  0  0  0  0  0  0  0  0  0  0  0
  153.1366  141.9321  159.3013 C   0  0  0  0  0  0  0  0  0  0  0  0
  153.7602  142.0001  160.5143 C   0  0  0  0  0  0  0  0  0  0  0  0
  152.7401  142.4575  161.3940 C   0  0  0  0  0  0  0  0  0  0  0  0
  151.5872  142.6572  160.7764 N   0  0  0  0  0  0  0  0  0  0  0  0
  152.6160  140.4289  157.5998 H   0  0  0  0  0  0  0  0  0  0  0  0
  152.0680  140.3898  155.9361 H   0  0  0  0  0  0  0  0  0  0  0  0
  150.9726  139.9132  157.2305 H   0  0  0  0  0  0  0  0  0  0  0  0
  152.1151  142.7155  156.8248 H   0  0  0  0  0  0  0  0  0  0  0  0
  149.7751  143.1944  156.2464 H   0  0  0  0  0  0  0  0  0  0  0  0
  149.5187  140.3385  156.4597 H   0  0  0  0  0  0  0  0  0  0  0  0
  148.3420  141.5974  156.7707 H   0  0  0  0  0  0  0  0  0  0  0  0
  147.0108  139.6032  155.2978 H   0  0  0  0  0  0  0  0  0  0  0  0
  148.5437  138.8764  154.8323 H   0  0  0  0  0  0  0  0  0  0  0  0
  147.4454  139.4813  153.5981 H   0  0  0  0  0  0  0  0  0  0  0  0
  146.6865  142.2088  154.9946 H   0  0  0  0  0  0  0  0  0  0  0  0
  147.0863  141.9791  153.2978 H   0  0  0  0  0  0  0  0  0  0  0  0
  147.9814  143.1457  154.2581 H   0  0  0  0  0  0  0  0  0  0  0  0
  149.4998  140.2715  153.2034 H   0  0  0  0  0  0  0  0  0  0  0  0
  150.0078  141.7037  158.7768 H   0  0  0  0  0  0  0  0  0  0  0  0
  149.2167  143.8843  157.9436 H   0  0  0  0  0  0  0  0  0  0  0  0
  150.7938  144.6111  158.2369 H   0  0  0  0  0  0  0  0  0  0  0  0
  149.8046  144.0631  159.5862 H   0  0  0  0  0  0  0  0  0  0  0  0
  153.5118  141.6349  158.3332 H   0  0  0  0  0  0  0  0  0  0  0  0
  154.7884  141.7584  160.7398 H   0  0  0  0  0  0  0  0  0  0  0  0
  152.8020  142.6495  162.4551 H   0  0  0  0  0  0  0  0  0  0  0  0
  150.6137  142.3119  155.1500 H   0  0  0  0  0  0  0  0  0  0  0  0
  1  2  1  0  0  0  0
  1 16  1  0  0  0  0
  1 17  1  0  0  0  0
  1 18  1  0  0  0  0
  2  3  1  0  0  0  0
  2  9  1  0  0  0  0
  2 19  1  0  0  0  0
  3  4  1  0  0  0  0
  3 20  1  0  0  0  0
  3 37  1  0  0  0  0
  4  5  1  0  0  0  0
  4 21  1  0  0  0  0
  4 22  1  0  0  0  0
  5  6  1  0  0  0  0
  5  7  1  0  0  0  0
  5  8  1  0  0  0  0
  6 23  1  0  0  0  0
  6 24  1  0  0  0  0
  6 25  1  0  0  0  0
  7 26  1  0  0  0  0
  7 27  1  0  0  0  0
  7 28  1  0  0  0  0
  8 29  1  0  0  0  0
  9 10  1  0  0  0  0
  9 11  1  0  0  0  0
  9 30  1  0  0  0  0
 10 31  1  0  0  0  0
 10 32  1  0  0  0  0
 10 33  1  0  0  0  0
 11 15  1  0  0  0  0
 11 12  1  0  0  0  0
 12 13  2  0  0  0  0
 12 34  1  0  0  0  0
 13 14  1  0  0  0  0
 13 35  1  0  0  0  0
 14 15  2  0  0  0  0
 14 36  1  0  0  0  0
M  CHG  1   3   1
M  END
> <s_m_source_file>
AV-unprocessed.smi

> <i_m_source_file_index>
3117

> <i_lp_mmshare_version>
43012

> <i_f3d_flags>
0

> <s_epik_input>
W0NIM11DKFtDSDNdKShbT0hdKVtDSDJdW05IXVtDQEBIXShbQ0gzXSlbQ0BIXShbQ0gzXSluMVtjSF1bY0hdW2NIXW4x

> <s_epik_cmdline>
J2VwaWtfcHl0aG9uJywgJy1waCcsICc3LjAnLCAnLXRuJywgJzgnLCAnLW1hJywgJzIwMCcsICctbWV0YWxfYmluZGluZycsICctaW1hZScsICc8aW5maWxlLm1hZT4nLCAnLW9tYWUnLCAnPG91dGZpbGUubWFlPic=

> <r_lp_tautomer_probability>
1

> <r_epik_Ionization_Penalty>
0.0164263

> <r_epik_Ionization_Penalty_Charging>
0.0164138

> <r_epik_Ionization_Penalty_Neutral>
1.24697e-05

> <r_epik_State_Penalty>
0.0129543

> <r_epik_Charging_Adjusted_Penalty>
0.0293681

> <i_epik_Tot_Q>
1

> <i_epik_Tot_abs_Q>
1

> <r_epik_Metal_State_Penalty>
0.0129806

> <b_epik_Metal_Only>
0

> <s_lp_Force_Field>
OPLS_2005

> <r_lp_Energy>
13.915

> <b_lp_Chiralities_Consistent>
1

> <s_lp_Variant>
AV-unprocessed.smi:3117-2

> <Gold.Version>
5.8.1

> <Gold.Id.Protein>
6NUR|6NUR_protein|mol2

> <Gold.PLP.Fitness>
44.3514

> <Gold.PLP.PLP>
-34.2238

> <Gold.PLP.part.hbond>
-5.0000

> <Gold.PLP.part.metal>
0.0000

> <Gold.PLP.part.buried>
-4.0330

> <Gold.PLP.part.nonpolar>
-24.8512

> <Gold.PLP.part.repulsive>
0.1815

> <Gold.PLP.ligand.clash>
0.0000

> <Gold.PLP.ligand.torsion>
0.6851

> <Gold.PLP.Chemscore.Hbond>
3.7996

> <Gold.PLP.Chemscore.CHOScore>
0.0000

> <Gold.PLP.Chemscore.Metal>
0.0000

> <Gold.Chemscore.Hbonds>
donor molecule, donor type, donor heavy atom, donor atom, acceptor molecule, acceptor atom, score
      L1  H     3    20       P1  8028  2.00
      L1  H     8    29       P1  7957  0.55
      P1  H  6933  6945       L1    15  0.09
      P1  H  7989  7998       L1     8  0.11
      P1  H  8011  8017       L1     8  0.96

> <Gold.PLP.Chemscore.Internal.Correction>
0.0989

> <Gold.Rescore>
     Score         DG    S(hbond)    S(metal)    S(lipo)     H(rot)  DE(clash)    DE(int)     intcor
     16.00     -16.81       2.25        0.00      82.49       2.27       0.12       0.69       ----

> <Gold.Chemscore.Fitness>
16.0014

> <Gold.Chemscore.DG>
-16.8129

> <Gold.Chemscore.ZeroCoef>
-5.4800

> <Gold.Chemscore.Hbond>
2.2453

> <Gold.Chemscore.Metal>
0.0000

> <Gold.Chemscore.Lipo>
82.4882

> <Gold.Chemscore.Internal_Hbond>
0.0000

> <Gold.Chemscore.DEClash>
0.1184

> <Gold.Chemscore.DEInternal>
0.6931

> <Gold.Chemscore.Rot>
2.2725

> <Gold.Chemscore.Internal.Correction>
   9.000000E+99

> <Gold.Chemscore.Hbonds>
donor molecule, donor type, donor heavy atom, donor atom, acceptor molecule, acceptor atom, score
      L1  H     3    20       P1  8028  0.95
      L1  H     8    29       P1  7957  0.53
      P1  H  6933  6945       L1    15  0.04
      P1  H  8011  8017       L1     8  0.27

> <Gold.Chemscore.Hbond.Weighted>
-7.4994

> <Gold.Chemscore.Metal.Weighted>
-0.0000

> <Gold.Chemscore.Lipo.Weighted>
-9.6511

> <Gold.Chemscore.Internal_Hbond.Weighted>
0.0000

> <Gold.Chemscore.DEClash.Weighted>
0.1184

> <Gold.Chemscore.DEInternal.Weighted>
0.6931

> <Gold.Chemscore.Rot.Weighted>
5.8176

> <Gold.Chemscore.Internal.Correction.Weighted>
   9.000000E+99

> <Gold.Protein.RotatedTorsions>
[ 6907 6896 6895 6894 ] final   20.21 input  -60.11 | X-H torsion
[ 7974 7965 7964 7962 ] final  -22.36 input  175.53 | X-H torsion
[ 8008 7997 7996 7995 ] final  163.88 input   59.86 | X-H torsion
[ 10167 10162 10161 10158 ] final    9.57 input  -65.29 | X-H torsion
[ 10718 10713 10712 10709 ] final -117.67 input   66.30 | X-H torsion
[ 10763 10752 10751 10750 ] final -121.24 input  -60.55 | X-H torsion
[ 11005 11000 10999 10996 ] final   79.86 input  -57.11 | X-H torsion

> <Gold.Protein.ActiveResidues>
 VAL166  LYS551  ARG553  GLY616  TRP617  ASP618  TYR619  PRO620  LYS621  CYS622 
 ASP623  PHE694  ASN695  SER759  ASP760  ASP761  ALA762  ILE779  LEU786  VAL792 
 PHE793  MET794  SER795  GLU796  ALA797  LYS798  CYS799  TRP800  GLU811  SER814 

> <Gold.Protein.RotatedAtoms>
  151.8928  135.0410  160.0499 H   0  0  0  0  0  0  0  0  0  0  0  0  # atno 6907 bound_to 6896
  152.2422  133.5140  159.5285 H   0  0  0  0  0  0  0  0  0  0  0  0  # atno 6908 bound_to 6896
  150.7057  134.0990  159.4001 H   0  0  0  0  0  0  0  0  0  0  0  0  # atno 6909 bound_to 6896
  146.1680  140.4469  142.8544 H   0  0  0  0  0  0  0  0  0  0  0  0  # atno 7974 bound_to 7965
  156.1923  140.1712  156.8067 H   0  0  0  0  0  0  0  0  0  0  0  0  # atno 8008 bound_to 7997
  154.5487  140.0722  156.8663 H   0  0  0  0  0  0  0  0  0  0  0  0  # atno 8009 bound_to 7997
  155.3071  140.3365  155.4247 H   0  0  0  0  0  0  0  0  0  0  0  0  # atno 8010 bound_to 7997
  140.6247  143.8128  150.7218 H   0  0  0  0  0  0  0  0  0  0  0  0  # atno 10167 bound_to 10162
  156.1051  130.6203  150.9194 H   0  0  0  0  0  0  0  0  0  0  0  0  # atno 10718 bound_to 10713
  154.8663  135.4175  154.2588 H   0  0  0  0  0  0  0  0  0  0  0  0  # atno 10763 bound_to 10752
  153.3520  135.6999  153.6787 H   0  0  0  0  0  0  0  0  0  0  0  0  # atno 10764 bound_to 10752
  153.5722  135.3589  155.2815 H   0  0  0  0  0  0  0  0  0  0  0  0  # atno 10765 bound_to 10752
  139.9156  134.7875  156.1834 H   0  0  0  0  0  0  0  0  0  0  0  0  # atno 11005 bound_to 11000
  144.8120  140.6403  143.6409 LP  0  0  0  0  0  0  0  0  0  0  0  0  # atno 17320 bound_to 7965
  145.4416  139.1535  143.3967 LP  0  0  0  0  0  0  0  0  0  0  0  0  # atno 17321 bound_to 7965
  140.1726  143.4182  152.1990 LP  0  0  0  0  0  0  0  0  0  0  0  0  # atno 17342 bound_to 10162
  139.5469  144.7306  151.4555 LP  0  0  0  0  0  0  0  0  0  0  0  0  # atno 17343 bound_to 10162
  157.6226  131.0928  150.8593 LP  0  0  0  0  0  0  0  0  0  0  0  0  # atno 17370 bound_to 10713
  156.8714  130.5147  149.5296 LP  0  0  0  0  0  0  0  0  0  0  0  0  # atno 17371 bound_to 10713
  141.0628  133.6833  156.1986 LP  0  0  0  0  0  0  0  0  0  0  0  0  # atno 17394 bound_to 11000
  140.6633  134.4945  157.5584 LP  0  0  0  0  0  0  0  0  0  0  0  0  # atno 17395 bound_to 11000

$$$$
