AV-unprocessed.smi:1230|AV-procd|sdf|5152|dock3
  -GOLD-   22720 4223D 1   1.00000     0.00000
 Structure written by MMmdl.
 38 39  0  0  0  0  0  0  0  0  2 V2000
  151.6681  144.6487  159.2100 C   0  0  0  0  0  0  0  0  0  0  0  0
  151.9515  143.4497  160.1297 C   0  0  2  0  0  0  0  0  0  0  0  0
  152.2670  143.9259  161.5621 C   0  0  0  0  0  0  0  0  0  0  0  0
  152.5618  142.7479  162.5031 C   0  0  0  0  0  0  0  0  0  0  0  0
  153.7065  141.8820  161.9595 C   0  0  0  0  0  0  0  0  0  0  0  0
  153.3970  141.3927  160.5377 C   0  0  0  0  0  0  0  0  0  0  0  0
  153.0972  142.5684  159.5832 C   0  0  1  0  0  0  0  0  0  0  0  0
  152.6884  142.0415  158.3292 O   0  0  0  0  0  0  0  0  0  0  0  0
  151.6864  141.0386  158.4130 C   0  0  0  0  0  0  0  0  0  0  0  0
  151.4463  140.4640  157.0094 C   0  0  0  0  0  0  0  0  0  0  0  0
  151.3703  138.9969  157.0459 N   0  0  0  0  0  0  0  0  0  0  0  0
  150.3779  138.4193  157.8561 C   0  0  0  0  0  0  0  0  0  0  0  0
  150.2522  137.0843  157.9759 C   0  0  0  0  0  0  0  0  0  0  0  0
  149.2613  136.4740  158.7997 C   0  0  0  0  0  0  0  0  0  0  0  0
  148.4763  135.9806  159.4934 N   0  0  0  0  0  0  0  0  0  0  0  0
  151.1748  136.2253  157.2375 C   0  0  0  0  0  0  0  0  0  0  0  0
  151.0788  135.0017  157.3226 O   0  0  0  0  0  0  0  0  0  0  0  0
  152.1234  136.8396  156.4709 N   0  5  0  0  0  0  0  0  0  0  0  0
  152.2467  138.1997  156.3641 C   0  0  0  0  0  0  0  0  0  0  0  0
  153.1219  138.7286  155.6783 O   0  0  0  0  0  0  0  0  0  0  0  0
  152.5432  145.2927  159.1175 H   0  0  0  0  0  0  0  0  0  0  0  0
  150.8487  145.2547  159.5969 H   0  0  0  0  0  0  0  0  0  0  0  0
  151.3876  144.3231  158.2081 H   0  0  0  0  0  0  0  0  0  0  0  0
  151.0466  142.8414  160.1711 H   0  0  0  0  0  0  0  0  0  0  0  0
  153.1256  144.5989  161.5459 H   0  0  0  0  0  0  0  0  0  0  0  0
  151.4303  144.5043  161.9555 H   0  0  0  0  0  0  0  0  0  0  0  0
  152.8155  143.1187  163.4965 H   0  0  0  0  0  0  0  0  0  0  0  0
  151.6649  142.1382  162.6193 H   0  0  0  0  0  0  0  0  0  0  0  0
  154.6332  142.4573  161.9559 H   0  0  0  0  0  0  0  0  0  0  0  0
  153.8728  141.0289  162.6179 H   0  0  0  0  0  0  0  0  0  0  0  0
  154.2352  140.8015  160.1695 H   0  0  0  0  0  0  0  0  0  0  0  0
  152.5393  140.7193  160.5654 H   0  0  0  0  0  0  0  0  0  0  0  0
  153.9885  143.1881  159.4635 H   0  0  0  0  0  0  0  0  0  0  0  0
  152.0256  140.2540  159.0902 H   0  0  0  0  0  0  0  0  0  0  0  0
  150.7539  141.4308  158.8200 H   0  0  0  0  0  0  0  0  0  0  0  0
  150.5325  140.8850  156.5877 H   0  0  0  0  0  0  0  0  0  0  0  0
  152.2439  140.7849  156.3377 H   0  0  0  0  0  0  0  0  0  0  0  0
  149.7427  139.1216  158.3761 H   0  0  0  0  0  0  0  0  0  0  0  0
  1  2  1  0  0  0  0
  1 21  1  0  0  0  0
  1 22  1  0  0  0  0
  1 23  1  0  0  0  0
  2  7  1  0  0  0  0
  2  3  1  0  0  0  0
  2 24  1  0  0  0  0
  3  4  1  0  0  0  0
  3 25  1  0  0  0  0
  3 26  1  0  0  0  0
  4  5  1  0  0  0  0
  4 27  1  0  0  0  0
  4 28  1  0  0  0  0
  5  6  1  0  0  0  0
  5 29  1  0  0  0  0
  5 30  1  0  0  0  0
  6  7  1  0  0  0  0
  6 31  1  0  0  0  0
  6 32  1  0  0  0  0
  7  8  1  0  0  0  0
  7 33  1  0  0  0  0
  8  9  1  0  0  0  0
  9 10  1  0  0  0  0
  9 34  1  0  0  0  0
  9 35  1  0  0  0  0
 10 11  1  0  0  0  0
 10 36  1  0  0  0  0
 10 37  1  0  0  0  0
 11 19  1  0  0  0  0
 11 12  1  0  0  0  0
 12 13  2  0  0  0  0
 12 38  1  0  0  0  0
 13 14  1  0  0  0  0
 13 16  1  0  0  0  0
 14 15  3  0  0  0  0
 16 17  2  0  0  0  0
 16 18  1  0  0  0  0
 18 19  1  0  0  0  0
 19 20  2  0  0  0  0
M  CHG  1  18  -1
M  END
> <s_m_source_file>
AV-unprocessed.smi

> <i_m_source_file_index>
1230

> <i_lp_mmshare_version>
43012

> <i_f3d_flags>
0

> <s_epik_input>
W0NIM11bQ0BASF0xW0NIMl1bQ0gyXVtDSDJdW0NIMl1bQ0BIXTFPW0NIMl1bQ0gyXW4yW2NIXWMoQyNOKWMoPU8pW25IXWMyPU8=

> <s_epik_cmdline>
J2VwaWtfcHl0aG9uJywgJy1waCcsICc3LjAnLCAnLXRuJywgJzgnLCAnLW1hJywgJzIwMCcsICctbWV0YWxfYmluZGluZycsICctaW1hZScsICc8aW5maWxlLm1hZT4nLCAnLW9tYWUnLCAnPG91dGZpbGUubWFlPic=

> <r_epik_Ionization_Penalty>
0.400014

> <r_epik_Ionization_Penalty_Charging>
4.81474e-10

> <r_epik_Ionization_Penalty_Neutral>
0.400014

> <r_epik_State_Penalty>
0.399305

> <r_epik_Charging_Adjusted_Penalty>
0.399305

> <i_epik_Tot_Q>
-1

> <i_epik_Tot_abs_Q>
1

> <r_epik_Metal_State_Penalty>
0.00056968

> <b_epik_Metal_Only>
0

> <s_lp_Force_Field>
OPLS_2005

> <r_lp_Energy>
24.1099

> <b_lp_Chiralities_Consistent>
1

> <s_lp_Variant>
AV-unprocessed.smi:1230-1

> <Gold.Version>
5.8.1

> <Gold.Id.Protein>
6NUR|6NUR_protein|mol2

> <Gold.PLP.Fitness>
45.8713

> <Gold.PLP.PLP>
-37.6379

> <Gold.PLP.part.hbond>
-3.2034

> <Gold.PLP.part.metal>
0.0000

> <Gold.PLP.part.buried>
-0.7851

> <Gold.PLP.part.nonpolar>
-34.0407

> <Gold.PLP.part.repulsive>
0.0000

> <Gold.PLP.ligand.clash>
0.0000

> <Gold.PLP.ligand.torsion>
0.3940

> <Gold.PLP.Chemscore.Hbond>
3.0000

> <Gold.PLP.Chemscore.CHOScore>
0.0000

> <Gold.PLP.Chemscore.Metal>
0.0000

> <Gold.Chemscore.Hbonds>
donor molecule, donor type, donor heavy atom, donor atom, acceptor molecule, acceptor atom, score
      P1  H  7997  8009       L1    20  1.00
      P1  H 10752 10765       L1    18  1.11

> <Gold.PLP.Chemscore.Internal.Correction>
0.0213

> <Gold.Rescore>
     Score         DG    S(hbond)    S(metal)    S(lipo)     H(rot)  DE(clash)    DE(int)     intcor
     17.05     -17.81       1.69        0.00      98.78       1.90       0.30       0.45       ----

> <Gold.Chemscore.Fitness>
17.0541

> <Gold.Chemscore.DG>
-17.8078

> <Gold.Chemscore.ZeroCoef>
-5.4800

> <Gold.Chemscore.Hbond>
1.6857

> <Gold.Chemscore.Metal>
0.0000

> <Gold.Chemscore.Lipo>
98.7815

> <Gold.Chemscore.Internal_Hbond>
0.0000

> <Gold.Chemscore.DEClash>
0.2992

> <Gold.Chemscore.DEInternal>
0.4545

> <Gold.Chemscore.Rot>
1.8984

> <Gold.Chemscore.Internal.Correction>
   9.000000E+99

> <Gold.Chemscore.Hbonds>
donor molecule, donor type, donor heavy atom, donor atom, acceptor molecule, acceptor atom, score
      P1  H  7997  8009       L1    20  0.97
      P1  H 10752 10765       L1    18  0.48

> <Gold.Chemscore.Hbond.Weighted>
-5.6301

> <Gold.Chemscore.Metal.Weighted>
-0.0000

> <Gold.Chemscore.Lipo.Weighted>
-11.5574

> <Gold.Chemscore.Internal_Hbond.Weighted>
0.0000

> <Gold.Chemscore.DEClash.Weighted>
0.2992

> <Gold.Chemscore.DEInternal.Weighted>
0.4545

> <Gold.Chemscore.Rot.Weighted>
4.8598

> <Gold.Chemscore.Internal.Correction.Weighted>
   9.000000E+99

> <Gold.Protein.RotatedTorsions>
[ 6907 6896 6895 6894 ] final  -39.78 input  -60.11 | X-H torsion
[ 7974 7965 7964 7962 ] final  -48.98 input  175.53 | X-H torsion
[ 8008 7997 7996 7995 ] final -154.60 input   59.86 | X-H torsion
[ 10167 10162 10161 10158 ] final  175.65 input  -65.29 | X-H torsion
[ 10718 10713 10712 10709 ] final  -80.25 input   66.30 | X-H torsion
[ 10763 10752 10751 10750 ] final -146.26 input  -60.55 | X-H torsion
[ 11005 11000 10999 10996 ] final -133.99 input  -57.11 | X-H torsion

> <Gold.Protein.ActiveResidues>
 VAL166  LYS551  ARG553  GLY616  TRP617  ASP618  TYR619  PRO620  LYS621  CYS622 
 ASP623  PHE694  ASN695  SER759  ASP760  ASP761  ALA762  ILE779  LEU786  VAL792 
 PHE793  MET794  SER795  GLU796  ALA797  LYS798  CYS799  TRP800  GLU811  SER814 

> <Gold.Protein.RotatedAtoms>
  150.9863  134.9207  159.7873 H   0  0  0  0  0  0  0  0  0  0  0  0  # atno 6907 bound_to 6896
  152.5237  134.3342  159.9204 H   0  0  0  0  0  0  0  0  0  0  0  0  # atno 6908 bound_to 6896
  151.3349  133.3944  159.2700 H   0  0  0  0  0  0  0  0  0  0  0  0  # atno 6909 bound_to 6896
  145.9455  140.7622  142.9531 H   0  0  0  0  0  0  0  0  0  0  0  0  # atno 7974 bound_to 7965
  155.6889  140.0753  157.2456 H   0  0  0  0  0  0  0  0  0  0  0  0  # atno 8008 bound_to 7997
  154.4092  140.1668  156.2117 H   0  0  0  0  0  0  0  0  0  0  0  0  # atno 8009 bound_to 7997
  155.9469  140.3380  155.6378 H   0  0  0  0  0  0  0  0  0  0  0  0  # atno 8010 bound_to 7997
  139.5185  144.3007  152.0381 H   0  0  0  0  0  0  0  0  0  0  0  0  # atno 10167 bound_to 10162
  156.0074  130.4569  150.3772 H   0  0  0  0  0  0  0  0  0  0  0  0  # atno 10718 bound_to 10713
  154.8344  135.3391  154.6633 H   0  0  0  0  0  0  0  0  0  0  0  0  # atno 10763 bound_to 10752
  153.7249  135.6956  153.5008 H   0  0  0  0  0  0  0  0  0  0  0  0  # atno 10764 bound_to 10752
  153.2354  135.4402  155.0593 H   0  0  0  0  0  0  0  0  0  0  0  0  # atno 10765 bound_to 10752
  140.9030  134.1665  157.4446 H   0  0  0  0  0  0  0  0  0  0  0  0  # atno 11005 bound_to 11000
  144.6786  140.2349  143.7351 LP  0  0  0  0  0  0  0  0  0  0  0  0  # atno 17320 bound_to 7965
  145.8243  139.2057  143.1920 LP  0  0  0  0  0  0  0  0  0  0  0  0  # atno 17321 bound_to 7965
  140.2454  144.4225  150.6243 LP  0  0  0  0  0  0  0  0  0  0  0  0  # atno 17342 bound_to 10162
  140.6261  143.2181  151.6593 LP  0  0  0  0  0  0  0  0  0  0  0  0  # atno 17343 bound_to 10162
  157.1854  131.0402  151.2727 LP  0  0  0  0  0  0  0  0  0  0  0  0  # atno 17370 bound_to 10713
  157.4109  130.7384  149.6838 LP  0  0  0  0  0  0  0  0  0  0  0  0  # atno 17371 bound_to 10713
  139.8745  134.9906  156.5509 LP  0  0  0  0  0  0  0  0  0  0  0  0  # atno 17394 bound_to 11000
  140.8205  133.8357  155.8892 LP  0  0  0  0  0  0  0  0  0  0  0  0  # atno 17395 bound_to 11000

$$$$
