#       Name:                AV-unprocessed.smi:2563
#       Creating user name   scv26
#       Creation time:       Fri Mar 27 14:09:34 2020


#       File generated by GOLD software.
#

@<TRIPOS>MOLECULE
AV-unprocessed.smi:2563
    39    40     1
SMALL
NO_CHARGES


@<TRIPOS>ATOM
      1 ****        -2.5781   2.2541   1.0106 C.3            1 S1                 0.0000
      2 ****        -1.8962   0.8798   1.0205 C.3            1 S1                 0.0000
      3 ****        -0.4788   0.9649   0.6753 N.pl3          1 S1                 0.0000
      4 ****        -0.0897   0.8597  -0.7317 C.3            1 S1                 0.0000
      5 ****         0.2803  -0.5792  -1.1341 C.3            1 S1                 0.0000
      6 ****         0.9318  -0.6306  -2.5297 C.3            1 S1                 0.0000
      7 ****         1.2089  -2.0300  -2.9097 N.4            1 S1                 1.0000
      8 ****        -0.0067  -2.8638  -2.8373 C.3            1 S1                 0.0000
      9 ****        -0.6511  -2.7371  -1.4466 C.3            1 S1                 0.0000
     10 ****        -0.9091  -1.3653  -1.1667 O.3            1 S1                 0.0000
     11 ****         0.5056   1.1402   1.6784 C.ar           1 S1                 0.0000
     12 ****         0.1639   1.4347   3.0212 C.ar           1 S1                 0.0000
     13 ****         1.2054   1.5851   3.9529 C.ar           1 S1                 0.0000
     14 ****         2.5209   1.4323   3.4836 C.ar           1 S1                 0.0000
     15 ****         2.8013   1.1536   2.1926 N.ar           1 S1                 0.0000
     16 ****         1.8076   1.0126   1.3095 N.ar           1 S1                 0.0000
     17 ****        -3.6363   2.1608   1.2549 H              1 S1                 0.0000
     18 ****        -2.5051   2.7243   0.0295 H              1 S1                 0.0000
     19 ****        -2.1284   2.9290   1.7390 H              1 S1                 0.0000
     20 ****        -2.0356   0.3827   1.9802 H              1 S1                 0.0000
     21 ****        -2.3929   0.2384   0.2922 H              1 S1                 0.0000
     22 ****        -0.9076   1.2164  -1.3589 H              1 S1                 0.0000
     23 ****         0.7432   1.5349  -0.9320 H              1 S1                 0.0000
     24 ****         0.9734  -0.9965  -0.4016 H              1 S1                 0.0000
     25 ****         0.2754  -0.1787  -3.2750 H              1 S1                 0.0000
     26 ****         1.8657  -0.0678  -2.5390 H              1 S1                 0.0000
     27 ****         1.5813  -2.0569  -3.8483 H              1 S1                 0.0000
     28 ****        -0.7081  -2.5418  -3.6080 H              1 S1                 0.0000
     29 ****         0.2513  -3.9017  -3.0492 H              1 S1                 0.0000
     30 ****        -1.5914  -3.2875  -1.4162 H              1 S1                 0.0000
     31 ****        -0.0070  -3.1630  -0.6758 H              1 S1                 0.0000
     32 ****        -0.8568   1.5541   3.3501 H              1 S1                 0.0000
     33 ****         1.0032   1.8107   4.9893 H              1 S1                 0.0000
     34 ****         3.3624   1.5362   4.1525 H              1 S1                 0.0000
     35 ****         1.8963  -2.4060  -2.2719 H              1 S1                 0.0000
     36 ****        -1.5138  -1.0020  -1.8755 LP             1 S1                 0.0000
     37 ****        -1.3610  -1.2994  -0.2771 LP             1 S1                 0.0000
     38 ****         3.7514   1.0528   1.8973 LP             1 S1                 0.0000
     39 ****         2.0273   0.8086   0.3555 LP             1 S1                 0.0000
@<TRIPOS>BOND
    1    1    2 1     
    2    1   17 1     
    3    1   18 1     
    4    1   19 1     
    5    2    3 1     
    6    2   20 1     
    7    2   21 1     
    8    3    4 1     
    9    3   11 1     
   10    4    5 1     
   11    4   22 1     
   12    4   23 1     
   13    5   10 1     
   14    5    6 1     
   15    5   24 1     
   16    6    7 1     
   17    6   25 1     
   18    6   26 1     
   19    7    8 1     
   20    7   27 1     
   21    7   35 1     
   22    8    9 1     
   23    8   28 1     
   24    8   29 1     
   25    9   10 1     
   26    9   30 1     
   27    9   31 1     
   28   11   16 ar    
   29   11   12 ar    
   30   12   13 ar    
   31   12   32 1     
   32   13   14 ar    
   33   13   33 1     
   34   14   15 ar    
   35   14   34 1     
   36   15   16 ar    
   37   10   36 1     
   38   10   37 1     
   39   15   38 1     
   40   16   39 1     
@<TRIPOS>SUBSTRUCTURE
      1 S1             1
@<TRIPOS>SET
LONE_PAIRS      STATIC     ATOMS    <user>   **** ""
4 36 37 38 39
DONOR_HYDROGENS      STATIC     ATOMS    <user>   **** ""
2 27 35
ATOM$BLUE        STATIC     ATOMS    COLORGROUP SYSTEM
4 36 37 38 39
ATOM$RED        STATIC     ATOMS    COLORGROUP SYSTEM
2 27 35
