AV-unprocessed.smi:2751|AV-procd|sdf|10601|dock5
  -GOLD-   2272015 53D 1   1.00000     0.00000
 Structure written by MMmdl.
 34 35  0  0  0  0  0  0  0  0  1 V2000
  151.3632  140.4862  155.1072 O   0  0  0  0  0  0  0  0  0  0  0  0
  150.7101  140.8470  156.0917 C   0  0  0  0  0  0  0  0  0  0  0  0
  151.2659  140.9260  157.3101 N   0  0  0  0  0  0  0  0  0  0  0  0
  152.6560  140.6189  157.6292 C   0  0  0  0  0  0  0  0  0  0  0  0
  152.9165  140.6748  159.1443 C   0  0  0  0  0  0  0  0  0  0  0  0
  153.0012  142.1118  159.6828 C   0  0  2  0  0  0  0  0  0  0  0  0
  152.9484  142.1543  161.2227 C   0  0  0  0  0  0  0  0  0  0  0  0
  152.9554  143.6029  161.7243 C   0  0  0  0  0  0  0  0  0  0  0  0
  151.8384  144.3934  161.0353 C   0  0  0  0  0  0  0  0  0  0  0  0
  151.9392  144.2393  159.5095 C   0  0  0  0  0  0  0  0  0  0  0  0
  151.9050  142.8593  159.1585 O   0  0  0  0  0  0  0  0  0  0  0  0
  149.3767  141.2275  156.1514 N   0  0  0  0  0  0  0  0  0  0  0  0
  148.5465  140.8390  155.2320 C   0  0  0  0  0  0  0  0  0  0  0  0
  148.6928  140.0586  154.0881 N   0  0  0  0  0  0  0  0  0  0  0  0
  147.4759  139.9722  153.4719 C   0  0  0  0  0  0  0  0  0  0  0  0
  146.5994  140.6650  154.1928 C   0  0  0  0  0  0  0  0  0  0  0  0
  147.2250  141.2059  155.2757 O   0  0  0  0  0  0  0  0  0  0  0  0
  150.6800  141.2280  158.0754 H   0  0  0  0  0  0  0  0  0  0  0  0
  152.9262  139.6402  157.2288 H   0  0  0  0  0  0  0  0  0  0  0  0
  153.2852  141.3462  157.1157 H   0  0  0  0  0  0  0  0  0  0  0  0
  152.1332  140.1308  159.6738 H   0  0  0  0  0  0  0  0  0  0  0  0
  153.8513  140.1586  159.3661 H   0  0  0  0  0  0  0  0  0  0  0  0
  153.9367  142.5593  159.3420 H   0  0  0  0  0  0  0  0  0  0  0  0
  152.0461  141.6520  161.5744 H   0  0  0  0  0  0  0  0  0  0  0  0
  153.7935  141.6110  161.6463 H   0  0  0  0  0  0  0  0  0  0  0  0
  152.8310  143.6321  162.8069 H   0  0  0  0  0  0  0  0  0  0  0  0
  153.9200  144.0627  161.5056 H   0  0  0  0  0  0  0  0  0  0  0  0
  150.8682  144.0283  161.3745 H   0  0  0  0  0  0  0  0  0  0  0  0
  151.8926  145.4461  161.3142 H   0  0  0  0  0  0  0  0  0  0  0  0
  151.1043  144.7464  159.0256 H   0  0  0  0  0  0  0  0  0  0  0  0
  152.8534  144.6995  159.1309 H   0  0  0  0  0  0  0  0  0  0  0  0
  149.5300  139.6159  153.7369 H   0  0  0  0  0  0  0  0  0  0  0  0
  147.3646  139.4085  152.5573 H   0  0  0  0  0  0  0  0  0  0  0  0
  145.5439  140.8606  154.0742 H   0  0  0  0  0  0  0  0  0  0  0  0
  1  2  2  0  0  0  0
  2 12  1  0  0  0  0
  2  3  1  0  0  0  0
  3  4  1  0  0  0  0
  3 18  1  0  0  0  0
  4  5  1  0  0  0  0
  4 19  1  0  0  0  0
  4 20  1  0  0  0  0
  5  6  1  0  0  0  0
  5 21  1  0  0  0  0
  5 22  1  0  0  0  0
  6 11  1  0  0  0  0
  6  7  1  0  0  0  0
  6 23  1  0  0  0  0
  7  8  1  0  0  0  0
  7 24  1  0  0  0  0
  7 25  1  0  0  0  0
  8  9  1  0  0  0  0
  8 26  1  0  0  0  0
  8 27  1  0  0  0  0
  9 10  1  0  0  0  0
  9 28  1  0  0  0  0
  9 29  1  0  0  0  0
 10 11  1  0  0  0  0
 10 30  1  0  0  0  0
 10 31  1  0  0  0  0
 12 13  2  0  0  0  0
 13 17  1  0  0  0  0
 13 14  1  0  0  0  0
 14 32  1  0  0  0  0
 14 15  1  0  0  0  0
 15 33  1  0  0  0  0
 15 16  2  0  0  0  0
 16 34  1  0  0  0  0
 16 17  1  0  0  0  0
M  END
> <s_m_source_file>
AV-unprocessed.smi

> <i_m_source_file_index>
2751

> <i_lp_mmshare_version>
43012

> <i_f3d_flags>
0

> <s_epik_input>
bzFbY0hdW2NIXW5jMVtOSF1DKD1PKVtOSF1bQ0gyXVtDSDJdW0NAQEhdMltDSDJdW0NIMl1bQ0gyXVtDSDJdTzI=

> <s_epik_cmdline>
J2VwaWtfcHl0aG9uJywgJy1waCcsICc3LjAnLCAnLXRuJywgJzgnLCAnLW1hJywgJzIwMCcsICctbWV0YWxfYmluZGluZycsICctaW1hZScsICc8aW5maWxlLm1hZT4nLCAnLW9tYWUnLCAnPG91dGZpbGUubWFlPic=

> <r_lp_tautomer_probability>
0.107061

> <r_epik_Ionization_Penalty>
1.421

> <r_epik_Ionization_Penalty_Charging>
1.42064

> <r_epik_Ionization_Penalty_Neutral>
0.0003614

> <r_epik_State_Penalty>
2.61489

> <r_epik_Charging_Adjusted_Penalty>
4.03553

> <i_epik_Tot_Q>
0

> <i_epik_Tot_abs_Q>
0

> <r_epik_Metal_State_Penalty>
3.57288

> <b_epik_Metal_Only>
0

> <s_lp_Force_Field>
OPLS_2005

> <r_lp_Energy>
32.5826

> <b_lp_Chiralities_Consistent>
1

> <s_lp_Variant>
AV-unprocessed.smi:2751-7

> <Gold.Version>
5.8.1

> <Gold.Id.Protein>
6NUR|6NUR_protein|mol2

> <Gold.PLP.Fitness>
40.1269

> <Gold.PLP.PLP>
-33.9594

> <Gold.PLP.part.hbond>
-2.0000

> <Gold.PLP.part.metal>
0.0000

> <Gold.PLP.part.buried>
-3.7302

> <Gold.PLP.part.nonpolar>
-28.7906

> <Gold.PLP.part.repulsive>
0.4535

> <Gold.PLP.ligand.clash>
0.0000

> <Gold.PLP.ligand.torsion>
0.2674

> <Gold.PLP.Chemscore.Hbond>
1.0000

> <Gold.PLP.Chemscore.CHOScore>
1.2285

> <Gold.PLP.Chemscore.Metal>
0.0000

> <Gold.Chemscore.Hbonds>
donor molecule, donor type, donor heavy atom, donor atom, acceptor molecule, acceptor atom, score
      P1  H  7989  7998       L1     1  0.93
      L1  C    15    33       P1  7957  0.28
      L1  C    16    34       P1 10175  1.00

> <Gold.PLP.Chemscore.Internal.Correction>
0.0166

> <Gold.Rescore>
     Score         DG    S(hbond)    S(metal)    S(lipo)     H(rot)  DE(clash)    DE(int)     intcor
     12.41     -14.03       0.99        0.00      80.59       1.63       0.10       1.52       ----

> <Gold.Chemscore.Fitness>
12.4147

> <Gold.Chemscore.DG>
-14.0336

> <Gold.Chemscore.ZeroCoef>
-5.4800

> <Gold.Chemscore.Hbond>
0.9892

> <Gold.Chemscore.Metal>
0.0000

> <Gold.Chemscore.Lipo>
80.5936

> <Gold.Chemscore.Internal_Hbond>
0.0000

> <Gold.Chemscore.DEClash>
0.1020

> <Gold.Chemscore.DEInternal>
1.5170

> <Gold.Chemscore.Rot>
1.6328

> <Gold.Chemscore.Internal.Correction>
   9.000000E+99

> <Gold.Chemscore.Hbonds>
donor molecule, donor type, donor heavy atom, donor atom, acceptor molecule, acceptor atom, score
      P1  H  7989  7998       L1     1  0.89

> <Gold.Chemscore.Hbond.Weighted>
-3.3041

> <Gold.Chemscore.Metal.Weighted>
-0.0000

> <Gold.Chemscore.Lipo.Weighted>
-9.4295

> <Gold.Chemscore.Internal_Hbond.Weighted>
0.0000

> <Gold.Chemscore.DEClash.Weighted>
0.1020

> <Gold.Chemscore.DEInternal.Weighted>
1.5170

> <Gold.Chemscore.Rot.Weighted>
4.1799

> <Gold.Chemscore.Internal.Correction.Weighted>
   9.000000E+99

> <Gold.Protein.RotatedTorsions>
[ 6907 6896 6895 6894 ] final -176.98 input  -60.11 | X-H torsion
[ 7974 7965 7964 7962 ] final  -25.98 input  175.53 | X-H torsion
[ 8008 7997 7996 7995 ] final -162.37 input   59.86 | X-H torsion
[ 10167 10162 10161 10158 ] final   59.27 input  -65.29 | X-H torsion
[ 10718 10713 10712 10709 ] final  -79.33 input   66.30 | X-H torsion
[ 10763 10752 10751 10750 ] final -166.45 input  -60.55 | X-H torsion
[ 11005 11000 10999 10996 ] final  127.88 input  -57.11 | X-H torsion

> <Gold.Protein.ActiveResidues>
 VAL166  LYS551  ARG553  GLY616  TRP617  ASP618  TYR619  PRO620  LYS621  CYS622 
 ASP623  PHE694  ASN695  SER759  ASP760  ASP761  ALA762  ILE779  LEU786  VAL792 
 PHE793  MET794  SER795  GLU796  ALA797  LYS798  CYS799  TRP800  GLU811  SER814 

> <Gold.Protein.RotatedAtoms>
  151.6136  133.3345  159.3072 H   0  0  0  0  0  0  0  0  0  0  0  0  # atno 6907 bound_to 6896
  150.8143  134.7320  159.6728 H   0  0  0  0  0  0  0  0  0  0  0  0  # atno 6908 bound_to 6896
  152.4239  134.5909  160.0025 H   0  0  0  0  0  0  0  0  0  0  0  0  # atno 6909 bound_to 6896
  146.1455  140.4959  142.8633 H   0  0  0  0  0  0  0  0  0  0  0  0  # atno 7974 bound_to 7965
  155.8058  140.0898  157.1932 H   0  0  0  0  0  0  0  0  0  0  0  0  # atno 8008 bound_to 7997
  154.3981  140.1464  156.3387 H   0  0  0  0  0  0  0  0  0  0  0  0  # atno 8009 bound_to 7997
  155.8416  140.3438  155.5638 H   0  0  0  0  0  0  0  0  0  0  0  0  # atno 8010 bound_to 7997
  140.1782  144.4209  150.6628 H   0  0  0  0  0  0  0  0  0  0  0  0  # atno 10167 bound_to 10162
  156.0095  130.4543  150.3632 H   0  0  0  0  0  0  0  0  0  0  0  0  # atno 10718 bound_to 10713
  154.6831  135.2958  154.9585 H   0  0  0  0  0  0  0  0  0  0  0  0  # atno 10763 bound_to 10752
  154.0573  135.6636  153.4811 H   0  0  0  0  0  0  0  0  0  0  0  0  # atno 10764 bound_to 10752
  153.0561  135.5144  154.7885 H   0  0  0  0  0  0  0  0  0  0  0  0  # atno 10765 bound_to 10752
  139.9531  134.9618  156.8919 H   0  0  0  0  0  0  0  0  0  0  0  0  # atno 11005 bound_to 11000
  144.7842  140.5902  143.6585 LP  0  0  0  0  0  0  0  0  0  0  0  0  # atno 17320 bound_to 7965
  145.4947  139.1486  143.3690 LP  0  0  0  0  0  0  0  0  0  0  0  0  # atno 17321 bound_to 7965
  140.6537  143.2232  151.6018 LP  0  0  0  0  0  0  0  0  0  0  0  0  # atno 17342 bound_to 10162
  139.5308  144.2923  152.1142 LP  0  0  0  0  0  0  0  0  0  0  0  0  # atno 17343 bound_to 10162
  157.1720  131.0371  151.2791 LP  0  0  0  0  0  0  0  0  0  0  0  0  # atno 17370 bound_to 10713
  157.4220  130.7443  149.6921 LP  0  0  0  0  0  0  0  0  0  0  0  0  # atno 17371 bound_to 10713
  140.5673  134.0477  155.7418 LP  0  0  0  0  0  0  0  0  0  0  0  0  # atno 17394 bound_to 11000
  141.1197  133.9481  157.2753 LP  0  0  0  0  0  0  0  0  0  0  0  0  # atno 17395 bound_to 11000

$$$$
