AV-unprocessed.smi:1758|AV-procd|sdf|7085|dock2
  -GOLD-   22720 8303D 1   1.00000     0.00000
 Structure written by MMmdl.
 44 46  0  0  0  0  0  0  0  0  2 V2000
  150.3037  141.6914  157.0144 C   0  0  0  0  0  0  0  0  0  0  0  0
  150.4955  141.1177  155.6053 C   0  0  0  0  0  0  0  0  0  0  0  0
  149.4672  140.1506  155.2738 N   0  0  0  0  0  0  0  0  0  0  0  0
  149.3095  139.4412  154.0996 C   0  0  0  0  0  0  0  0  0  0  0  0
  148.1987  138.6667  154.2824 C   0  0  0  0  0  0  0  0  0  0  0  0
  147.5865  137.7466  153.3941 N   0  0  0  0  0  0  0  0  0  0  0  0
  146.2726  137.5222  153.2323 C   0  0  0  0  0  0  0  0  0  0  0  0
  145.3729  138.1036  153.8390 O   0  0  0  0  0  0  0  0  0  0  0  0
  146.0475  136.5752  152.3105 N   0  0  0  0  0  0  0  0  0  0  0  0
  144.7249  136.0896  151.9251 C   0  0  2  0  0  0  0  0  0  0  0  0
  143.8270  135.7712  153.1137 C   0  0  0  0  0  0  0  0  0  0  0  0
  142.7450  134.8773  152.4988 C   0  0  0  0  0  0  0  0  0  0  0  0
  143.3541  134.2141  151.3192 N   0  3  2  0  0  0  0  0  0  0  0  0
  143.2676  132.7292  151.3485 C   0  0  0  0  0  0  0  0  0  0  0  0
  144.2417  132.1010  150.3409 C   0  0  0  0  0  0  0  0  0  0  0  0
  145.7038  132.4562  150.6722 C   0  0  0  0  0  0  0  0  0  0  0  0
  145.8238  133.7512  151.4984 C   0  0  0  0  0  0  0  0  0  0  0  0
  144.7223  134.7729  151.1240 C   0  0  2  0  0  0  0  0  0  0  0  0
  147.7363  138.9562  155.5925 C   0  0  0  0  0  0  0  0  0  0  0  0
  148.5079  139.8545  156.1855 N   0  0  0  0  0  0  0  0  0  0  0  0
  151.0892  142.4095  157.2502 H   0  0  0  0  0  0  0  0  0  0  0  0
  150.3361  140.9032  157.7673 H   0  0  0  0  0  0  0  0  0  0  0  0
  149.3460  142.2047  157.1062 H   0  0  0  0  0  0  0  0  0  0  0  0
  150.4791  141.9176  154.8638 H   0  0  0  0  0  0  0  0  0  0  0  0
  151.4690  140.6323  155.5265 H   0  0  0  0  0  0  0  0  0  0  0  0
  149.9882  139.5536  153.2670 H   0  0  0  0  0  0  0  0  0  0  0  0
  148.2173  137.1953  152.8308 H   0  0  0  0  0  0  0  0  0  0  0  0
  146.8435  136.1485  151.8589 H   0  0  0  0  0  0  0  0  0  0  0  0
  144.2286  136.8613  151.3321 H   0  0  0  0  0  0  0  0  0  0  0  0
  144.3822  135.2135  153.8694 H   0  0  0  0  0  0  0  0  0  0  0  0
  143.4163  136.6630  153.5883 H   0  0  0  0  0  0  0  0  0  0  0  0
  142.3443  134.1732  153.2294 H   0  0  0  0  0  0  0  0  0  0  0  0
  141.9126  135.4871  152.1460 H   0  0  0  0  0  0  0  0  0  0  0  0
  143.4994  132.3578  152.3483 H   0  0  0  0  0  0  0  0  0  0  0  0
  142.2421  132.4294  151.1303 H   0  0  0  0  0  0  0  0  0  0  0  0
  144.1185  131.0180  150.3133 H   0  0  0  0  0  0  0  0  0  0  0  0
  143.9967  132.4605  149.3404 H   0  0  0  0  0  0  0  0  0  0  0  0
  146.1734  131.6404  151.2228 H   0  0  0  0  0  0  0  0  0  0  0  0
  146.2639  132.5541  149.7414 H   0  0  0  0  0  0  0  0  0  0  0  0
  145.7473  133.5114  152.5599 H   0  0  0  0  0  0  0  0  0  0  0  0
  146.8194  134.1711  151.3542 H   0  0  0  0  0  0  0  0  0  0  0  0
  144.8409  135.0078  150.0652 H   0  0  0  0  0  0  0  0  0  0  0  0
  146.8846  138.5546  156.1215 H   0  0  0  0  0  0  0  0  0  0  0  0
  142.8190  134.5176  150.5179 H   0  0  0  0  0  0  0  0  0  0  0  0
  1  2  1  0  0  0  0
  1 21  1  0  0  0  0
  1 22  1  0  0  0  0
  1 23  1  0  0  0  0
  2  3  1  0  0  0  0
  2 24  1  0  0  0  0
  2 25  1  0  0  0  0
  3 20  1  0  0  0  0
  3  4  1  0  0  0  0
  4  5  2  0  0  0  0
  4 26  1  0  0  0  0
  5  6  1  0  0  0  0
  5 19  1  0  0  0  0
  6  7  1  0  0  0  0
  6 27  1  0  0  0  0
  7  8  2  0  0  0  0
  7  9  1  0  0  0  0
  9 10  1  0  0  0  0
  9 28  1  0  0  0  0
 10 18  1  0  0  0  0
 10 11  1  0  0  0  0
 10 29  1  0  0  0  0
 11 12  1  0  0  0  0
 11 30  1  0  0  0  0
 11 31  1  0  0  0  0
 12 13  1  0  0  0  0
 12 32  1  0  0  0  0
 12 33  1  0  0  0  0
 13 18  1  0  0  0  0
 13 14  1  0  0  0  0
 13 44  1  0  0  0  0
 14 15  1  0  0  0  0
 14 34  1  0  0  0  0
 14 35  1  0  0  0  0
 15 16  1  0  0  0  0
 15 36  1  0  0  0  0
 15 37  1  0  0  0  0
 16 17  1  0  0  0  0
 16 38  1  0  0  0  0
 16 39  1  0  0  0  0
 17 18  1  0  0  0  0
 17 40  1  0  0  0  0
 17 41  1  0  0  0  0
 18 42  1  0  0  0  0
 19 20  2  0  0  0  0
 19 43  1  0  0  0  0
M  CHG  1  13   1
M  END
> <s_m_source_file>
AV-unprocessed.smi

> <i_m_source_file_index>
1758

> <i_lp_mmshare_version>
43012

> <i_f3d_flags>
0

> <s_epik_input>
W0NIM11bQ0gyXW4xW2NIXWMoW2NIXW4xKVtOSF1DKD1PKVtOSF1bQ0BIXShbQ0gyXVtDSDJdMilbQ0BASF0oTjIzKVtDSDJdW0NIMl1bQ0gyXVtDSDJdMw==

> <s_epik_cmdline>
J2VwaWtfcHl0aG9uJywgJy1waCcsICc3LjAnLCAnLXRuJywgJzgnLCAnLW1hJywgJzIwMCcsICctbWV0YWxfYmluZGluZycsICctaW1hZScsICc8aW5maWxlLm1hZT4nLCAnLW9tYWUnLCAnPG91dGZpbGUubWFlPic=

> <r_lp_tautomer_probability>
1

> <r_epik_Ionization_Penalty>
0.00111541

> <r_epik_Ionization_Penalty_Charging>
0.000974069

> <r_epik_Ionization_Penalty_Neutral>
0.000141346

> <r_epik_State_Penalty>
0.000633842

> <r_epik_Charging_Adjusted_Penalty>
0.00160791

> <i_epik_Tot_Q>
1

> <i_epik_Tot_abs_Q>
1

> <r_epik_Metal_State_Penalty>
-0

> <b_epik_Metal_Only>
0

> <s_lp_Force_Field>
OPLS_2005

> <r_lp_Energy>
44.8791

> <b_lp_Chiralities_Consistent>
1

> <s_lp_Variant>
AV-unprocessed.smi:1758-7

> <Gold.Version>
5.8.1

> <Gold.Id.Protein>
6NUR|6NUR_protein|mol2

> <Gold.PLP.Fitness>
44.3582

> <Gold.PLP.PLP>
-31.5637

> <Gold.PLP.part.hbond>
-3.0000

> <Gold.PLP.part.metal>
0.0000

> <Gold.PLP.part.buried>
-4.7033

> <Gold.PLP.part.nonpolar>
-25.8185

> <Gold.PLP.part.repulsive>
0.2081

> <Gold.PLP.ligand.clash>
0.0000

> <Gold.PLP.ligand.torsion>
0.4444

> <Gold.PLP.Chemscore.Hbond>
3.5605

> <Gold.PLP.Chemscore.CHOScore>
1.0000

> <Gold.PLP.Chemscore.Metal>
0.0000

> <Gold.Chemscore.Hbonds>
donor molecule, donor type, donor heavy atom, donor atom, acceptor molecule, acceptor atom, score
      L1  H     6    27       P1  7948  1.00
      L1  H     9    28       P1  7948  0.72
      L1  H    13    44       P1 10186  1.75
      L1  C     4    26       P1  7957  1.00

> <Gold.PLP.Chemscore.Internal.Correction>
0.0019

> <Gold.Rescore>
     Score         DG    S(hbond)    S(metal)    S(lipo)     H(rot)  DE(clash)    DE(int)     intcor
     17.53     -19.41       2.33        0.00      78.58       1.19       0.09       1.78       ----

> <Gold.Chemscore.Fitness>
17.5349

> <Gold.Chemscore.DG>
-19.4056

> <Gold.Chemscore.ZeroCoef>
-5.4800

> <Gold.Chemscore.Hbond>
2.3275

> <Gold.Chemscore.Metal>
0.0000

> <Gold.Chemscore.Lipo>
78.5807

> <Gold.Chemscore.Internal_Hbond>
0.0000

> <Gold.Chemscore.DEClash>
0.0876

> <Gold.Chemscore.DEInternal>
1.7832

> <Gold.Chemscore.Rot>
1.1884

> <Gold.Chemscore.Internal.Correction>
   9.000000E+99

> <Gold.Chemscore.Hbonds>
donor molecule, donor type, donor heavy atom, donor atom, acceptor molecule, acceptor atom, score
      L1  H     6    27       P1  7948  0.94
      L1  H     9    28       P1  7948  0.70
      L1  H    13    44       P1 10186  0.37

> <Gold.Chemscore.Hbond.Weighted>
-7.7740

> <Gold.Chemscore.Metal.Weighted>
-0.0000

> <Gold.Chemscore.Lipo.Weighted>
-9.1939

> <Gold.Chemscore.Internal_Hbond.Weighted>
0.0000

> <Gold.Chemscore.DEClash.Weighted>
0.0876

> <Gold.Chemscore.DEInternal.Weighted>
1.7832

> <Gold.Chemscore.Rot.Weighted>
3.0423

> <Gold.Chemscore.Internal.Correction.Weighted>
   9.000000E+99

> <Gold.Protein.RotatedTorsions>
[ 6907 6896 6895 6894 ] final  -22.98 input  -60.11 | X-H torsion
[ 7974 7965 7964 7962 ] final  -21.73 input  175.53 | X-H torsion
[ 8008 7997 7996 7995 ] final -154.39 input   59.86 | X-H torsion
[ 10167 10162 10161 10158 ] final   35.96 input  -65.29 | X-H torsion
[ 10718 10713 10712 10709 ] final -144.86 input   66.30 | X-H torsion
[ 10763 10752 10751 10750 ] final -151.68 input  -60.55 | X-H torsion
[ 11005 11000 10999 10996 ] final  -99.47 input  -57.11 | X-H torsion

> <Gold.Protein.ActiveResidues>
 VAL166  LYS551  ARG553  GLY616  TRP617  ASP618  TYR619  PRO620  LYS621  CYS622 
 ASP623  PHE694  ASN695  SER759  ASP760  ASP761  ALA762  ILE779  LEU786  VAL792 
 PHE793  MET794  SER795  GLU796  ALA797  LYS798  CYS799  TRP800  GLU811  SER814 

> <Gold.Protein.RotatedAtoms>
  151.2106  135.0480  159.8909 H   0  0  0  0  0  0  0  0  0  0  0  0  # atno 6907 bound_to 6896
  152.5425  134.0749  159.8220 H   0  0  0  0  0  0  0  0  0  0  0  0  # atno 6908 bound_to 6896
  151.0901  133.5274  159.2647 H   0  0  0  0  0  0  0  0  0  0  0  0  # atno 6909 bound_to 6896
  146.1716  140.4381  142.8530 H   0  0  0  0  0  0  0  0  0  0  0  0  # atno 7974 bound_to 7965
  155.6856  140.0749  157.2468 H   0  0  0  0  0  0  0  0  0  0  0  0  # atno 8008 bound_to 7997
  154.4098  140.1674  156.2082 H   0  0  0  0  0  0  0  0  0  0  0  0  # atno 8009 bound_to 7997
  155.9497  140.3378  155.6400 H   0  0  0  0  0  0  0  0  0  0  0  0  # atno 8010 bound_to 7997
  140.4173  144.1509  150.6144 H   0  0  0  0  0  0  0  0  0  0  0  0  # atno 10167 bound_to 10162
  156.3753  130.7809  151.1995 H   0  0  0  0  0  0  0  0  0  0  0  0  # atno 10718 bound_to 10713
  154.8043  135.3254  154.7472 H   0  0  0  0  0  0  0  0  0  0  0  0  # atno 10763 bound_to 10752
  153.8134  135.6894  153.4842 H   0  0  0  0  0  0  0  0  0  0  0  0  # atno 10764 bound_to 10752
  153.1778  135.4598  154.9932 H   0  0  0  0  0  0  0  0  0  0  0  0  # atno 10765 bound_to 10752
  141.1307  133.8324  157.0976 H   0  0  0  0  0  0  0  0  0  0  0  0  # atno 11005 bound_to 11000
  144.8172  140.6488  143.6376 LP  0  0  0  0  0  0  0  0  0  0  0  0  # atno 17320 bound_to 7965
  145.4324  139.1547  143.4015 LP  0  0  0  0  0  0  0  0  0  0  0  0  # atno 17321 bound_to 7965
  140.4573  143.2463  151.9268 LP  0  0  0  0  0  0  0  0  0  0  0  0  # atno 17342 bound_to 10162
  139.4782  144.5503  151.8396 LP  0  0  0  0  0  0  0  0  0  0  0  0  # atno 17343 bound_to 10162
  157.7487  131.0360  150.4389 LP  0  0  0  0  0  0  0  0  0  0  0  0  # atno 17370 bound_to 10713
  156.4624  130.4035  149.6568 LP  0  0  0  0  0  0  0  0  0  0  0  0  # atno 17371 bound_to 10713
  140.0353  134.9881  157.0860 LP  0  0  0  0  0  0  0  0  0  0  0  0  # atno 17394 bound_to 11000
  140.4220  134.1871  155.7165 LP  0  0  0  0  0  0  0  0  0  0  0  0  # atno 17395 bound_to 11000

$$$$
