AV-unprocessed.smi:2020|AV-procd|sdf|8174|dock5
  -GOLD-   2272010423D 1   1.00000     0.00000
 Structure written by MMmdl.
 40 41  0  0  0  0  0  0  0  0  1 V2000
  150.5627  142.1162  155.7022 C   0  0  0  0  0  0  0  0  0  0  0  0
  149.8773  140.9775  155.0285 C   0  0  0  0  0  0  0  0  0  0  0  0
  148.5893  140.9989  154.6772 N   0  0  0  0  0  0  0  0  0  0  0  0
  148.1808  139.8153  154.0543 C   0  0  0  0  0  0  0  0  0  0  0  0
  146.7644  139.6654  153.5883 C   0  0  0  0  0  0  0  0  0  0  0  0
  146.6808  139.2063  152.1228 C   0  0  0  0  0  0  0  0  0  0  0  0
  146.9341  137.7763  151.9900 N   0  0  0  0  0  0  0  0  0  0  0  0
  145.9858  136.8346  151.8876 C   0  0  0  0  0  0  0  0  0  0  0  0
  144.7771  137.0690  151.8936 O   0  0  0  0  0  0  0  0  0  0  0  0
  146.5138  135.6070  151.7824 N   0  0  0  0  0  0  0  0  0  0  0  0
  145.7496  134.3694  151.6586 C   0  0  2  0  0  0  0  0  0  0  0  0
  146.6834  133.1803  151.3542 C   0  0  0  0  0  0  0  0  0  0  0  0
  145.8901  131.8766  151.1584 C   0  0  0  0  0  0  0  0  0  0  0  0
  144.7967  132.0143  150.0824 C   0  0  2  0  0  0  0  0  0  0  0  0
  145.3874  132.1257  148.8026 O   0  0  0  0  0  0  0  0  0  0  0  0
  143.8873  133.2284  150.3505 C   0  0  0  0  0  0  0  0  0  0  0  0
  144.6900  134.5257  150.5525 C   0  0  0  0  0  0  0  0  0  0  0  0
  149.1876  138.8896  153.9392 C   0  0  0  0  0  0  0  0  0  0  0  0
  150.6873  139.4733  154.6073 S   0  0  0  0  0  0  0  0  0  0  0  0
  149.8883  142.5987  156.4104 H   0  0  0  0  0  0  0  0  0  0  0  0
  150.8790  142.8503  154.9611 H   0  0  0  0  0  0  0  0  0  0  0  0
  151.4407  141.7623  156.2428 H   0  0  0  0  0  0  0  0  0  0  0  0
  146.2399  138.9495  154.2223 H   0  0  0  0  0  0  0  0  0  0  0  0
  146.2367  140.6123  153.7089 H   0  0  0  0  0  0  0  0  0  0  0  0
  145.7066  139.4538  151.6974 H   0  0  0  0  0  0  0  0  0  0  0  0
  147.4234  139.7364  151.5258 H   0  0  0  0  0  0  0  0  0  0  0  0
  147.9003  137.4841  151.9752 H   0  0  0  0  0  0  0  0  0  0  0  0
  147.5195  135.5206  151.7877 H   0  0  0  0  0  0  0  0  0  0  0  0
  145.2307  134.1797  152.6002 H   0  0  0  0  0  0  0  0  0  0  0  0
  147.2682  133.3900  150.4574 H   0  0  0  0  0  0  0  0  0  0  0  0
  147.4019  133.0482  152.1639 H   0  0  0  0  0  0  0  0  0  0  0  0
  146.5673  131.0591  150.9086 H   0  0  0  0  0  0  0  0  0  0  0  0
  145.4234  131.6040  152.1058 H   0  0  0  0  0  0  0  0  0  0  0  0
  144.1885  131.1094  150.0741 H   0  0  0  0  0  0  0  0  0  0  0  0
  145.5380  133.0405  148.6195 H   0  0  0  0  0  0  0  0  0  0  0  0
  143.1724  133.3525  149.5362 H   0  0  0  0  0  0  0  0  0  0  0  0
  143.2957  133.0374  151.2469 H   0  0  0  0  0  0  0  0  0  0  0  0
  144.0086  135.3403  150.8012 H   0  0  0  0  0  0  0  0  0  0  0  0
  145.1719  134.8043  149.6142 H   0  0  0  0  0  0  0  0  0  0  0  0
  149.1388  137.9034  153.5017 H   0  0  0  0  0  0  0  0  0  0  0  0
  1  2  1  0  0  0  0
  1 20  1  0  0  0  0
  1 21  1  0  0  0  0
  1 22  1  0  0  0  0
  2 19  1  0  0  0  0
  2  3  2  0  0  0  0
  3  4  1  0  0  0  0
  4  5  1  0  0  0  0
  4 18  2  0  0  0  0
  5  6  1  0  0  0  0
  5 23  1  0  0  0  0
  5 24  1  0  0  0  0
  6  7  1  0  0  0  0
  6 25  1  0  0  0  0
  6 26  1  0  0  0  0
  7  8  1  0  0  0  0
  7 27  1  0  0  0  0
  8  9  2  0  0  0  0
  8 10  1  0  0  0  0
 10 11  1  0  0  0  0
 10 28  1  0  0  0  0
 11 17  1  0  0  0  0
 11 12  1  0  0  0  0
 11 29  1  0  0  0  0
 12 13  1  0  0  0  0
 12 30  1  0  0  0  0
 12 31  1  0  0  0  0
 13 14  1  0  0  0  0
 13 32  1  0  0  0  0
 13 33  1  0  0  0  0
 14 15  1  0  0  0  0
 14 16  1  0  0  0  0
 14 34  1  0  0  0  0
 15 35  1  0  0  0  0
 16 17  1  0  0  0  0
 16 36  1  0  0  0  0
 16 37  1  0  0  0  0
 17 38  1  0  0  0  0
 17 39  1  0  0  0  0
 18 19  1  0  0  0  0
 18 40  1  0  0  0  0
M  END
> <s_m_source_file>
AV-unprocessed.smi

> <i_m_source_file_index>
2020

> <i_lp_mmshare_version>
43012

> <i_f3d_flags>
0

> <s_epik_input>
W0NIM11jMW5jKFtjSF1zMSlbQ0gyXVtDSDJdW05IXUMoPU8pW05IXVtDQEBIXTJbQ0gyXVtDSDJdW0NAQEhdKFtPSF0pW0NIMl1bQ0gyXTI=

> <s_epik_cmdline>
J2VwaWtfcHl0aG9uJywgJy1waCcsICc3LjAnLCAnLXRuJywgJzgnLCAnLW1hJywgJzIwMCcsICctbWV0YWxfYmluZGluZycsICctaW1hZScsICc8aW5maWxlLm1hZT4nLCAnLW9tYWUnLCAnPG91dGZpbGUubWFlPic=

> <r_epik_Ionization_Penalty>
0.00202099

> <r_epik_Ionization_Penalty_Charging>
0

> <r_epik_Ionization_Penalty_Neutral>
0.00202099

> <r_epik_State_Penalty>
0.00133629

> <r_epik_Charging_Adjusted_Penalty>
0.00133629

> <i_epik_Tot_Q>
0

> <i_epik_Tot_abs_Q>
0

> <r_epik_Metal_State_Penalty>
-0

> <b_epik_Metal_Only>
0

> <s_lp_Force_Field>
OPLS_2005

> <r_lp_Energy>
2.55027

> <b_lp_Chiralities_Consistent>
1

> <s_lp_Variant>
AV-unprocessed.smi:2020-2

> <Gold.Version>
5.8.1

> <Gold.Id.Protein>
6NUR|6NUR_protein|mol2

> <Gold.PLP.Fitness>
46.7258

> <Gold.PLP.PLP>
-35.5774

> <Gold.PLP.part.hbond>
-3.9656

> <Gold.PLP.part.metal>
0.0000

> <Gold.PLP.part.buried>
-2.2569

> <Gold.PLP.part.nonpolar>
-30.1791

> <Gold.PLP.part.repulsive>
1.0731

> <Gold.PLP.ligand.clash>
0.0000

> <Gold.PLP.ligand.torsion>
0.3982

> <Gold.PLP.Chemscore.Hbond>
2.9760

> <Gold.PLP.Chemscore.CHOScore>
1.0000

> <Gold.PLP.Chemscore.Metal>
0.0000

> <Gold.Chemscore.Hbonds>
donor molecule, donor type, donor heavy atom, donor atom, acceptor molecule, acceptor atom, score
      L1  H     7    27       P1  7948  0.94
      L1  H    10    28       P1  7948  0.99
      L1  H    15    35       P1  7921  0.51
      L1  C    18    40       P1  7948  1.00

> <Gold.PLP.Chemscore.Internal.Correction>
0.0168

> <Gold.Rescore>
     Score         DG    S(hbond)    S(metal)    S(lipo)     H(rot)  DE(clash)    DE(int)     intcor
     16.57     -17.31       1.89        0.00      93.18       2.10       0.42       0.33       ----

> <Gold.Chemscore.Fitness>
16.5664

> <Gold.Chemscore.DG>
-17.3133

> <Gold.Chemscore.ZeroCoef>
-5.4800

> <Gold.Chemscore.Hbond>
1.8883

> <Gold.Chemscore.Metal>
0.0000

> <Gold.Chemscore.Lipo>
93.1770

> <Gold.Chemscore.Internal_Hbond>
0.0000

> <Gold.Chemscore.DEClash>
0.4162

> <Gold.Chemscore.DEInternal>
0.3307

> <Gold.Chemscore.Rot>
2.0997

> <Gold.Chemscore.Internal.Correction>
   9.000000E+99

> <Gold.Chemscore.Hbonds>
donor molecule, donor type, donor heavy atom, donor atom, acceptor molecule, acceptor atom, score
      L1  H     7    27       P1  7948  0.90
      L1  H    10    28       P1  7948  0.90
      L1  H    15    35       P1  7921  0.03

> <Gold.Chemscore.Hbond.Weighted>
-6.3068

> <Gold.Chemscore.Metal.Weighted>
-0.0000

> <Gold.Chemscore.Lipo.Weighted>
-10.9017

> <Gold.Chemscore.Internal_Hbond.Weighted>
0.0000

> <Gold.Chemscore.DEClash.Weighted>
0.4162

> <Gold.Chemscore.DEInternal.Weighted>
0.3307

> <Gold.Chemscore.Rot.Weighted>
5.3752

> <Gold.Chemscore.Internal.Correction.Weighted>
   9.000000E+99

> <Gold.Protein.RotatedTorsions>
[ 6907 6896 6895 6894 ] final   46.25 input  -60.11 | X-H torsion
[ 7974 7965 7964 7962 ] final   48.59 input  175.53 | X-H torsion
[ 8008 7997 7996 7995 ] final  -15.28 input   59.86 | X-H torsion
[ 10167 10162 10161 10158 ] final   59.80 input  -65.29 | X-H torsion
[ 10718 10713 10712 10709 ] final   23.22 input   66.30 | X-H torsion
[ 10763 10752 10751 10750 ] final  -75.95 input  -60.55 | X-H torsion
[ 11005 11000 10999 10996 ] final  106.36 input  -57.11 | X-H torsion

> <Gold.Protein.ActiveResidues>
 VAL166  LYS551  ARG553  GLY616  TRP617  ASP618  TYR619  PRO620  LYS621  CYS622 
 ASP623  PHE694  ASN695  SER759  ASP760  ASP761  ALA762  ILE779  LEU786  VAL792 
 PHE793  MET794  SER795  GLU796  ALA797  LYS798  CYS799  TRP800  GLU811  SER814 

> <Gold.Protein.RotatedAtoms>
  152.2542  134.8101  160.0440 H   0  0  0  0  0  0  0  0  0  0  0  0  # atno 6907 bound_to 6896
  151.8771  133.3482  159.3762 H   0  0  0  0  0  0  0  0  0  0  0  0  # atno 6908 bound_to 6896
  150.7094  134.4982  159.5593 H   0  0  0  0  0  0  0  0  0  0  0  0  # atno 6909 bound_to 6896
  146.0190  139.4629  142.9909 H   0  0  0  0  0  0  0  0  0  0  0  0  # atno 7974 bound_to 7965
  154.5143  140.2200  155.9096 H   0  0  0  0  0  0  0  0  0  0  0  0  # atno 8008 bound_to 7997
  156.1589  140.3146  155.8739 H   0  0  0  0  0  0  0  0  0  0  0  0  # atno 8009 bound_to 7997
  155.3791  140.0471  157.3034 H   0  0  0  0  0  0  0  0  0  0  0  0  # atno 8010 bound_to 7997
  140.1725  144.4263  150.6654 H   0  0  0  0  0  0  0  0  0  0  0  0  # atno 10167 bound_to 10162
  157.1631  130.6726  149.6051 H   0  0  0  0  0  0  0  0  0  0  0  0  # atno 10718 bound_to 10713
  154.4933  135.5814  153.6475 H   0  0  0  0  0  0  0  0  0  0  0  0  # atno 10763 bound_to 10752
  152.9866  135.6118  154.3097 H   0  0  0  0  0  0  0  0  0  0  0  0  # atno 10764 bound_to 10752
  154.2998  135.2847  155.2595 H   0  0  0  0  0  0  0  0  0  0  0  0  # atno 10765 bound_to 10752
  139.8813  134.9366  156.5655 H   0  0  0  0  0  0  0  0  0  0  0  0  # atno 11005 bound_to 11000
  145.7224  141.0070  143.1395 LP  0  0  0  0  0  0  0  0  0  0  0  0  # atno 17320 bound_to 7965
  144.6982  139.8886  143.7451 LP  0  0  0  0  0  0  0  0  0  0  0  0  # atno 17321 bound_to 7965
  140.6573  143.2241  151.5939 LP  0  0  0  0  0  0  0  0  0  0  0  0  # atno 17342 bound_to 10162
  139.5332  144.2857  152.1193 LP  0  0  0  0  0  0  0  0  0  0  0  0  # atno 17343 bound_to 10162
  155.9750  130.4705  150.6431 LP  0  0  0  0  0  0  0  0  0  0  0  0  # atno 17370 bound_to 10713
  157.4114  131.0824  151.1217 LP  0  0  0  0  0  0  0  0  0  0  0  0  # atno 17371 bound_to 10713
  140.8138  133.8408  155.8833 LP  0  0  0  0  0  0  0  0  0  0  0  0  # atno 17394 bound_to 11000
  140.9482  134.1813  157.4747 LP  0  0  0  0  0  0  0  0  0  0  0  0  # atno 17395 bound_to 11000

$$$$
