AV-unprocessed.smi:990|AV-procd|sdf|4326|dock5
  -GOLD-   22720 2233D 1   1.00000     0.00000
 Structure written by MMmdl.
 44 45  0  0  0  0  0  0  0  0  1 V2000
  146.6652  132.2493  152.4699 C   0  0  0  0  0  0  0  0  0  0  0  0
  146.8004  133.0204  153.5593 C   0  0  0  0  0  0  0  0  0  0  0  0
  148.0988  133.2141  154.3178 C   0  0  0  0  0  0  0  0  0  0  0  0
  148.6761  134.5283  154.0612 N   0  0  0  0  0  0  0  0  0  0  0  0
  149.0320  135.4140  155.0030 C   0  0  0  0  0  0  0  0  0  0  0  0
  148.8937  135.2128  156.2090 O   0  0  0  0  0  0  0  0  0  0  0  0
  149.5374  136.5304  154.4498 N   0  0  0  0  0  0  0  0  0  0  0  0
  150.0460  137.6956  155.0870 C   0  0  0  0  0  0  0  0  0  0  0  0
  150.1320  137.6892  156.4929 C   0  0  0  0  0  0  0  0  0  0  0  0
  150.6157  138.8301  157.1603 C   0  0  0  0  0  0  0  0  0  0  0  0
  150.9987  139.9605  156.4022 C   0  0  0  0  0  0  0  0  0  0  0  0
  151.4844  141.1143  157.0529 N   0  0  0  0  0  0  0  0  0  0  0  0
  152.0009  140.8914  158.4012 C   0  0  0  0  0  0  0  0  0  0  0  0
  152.8281  142.0973  158.8845 C   0  0  0  0  0  0  0  0  0  0  0  0
  152.0748  143.3586  158.7454 N   0  0  0  0  0  0  0  0  0  0  0  0
  151.2822  144.0573  160.1270 S   0  0  0  0  0  0  0  0  0  0  0  0
  151.9038  145.7878  160.1784 C   0  0  0  0  0  0  0  0  0  0  0  0
  149.8394  144.0961  159.8437 O   0  0  0  0  0  0  0  0  0  0  0  0
  151.7717  143.3584  161.3251 O   0  0  0  0  0  0  0  0  0  0  0  0
  151.5215  143.5657  157.3934 C   0  0  0  0  0  0  0  0  0  0  0  0
  150.7054  142.3454  156.9287 C   0  0  0  0  0  0  0  0  0  0  0  0
  150.9108  139.9706  155.0498 N   0  0  0  0  0  0  0  0  0  0  0  0
  150.4453  138.8748  154.4132 C   0  0  0  0  0  0  0  0  0  0  0  0
  147.5021  131.7022  152.0613 H   0  0  0  0  0  0  0  0  0  0  0  0
  145.7112  132.1557  151.9717 H   0  0  0  0  0  0  0  0  0  0  0  0
  145.9399  133.5554  153.9350 H   0  0  0  0  0  0  0  0  0  0  0  0
  147.9244  133.1117  155.3895 H   0  0  0  0  0  0  0  0  0  0  0  0
  148.8006  132.4275  154.0361 H   0  0  0  0  0  0  0  0  0  0  0  0
  148.8213  134.7782  153.0940 H   0  0  0  0  0  0  0  0  0  0  0  0
  149.5263  136.5640  153.4410 H   0  0  0  0  0  0  0  0  0  0  0  0
  149.8359  136.8178  157.0585 H   0  0  0  0  0  0  0  0  0  0  0  0
  150.6994  138.8228  158.2370 H   0  0  0  0  0  0  0  0  0  0  0  0
  151.1615  140.7096  159.0713 H   0  0  0  0  0  0  0  0  0  0  0  0
  152.6257  140.0001  158.4440 H   0  0  0  0  0  0  0  0  0  0  0  0
  153.1434  141.9539  159.9176 H   0  0  0  0  0  0  0  0  0  0  0  0
  153.7402  142.1737  158.2914 H   0  0  0  0  0  0  0  0  0  0  0  0
  151.4504  146.3027  161.0250 H   0  0  0  0  0  0  0  0  0  0  0  0
  151.6311  146.3082  159.2620 H   0  0  0  0  0  0  0  0  0  0  0  0
  152.9853  145.7907  160.3023 H   0  0  0  0  0  0  0  0  0  0  0  0
  150.9096  144.4668  157.3652 H   0  0  0  0  0  0  0  0  0  0  0  0
  152.3504  143.7330  156.7045 H   0  0  0  0  0  0  0  0  0  0  0  0
  150.4098  142.4940  155.8893 H   0  0  0  0  0  0  0  0  0  0  0  0
  149.7879  142.2528  157.5090 H   0  0  0  0  0  0  0  0  0  0  0  0
  150.3847  138.9768  153.3418 H   0  0  0  0  0  0  0  0  0  0  0  0
  1  2  2  0  0  0  0
  1 24  1  0  0  0  0
  1 25  1  0  0  0  0
  2  3  1  0  0  0  0
  2 26  1  0  0  0  0
  3  4  1  0  0  0  0
  3 27  1  0  0  0  0
  3 28  1  0  0  0  0
  4  5  1  0  0  0  0
  4 29  1  0  0  0  0
  5  6  2  0  0  0  0
  5  7  1  0  0  0  0
  7  8  1  0  0  0  0
  7 30  1  0  0  0  0
  8 23  1  0  0  0  0
  8  9  2  0  0  0  0
  9 10  1  0  0  0  0
  9 31  1  0  0  0  0
 10 11  2  0  0  0  0
 10 32  1  0  0  0  0
 11 12  1  0  0  0  0
 11 22  1  0  0  0  0
 12 21  1  0  0  0  0
 12 13  1  0  0  0  0
 13 14  1  0  0  0  0
 13 33  1  0  0  0  0
 13 34  1  0  0  0  0
 14 15  1  0  0  0  0
 14 35  1  0  0  0  0
 14 36  1  0  0  0  0
 15 16  1  0  0  0  0
 15 20  1  0  0  0  0
 16 17  1  0  0  0  0
 16 18  2  0  0  0  0
 16 19  2  0  0  0  0
 17 37  1  0  0  0  0
 17 38  1  0  0  0  0
 17 39  1  0  0  0  0
 20 21  1  0  0  0  0
 20 40  1  0  0  0  0
 20 41  1  0  0  0  0
 21 42  1  0  0  0  0
 21 43  1  0  0  0  0
 22 23  2  0  0  0  0
 23 44  1  0  0  0  0
M  END
> <s_m_source_file>
AV-unprocessed.smi

> <i_m_source_file_index>
990

> <i_lp_mmshare_version>
43012

> <i_f3d_flags>
0

> <s_epik_input>
W0NIMl09W0NIXVtDSDJdW05IXUMoPU8pW05IXWMxW2NIXVtjSF1jKG5bY0hdMSlOMltDSDJdW0NIMl1OKFMoPU8pKD1PKVtDSDNdKVtDSDJdW0NIMl0y

> <s_epik_cmdline>
J2VwaWtfcHl0aG9uJywgJy1waCcsICc3LjAnLCAnLXRuJywgJzgnLCAnLW1hJywgJzIwMCcsICctbWV0YWxfYmluZGluZycsICctaW1hZScsICc8aW5maWxlLm1hZT4nLCAnLW9tYWUnLCAnPG91dGZpbGUubWFlPic=

> <r_lp_tautomer_probability>
1

> <r_epik_Ionization_Penalty>
0.151655

> <r_epik_Ionization_Penalty_Charging>
0

> <r_epik_Ionization_Penalty_Neutral>
0.151655

> <r_epik_State_Penalty>
0.140906

> <r_epik_Charging_Adjusted_Penalty>
0.140906

> <i_epik_Tot_Q>
0

> <i_epik_Tot_abs_Q>
0

> <r_epik_Metal_State_Penalty>
0.111889

> <b_epik_Metal_Only>
0

> <s_lp_Force_Field>
OPLS_2005

> <r_lp_Energy>
17.3553

> <b_lp_Chiralities_Consistent>
1

> <s_lp_Variant>
AV-unprocessed.smi:990-1

> <Gold.Version>
5.8.1

> <Gold.Id.Protein>
6NUR|6NUR_protein|mol2

> <Gold.PLP.Fitness>
48.5701

> <Gold.PLP.PLP>
-37.8140

> <Gold.PLP.part.hbond>
-3.8360

> <Gold.PLP.part.metal>
0.0000

> <Gold.PLP.part.buried>
-6.5483

> <Gold.PLP.part.nonpolar>
-28.1150

> <Gold.PLP.part.repulsive>
0.4114

> <Gold.PLP.ligand.clash>
0.0000

> <Gold.PLP.ligand.torsion>
1.4801

> <Gold.PLP.Chemscore.Hbond>
2.7816

> <Gold.PLP.Chemscore.CHOScore>
1.0000

> <Gold.PLP.Chemscore.Metal>
0.0000

> <Gold.Chemscore.Hbonds>
donor molecule, donor type, donor heavy atom, donor atom, acceptor molecule, acceptor atom, score
      L1  H     4    29       P1  7948  0.84
      L1  H     7    30       P1  7948  1.00
      P1  H  7989  7998       L1    22  0.90
      L1  C    23    44       P1  7957  0.99

> <Gold.PLP.Chemscore.Internal.Correction>
2.3714

> <Gold.Rescore>
     Score         DG    S(hbond)    S(metal)    S(lipo)     H(rot)  DE(clash)    DE(int)     intcor
     14.81     -17.69       2.03        0.00      77.60       1.43       0.10       2.78       ----

> <Gold.Chemscore.Fitness>
14.8080

> <Gold.Chemscore.DG>
-17.6850

> <Gold.Chemscore.ZeroCoef>
-5.4800

> <Gold.Chemscore.Hbond>
2.0295

> <Gold.Chemscore.Metal>
0.0000

> <Gold.Chemscore.Lipo>
77.5982

> <Gold.Chemscore.Internal_Hbond>
0.0000

> <Gold.Chemscore.DEClash>
0.0988

> <Gold.Chemscore.DEInternal>
2.7783

> <Gold.Chemscore.Rot>
1.4268

> <Gold.Chemscore.Internal.Correction>
   9.000000E+99

> <Gold.Chemscore.Hbonds>
donor molecule, donor type, donor heavy atom, donor atom, acceptor molecule, acceptor atom, score
      L1  H     4    29       P1  7948  0.16
      L1  H     7    30       P1  7948  0.69
      P1  H  7989  7998       L1    22  0.18

> <Gold.Chemscore.Hbond.Weighted>
-6.7786

> <Gold.Chemscore.Metal.Weighted>
-0.0000

> <Gold.Chemscore.Lipo.Weighted>
-9.0790

> <Gold.Chemscore.Internal_Hbond.Weighted>
0.0000

> <Gold.Chemscore.DEClash.Weighted>
0.0988

> <Gold.Chemscore.DEInternal.Weighted>
2.7783

> <Gold.Chemscore.Rot.Weighted>
3.6526

> <Gold.Chemscore.Internal.Correction.Weighted>
   9.000000E+99

> <Gold.Protein.RotatedTorsions>
[ 6907 6896 6895 6894 ] final   58.92 input  -60.11 | X-H torsion
[ 7974 7965 7964 7962 ] final  114.26 input  175.53 | X-H torsion
[ 8008 7997 7996 7995 ] final   16.59 input   59.86 | X-H torsion
[ 10167 10162 10161 10158 ] final   44.75 input  -65.29 | X-H torsion
[ 10718 10713 10712 10709 ] final   99.97 input   66.30 | X-H torsion
[ 10763 10752 10751 10750 ] final  134.69 input  -60.55 | X-H torsion
[ 11005 11000 10999 10996 ] final   69.45 input  -57.11 | X-H torsion

> <Gold.Protein.ActiveResidues>
 VAL166  LYS551  ARG553  GLY616  TRP617  ASP618  TYR619  PRO620  LYS621  CYS622 
 ASP623  PHE694  ASN695  SER759  ASP760  ASP761  ALA762  ILE779  LEU786  VAL792 
 PHE793  MET794  SER795  GLU796  ALA797  LYS798  CYS799  TRP800  GLU811  SER814 

> <Gold.Protein.RotatedAtoms>
  152.3868  134.6504  160.0122 H   0  0  0  0  0  0  0  0  0  0  0  0  # atno 6907 bound_to 6896
  151.6750  133.3307  159.3214 H   0  0  0  0  0  0  0  0  0  0  0  0  # atno 6908 bound_to 6896
  150.7793  134.6766  159.6465 H   0  0  0  0  0  0  0  0  0  0  0  0  # atno 6909 bound_to 6896
  145.2066  139.2926  143.4290 H   0  0  0  0  0  0  0  0  0  0  0  0  # atno 7974 bound_to 7965
  154.8791  140.2970  155.5435 H   0  0  0  0  0  0  0  0  0  0  0  0  # atno 8008 bound_to 7997
  156.3022  140.2445  156.3725 H   0  0  0  0  0  0  0  0  0  0  0  0  # atno 8009 bound_to 7997
  154.8736  140.0400  157.1728 H   0  0  0  0  0  0  0  0  0  0  0  0  # atno 8010 bound_to 7997
  140.3311  144.2587  150.6168 H   0  0  0  0  0  0  0  0  0  0  0  0  # atno 10167 bound_to 10162
  157.6864  131.0685  150.5029 H   0  0  0  0  0  0  0  0  0  0  0  0  # atno 10718 bound_to 10713
  153.8277  135.3108  155.3416 H   0  0  0  0  0  0  0  0  0  0  0  0  # atno 10763 bound_to 10752
  154.7986  135.4740  154.0224 H   0  0  0  0  0  0  0  0  0  0  0  0  # atno 10764 bound_to 10752
  153.1654  135.6868  153.8774 H   0  0  0  0  0  0  0  0  0  0  0  0  # atno 10765 bound_to 10752
  139.9653  134.6991  156.0558 H   0  0  0  0  0  0  0  0  0  0  0  0  # atno 11005 bound_to 11000
  146.3406  140.2328  142.8593 LP  0  0  0  0  0  0  0  0  0  0  0  0  # atno 17320 bound_to 7965
  144.9896  140.8535  143.5347 LP  0  0  0  0  0  0  0  0  0  0  0  0  # atno 17321 bound_to 7965
  140.5396  143.2226  151.8107 LP  0  0  0  0  0  0  0  0  0  0  0  0  # atno 17342 bound_to 10162
  139.4856  144.4617  151.9532 LP  0  0  0  0  0  0  0  0  0  0  0  0  # atno 17343 bound_to 10162
  156.5350  130.4194  149.6182 LP  0  0  0  0  0  0  0  0  0  0  0  0  # atno 17370 bound_to 10713
  156.3036  130.7190  151.2067 LP  0  0  0  0  0  0  0  0  0  0  0  0  # atno 17371 bound_to 10713
  141.1332  133.6581  156.3523 LP  0  0  0  0  0  0  0  0  0  0  0  0  # atno 17394 bound_to 11000
  140.5410  134.6120  157.5380 LP  0  0  0  0  0  0  0  0  0  0  0  0  # atno 17395 bound_to 11000

$$$$
