AV-unprocessed.smi:193|AV-procd|sdf|1502|dock1
  -GOLD-   2262019333D 1   1.00000     0.00000
 Structure written by MMmdl.
 62 66  0  0  0  0  0  0  0  0  2 V2000
  145.9750  138.9946  152.4178 C   0  0  0  0  0  0  0  0  0  0  0  0
  146.6871  138.0058  153.3534 C   0  0  2  0  0  0  0  0  0  0  0  0
  148.1910  138.3284  153.4456 C   0  0  0  0  0  0  0  0  0  0  0  0
  148.7521  137.9355  154.7369 N   0  0  0  0  0  0  0  0  0  0  0  0
  149.8448  138.6542  155.0687 C   0  0  0  0  0  0  0  0  0  0  0  0
  151.0567  138.1038  154.8145 N   0  0  0  0  0  0  0  0  0  0  0  0
  152.1703  138.7739  155.1285 C   0  0  0  0  0  0  0  0  0  0  0  0
  152.2896  139.9806  155.6880 N   0  0  0  0  0  0  0  0  0  0  0  0
  151.0689  140.5346  155.9419 C   0  0  0  0  0  0  0  0  0  0  0  0
  149.8045  139.9440  155.6672 C   0  0  0  0  0  0  0  0  0  0  0  0
  148.7822  140.7983  156.0620 N   0  0  0  0  0  0  0  0  0  0  0  0
  149.4087  141.8389  156.5411 C   0  0  0  0  0  0  0  0  0  0  0  0
  150.7833  141.7671  156.5025 N   0  0  0  0  0  0  0  0  0  0  0  0
  151.7218  142.7794  156.9635 C   0  0  0  0  0  0  0  0  0  0  0  0
  151.4856  143.2344  158.4251 C   0  0  0  0  0  0  0  0  0  0  0  0
  150.9042  142.1475  159.1247 O   0  0  0  0  0  0  0  0  0  0  0  0
  152.8243  143.5891  159.1037 C   0  0  0  0  0  0  0  0  0  0  0  0
  152.6224  144.2072  160.4990 C   0  0  0  0  0  0  0  0  0  0  0  0
  151.7709  145.3428  160.4099 O   0  0  0  0  0  0  0  0  0  0  0  0
  150.4649  145.0162  159.9513 C   0  0  0  0  0  0  0  0  0  0  0  0
  150.5316  144.4451  158.5237 C   0  0  0  0  0  0  0  0  0  0  0  0
  148.9067  136.5192  155.0549 C   0  0  0  0  0  0  0  0  0  0  0  0
  147.6070  135.7116  154.9193 C   0  0  0  0  0  0  0  0  0  0  0  0
  147.2694  135.5099  153.4897 N   0  3  1  0  0  0  0  0  0  0  0  0
  146.7577  134.1459  153.2179 C   0  0  1  0  0  0  0  0  0  0  0  0
  147.1240  133.6124  151.8510 C   0  0  0  0  0  0  0  0  0  0  0  0
  147.8240  133.0738  153.0799 C   0  0  1  0  0  0  0  0  0  0  0  0
  149.3040  133.3359  153.2924 C   0  0  0  0  0  0  0  0  0  0  0  0
  146.3892  136.5555  152.9045 C   0  0  0  0  0  0  0  0  0  0  0  0
  146.3665  138.9337  151.4019 H   0  0  0  0  0  0  0  0  0  0  0  0
  146.1012  140.0220  152.7611 H   0  0  0  0  0  0  0  0  0  0  0  0
  144.9038  138.7949  152.3753 H   0  0  0  0  0  0  0  0  0  0  0  0
  146.2504  138.1595  154.3416 H   0  0  0  0  0  0  0  0  0  0  0  0
  148.7386  137.8529  152.6307 H   0  0  0  0  0  0  0  0  0  0  0  0
  148.3319  139.4042  153.3240 H   0  0  0  0  0  0  0  0  0  0  0  0
  153.0989  138.2716  154.8998 H   0  0  0  0  0  0  0  0  0  0  0  0
  148.8828  142.6972  156.9338 H   0  0  0  0  0  0  0  0  0  0  0  0
  152.7326  142.3856  156.8468 H   0  0  0  0  0  0  0  0  0  0  0  0
  151.6525  143.6352  156.2907 H   0  0  0  0  0  0  0  0  0  0  0  0
  150.0517  141.9754  158.7550 H   0  0  0  0  0  0  0  0  0  0  0  0
  153.4644  142.7085  159.1737 H   0  0  0  0  0  0  0  0  0  0  0  0
  153.3628  144.3081  158.4848 H   0  0  0  0  0  0  0  0  0  0  0  0
  152.2058  143.4792  161.1968 H   0  0  0  0  0  0  0  0  0  0  0  0
  153.5823  144.5214  160.9091 H   0  0  0  0  0  0  0  0  0  0  0  0
  149.9932  144.3096  160.6357 H   0  0  0  0  0  0  0  0  0  0  0  0
  149.8540  145.9189  159.9616 H   0  0  0  0  0  0  0  0  0  0  0  0
  150.8797  145.2315  157.8529 H   0  0  0  0  0  0  0  0  0  0  0  0
  149.5280  144.1792  158.1897 H   0  0  0  0  0  0  0  0  0  0  0  0
  149.6844  136.0796  154.4295 H   0  0  0  0  0  0  0  0  0  0  0  0
  149.2579  136.4378  156.0850 H   0  0  0  0  0  0  0  0  0  0  0  0
  147.7836  134.7395  155.3821 H   0  0  0  0  0  0  0  0  0  0  0  0
  146.7801  136.1576  155.4733 H   0  0  0  0  0  0  0  0  0  0  0  0
  145.7874  133.9081  153.6505 H   0  0  0  0  0  0  0  0  0  0  0  0
  146.4094  132.9552  151.3596 H   0  0  0  0  0  0  0  0  0  0  0  0
  147.6988  134.2515  151.1828 H   0  0  0  0  0  0  0  0  0  0  0  0
  147.5195  132.0791  153.4002 H   0  0  0  0  0  0  0  0  0  0  0  0
  149.6078  134.2853  152.8504 H   0  0  0  0  0  0  0  0  0  0  0  0
  149.8910  132.5430  152.8286 H   0  0  0  0  0  0  0  0  0  0  0  0
  149.5329  133.3558  154.3581 H   0  0  0  0  0  0  0  0  0  0  0  0
  145.3500  136.3236  153.1432 H   0  0  0  0  0  0  0  0  0  0  0  0
  146.4766  136.4842  151.8197 H   0  0  0  0  0  0  0  0  0  0  0  0
  148.1494  135.5743  152.9981 H   0  0  0  0  0  0  0  0  0  0  0  0
  1  2  1  0  0  0  0
  1 30  1  0  0  0  0
  1 31  1  0  0  0  0
  1 32  1  0  0  0  0
  2 29  1  0  0  0  0
  2  3  1  0  0  0  0
  2 33  1  0  0  0  0
  3  4  1  0  0  0  0
  3 34  1  0  0  0  0
  3 35  1  0  0  0  0
  4  5  1  0  0  0  0
  4 22  1  0  0  0  0
  5 10  1  0  0  0  0
  5  6  2  0  0  0  0
  6  7  1  0  0  0  0
  7  8  2  0  0  0  0
  7 36  1  0  0  0  0
  8  9  1  0  0  0  0
  9 13  1  0  0  0  0
  9 10  2  0  0  0  0
 10 11  1  0  0  0  0
 11 12  2  0  0  0  0
 12 13  1  0  0  0  0
 12 37  1  0  0  0  0
 13 14  1  0  0  0  0
 14 15  1  0  0  0  0
 14 38  1  0  0  0  0
 14 39  1  0  0  0  0
 15 21  1  0  0  0  0
 15 16  1  0  0  0  0
 15 17  1  0  0  0  0
 16 40  1  0  0  0  0
 17 18  1  0  0  0  0
 17 41  1  0  0  0  0
 17 42  1  0  0  0  0
 18 19  1  0  0  0  0
 18 43  1  0  0  0  0
 18 44  1  0  0  0  0
 19 20  1  0  0  0  0
 20 21  1  0  0  0  0
 20 45  1  0  0  0  0
 20 46  1  0  0  0  0
 21 47  1  0  0  0  0
 21 48  1  0  0  0  0
 22 23  1  0  0  0  0
 22 49  1  0  0  0  0
 22 50  1  0  0  0  0
 23 24  1  0  0  0  0
 23 51  1  0  0  0  0
 23 52  1  0  0  0  0
 24 25  1  0  0  0  0
 24 29  1  0  0  0  0
 24 62  1  0  0  0  0
 25 27  1  0  0  0  0
 25 26  1  0  0  0  0
 25 53  1  0  0  0  0
 26 27  1  0  0  0  0
 26 54  1  0  0  0  0
 26 55  1  0  0  0  0
 27 28  1  0  0  0  0
 27 56  1  0  0  0  0
 28 57  1  0  0  0  0
 28 58  1  0  0  0  0
 28 59  1  0  0  0  0
 29 60  1  0  0  0  0
 29 61  1  0  0  0  0
M  CHG  1  24   1
M  END
> <s_m_source_file>
AV-unprocessed.smi

> <i_m_source_file_index>
193

> <i_lp_mmshare_version>
43012

> <i_f3d_flags>
0

> <s_epik_input>
W0NIM11bQ0BASF0xW0NIMl1bQ0BIXTFOKFtDSDJdMilbQ0gyXVtDSDJdTihbQ0gyXVtDQEhdMltDSDNdKWMobltjSF1uMyljKGMzNCluW2NIXW40W0NIMl1DNShbT0hdKVtDSDJdW0NIMl1PW0NIMl1bQ0gyXTU=

> <s_epik_cmdline>
J2VwaWtfcHl0aG9uJywgJy1waCcsICc3LjAnLCAnLXRuJywgJzgnLCAnLW1hJywgJzIwMCcsICctbWV0YWxfYmluZGluZycsICctaW1hZScsICc8aW5maWxlLm1hZT4nLCAnLW9tYWUnLCAnPG91dGZpbGUubWFlPic=

> <r_lp_tautomer_probability>
1

> <r_epik_Ionization_Penalty>
0.0540825

> <r_epik_Ionization_Penalty_Charging>
0.0538476

> <r_epik_Ionization_Penalty_Neutral>
0.000234891

> <r_epik_State_Penalty>
0.0200719

> <r_epik_Charging_Adjusted_Penalty>
0.0739194

> <i_epik_Tot_Q>
1

> <i_epik_Tot_abs_Q>
1

> <r_epik_Metal_State_Penalty>
0.0199414

> <b_epik_Metal_Only>
0

> <s_lp_Force_Field>
OPLS_2005

> <r_lp_Energy>
58.7768

> <b_lp_Chiralities_Consistent>
1

> <s_lp_Variant>
AV-unprocessed.smi:193-7

> <Gold.Version>
5.8.1

> <Gold.Id.Protein>
6NUR|6NUR_protein|mol2

> <Gold.PLP.Fitness>
43.4442

> <Gold.PLP.PLP>
-34.8985

> <Gold.PLP.part.hbond>
-2.3806

> <Gold.PLP.part.metal>
0.0000

> <Gold.PLP.part.buried>
4.5580

> <Gold.PLP.part.nonpolar>
-36.6846

> <Gold.PLP.part.repulsive>
0.4986

> <Gold.PLP.ligand.clash>
0.0000

> <Gold.PLP.ligand.torsion>
1.8686

> <Gold.PLP.Chemscore.Hbond>
2.6385

> <Gold.PLP.Chemscore.CHOScore>
0.9035

> <Gold.PLP.Chemscore.Metal>
0.0000

> <Gold.Chemscore.Hbonds>
donor molecule, donor type, donor heavy atom, donor atom, acceptor molecule, acceptor atom, score
      L1  H    24    62       P1  7948  1.90
      P1  H  7997  8008       L1     8  0.75
      L1  C    12    37       P1  8028  0.78

> <Gold.PLP.Chemscore.Internal.Correction>
1.6568

> <Gold.Rescore>
     Score         DG    S(hbond)    S(metal)    S(lipo)     H(rot)  DE(clash)    DE(int)     intcor
     11.47     -18.74       1.54        0.00     117.43       2.20       5.80       1.46       ----

> <Gold.Chemscore.Fitness>
11.4735

> <Gold.Chemscore.DG>
-18.7378

> <Gold.Chemscore.ZeroCoef>
-5.4800

> <Gold.Chemscore.Hbond>
1.5435

> <Gold.Chemscore.Metal>
0.0000

> <Gold.Chemscore.Lipo>
117.4285

> <Gold.Chemscore.Internal_Hbond>
0.0000

> <Gold.Chemscore.DEClash>
5.8016

> <Gold.Chemscore.DEInternal>
1.4627

> <Gold.Chemscore.Rot>
2.2018

> <Gold.Chemscore.Internal.Correction>
   9.000000E+99

> <Gold.Chemscore.Hbonds>
donor molecule, donor type, donor heavy atom, donor atom, acceptor molecule, acceptor atom, score
      L1  H    24    62       P1  7948  0.85
      P1  H  7997  8008       L1     8  0.41

> <Gold.Chemscore.Hbond.Weighted>
-5.1552

> <Gold.Chemscore.Metal.Weighted>
-0.0000

> <Gold.Chemscore.Lipo.Weighted>
-13.7391

> <Gold.Chemscore.Internal_Hbond.Weighted>
0.0000

> <Gold.Chemscore.DEClash.Weighted>
5.8016

> <Gold.Chemscore.DEInternal.Weighted>
1.4627

> <Gold.Chemscore.Rot.Weighted>
5.6366

> <Gold.Chemscore.Internal.Correction.Weighted>
   9.000000E+99

> <Gold.Protein.RotatedTorsions>
[ 6907 6896 6895 6894 ] final   35.72 input  -60.11 | X-H torsion
[ 7974 7965 7964 7962 ] final  -70.39 input  175.53 | X-H torsion
[ 8008 7997 7996 7995 ] final  -38.34 input   59.86 | X-H torsion
[ 10167 10162 10161 10158 ] final -113.15 input  -65.29 | X-H torsion
[ 10718 10713 10712 10709 ] final    0.50 input   66.30 | X-H torsion
[ 10763 10752 10751 10750 ] final  177.43 input  -60.55 | X-H torsion
[ 11005 11000 10999 10996 ] final   47.98 input  -57.11 | X-H torsion

> <Gold.Protein.ActiveResidues>
 VAL166  LYS551  ARG553  GLY616  TRP617  ASP618  TYR619  PRO620  LYS621  CYS622 
 ASP623  PHE694  ASN695  SER759  ASP760  ASP761  ALA762  ILE779  LEU786  VAL792 
 PHE793  MET794  SER795  GLU796  ALA797  LYS798  CYS799  TRP800  GLU811  SER814 

> <Gold.Protein.RotatedAtoms>
  152.1200  134.9212  160.0563 H   0  0  0  0  0  0  0  0  0  0  0  0  # atno 6907 bound_to 6896
  152.0357  133.3951  159.4324 H   0  0  0  0  0  0  0  0  0  0  0  0  # atno 6908 bound_to 6896
  150.6848  134.3392  159.4904 H   0  0  0  0  0  0  0  0  0  0  0  0  # atno 6909 bound_to 6896
  145.6916  140.9151  143.0778 H   0  0  0  0  0  0  0  0  0  0  0  0  # atno 7974 bound_to 7965
  154.4038  140.1580  156.2685 H   0  0  0  0  0  0  0  0  0  0  0  0  # atno 8008 bound_to 7997
  155.8974  140.3435  155.5979 H   0  0  0  0  0  0  0  0  0  0  0  0  # atno 8009 bound_to 7997
  155.7488  140.0802  157.2202 H   0  0  0  0  0  0  0  0  0  0  0  0  # atno 8010 bound_to 7997
  140.1149  143.4494  152.1728 H   0  0  0  0  0  0  0  0  0  0  0  0  # atno 10167 bound_to 10162
  156.8342  130.5499  149.5684 H   0  0  0  0  0  0  0  0  0  0  0  0  # atno 10718 bound_to 10713
  154.4943  135.2780  155.1471 H   0  0  0  0  0  0  0  0  0  0  0  0  # atno 10763 bound_to 10752
  154.3130  135.6225  153.5477 H   0  0  0  0  0  0  0  0  0  0  0  0  # atno 10764 bound_to 10752
  152.9892  135.5724  154.5372 H   0  0  0  0  0  0  0  0  0  0  0  0  # atno 10765 bound_to 10752
  140.1231  134.4804  155.8581 H   0  0  0  0  0  0  0  0  0  0  0  0  # atno 11005 bound_to 11000
  144.6995  139.8829  143.7448 LP  0  0  0  0  0  0  0  0  0  0  0  0  # atno 17320 bound_to 7965
  146.0876  139.3865  143.0425 LP  0  0  0  0  0  0  0  0  0  0  0  0  # atno 17321 bound_to 7965
  139.5599  144.7398  151.4185 LP  0  0  0  0  0  0  0  0  0  0  0  0  # atno 17342 bound_to 10162
  140.6905  143.7873  150.7248 LP  0  0  0  0  0  0  0  0  0  0  0  0  # atno 17343 bound_to 10162
  156.0917  130.5901  150.9743 LP  0  0  0  0  0  0  0  0  0  0  0  0  # atno 17370 bound_to 10713
  157.6390  131.0912  150.8289 LP  0  0  0  0  0  0  0  0  0  0  0  0  # atno 17371 bound_to 10713
  141.2156  133.6768  156.6926 LP  0  0  0  0  0  0  0  0  0  0  0  0  # atno 17394 bound_to 11000
  140.2939  134.8218  157.4040 LP  0  0  0  0  0  0  0  0  0  0  0  0  # atno 17395 bound_to 11000

$$$$
