AV-unprocessed.smi:2449|AV-procd|sdf|9664|dock5
  -GOLD-   2272013303D 1   1.00000     0.00000
 Structure written by MMmdl.
 36 36  0  0  0  0  0  0  0  0  2 V2000
  153.4730  142.1604  162.5944 C   0  0  0  0  0  0  0  0  0  0  0  0
  152.9854  142.1759  161.1418 C   0  0  0  0  0  0  0  0  0  0  0  0
  152.1144  143.4099  160.8295 C   0  0  0  0  0  0  0  0  0  0  0  0
  151.8819  143.7141  159.3227 C   0  0  0  0  0  0  0  0  0  0  0  0
  151.0605  145.0133  159.1724 C   0  0  0  0  0  0  0  0  0  0  0  0
  153.2312  143.9172  158.6060 C   0  0  0  0  0  0  0  0  0  0  0  0
  151.1978  142.6058  158.6440 N   0  0  0  0  0  0  0  0  0  0  0  0
  150.9388  142.4618  157.3321 C   0  0  0  0  0  0  0  0  0  0  0  0
  151.2911  143.2666  156.4694 O   0  0  0  0  0  0  0  0  0  0  0  0
  150.1753  141.1924  156.9354 C   0  0  0  0  0  0  0  0  0  0  0  0
  151.0459  140.0071  156.8915 N   0  0  0  0  0  0  0  0  0  0  0  0
  151.5814  139.5407  158.1051 C   0  0  0  0  0  0  0  0  0  0  0  0
  152.3935  138.4677  158.1573 C   0  0  0  0  0  0  0  0  0  0  0  0
  152.7149  137.7837  156.9105 C   0  0  0  0  0  0  0  0  0  0  0  0
  153.4522  136.8004  156.9394 O   0  0  0  0  0  0  0  0  0  0  0  0
  152.1732  138.2764  155.7583 N   0  5  0  0  0  0  0  0  0  0  0  0
  151.3500  139.3701  155.7202 C   0  0  0  0  0  0  0  0  0  0  0  0
  150.8728  139.7992  154.6688 O   0  0  0  0  0  0  0  0  0  0  0  0
  154.0892  141.2820  162.7872 H   0  0  0  0  0  0  0  0  0  0  0  0
  152.6335  142.1358  163.2896 H   0  0  0  0  0  0  0  0  0  0  0  0
  154.0714  143.0436  162.8194 H   0  0  0  0  0  0  0  0  0  0  0  0
  153.8515  142.1492  160.4812 H   0  0  0  0  0  0  0  0  0  0  0  0
  152.4261  141.2592  160.9554 H   0  0  0  0  0  0  0  0  0  0  0  0
  151.1522  143.2836  161.3265 H   0  0  0  0  0  0  0  0  0  0  0  0
  152.5646  144.2839  161.3021 H   0  0  0  0  0  0  0  0  0  0  0  0
  151.5966  145.8666  159.5891 H   0  0  0  0  0  0  0  0  0  0  0  0
  150.1024  144.9567  159.6888 H   0  0  0  0  0  0  0  0  0  0  0  0
  150.8558  145.2360  158.1245 H   0  0  0  0  0  0  0  0  0  0  0  0
  153.8189  144.7034  159.0810 H   0  0  0  0  0  0  0  0  0  0  0  0
  153.0862  144.2036  157.5635 H   0  0  0  0  0  0  0  0  0  0  0  0
  153.8348  143.0095  158.6062 H   0  0  0  0  0  0  0  0  0  0  0  0
  150.8543  141.8739  159.2486 H   0  0  0  0  0  0  0  0  0  0  0  0
  149.3650  141.0475  157.6507 H   0  0  0  0  0  0  0  0  0  0  0  0
  149.6844  141.3318  155.9701 H   0  0  0  0  0  0  0  0  0  0  0  0
  151.2994  140.1066  158.9807 H   0  0  0  0  0  0  0  0  0  0  0  0
  152.7991  138.1237  159.0975 H   0  0  0  0  0  0  0  0  0  0  0  0
  1  2  1  0  0  0  0
  1 19  1  0  0  0  0
  1 20  1  0  0  0  0
  1 21  1  0  0  0  0
  2  3  1  0  0  0  0
  2 22  1  0  0  0  0
  2 23  1  0  0  0  0
  3  4  1  0  0  0  0
  3 24  1  0  0  0  0
  3 25  1  0  0  0  0
  4  5  1  0  0  0  0
  4  6  1  0  0  0  0
  4  7  1  0  0  0  0
  5 26  1  0  0  0  0
  5 27  1  0  0  0  0
  5 28  1  0  0  0  0
  6 29  1  0  0  0  0
  6 30  1  0  0  0  0
  6 31  1  0  0  0  0
  7  8  1  0  0  0  0
  7 32  1  0  0  0  0
  8  9  2  0  0  0  0
  8 10  1  0  0  0  0
 10 11  1  0  0  0  0
 10 33  1  0  0  0  0
 10 34  1  0  0  0  0
 11 17  1  0  0  0  0
 11 12  1  0  0  0  0
 12 13  2  0  0  0  0
 12 35  1  0  0  0  0
 13 14  1  0  0  0  0
 13 36  1  0  0  0  0
 14 15  2  0  0  0  0
 14 16  1  0  0  0  0
 16 17  1  0  0  0  0
 17 18  2  0  0  0  0
M  CHG  1  16  -1
M  END
> <s_m_source_file>
AV-unprocessed.smi

> <i_m_source_file_index>
2449

> <i_lp_mmshare_version>
43012

> <i_f3d_flags>
0

> <s_epik_input>
W0NIM11bQ0gyXVtDSDJdQyhbQ0gzXSkoW0NIM10pW05IXUMoPU8pW0NIMl1uMVtjSF1bY0hdYyg9TylbbkhdYzE9Tw==

> <s_epik_cmdline>
J2VwaWtfcHl0aG9uJywgJy1waCcsICc3LjAnLCAnLXRuJywgJzgnLCAnLW1hJywgJzIwMCcsICctbWV0YWxfYmluZGluZycsICctaW1hZScsICc8aW5maWxlLm1hZT4nLCAnLW9tYWUnLCAnPG91dGZpbGUubWFlPic=

> <r_lp_tautomer_probability>
0.999537

> <r_epik_Ionization_Penalty>
3.14746

> <r_epik_Ionization_Penalty_Charging>
2.94994e-08

> <r_epik_Ionization_Penalty_Neutral>
3.14746

> <r_epik_State_Penalty>
3.14658

> <r_epik_Charging_Adjusted_Penalty>
3.14658

> <i_epik_Tot_Q>
-1

> <i_epik_Tot_abs_Q>
1

> <r_epik_Metal_State_Penalty>
0.466037

> <b_epik_Metal_Only>
1

> <s_lp_Force_Field>
OPLS_2005

> <r_lp_Energy>
14.91

> <b_lp_Chiralities_Consistent>
1

> <s_lp_Variant>
AV-unprocessed.smi:2449-2

> <Gold.Version>
5.8.1

> <Gold.Id.Protein>
6NUR|6NUR_protein|mol2

> <Gold.PLP.Fitness>
39.4564

> <Gold.PLP.PLP>
-35.8854

> <Gold.PLP.part.hbond>
-2.0000

> <Gold.PLP.part.metal>
0.0000

> <Gold.PLP.part.buried>
-4.9213

> <Gold.PLP.part.nonpolar>
-31.1975

> <Gold.PLP.part.repulsive>
2.7175

> <Gold.PLP.ligand.clash>
0.0000

> <Gold.PLP.ligand.torsion>
0.4383

> <Gold.PLP.Chemscore.Hbond>
1.4680

> <Gold.PLP.Chemscore.CHOScore>
0.0000

> <Gold.PLP.Chemscore.Metal>
0.0000

> <Gold.Chemscore.Hbonds>
donor molecule, donor type, donor heavy atom, donor atom, acceptor molecule, acceptor atom, score
      P1  H  7989  7998       L1    18  1.00
      P1  H 10752 10764       L1    15  0.71

> <Gold.PLP.Chemscore.Internal.Correction>
0.0436

> <Gold.Rescore>
     Score         DG    S(hbond)    S(metal)    S(lipo)     H(rot)  DE(clash)    DE(int)     intcor
     14.38     -16.21       1.83        0.00      84.95       2.08       0.85       0.98       ----

> <Gold.Chemscore.Fitness>
14.3801

> <Gold.Chemscore.DG>
-16.2145

> <Gold.Chemscore.ZeroCoef>
-5.4800

> <Gold.Chemscore.Hbond>
1.8345

> <Gold.Chemscore.Metal>
0.0000

> <Gold.Chemscore.Lipo>
84.9489

> <Gold.Chemscore.Internal_Hbond>
0.0000

> <Gold.Chemscore.DEClash>
0.8548

> <Gold.Chemscore.DEInternal>
0.9795

> <Gold.Chemscore.Rot>
2.0828

> <Gold.Chemscore.Internal.Correction>
   9.000000E+99

> <Gold.Chemscore.Hbonds>
donor molecule, donor type, donor heavy atom, donor atom, acceptor molecule, acceptor atom, score
      P1  H  7989  7998       L1    18  1.00
      P1  H 10752 10764       L1    15  0.68

> <Gold.Chemscore.Hbond.Weighted>
-6.1274

> <Gold.Chemscore.Metal.Weighted>
-0.0000

> <Gold.Chemscore.Lipo.Weighted>
-9.9390

> <Gold.Chemscore.Internal_Hbond.Weighted>
0.0000

> <Gold.Chemscore.DEClash.Weighted>
0.8548

> <Gold.Chemscore.DEInternal.Weighted>
0.9795

> <Gold.Chemscore.Rot.Weighted>
5.3319

> <Gold.Chemscore.Internal.Correction.Weighted>
   9.000000E+99

> <Gold.Protein.RotatedTorsions>
[ 6907 6896 6895 6894 ] final -148.39 input  -60.11 | X-H torsion
[ 7974 7965 7964 7962 ] final  -65.58 input  175.53 | X-H torsion
[ 8008 7997 7996 7995 ] final  -83.26 input   59.86 | X-H torsion
[ 10167 10162 10161 10158 ] final  150.91 input  -65.29 | X-H torsion
[ 10718 10713 10712 10709 ] final -120.85 input   66.30 | X-H torsion
[ 10763 10752 10751 10750 ] final    8.78 input  -60.55 | X-H torsion
[ 11005 11000 10999 10996 ] final  -71.26 input  -57.11 | X-H torsion

> <Gold.Protein.ActiveResidues>
 VAL166  LYS551  ARG553  GLY616  TRP617  ASP618  TYR619  PRO620  LYS621  CYS622 
 ASP623  PHE694  ASN695  SER759  ASP760  ASP761  ALA762  ILE779  LEU786  VAL792 
 PHE793  MET794  SER795  GLU796  ALA797  LYS798  CYS799  TRP800  GLU811  SER814 

> <Gold.Protein.RotatedAtoms>
  151.1691  133.4796  159.2593 H   0  0  0  0  0  0  0  0  0  0  0  0  # atno 6907 bound_to 6896
  151.1374  135.0162  159.8620 H   0  0  0  0  0  0  0  0  0  0  0  0  # atno 6908 bound_to 6896
  152.5461  134.1588  159.8602 H   0  0  0  0  0  0  0  0  0  0  0  0  # atno 6909 bound_to 6896
  145.7525  140.8901  143.0472 H   0  0  0  0  0  0  0  0  0  0  0  0  # atno 7974 bound_to 7965
  154.6172  140.0621  156.9569 H   0  0  0  0  0  0  0  0  0  0  0  0  # atno 8008 bound_to 7997
  155.1876  140.3304  155.4346 H   0  0  0  0  0  0  0  0  0  0  0  0  # atno 8009 bound_to 7997
  156.2411  140.1886  156.6968 H   0  0  0  0  0  0  0  0  0  0  0  0  # atno 8010 bound_to 7997
  139.4845  144.5484  151.7444 H   0  0  0  0  0  0  0  0  0  0  0  0  # atno 10167 bound_to 10162
  156.1291  130.6381  150.9591 H   0  0  0  0  0  0  0  0  0  0  0  0  # atno 10718 bound_to 10713
  153.2212  135.6881  153.7997 H   0  0  0  0  0  0  0  0  0  0  0  0  # atno 10763 bound_to 10752
  153.7195  135.3269  155.3264 H   0  0  0  0  0  0  0  0  0  0  0  0  # atno 10764 bound_to 10752
  154.8270  135.4610  154.1061 H   0  0  0  0  0  0  0  0  0  0  0  0  # atno 10765 bound_to 10752
  141.1589  133.6812  156.6879 H   0  0  0  0  0  0  0  0  0  0  0  0  # atno 11005 bound_to 11000
  144.6847  139.9611  143.7480 LP  0  0  0  0  0  0  0  0  0  0  0  0  # atno 17320 bound_to 7965
  146.0342  139.3363  143.0736 LP  0  0  0  0  0  0  0  0  0  0  0  0  # atno 17321 bound_to 7965
  140.5034  144.1135  150.5976 LP  0  0  0  0  0  0  0  0  0  0  0  0  # atno 17342 bound_to 10162
  140.4036  143.2692  151.9918 LP  0  0  0  0  0  0  0  0  0  0  0  0  # atno 17343 bound_to 10162
  157.6470  131.0902  150.8132 LP  0  0  0  0  0  0  0  0  0  0  0  0  # atno 17370 bound_to 10713
  156.8219  130.4987  149.5342 LP  0  0  0  0  0  0  0  0  0  0  0  0  # atno 17371 bound_to 10713
  140.3053  134.8131  157.4131 LP  0  0  0  0  0  0  0  0  0  0  0  0  # atno 17394 bound_to 11000
  140.1226  134.5199  155.8171 LP  0  0  0  0  0  0  0  0  0  0  0  0  # atno 17395 bound_to 11000

$$$$
