AV-unprocessed.smi:2079|AV-procd|sdf|8475|dock10
  -GOLD-   2272011183D 1   1.00000     0.00000
 Structure written by MMmdl.
 42 43  0  0  0  0  0  0  0  0  2 V2000
  146.0322  130.0039  151.3971 C   0  0  0  0  0  0  0  0  0  0  0  0
  145.8901  131.4706  151.6191 C   0  0  0  0  0  0  0  0  0  0  0  0
  146.7637  132.4390  152.0273 C   0  0  0  0  0  0  0  0  0  0  0  0
  145.9672  133.6149  152.0115 C   0  0  0  0  0  0  0  0  0  0  0  0
  146.5155  134.8722  152.3724 N   0  0  0  0  0  0  0  0  0  0  0  0
  145.8760  135.9085  152.9408 C   0  0  0  0  0  0  0  0  0  0  0  0
  144.6886  135.9179  153.2671 O   0  0  0  0  0  0  0  0  0  0  0  0
  146.6955  136.9552  153.1185 N   0  0  0  0  0  0  0  0  0  0  0  0
  146.2903  138.2375  153.6840 C   0  0  0  0  0  0  0  0  0  0  0  0
  146.9312  139.4200  152.9263 C   0  0  0  0  0  0  0  0  0  0  0  0
  148.1945  139.9131  153.5484 N   0  3  2  0  0  0  0  0  0  0  0  0
  149.0550  138.7932  154.0308 C   0  0  0  0  0  0  0  0  0  0  0  0
  150.4099  139.2887  154.5560 C   0  0  0  0  0  0  0  0  0  0  0  0
  150.2120  140.3082  155.6766 C   0  0  0  0  0  0  0  0  0  0  0  0
  149.3347  141.4530  155.1661 C   0  0  0  0  0  0  0  0  0  0  0  0
  147.9826  140.9447  154.6185 C   0  0  1  0  0  0  0  0  0  0  0  0
  147.1572  142.1601  154.1456 C   0  0  0  0  0  0  0  0  0  0  0  0
  144.7196  133.3844  151.6323 N   0  0  0  0  0  0  0  0  0  0  0  0
  144.6639  132.0090  151.3780 O   0  0  0  0  0  0  0  0  0  0  0  0
  146.9740  129.6371  151.8058 H   0  0  0  0  0  0  0  0  0  0  0  0
  146.0123  129.7722  150.3323 H   0  0  0  0  0  0  0  0  0  0  0  0
  145.2200  129.4584  151.8778 H   0  0  0  0  0  0  0  0  0  0  0  0
  147.8045  132.3216  152.2906 H   0  0  0  0  0  0  0  0  0  0  0  0
  147.4939  135.0000  152.1605 H   0  0  0  0  0  0  0  0  0  0  0  0
  147.6574  136.8664  152.8240 H   0  0  0  0  0  0  0  0  0  0  0  0
  145.2037  138.2701  153.6223 H   0  0  0  0  0  0  0  0  0  0  0  0
  146.5477  138.2745  154.7441 H   0  0  0  0  0  0  0  0  0  0  0  0
  147.1284  139.0701  151.9163 H   0  0  0  0  0  0  0  0  0  0  0  0
  146.2216  140.2436  152.8350 H   0  0  0  0  0  0  0  0  0  0  0  0
  148.5300  138.2419  154.8127 H   0  0  0  0  0  0  0  0  0  0  0  0
  149.2580  138.0859  153.2291 H   0  0  0  0  0  0  0  0  0  0  0  0
  150.9995  138.4465  154.9193 H   0  0  0  0  0  0  0  0  0  0  0  0
  150.9797  139.7383  153.7417 H   0  0  0  0  0  0  0  0  0  0  0  0
  149.7408  139.8318  156.5374 H   0  0  0  0  0  0  0  0  0  0  0  0
  151.1755  140.6903  156.0152 H   0  0  0  0  0  0  0  0  0  0  0  0
  149.1681  142.1638  155.9765 H   0  0  0  0  0  0  0  0  0  0  0  0
  149.8675  141.9981  154.3854 H   0  0  0  0  0  0  0  0  0  0  0  0
  147.4414  140.4693  155.4383 H   0  0  0  0  0  0  0  0  0  0  0  0
  147.1720  142.9544  154.8924 H   0  0  0  0  0  0  0  0  0  0  0  0
  146.1064  141.9163  153.9924 H   0  0  0  0  0  0  0  0  0  0  0  0
  147.5533  142.5755  153.2183 H   0  0  0  0  0  0  0  0  0  0  0  0
  148.7084  140.3766  152.8125 H   0  0  0  0  0  0  0  0  0  0  0  0
  1  2  1  0  0  0  0
  1 20  1  0  0  0  0
  1 21  1  0  0  0  0
  1 22  1  0  0  0  0
  2 19  1  0  0  0  0
  2  3  2  0  0  0  0
  3  4  1  0  0  0  0
  3 23  1  0  0  0  0
  4  5  1  0  0  0  0
  4 18  2  0  0  0  0
  5  6  1  0  0  0  0
  5 24  1  0  0  0  0
  6  7  2  0  0  0  0
  6  8  1  0  0  0  0
  8  9  1  0  0  0  0
  8 25  1  0  0  0  0
  9 10  1  0  0  0  0
  9 26  1  0  0  0  0
  9 27  1  0  0  0  0
 10 11  1  0  0  0  0
 10 28  1  0  0  0  0
 10 29  1  0  0  0  0
 11 16  1  0  0  0  0
 11 12  1  0  0  0  0
 11 42  1  0  0  0  0
 12 13  1  0  0  0  0
 12 30  1  0  0  0  0
 12 31  1  0  0  0  0
 13 14  1  0  0  0  0
 13 32  1  0  0  0  0
 13 33  1  0  0  0  0
 14 15  1  0  0  0  0
 14 34  1  0  0  0  0
 14 35  1  0  0  0  0
 15 16  1  0  0  0  0
 15 36  1  0  0  0  0
 15 37  1  0  0  0  0
 16 17  1  0  0  0  0
 16 38  1  0  0  0  0
 17 39  1  0  0  0  0
 17 40  1  0  0  0  0
 17 41  1  0  0  0  0
 18 19  1  0  0  0  0
M  CHG  1  11   1
M  END
> <s_m_source_file>
AV-unprocessed.smi

> <i_m_source_file_index>
2079

> <i_lp_mmshare_version>
43012

> <i_f3d_flags>
0

> <s_epik_input>
W0NIM11jMVtjSF1jKG5vMSlbTkhdQyg9TylbTkhdW0NIMl1bQ0gyXU4yW0NIMl1bQ0gyXVtDSDJdW0NIMl1bQ0BIXTJbQ0gzXQ==

> <s_epik_cmdline>
J2VwaWtfcHl0aG9uJywgJy1waCcsICc3LjAnLCAnLXRuJywgJzgnLCAnLW1hJywgJzIwMCcsICctbWV0YWxfYmluZGluZycsICctaW1hZScsICc8aW5maWxlLm1hZT4nLCAnLW9tYWUnLCAnPG91dGZpbGUubWFlPic=

> <r_epik_Ionization_Penalty>
0.00265971

> <r_epik_Ionization_Penalty_Charging>
0.00262393

> <r_epik_Ionization_Penalty_Neutral>
3.57846e-05

> <r_epik_State_Penalty>
0.00182566

> <r_epik_Charging_Adjusted_Penalty>
0.00444959

> <i_epik_Tot_Q>
1

> <i_epik_Tot_abs_Q>
1

> <r_epik_Metal_State_Penalty>
0.0216344

> <b_epik_Metal_Only>
0

> <s_lp_Force_Field>
OPLS_2005

> <r_lp_Energy>
17.1717

> <b_lp_Chiralities_Consistent>
1

> <s_lp_Variant>
AV-unprocessed.smi:2079-1

> <Gold.Version>
5.8.1

> <Gold.Id.Protein>
6NUR|6NUR_protein|mol2

> <Gold.PLP.Fitness>
39.3697

> <Gold.PLP.PLP>
-32.4395

> <Gold.PLP.part.hbond>
-3.0000

> <Gold.PLP.part.metal>
0.0000

> <Gold.PLP.part.buried>
-3.8894

> <Gold.PLP.part.nonpolar>
-26.7014

> <Gold.PLP.part.repulsive>
0.4291

> <Gold.PLP.ligand.clash>
0.0000

> <Gold.PLP.ligand.torsion>
0.8045

> <Gold.PLP.Chemscore.Hbond>
2.8400

> <Gold.PLP.Chemscore.CHOScore>
0.0000

> <Gold.PLP.Chemscore.Metal>
0.0000

> <Gold.Chemscore.Hbonds>
donor molecule, donor type, donor heavy atom, donor atom, acceptor molecule, acceptor atom, score
      L1  H     5    24       P1  7948  0.98
      L1  H     8    25       P1  7948  1.00
      L1  H    11    42       P1  7957  0.85

> <Gold.PLP.Chemscore.Internal.Correction>
0.0191

> <Gold.Rescore>
     Score         DG    S(hbond)    S(metal)    S(lipo)     H(rot)  DE(clash)    DE(int)     intcor
     17.55     -19.78       2.77        0.00      77.50       1.57       0.26       1.97       ----

> <Gold.Chemscore.Fitness>
17.5498

> <Gold.Chemscore.DG>
-19.7785

> <Gold.Chemscore.ZeroCoef>
-5.4800

> <Gold.Chemscore.Hbond>
2.7692

> <Gold.Chemscore.Metal>
0.0000

> <Gold.Chemscore.Lipo>
77.5016

> <Gold.Chemscore.Internal_Hbond>
0.0000

> <Gold.Chemscore.DEClash>
0.2626

> <Gold.Chemscore.DEInternal>
1.9661

> <Gold.Chemscore.Rot>
1.5697

> <Gold.Chemscore.Internal.Correction>
   9.000000E+99

> <Gold.Chemscore.Hbonds>
donor molecule, donor type, donor heavy atom, donor atom, acceptor molecule, acceptor atom, score
      L1  H     5    24       P1  7948  0.88
      L1  H     8    25       P1  7948  0.98
      L1  H    11    42       P1  7957  0.83

> <Gold.Chemscore.Hbond.Weighted>
-9.2492

> <Gold.Chemscore.Metal.Weighted>
-0.0000

> <Gold.Chemscore.Lipo.Weighted>
-9.0677

> <Gold.Chemscore.Internal_Hbond.Weighted>
0.0000

> <Gold.Chemscore.DEClash.Weighted>
0.2626

> <Gold.Chemscore.DEInternal.Weighted>
1.9661

> <Gold.Chemscore.Rot.Weighted>
4.0185

> <Gold.Chemscore.Internal.Correction.Weighted>
   9.000000E+99

> <Gold.Protein.RotatedTorsions>
[ 6907 6896 6895 6894 ] final  105.48 input  -60.11 | X-H torsion
[ 7974 7965 7964 7962 ] final  161.86 input  175.53 | X-H torsion
[ 8008 7997 7996 7995 ] final  -81.44 input   59.86 | X-H torsion
[ 10167 10162 10161 10158 ] final -122.95 input  -65.29 | X-H torsion
[ 10718 10713 10712 10709 ] final  121.87 input   66.30 | X-H torsion
[ 10763 10752 10751 10750 ] final   23.59 input  -60.55 | X-H torsion
[ 11005 11000 10999 10996 ] final  -36.70 input  -57.11 | X-H torsion

> <Gold.Protein.ActiveResidues>
 VAL166  LYS551  ARG553  GLY616  TRP617  ASP618  TYR619  PRO620  LYS621  CYS622 
 ASP623  PHE694  ASN695  SER759  ASP760  ASP761  ALA762  ILE779  LEU786  VAL792 
 PHE793  MET794  SER795  GLU796  ALA797  LYS798  CYS799  TRP800  GLU811  SER814 

> <Gold.Protein.RotatedAtoms>
  152.5229  133.9522  159.7677 H   0  0  0  0  0  0  0  0  0  0  0  0  # atno 6907 bound_to 6896
  150.9830  133.6218  159.2727 H   0  0  0  0  0  0  0  0  0  0  0  0  # atno 6908 bound_to 6896
  151.3389  135.0865  159.9417 H   0  0  0  0  0  0  0  0  0  0  0  0  # atno 6909 bound_to 6896
  144.7665  139.7958  143.6313 H   0  0  0  0  0  0  0  0  0  0  0  0  # atno 7974 bound_to 7965
  154.5984  140.0648  156.9335 H   0  0  0  0  0  0  0  0  0  0  0  0  # atno 8008 bound_to 7997
  155.2175  140.3327  155.4302 H   0  0  0  0  0  0  0  0  0  0  0  0  # atno 8009 bound_to 7997
  156.2302  140.1837  156.7246 H   0  0  0  0  0  0  0  0  0  0  0  0  # atno 8010 bound_to 7997
  140.0087  143.5464  152.2272 H   0  0  0  0  0  0  0  0  0  0  0  0  # atno 10167 bound_to 10162
  157.5785  131.1077  150.8233 H   0  0  0  0  0  0  0  0  0  0  0  0  # atno 10718 bound_to 10713
  153.0827  135.6624  154.0012 H   0  0  0  0  0  0  0  0  0  0  0  0  # atno 10763 bound_to 10752
  153.9630  135.2972  155.3434 H   0  0  0  0  0  0  0  0  0  0  0  0  # atno 10764 bound_to 10752
  154.7229  135.5156  153.8913 H   0  0  0  0  0  0  0  0  0  0  0  0  # atno 10765 bound_to 10752
  140.9895  133.7012  156.1825 H   0  0  0  0  0  0  0  0  0  0  0  0  # atno 11005 bound_to 11000
  146.1776  139.4953  142.9887 LP  0  0  0  0  0  0  0  0  0  0  0  0  # atno 17320 bound_to 7965
  145.6455  141.0275  143.1788 LP  0  0  0  0  0  0  0  0  0  0  0  0  # atno 17321 bound_to 7965
  139.6220  144.7631  151.2720 LP  0  0  0  0  0  0  0  0  0  0  0  0  # atno 17342 bound_to 10162
  140.7390  143.6631  150.8146 LP  0  0  0  0  0  0  0  0  0  0  0  0  # atno 17343 bound_to 10162
  156.8685  130.5138  149.5298 LP  0  0  0  0  0  0  0  0  0  0  0  0  # atno 17370 bound_to 10713
  156.0830  130.5836  150.9598 LP  0  0  0  0  0  0  0  0  0  0  0  0  # atno 17371 bound_to 10713
  140.7062  134.4511  157.5584 LP  0  0  0  0  0  0  0  0  0  0  0  0  # atno 17394 bound_to 11000
  139.8986  134.8610  156.1996 LP  0  0  0  0  0  0  0  0  0  0  0  0  # atno 17395 bound_to 11000

$$$$
