AV-unprocessed.smi:425|AV-procd|sdf|2540|dock4
  -GOLD-   2262022503D 1   1.00000     0.00000
 Structure written by MMmdl.
 27 27  0  0  0  0  0  0  0  0  2 V2000
  147.6174  137.1164  160.7309 O   0  0  0  0  0  0  0  0  0  0  0  0
  148.2243  136.7103  159.7161 C   0  0  0  0  0  0  0  0  0  0  0  0
  148.8704  135.6430  159.6306 O   0  5  0  0  0  0  0  0  0  0  0  0
  148.1845  137.5979  158.4747 C   0  0  0  0  0  0  0  0  0  0  0  0
  149.5260  138.0820  158.1698 N   0  0  0  0  0  0  0  0  0  0  0  0
  149.8461  139.3312  157.8017 C   0  0  0  0  0  0  0  0  0  0  0  0
  149.0151  140.2270  157.6436 O   0  0  0  0  0  0  0  0  0  0  0  0
  151.3412  139.5897  157.5636 C   0  0  0  0  0  0  0  0  0  0  0  0
  151.9468  140.4948  158.5551 N   0  0  0  0  0  0  0  0  0  0  0  0
  151.6011  141.8566  158.4671 C   0  0  0  0  0  0  0  0  0  0  0  0
  152.0850  142.7905  159.3066 C   0  0  0  0  0  0  0  0  0  0  0  0
  151.6436  144.2432  159.2238 C   0  0  0  0  0  0  0  0  0  0  0  0
  152.0758  144.8149  158.0998 F   0  0  0  0  0  0  0  0  0  0  0  0
  150.3133  144.3137  159.2412 F   0  0  0  0  0  0  0  0  0  0  0  0
  152.1091  144.9458  160.2573 F   0  0  0  0  0  0  0  0  0  0  0  0
  152.9741  142.3199  160.3498 C   0  0  0  0  0  0  0  0  0  0  0  0
  153.3089  141.0186  160.4623 C   0  0  0  0  0  0  0  0  0  0  0  0
  154.3746  140.5129  161.7247 Cl  0  0  0  0  0  0  0  0  0  0  0  0
  152.7836  140.0175  159.5248 C   0  0  0  0  0  0  0  0  0  0  0  0
  153.0746  138.8230  159.6027 O   0  0  0  0  0  0  0  0  0  0  0  0
  147.8181  137.0182  157.6270 H   0  0  0  0  0  0  0  0  0  0  0  0
  147.4740  138.4118  158.6299 H   0  0  0  0  0  0  0  0  0  0  0  0
  150.2750  137.4145  158.2819 H   0  0  0  0  0  0  0  0  0  0  0  0
  151.8684  138.6338  157.5461 H   0  0  0  0  0  0  0  0  0  0  0  0
  151.4619  139.9973  156.5588 H   0  0  0  0  0  0  0  0  0  0  0  0
  150.9040  142.0923  157.6759 H   0  0  0  0  0  0  0  0  0  0  0  0
  153.3831  143.0283  161.0552 H   0  0  0  0  0  0  0  0  0  0  0  0
  1  2  2  0  0  0  0
  2  3  1  0  0  0  0
  2  4  1  0  0  0  0
  4  5  1  0  0  0  0
  4 21  1  0  0  0  0
  4 22  1  0  0  0  0
  5  6  1  0  0  0  0
  5 23  1  0  0  0  0
  6  7  2  0  0  0  0
  6  8  1  0  0  0  0
  8  9  1  0  0  0  0
  8 24  1  0  0  0  0
  8 25  1  0  0  0  0
  9 19  1  0  0  0  0
  9 10  1  0  0  0  0
 10 11  2  0  0  0  0
 10 26  1  0  0  0  0
 11 12  1  0  0  0  0
 11 16  1  0  0  0  0
 12 13  1  0  0  0  0
 12 14  1  0  0  0  0
 12 15  1  0  0  0  0
 16 17  2  0  0  0  0
 16 27  1  0  0  0  0
 17 18  1  0  0  0  0
 17 19  1  0  0  0  0
 19 20  2  0  0  0  0
M  CHG  1   3  -1
M  END
> <s_m_source_file>
AV-unprocessed.smi

> <i_m_source_file_index>
425

> <i_lp_mmshare_version>
43012

> <i_f3d_flags>
0

> <s_epik_input>
Tz1DKFtPSF0pW0NIMl1bTkhdQyg9TylbQ0gyXW4xW2NIXWMoQyhGKShGKUYpW2NIXWMoQ2wpYzE9Tw==

> <s_epik_cmdline>
J2VwaWtfcHl0aG9uJywgJy1waCcsICc3LjAnLCAnLXRuJywgJzgnLCAnLW1hJywgJzIwMCcsICctbWV0YWxfYmluZGluZycsICctaW1hZScsICc8aW5maWxlLm1hZT4nLCAnLW9tYWUnLCAnPG91dGZpbGUubWFlPic=

> <r_lp_tautomer_probability>
1

> <r_epik_Ionization_Penalty>
0.000221532

> <r_epik_Ionization_Penalty_Charging>
0.000221514

> <r_epik_Ionization_Penalty_Neutral>
1.82818e-08

> <r_epik_State_Penalty>
-0

> <r_epik_Charging_Adjusted_Penalty>
0.000221514

> <i_epik_Tot_Q>
-1

> <i_epik_Tot_abs_Q>
1

> <r_epik_Metal_State_Penalty>
-0

> <b_epik_Metal_Only>
0

> <s_lp_Force_Field>
OPLS_2005

> <r_lp_Energy>
5.93432

> <b_lp_Chiralities_Consistent>
1

> <s_lp_Variant>
AV-unprocessed.smi:425-1

> <Gold.Version>
5.8.1

> <Gold.Id.Protein>
6NUR|6NUR_protein|mol2

> <Gold.PLP.Fitness>
57.8116

> <Gold.PLP.PLP>
-41.6287

> <Gold.PLP.part.hbond>
-3.0000

> <Gold.PLP.part.metal>
0.0000

> <Gold.PLP.part.buried>
-6.8530

> <Gold.PLP.part.nonpolar>
-32.7745

> <Gold.PLP.part.repulsive>
0.1431

> <Gold.PLP.ligand.clash>
0.0000

> <Gold.PLP.ligand.torsion>
0.4661

> <Gold.PLP.Chemscore.Hbond>
5.6800

> <Gold.PLP.Chemscore.CHOScore>
0.0000

> <Gold.PLP.Chemscore.Metal>
0.0000

> <Gold.Chemscore.Hbonds>
donor molecule, donor type, donor heavy atom, donor atom, acceptor molecule, acceptor atom, score
      P1  H  6896  6908       L1     3  1.79
      P1  H  6931  6943       L1     1  1.14
      P1  H  6934  6947       L1     1  1.95

> <Gold.PLP.Chemscore.Internal.Correction>
0.0750

> <Gold.Rescore>
     Score         DG    S(hbond)    S(metal)    S(lipo)     H(rot)  DE(clash)    DE(int)     intcor
     14.31     -14.90       2.52        0.00      66.76       2.65       0.03       0.57       ----

> <Gold.Chemscore.Fitness>
14.3118

> <Gold.Chemscore.DG>
-14.9044

> <Gold.Chemscore.ZeroCoef>
-5.4800

> <Gold.Chemscore.Hbond>
2.5179

> <Gold.Chemscore.Metal>
0.0000

> <Gold.Chemscore.Lipo>
66.7608

> <Gold.Chemscore.Internal_Hbond>
0.0000

> <Gold.Chemscore.DEClash>
0.0264

> <Gold.Chemscore.DEInternal>
0.5662

> <Gold.Chemscore.Rot>
2.6548

> <Gold.Chemscore.Internal.Correction>
   9.000000E+99

> <Gold.Chemscore.Hbonds>
donor molecule, donor type, donor heavy atom, donor atom, acceptor molecule, acceptor atom, score
      P1  H  6896  6908       L1     3  0.87
      P1  H  6931  6943       L1     1  0.35
      P1  H  6934  6947       L1     1  0.90

> <Gold.Chemscore.Hbond.Weighted>
-8.4097

> <Gold.Chemscore.Metal.Weighted>
-0.0000

> <Gold.Chemscore.Lipo.Weighted>
-7.8110

> <Gold.Chemscore.Internal_Hbond.Weighted>
0.0000

> <Gold.Chemscore.DEClash.Weighted>
0.0264

> <Gold.Chemscore.DEInternal.Weighted>
0.5662

> <Gold.Chemscore.Rot.Weighted>
6.7963

> <Gold.Chemscore.Internal.Correction.Weighted>
   9.000000E+99

> <Gold.Protein.RotatedTorsions>
[ 6907 6896 6895 6894 ] final  176.28 input  -60.11 | X-H torsion
[ 7974 7965 7964 7962 ] final   -5.91 input  175.53 | X-H torsion
[ 8008 7997 7996 7995 ] final   41.36 input   59.86 | X-H torsion
[ 10167 10162 10161 10158 ] final  139.65 input  -65.29 | X-H torsion
[ 10718 10713 10712 10709 ] final -118.94 input   66.30 | X-H torsion
[ 10763 10752 10751 10750 ] final  -38.06 input  -60.55 | X-H torsion
[ 11005 11000 10999 10996 ] final -156.63 input  -57.11 | X-H torsion

> <Gold.Protein.ActiveResidues>
 VAL166  LYS551  ARG553  GLY616  TRP617  ASP618  TYR619  PRO620  LYS621  CYS622 
 ASP623  PHE694  ASN695  SER759  ASP760  ASP761  ALA762  ILE779  LEU786  VAL792 
 PHE793  MET794  SER795  GLU796  ALA797  LYS798  CYS799  TRP800  GLU811  SER814 

> <Gold.Protein.RotatedAtoms>
  151.7226  133.3315  159.3319 H   0  0  0  0  0  0  0  0  0  0  0  0  # atno 6907 bound_to 6896
  150.7646  134.6434  159.6259 H   0  0  0  0  0  0  0  0  0  0  0  0  # atno 6908 bound_to 6896
  152.3642  134.6830  160.0249 H   0  0  0  0  0  0  0  0  0  0  0  0  # atno 6909 bound_to 6896
  146.2342  140.2092  142.8335 H   0  0  0  0  0  0  0  0  0  0  0  0  # atno 7974 bound_to 7965
  155.2683  140.3364  155.4267 H   0  0  0  0  0  0  0  0  0  0  0  0  # atno 8008 bound_to 7997
  156.2144  140.1783  156.7665 H   0  0  0  0  0  0  0  0  0  0  0  0  # atno 8009 bound_to 7997
  154.5732  140.0666  156.8980 H   0  0  0  0  0  0  0  0  0  0  0  0  # atno 8010 bound_to 7997
  139.5072  144.6282  151.5884 H   0  0  0  0  0  0  0  0  0  0  0  0  # atno 10167 bound_to 10162
  156.1144  130.6274  150.9354 H   0  0  0  0  0  0  0  0  0  0  0  0  # atno 10718 bound_to 10713
  153.9066  135.6797  153.4753 H   0  0  0  0  0  0  0  0  0  0  0  0  # atno 10763 bound_to 10752
  153.1100  135.4787  154.9017 H   0  0  0  0  0  0  0  0  0  0  0  0  # atno 10764 bound_to 10752
  154.7548  135.3194  154.8445 H   0  0  0  0  0  0  0  0  0  0  0  0  # atno 10765 bound_to 10752
  140.6734  134.4222  157.5230 H   0  0  0  0  0  0  0  0  0  0  0  0  # atno 11005 bound_to 11000
  144.9720  140.8378  143.5449 LP  0  0  0  0  0  0  0  0  0  0  0  0  # atno 17320 bound_to 7965
  145.2075  139.2221  143.5160 LP  0  0  0  0  0  0  0  0  0  0  0  0  # atno 17321 bound_to 7965
  140.6006  143.9617  150.6383 LP  0  0  0  0  0  0  0  0  0  0  0  0  # atno 17342 bound_to 10162
  140.2827  143.3378  152.1136 LP  0  0  0  0  0  0  0  0  0  0  0  0  # atno 17343 bound_to 10162
  157.6326  131.0919  150.8411 LP  0  0  0  0  0  0  0  0  0  0  0  0  # atno 17370 bound_to 10713
  156.8517  130.5082  149.5311 LP  0  0  0  0  0  0  0  0  0  0  0  0  # atno 17371 bound_to 10713
  139.8974  134.8637  156.2045 LP  0  0  0  0  0  0  0  0  0  0  0  0  # atno 17394 bound_to 11000
  141.0374  133.6956  156.1536 LP  0  0  0  0  0  0  0  0  0  0  0  0  # atno 17395 bound_to 11000

$$$$
