#       Name:                AV-unprocessed.smi:1807
#       Creating user name   scv26
#       Creation time:       Fri Mar 27 08:55:59 2020


#       File generated by GOLD software.
#

@<TRIPOS>MOLECULE
AV-unprocessed.smi:1807
    49    50     1
SMALL
NO_CHARGES


@<TRIPOS>ATOM
      1 ****         0.6598   4.2156  -0.2839 C.3            1 S1                 0.0000
      2 ****        -0.7982   4.0606  -0.7489 C.3            1 S1                 0.0000
      3 ****        -0.8840   3.7895  -2.2651 C.3            1 S1                 0.0000
      4 ****        -2.3427   3.7031  -2.7417 C.3            1 S1                 0.0000
      5 ****        -3.1276   2.6441  -1.9533 C.3            1 S1                 0.0000
      6 ****        -3.0452   2.9011  -0.4383 C.3            1 S1                 0.0000
      7 ****        -1.5890   2.9996   0.0598 C.3            1 S1                 0.0000
      8 ****        -0.9544   1.6807  -0.0000 N.am           1 S1                 0.0000
      9 ****        -0.2458   1.0946   0.9774 C.2            1 S1                 0.0000
     10 ****        -0.0413   1.6179   2.0742 O.2            1 S1                 0.0000
     11 ****         0.3047  -0.2959   0.6490 C.3            1 S1                 0.0000
     12 ****         1.2718  -0.7534   1.6373 N.pl3          1 S1                 0.0000
     13 ****         1.8371  -2.0269   1.5165 C.2            1 S1                 0.0000
     14 ****         2.7858  -2.5248   2.4503 C.2            1 S1                 0.0000
     15 ****         3.0671  -3.7733   1.9726 C.2            1 S1                 0.0000
     16 ****         2.3134  -3.9616   0.8300 N.pl3          1 S1                 0.0000
     17 ****         2.2596  -5.1290  -0.0319 C.3            1 S1                 0.0000
     18 ****         1.3838  -6.2273   0.5758 C.2            1 S1                 0.0000
     19 ****         1.9845  -7.3730   0.9067 N.am           1 S1                 0.0000
     20 ****         0.1804  -6.0447   0.7473 O.2            1 S1                 0.0000
     21 ****         1.5553  -2.8800   0.5437 N.2            1 S1                 0.0000
     22 ****         1.2475   3.3208  -0.4897 H              1 S1                 0.0000
     23 ****         0.7103   4.4091   0.7880 H              1 S1                 0.0000
     24 ****         1.1446   5.0496  -0.7917 H              1 S1                 0.0000
     25 ****        -1.2833   5.0210  -0.5681 H              1 S1                 0.0000
     26 ****        -0.3705   4.5796  -2.8137 H              1 S1                 0.0000
     27 ****        -0.3643   2.8617  -2.5081 H              1 S1                 0.0000
     28 ****        -2.8230   4.6753  -2.6242 H              1 S1                 0.0000
     29 ****        -2.3726   3.4710  -3.8066 H              1 S1                 0.0000
     30 ****        -4.1702   2.6428  -2.2718 H              1 S1                 0.0000
     31 ****        -2.7360   1.6522  -2.1823 H              1 S1                 0.0000
     32 ****        -3.5644   3.8324  -0.2081 H              1 S1                 0.0000
     33 ****        -3.5775   2.1179   0.1030 H              1 S1                 0.0000
     34 ****        -1.6296   3.3290   1.0995 H              1 S1                 0.0000
     35 ****        -1.0654   1.1703  -0.8639 H              1 S1                 0.0000
     36 ****        -0.5273  -0.9996   0.5976 H              1 S1                 0.0000
     37 ****         0.7776  -0.2717  -0.3341 H              1 S1                 0.0000
     38 ****         1.4598  -0.1784   2.4462 H              1 S1                 0.0000
     39 ****         3.1924  -2.0467   3.3291 H              1 S1                 0.0000
     40 ****         3.7314  -4.5375   2.3478 H              1 S1                 0.0000
     41 ****         1.8608  -4.8450  -1.0072 H              1 S1                 0.0000
     42 ****         3.2767  -5.4888  -0.1941 H              1 S1                 0.0000
     43 ****         1.4494  -8.1263   1.3136 H              1 S1                 0.0000
     44 ****         2.9765  -7.4800   0.7503 H              1 S1                 0.0000
     45 ****        -0.4114   2.5256   2.2719 LP             1 S1                 0.0000
     46 ****         0.4946   1.1347   2.7665 LP             1 S1                 0.0000
     47 ****        -0.2347  -5.1724   0.4890 LP             1 S1                 0.0000
     48 ****        -0.3834  -6.7685   1.1451 LP             1 S1                 0.0000
     49 ****         0.9275  -2.7534  -0.2243 LP             1 S1                 0.0000
@<TRIPOS>BOND
    1    1    2 1     
    2    1   22 1     
    3    1   23 1     
    4    1   24 1     
    5    2    7 1     
    6    2    3 1     
    7    2   25 1     
    8    3    4 1     
    9    3   26 1     
   10    3   27 1     
   11    4    5 1     
   12    4   28 1     
   13    4   29 1     
   14    5    6 1     
   15    5   30 1     
   16    5   31 1     
   17    6    7 1     
   18    6   32 1     
   19    6   33 1     
   20    7    8 1     
   21    7   34 1     
   22    8    9 am    
   23    8   35 1     
   24    9   10 2     
   25    9   11 1     
   26   11   12 1     
   27   11   36 1     
   28   11   37 1     
   29   12   13 1     
   30   12   38 1     
   31   13   21 2     
   32   13   14 1     
   33   14   15 2     
   34   14   39 1     
   35   15   16 1     
   36   15   40 1     
   37   16   17 1     
   38   16   21 1     
   39   17   18 1     
   40   17   41 1     
   41   17   42 1     
   42   18   19 am    
   43   18   20 2     
   44   19   43 1     
   45   19   44 1     
   46   10   45 1     
   47   10   46 1     
   48   20   47 1     
   49   20   48 1     
   50   21   49 1     
@<TRIPOS>SUBSTRUCTURE
      1 S1             1
@<TRIPOS>SET
LONE_PAIRS      STATIC     ATOMS    <user>   **** ""
5 45 46 47 48 49
DONOR_HYDROGENS      STATIC     ATOMS    <user>   **** ""
4 35 38 43 44
ATOM$BLUE        STATIC     ATOMS    COLORGROUP SYSTEM
5 45 46 47 48 49
ATOM$RED        STATIC     ATOMS    COLORGROUP SYSTEM
4 35 38 43 44
