AV-unprocessed.smi:1949|AV-procd|sdf|7878|dock1
  -GOLD-   2272010 23D 1   1.00000     0.00000
 Structure written by MMmdl.
 28 29  0  0  0  0  0  0  0  0  2 V2000
  150.2052  135.2923  155.6542 C   0  0  0  0  0  0  0  0  0  0  0  0
  151.1438  136.3555  156.1118 C   0  0  0  0  0  0  0  0  0  0  0  0
  152.4635  136.1679  156.1907 N   0  0  0  0  0  0  0  0  0  0  0  0
  153.1262  137.3003  156.6417 N   0  0  0  0  0  0  0  0  0  0  0  0
  152.3026  138.3302  156.8837 C   0  0  0  0  0  0  0  0  0  0  0  0
  152.7441  139.5247  157.3196 N   0  5  0  0  0  0  0  0  0  0  0  0
  151.9414  140.4085  157.9696 C   0  0  0  0  0  0  0  0  0  0  0  0
  150.7354  140.2291  158.1346 O   0  0  0  0  0  0  0  0  0  0  0  0
  152.5056  141.5314  158.4557 N   0  0  0  0  0  0  0  0  0  0  0  0
  151.8214  142.6025  159.1758 C   0  0  0  0  0  0  0  0  0  0  0  0
  150.7676  143.2742  158.2732 C   0  0  0  0  0  0  0  0  0  0  0  0
  151.0308  144.7794  158.3544 C   0  0  0  0  0  0  0  0  0  0  0  0
  152.5228  144.8895  158.6511 C   0  0  0  0  0  0  0  0  0  0  0  0
  152.8006  143.7180  159.5921 C   0  0  0  0  0  0  0  0  0  0  0  0
  150.6048  137.9570  156.5877 S   0  0  0  0  0  0  0  0  0  0  0  0
  150.3136  135.1362  154.5808 H   0  0  0  0  0  0  0  0  0  0  0  0
  149.1748  135.5801  155.8639 H   0  0  0  0  0  0  0  0  0  0  0  0
  150.4171  134.3554  156.1696 H   0  0  0  0  0  0  0  0  0  0  0  0
  153.4983  141.6465  158.3139 H   0  0  0  0  0  0  0  0  0  0  0  0
  151.3347  142.1913  160.0620 H   0  0  0  0  0  0  0  0  0  0  0  0
  150.8824  142.9486  157.2377 H   0  0  0  0  0  0  0  0  0  0  0  0
  149.7500  143.0246  158.5755 H   0  0  0  0  0  0  0  0  0  0  0  0
  150.7441  145.3053  157.4432 H   0  0  0  0  0  0  0  0  0  0  0  0
  150.4613  145.2078  159.1803 H   0  0  0  0  0  0  0  0  0  0  0  0
  153.0921  144.7630  157.7293 H   0  0  0  0  0  0  0  0  0  0  0  0
  152.7967  145.8515  159.0852 H   0  0  0  0  0  0  0  0  0  0  0  0
  152.5805  144.0216  160.6163 H   0  0  0  0  0  0  0  0  0  0  0  0
  153.8474  143.4120  159.5682 H   0  0  0  0  0  0  0  0  0  0  0  0
  1  2  1  0  0  0  0
  1 16  1  0  0  0  0
  1 17  1  0  0  0  0
  1 18  1  0  0  0  0
  2 15  1  0  0  0  0
  2  3  2  0  0  0  0
  3  4  1  0  0  0  0
  4  5  2  0  0  0  0
  5  6  1  0  0  0  0
  5 15  1  0  0  0  0
  6  7  1  0  0  0  0
  7  8  2  0  0  0  0
  7  9  1  0  0  0  0
  9 10  1  0  0  0  0
  9 19  1  0  0  0  0
 10 14  1  0  0  0  0
 10 11  1  0  0  0  0
 10 20  1  0  0  0  0
 11 12  1  0  0  0  0
 11 21  1  0  0  0  0
 11 22  1  0  0  0  0
 12 13  1  0  0  0  0
 12 23  1  0  0  0  0
 12 24  1  0  0  0  0
 13 14  1  0  0  0  0
 13 25  1  0  0  0  0
 13 26  1  0  0  0  0
 14 27  1  0  0  0  0
 14 28  1  0  0  0  0
M  CHG  1   6  -1
M  END
> <s_m_source_file>
AV-unprocessed.smi

> <i_m_source_file_index>
1949

> <i_lp_mmshare_version>
43012

> <i_f3d_flags>
0

> <s_epik_input>
W0NIM11jMW5uYyhzMSlbTkhdQyg9TylbTkhdW0NIXTJbQ0gyXVtDSDJdW0NIMl1bQ0gyXTI=

> <s_epik_cmdline>
J2VwaWtfcHl0aG9uJywgJy1waCcsICc3LjAnLCAnLXRuJywgJzgnLCAnLW1hJywgJzIwMCcsICctbWV0YWxfYmluZGluZycsICctaW1hZScsICc8aW5maWxlLm1hZT4nLCAnLW9tYWUnLCAnPG91dGZpbGUubWFlPic=

> <r_lp_tautomer_probability>
1

> <r_epik_Ionization_Penalty>
4.54091

> <r_epik_Ionization_Penalty_Charging>
4.38642

> <r_epik_Ionization_Penalty_Neutral>
0.154484

> <r_epik_State_Penalty>
4.38606

> <r_epik_Charging_Adjusted_Penalty>
8.77248

> <i_epik_Tot_Q>
-1

> <i_epik_Tot_abs_Q>
1

> <r_epik_Metal_State_Penalty>
0.765318

> <b_epik_Metal_Only>
1

> <s_lp_Force_Field>
OPLS_2005

> <r_lp_Energy>
17.692

> <b_lp_Chiralities_Consistent>
1

> <s_lp_Variant>
AV-unprocessed.smi:1949-2

> <Gold.Version>
5.8.1

> <Gold.Id.Protein>
6NUR|6NUR_protein|mol2

> <Gold.PLP.Fitness>
33.8796

> <Gold.PLP.PLP>
-25.1125

> <Gold.PLP.part.hbond>
-2.3799

> <Gold.PLP.part.metal>
0.0000

> <Gold.PLP.part.buried>
-3.3958

> <Gold.PLP.part.nonpolar>
-19.2779

> <Gold.PLP.part.repulsive>
0.0909

> <Gold.PLP.ligand.clash>
0.0000

> <Gold.PLP.ligand.torsion>
0.1135

> <Gold.PLP.Chemscore.Hbond>
2.9913

> <Gold.PLP.Chemscore.CHOScore>
0.0000

> <Gold.PLP.Chemscore.Metal>
0.0000

> <Gold.Chemscore.Hbonds>
donor molecule, donor type, donor heavy atom, donor atom, acceptor molecule, acceptor atom, score
      P1  H  7997  8008       L1     6  2.00
      P1  H 10752 10765       L1     3  0.99

> <Gold.PLP.Chemscore.Internal.Correction>
0.0203

> <Gold.Rescore>
     Score         DG    S(hbond)    S(metal)    S(lipo)     H(rot)  DE(clash)    DE(int)     intcor
     15.40     -17.01       1.71        0.00      71.77       1.00       0.01       1.60       ----

> <Gold.Chemscore.Fitness>
15.4041

> <Gold.Chemscore.DG>
-17.0129

> <Gold.Chemscore.ZeroCoef>
-5.4800

> <Gold.Chemscore.Hbond>
1.7053

> <Gold.Chemscore.Metal>
0.0000

> <Gold.Chemscore.Lipo>
71.7720

> <Gold.Chemscore.Internal_Hbond>
0.0000

> <Gold.Chemscore.DEClash>
0.0106

> <Gold.Chemscore.DEInternal>
1.5981

> <Gold.Chemscore.Rot>
1.0000

> <Gold.Chemscore.Internal.Correction>
   9.000000E+99

> <Gold.Chemscore.Hbonds>
donor molecule, donor type, donor heavy atom, donor atom, acceptor molecule, acceptor atom, score
      P1  H  7997  8008       L1     6  0.91
      P1  H 10752 10765       L1     3  0.54

> <Gold.Chemscore.Hbond.Weighted>
-5.6956

> <Gold.Chemscore.Metal.Weighted>
-0.0000

> <Gold.Chemscore.Lipo.Weighted>
-8.3973

> <Gold.Chemscore.Internal_Hbond.Weighted>
0.0000

> <Gold.Chemscore.DEClash.Weighted>
0.0106

> <Gold.Chemscore.DEInternal.Weighted>
1.5981

> <Gold.Chemscore.Rot.Weighted>
2.5600

> <Gold.Chemscore.Internal.Correction.Weighted>
   9.000000E+99

> <Gold.Protein.RotatedTorsions>
[ 6907 6896 6895 6894 ] final  117.56 input  -60.11 | X-H torsion
[ 7974 7965 7964 7962 ] final -147.38 input  175.53 | X-H torsion
[ 8008 7997 7996 7995 ] final  -65.10 input   59.86 | X-H torsion
[ 10167 10162 10161 10158 ] final -149.47 input  -65.29 | X-H torsion
[ 10718 10713 10712 10709 ] final  177.62 input   66.30 | X-H torsion
[ 10763 10752 10751 10750 ] final -128.44 input  -60.55 | X-H torsion
[ 11005 11000 10999 10996 ] final  -34.62 input  -57.11 | X-H torsion

> <Gold.Protein.ActiveResidues>
 VAL166  LYS551  ARG553  GLY616  TRP617  ASP618  TYR619  PRO620  LYS621  CYS622 
 ASP623  PHE694  ASN695  SER759  ASP760  ASP761  ALA762  ILE779  LEU786  VAL792 
 PHE793  MET794  SER795  GLU796  ALA797  LYS798  CYS799  TRP800  GLU811  SER814 

> <Gold.Protein.RotatedAtoms>
  152.4603  133.7808  159.6849 H   0  0  0  0  0  0  0  0  0  0  0  0  # atno 6907 bound_to 6896
  150.8545  133.7727  159.3020 H   0  0  0  0  0  0  0  0  0  0  0  0  # atno 6908 bound_to 6896
  151.5312  135.1071  159.9955 H   0  0  0  0  0  0  0  0  0  0  0  0  # atno 6909 bound_to 6896
  144.8097  140.5334  143.5651 H   0  0  0  0  0  0  0  0  0  0  0  0  # atno 7974 bound_to 7965
  154.4651  140.0940  156.6999 H   0  0  0  0  0  0  0  0  0  0  0  0  # atno 8008 bound_to 7997
  155.4880  140.3470  155.4332 H   0  0  0  0  0  0  0  0  0  0  0  0  # atno 8009 bound_to 7997
  156.0942  140.1405  156.9541 H   0  0  0  0  0  0  0  0  0  0  0  0  # atno 8010 bound_to 7997
  139.7440  143.8619  152.2570 H   0  0  0  0  0  0  0  0  0  0  0  0  # atno 10167 bound_to 10162
  156.9027  130.9884  151.3033 H   0  0  0  0  0  0  0  0  0  0  0  0  # atno 10718 bound_to 10713
  154.8756  135.3928  154.3757 H   0  0  0  0  0  0  0  0  0  0  0  0  # atno 10763 bound_to 10752
  153.4510  135.7028  153.6114 H   0  0  0  0  0  0  0  0  0  0  0  0  # atno 10764 bound_to 10752
  153.4653  135.3802  155.2330 H   0  0  0  0  0  0  0  0  0  0  0  0  # atno 10765 bound_to 10752
  140.9731  133.7098  156.1557 H   0  0  0  0  0  0  0  0  0  0  0  0  # atno 11005 bound_to 11000
  145.5353  139.1475  143.3477 LP  0  0  0  0  0  0  0  0  0  0  0  0  # atno 17320 bound_to 7965
  146.2394  140.5493  142.8940 LP  0  0  0  0  0  0  0  0  0  0  0  0  # atno 17321 bound_to 7965
  139.8578  144.7132  150.9136 LP  0  0  0  0  0  0  0  0  0  0  0  0  # atno 17342 bound_to 10162
  140.7789  143.3844  151.1420 LP  0  0  0  0  0  0  0  0  0  0  0  0  # atno 17343 bound_to 10162
  157.6016  130.8517  149.8811 LP  0  0  0  0  0  0  0  0  0  0  0  0  # atno 17370 bound_to 10713
  156.0574  130.3706  150.1059 LP  0  0  0  0  0  0  0  0  0  0  0  0  # atno 17371 bound_to 10713
  140.7299  134.4265  157.5567 LP  0  0  0  0  0  0  0  0  0  0  0  0  # atno 17394 bound_to 11000
  139.8920  134.8766  156.2293 LP  0  0  0  0  0  0  0  0  0  0  0  0  # atno 17395 bound_to 11000

$$$$
