#       Name:                AV-unprocessed.smi:1473
#       Creating user name   scv26
#       Creation time:       Fri Mar 27 06:06:04 2020


#       File generated by GOLD software.
#

@<TRIPOS>MOLECULE
AV-unprocessed.smi:1473
    38    39     1
SMALL
NO_CHARGES


@<TRIPOS>ATOM
      1 ****        -2.1643   4.6613   0.5134 N.pl3          1 S1                -1.0000
      2 ****        -1.7304   4.8803  -1.0320 S.o2           1 S1                 0.0000
      3 ****        -2.9236   5.1605  -1.8451 O.2            1 S1                 0.0000
      4 ****        -0.6449   5.8699  -1.1502 O.2            1 S1                 0.0000
      5 ****        -1.2268   3.3514  -1.2980 N.pl3          1 S1                -1.0000
      6 ****         0.1358   2.9158  -1.0027 C.3            1 S1                 0.0000
      7 ****         0.3142   1.4261  -1.2596 C.ar           1 S1                 0.0000
      8 ****         0.6457   0.9496  -2.5470 C.ar           1 S1                 0.0000
      9 ****         0.7907  -0.4375  -2.7295 C.ar           1 S1                 0.0000
     10 ****         0.6369  -1.3372  -1.7362 N.ar           1 S1                 0.0000
     11 ****         0.3236  -0.8937  -0.4936 C.ar           1 S1                 0.0000
     12 ****         0.1698  -1.8471   0.5366 N.3            1 S1                 0.0000
     13 ****         0.9612  -1.6079   1.7408 C.3            1 S1                 0.0000
     14 ****         0.4856  -2.5200   2.8850 C.3            1 S1                 0.0000
     15 ****         0.5142  -3.8799   2.4639 O.3            1 S1                 0.0000
     16 ****        -0.3536  -4.1090   1.3586 C.3            1 S1                 0.0000
     17 ****         0.0985  -3.2576   0.1605 C.3            1 S1                 0.0000
     18 ****         0.1488   0.4838  -0.2182 C.ar           1 S1                 0.0000
     19 ****        -1.4490   5.0921   1.1111 H              1 S1                 0.0000
     20 ****         0.8709   3.4497  -1.6065 H              1 S1                 0.0000
     21 ****         0.4119   3.1148   0.0338 H              1 S1                 0.0000
     22 ****         0.7800   1.6186  -3.3861 H              1 S1                 0.0000
     23 ****         1.0393  -0.8364  -3.7017 H              1 S1                 0.0000
     24 ****         2.0099  -1.8075   1.5167 H              1 S1                 0.0000
     25 ****         0.8995  -0.5708   2.0669 H              1 S1                 0.0000
     26 ****         1.1363  -2.4035   3.7518 H              1 S1                 0.0000
     27 ****        -0.5215  -2.2481   3.2048 H              1 S1                 0.0000
     28 ****        -0.3259  -5.1671   1.0985 H              1 S1                 0.0000
     29 ****        -1.3830  -3.8758   1.6356 H              1 S1                 0.0000
     30 ****        -0.6022  -3.3937  -0.6643 H              1 S1                 0.0000
     31 ****         1.0788  -3.5897  -0.1843 H              1 S1                 0.0000
     32 ****        -0.1266   0.8097   0.7756 H              1 S1                 0.0000
     33 ****        -2.9865   4.1884   0.8304 LP             1 S1                 0.0000
     34 ****        -1.8737   2.6893  -1.6764 LP             1 S1                 0.0000
     35 ****         0.7520  -2.3147  -1.9132 LP             1 S1                 0.0000
     36 ****        -0.7765  -1.6489   0.7921 LP             1 S1                 0.0000
     37 ****         0.2281  -4.4609   3.2260 LP             1 S1                 0.0000
     38 ****         1.4483  -4.1166   2.1967 LP             1 S1                 0.0000
@<TRIPOS>BOND
    1    1    2 1     
    2    1   19 1     
    3    2    3 2     
    4    2    4 2     
    5    2    5 1     
    6    5    6 1     
    7    6    7 1     
    8    6   20 1     
    9    6   21 1     
   10    7   18 ar    
   11    7    8 ar    
   12    8    9 ar    
   13    8   22 1     
   14    9   10 ar    
   15    9   23 1     
   16   10   11 ar    
   17   11   12 1     
   18   11   18 ar    
   19   12   17 1     
   20   12   13 1     
   21   13   14 1     
   22   13   24 1     
   23   13   25 1     
   24   14   15 1     
   25   14   26 1     
   26   14   27 1     
   27   15   16 1     
   28   16   17 1     
   29   16   28 1     
   30   16   29 1     
   31   17   30 1     
   32   17   31 1     
   33   18   32 1     
   34    1   33 1     
   35    5   34 1     
   36   10   35 1     
   37   12   36 1     
   38   15   37 1     
   39   15   38 1     
@<TRIPOS>SUBSTRUCTURE
      1 S1             1
@<TRIPOS>SET
LONE_PAIRS      STATIC     ATOMS    <user>   **** ""
8 33 3 4 34 35 36 37 38
DONOR_HYDROGENS      STATIC     ATOMS    <user>   **** ""
1 19
ATOM$BLUE        STATIC     ATOMS    COLORGROUP SYSTEM
8 33 3 4 34 35 36 37 38
ATOM$RED        STATIC     ATOMS    COLORGROUP SYSTEM
1 19
