AV-unprocessed.smi:3099|AV-procd|sdf|11803|dock1
  -GOLD-   2272017173D 1   1.00000     0.00000
 Structure written by MMmdl.
 32 33  0  0  0  0  0  0  0  0  1 V2000
  152.8864  142.2363  160.3044 C   0  0  0  0  0  0  0  0  0  0  0  0
  152.1388  143.3756  159.8106 N   0  0  0  0  0  0  0  0  0  0  0  0
  152.2546  144.6442  160.2259 C   0  0  0  0  0  0  0  0  0  0  0  0
  151.4548  145.5022  159.6074 N   0  0  0  0  0  0  0  0  0  0  0  0
  150.7572  144.7086  158.7016 C   0  0  0  0  0  0  0  0  0  0  0  0
  151.1692  143.3984  158.8103 C   0  0  0  0  0  0  0  0  0  0  0  0
  150.7250  142.1927  158.0388 C   0  0  0  0  0  0  0  0  0  0  0  0
  151.0378  142.2393  156.5311 C   0  0  0  0  0  0  0  0  0  0  0  0
  149.8256  142.2557  155.7158 N   0  0  0  0  0  0  0  0  0  0  0  0
  149.4551  141.3023  154.8462 C   0  0  0  0  0  0  0  0  0  0  0  0
  150.1083  140.2776  154.6467 O   0  0  0  0  0  0  0  0  0  0  0  0
  148.1557  141.5607  154.0788 C   0  0  0  0  0  0  0  0  0  0  0  0
  147.1692  140.4078  154.1618 C   0  0  0  0  0  0  0  0  0  0  0  0
  147.5922  138.9909  153.8425 C   0  0  0  0  0  0  0  0  0  0  0  0
  146.6664  139.7295  152.9078 C   0  0  0  0  0  0  0  0  0  0  0  0
  153.2757  142.4476  161.3008 H   0  0  0  0  0  0  0  0  0  0  0  0
  153.7213  142.0285  159.6352 H   0  0  0  0  0  0  0  0  0  0  0  0
  152.2430  141.3586  160.3602 H   0  0  0  0  0  0  0  0  0  0  0  0
  152.9427  144.9474  161.0015 H   0  0  0  0  0  0  0  0  0  0  0  0
  150.0215  145.1388  158.0383 H   0  0  0  0  0  0  0  0  0  0  0  0
  151.1720  141.2976  158.4720 H   0  0  0  0  0  0  0  0  0  0  0  0
  149.6491  142.0716  158.1688 H   0  0  0  0  0  0  0  0  0  0  0  0
  151.6664  143.1012  156.3034 H   0  0  0  0  0  0  0  0  0  0  0  0
  151.6227  141.3623  156.2539 H   0  0  0  0  0  0  0  0  0  0  0  0
  149.2274  143.0634  155.8106 H   0  0  0  0  0  0  0  0  0  0  0  0
  147.6703  142.4619  154.4554 H   0  0  0  0  0  0  0  0  0  0  0  0
  148.4083  141.7481  153.0343 H   0  0  0  0  0  0  0  0  0  0  0  0
  146.4442  140.5126  154.9671 H   0  0  0  0  0  0  0  0  0  0  0  0
  148.6169  138.8304  153.5123 H   0  0  0  0  0  0  0  0  0  0  0  0
  147.1670  138.1935  154.4483 H   0  0  0  0  0  0  0  0  0  0  0  0
  145.6226  139.4229  152.8875 H   0  0  0  0  0  0  0  0  0  0  0  0
  147.0747  140.0553  151.9531 H   0  0  0  0  0  0  0  0  0  0  0  0
  1  2  1  0  0  0  0
  1 16  1  0  0  0  0
  1 17  1  0  0  0  0
  1 18  1  0  0  0  0
  2  6  1  0  0  0  0
  2  3  1  0  0  0  0
  3  4  2  0  0  0  0
  3 19  1  0  0  0  0
  4  5  1  0  0  0  0
  5  6  2  0  0  0  0
  5 20  1  0  0  0  0
  6  7  1  0  0  0  0
  7  8  1  0  0  0  0
  7 21  1  0  0  0  0
  7 22  1  0  0  0  0
  8  9  1  0  0  0  0
  8 23  1  0  0  0  0
  8 24  1  0  0  0  0
  9 10  1  0  0  0  0
  9 25  1  0  0  0  0
 10 11  2  0  0  0  0
 10 12  1  0  0  0  0
 12 13  1  0  0  0  0
 12 26  1  0  0  0  0
 12 27  1  0  0  0  0
 13 15  1  0  0  0  0
 13 14  1  0  0  0  0
 13 28  1  0  0  0  0
 14 15  1  0  0  0  0
 14 29  1  0  0  0  0
 14 30  1  0  0  0  0
 15 31  1  0  0  0  0
 15 32  1  0  0  0  0
M  END
> <s_m_source_file>
AV-unprocessed.smi

> <i_m_source_file_index>
3099

> <i_lp_mmshare_version>
43012

> <i_f3d_flags>
0

> <s_epik_input>
W0NIM11uMVtjSF1uW2NIXWMxW0NIMl1bQ0gyXVtOSF1DKD1PKVtDSDJdW0NIXTJbQ0gyXVtDSDJdMg==

> <s_epik_cmdline>
J2VwaWtfcHl0aG9uJywgJy1waCcsICc3LjAnLCAnLXRuJywgJzgnLCAnLW1hJywgJzIwMCcsICctbWV0YWxfYmluZGluZycsICctaW1hZScsICc8aW5maWxlLm1hZT4nLCAnLW9tYWUnLCAnPG91dGZpbGUubWFlPic=

> <r_lp_tautomer_probability>
1

> <r_epik_Ionization_Penalty>
0.86664

> <r_epik_Ionization_Penalty_Charging>
0.86664

> <r_epik_Ionization_Penalty_Neutral>
2.48486e-08

> <r_epik_State_Penalty>
0.903601

> <r_epik_Charging_Adjusted_Penalty>
1.77024

> <i_epik_Tot_Q>
0

> <i_epik_Tot_abs_Q>
0

> <r_epik_Metal_State_Penalty>
0.359833

> <b_epik_Metal_Only>
0

> <s_lp_Force_Field>
OPLS_2005

> <r_lp_Energy>
10.131

> <b_lp_Chiralities_Consistent>
1

> <s_lp_Variant>
AV-unprocessed.smi:3099-2

> <Gold.Version>
5.8.1

> <Gold.Id.Protein>
6NUR|6NUR_protein|mol2

> <Gold.PLP.Fitness>
43.4487

> <Gold.PLP.PLP>
-35.4928

> <Gold.PLP.part.hbond>
-2.0000

> <Gold.PLP.part.metal>
0.0000

> <Gold.PLP.part.buried>
-4.3508

> <Gold.PLP.part.nonpolar>
-29.0389

> <Gold.PLP.part.repulsive>
0.4216

> <Gold.PLP.ligand.clash>
0.0000

> <Gold.PLP.ligand.torsion>
0.8457

> <Gold.PLP.Chemscore.Hbond>
1.9920

> <Gold.PLP.Chemscore.CHOScore>
1.0313

> <Gold.PLP.Chemscore.Metal>
0.0000

> <Gold.Chemscore.Hbonds>
donor molecule, donor type, donor heavy atom, donor atom, acceptor molecule, acceptor atom, score
      L1  H     9    25       P1  8028  1.00
      P1  H  7989  7998       L1    11  1.00
      L1  C     5    20       P1  8028  0.19
      L1  C     5    20       P1  8029  0.78

> <Gold.PLP.Chemscore.Internal.Correction>
0.5775

> <Gold.Rescore>
     Score         DG    S(hbond)    S(metal)    S(lipo)     H(rot)  DE(clash)    DE(int)     intcor
     13.17     -15.00       1.76        0.00      73.08       1.91       0.48       1.36       ----

> <Gold.Chemscore.Fitness>
13.1719

> <Gold.Chemscore.DG>
-15.0048

> <Gold.Chemscore.ZeroCoef>
-5.4800

> <Gold.Chemscore.Hbond>
1.7568

> <Gold.Chemscore.Metal>
0.0000

> <Gold.Chemscore.Lipo>
73.0778

> <Gold.Chemscore.Internal_Hbond>
0.0000

> <Gold.Chemscore.DEClash>
0.4753

> <Gold.Chemscore.DEInternal>
1.3577

> <Gold.Chemscore.Rot>
1.9113

> <Gold.Chemscore.Internal.Correction>
   9.000000E+99

> <Gold.Chemscore.Hbonds>
donor molecule, donor type, donor heavy atom, donor atom, acceptor molecule, acceptor atom, score
      L1  H     9    25       P1  8028  0.97
      P1  H  7989  7998       L1    11  0.41

> <Gold.Chemscore.Hbond.Weighted>
-5.8677

> <Gold.Chemscore.Metal.Weighted>
-0.0000

> <Gold.Chemscore.Lipo.Weighted>
-8.5501

> <Gold.Chemscore.Internal_Hbond.Weighted>
0.0000

> <Gold.Chemscore.DEClash.Weighted>
0.4753

> <Gold.Chemscore.DEInternal.Weighted>
1.3577

> <Gold.Chemscore.Rot.Weighted>
4.8930

> <Gold.Chemscore.Internal.Correction.Weighted>
   9.000000E+99

> <Gold.Protein.RotatedTorsions>
[ 6907 6896 6895 6894 ] final  -90.40 input  -60.11 | X-H torsion
[ 7974 7965 7964 7962 ] final   58.98 input  175.53 | X-H torsion
[ 8008 7997 7996 7995 ] final   67.23 input   59.86 | X-H torsion
[ 10167 10162 10161 10158 ] final  163.52 input  -65.29 | X-H torsion
[ 10718 10713 10712 10709 ] final   87.45 input   66.30 | X-H torsion
[ 10763 10752 10751 10750 ] final  -84.12 input  -60.55 | X-H torsion
[ 11005 11000 10999 10996 ] final  -52.40 input  -57.11 | X-H torsion

> <Gold.Protein.ActiveResidues>
 VAL166  LYS551  ARG553  GLY616  TRP617  ASP618  TYR619  PRO620  LYS621  CYS622 
 ASP623  PHE694  ASN695  SER759  ASP760  ASP761  ALA762  ILE779  LEU786  VAL792 
 PHE793  MET794  SER795  GLU796  ALA797  LYS798  CYS799  TRP800  GLU811  SER814 

> <Gold.Protein.RotatedAtoms>
  150.6881  134.2438  159.4482 H   0  0  0  0  0  0  0  0  0  0  0  0  # atno 6907 bound_to 6896
  152.0380  134.9726  160.0583 H   0  0  0  0  0  0  0  0  0  0  0  0  # atno 6908 bound_to 6896
  152.1239  133.4334  159.4725 H   0  0  0  0  0  0  0  0  0  0  0  0  # atno 6909 bound_to 6896
  145.9122  139.3663  143.0528 H   0  0  0  0  0  0  0  0  0  0  0  0  # atno 7974 bound_to 7965
  155.6897  140.3496  155.4888 H   0  0  0  0  0  0  0  0  0  0  0  0  # atno 8008 bound_to 7997
  155.9535  140.1124  157.0979 H   0  0  0  0  0  0  0  0  0  0  0  0  # atno 8009 bound_to 7997
  154.4127  140.1189  156.5070 H   0  0  0  0  0  0  0  0  0  0  0  0  # atno 8010 bound_to 7997
  139.4875  144.4328  151.9049 H   0  0  0  0  0  0  0  0  0  0  0  0  # atno 10167 bound_to 10162
  157.6940  131.0256  150.3125 H   0  0  0  0  0  0  0  0  0  0  0  0  # atno 10718 bound_to 10713
  154.5958  135.5532  153.7324 H   0  0  0  0  0  0  0  0  0  0  0  0  # atno 10763 bound_to 10752
  153.0135  135.6354  154.1784 H   0  0  0  0  0  0  0  0  0  0  0  0  # atno 10764 bound_to 10752
  154.1725  135.2891  155.3057 H   0  0  0  0  0  0  0  0  0  0  0  0  # atno 10765 bound_to 10752
  141.0922  133.6630  156.4018 H   0  0  0  0  0  0  0  0  0  0  0  0  # atno 11005 bound_to 11000
  145.8657  140.9449  143.0677 LP  0  0  0  0  0  0  0  0  0  0  0  0  # atno 17320 bound_to 7965
  144.6744  140.0588  143.7476 LP  0  0  0  0  0  0  0  0  0  0  0  0  # atno 17321 bound_to 7965
  140.3777  144.2776  150.5912 LP  0  0  0  0  0  0  0  0  0  0  0  0  # atno 17342 bound_to 10162
  140.5262  143.2254  151.8311 LP  0  0  0  0  0  0  0  0  0  0  0  0  # atno 17343 bound_to 10162
  156.3624  130.3849  149.7240 LP  0  0  0  0  0  0  0  0  0  0  0  0  # atno 17370 bound_to 10713
  156.4682  130.7984  151.3003 LP  0  0  0  0  0  0  0  0  0  0  0  0  # atno 17371 bound_to 10713
  140.5225  134.6290  157.5323 LP  0  0  0  0  0  0  0  0  0  0  0  0  # atno 17394 bound_to 11000
  139.9750  134.7230  155.9967 LP  0  0  0  0  0  0  0  0  0  0  0  0  # atno 17395 bound_to 11000

$$$$
