AV-unprocessed.smi:2526|AV-procd|sdf|9937|dock9
  -GOLD-   2272013583D 1   1.00000     0.00000
 Structure written by MMmdl.
 29 30  0  0  0  0  0  0  0  0  2 V2000
  145.8597  142.9348  153.8853 C   0  0  0  0  0  0  0  0  0  0  0  0
  146.9803  142.2065  154.4403 N   0  0  0  0  0  0  0  0  0  0  0  0
  147.9749  141.5228  153.7758 C   0  0  0  0  0  0  0  0  0  0  0  0
  148.8117  140.9909  154.7188 C   0  0  0  0  0  0  0  0  0  0  0  0
  150.0595  140.1612  154.5320 C   0  0  1  0  0  0  0  0  0  0  0  0
  151.0019  140.3908  155.6304 N   0  0  0  0  0  0  0  0  0  0  0  0
  151.8400  139.4913  156.1763 C   0  0  0  0  0  0  0  0  0  0  0  0
  152.6378  139.8101  157.0539 O   0  0  0  0  0  0  0  0  0  0  0  0
  151.7697  138.0266  155.7173 C   0  0  0  0  0  0  0  0  0  0  0  0
  151.0028  137.8266  154.3995 C   0  0  0  0  0  0  0  0  0  0  0  0
  149.7165  138.6606  154.3817 C   0  0  2  0  0  0  0  0  0  0  0  0
  148.9293  138.3994  153.1628 N   0  3  0  0  0  0  0  0  0  0  0  0
  148.2258  141.4125  155.9475 C   0  0  0  0  0  0  0  0  0  0  0  0
  147.1352  142.1403  155.7781 N   0  0  0  0  0  0  0  0  0  0  0  0
  146.0397  143.1499  152.8315 H   0  0  0  0  0  0  0  0  0  0  0  0
  145.7237  143.8761  154.4192 H   0  0  0  0  0  0  0  0  0  0  0  0
  144.9526  142.3367  153.9768 H   0  0  0  0  0  0  0  0  0  0  0  0
  148.0060  141.4730  152.6970 H   0  0  0  0  0  0  0  0  0  0  0  0
  150.5802  140.4838  153.6289 H   0  0  0  0  0  0  0  0  0  0  0  0
  151.0598  141.3381  155.9766 H   0  0  0  0  0  0  0  0  0  0  0  0
  152.7795  137.6246  155.6271 H   0  0  0  0  0  0  0  0  0  0  0  0
  151.2799  137.4601  156.5099 H   0  0  0  0  0  0  0  0  0  0  0  0
  151.6398  138.1034  153.5579 H   0  0  0  0  0  0  0  0  0  0  0  0
  150.7690  136.7687  154.2746 H   0  0  0  0  0  0  0  0  0  0  0  0
  149.0990  138.3513  155.2270 H   0  0  0  0  0  0  0  0  0  0  0  0
  149.0866  139.1390  152.4931 H   0  0  0  0  0  0  0  0  0  0  0  0
  147.9480  138.3617  153.3995 H   0  0  0  0  0  0  0  0  0  0  0  0
  148.5626  141.2141  156.9543 H   0  0  0  0  0  0  0  0  0  0  0  0
  149.2121  137.5165  152.7618 H   0  0  0  0  0  0  0  0  0  0  0  0
  1  2  1  0  0  0  0
  1 15  1  0  0  0  0
  1 16  1  0  0  0  0
  1 17  1  0  0  0  0
  2 14  1  0  0  0  0
  2  3  1  0  0  0  0
  3  4  2  0  0  0  0
  3 18  1  0  0  0  0
  4  5  1  0  0  0  0
  4 13  1  0  0  0  0
  5 11  1  0  0  0  0
  5  6  1  0  0  0  0
  5 19  1  0  0  0  0
  6  7  1  0  0  0  0
  6 20  1  0  0  0  0
  7  8  2  0  0  0  0
  7  9  1  0  0  0  0
  9 10  1  0  0  0  0
  9 21  1  0  0  0  0
  9 22  1  0  0  0  0
 10 11  1  0  0  0  0
 10 23  1  0  0  0  0
 10 24  1  0  0  0  0
 11 12  1  0  0  0  0
 11 25  1  0  0  0  0
 12 26  1  0  0  0  0
 12 27  1  0  0  0  0
 12 29  1  0  0  0  0
 13 14  2  0  0  0  0
 13 28  1  0  0  0  0
M  CHG  1  12   1
M  END
> <s_m_source_file>
AV-unprocessed.smi

> <i_m_source_file_index>
2526

> <i_lp_mmshare_version>
43012

> <i_f3d_flags>
0

> <s_epik_input>
W0NIM11uMVtjSF1jKFtjSF1uMSlbQ0BASF0yW05IXUMoPU8pW0NIMl1bQ0gyXVtDQEhdMltOSDJd

> <s_epik_cmdline>
J2VwaWtfcHl0aG9uJywgJy1waCcsICc3LjAnLCAnLXRuJywgJzgnLCAnLW1hJywgJzIwMCcsICctbWV0YWxfYmluZGluZycsICctaW1hZScsICc8aW5maWxlLm1hZT4nLCAnLW9tYWUnLCAnPG91dGZpbGUubWFlPic=

> <r_lp_tautomer_probability>
1

> <r_epik_Ionization_Penalty>
0.00878543

> <r_epik_Ionization_Penalty_Charging>
0.00874185

> <r_epik_Ionization_Penalty_Neutral>
4.35793e-05

> <r_epik_State_Penalty>
0.00660351

> <r_epik_Charging_Adjusted_Penalty>
0.0153454

> <i_epik_Tot_Q>
1

> <i_epik_Tot_abs_Q>
1

> <r_epik_Metal_State_Penalty>
0.00660727

> <b_epik_Metal_Only>
0

> <s_lp_Force_Field>
OPLS_2005

> <r_lp_Energy>
10.7235

> <b_lp_Chiralities_Consistent>
1

> <s_lp_Variant>
AV-unprocessed.smi:2526-4

> <Gold.Version>
5.8.1

> <Gold.Id.Protein>
6NUR|6NUR_protein|mol2

> <Gold.PLP.Fitness>
41.8569

> <Gold.PLP.PLP>
-28.4103

> <Gold.PLP.part.hbond>
-2.8268

> <Gold.PLP.part.metal>
0.0000

> <Gold.PLP.part.buried>
-2.7193

> <Gold.PLP.part.nonpolar>
-24.2525

> <Gold.PLP.part.repulsive>
1.1089

> <Gold.PLP.ligand.clash>
0.0000

> <Gold.PLP.ligand.torsion>
0.7292

> <Gold.PLP.Chemscore.Hbond>
4.0000

> <Gold.PLP.Chemscore.CHOScore>
0.9611

> <Gold.PLP.Chemscore.Metal>
0.0000

> <Gold.Chemscore.Hbonds>
donor molecule, donor type, donor heavy atom, donor atom, acceptor molecule, acceptor atom, score
      L1  H    12    26       P1  7957  1.00
      L1  H    12    29       P1  7948  2.00
      P1  H  7997  8008       L1     8  1.00
      L1  C     3    18       P1  7957  0.77

> <Gold.PLP.Chemscore.Internal.Correction>
0.0215

> <Gold.Rescore>
     Score         DG    S(hbond)    S(metal)    S(lipo)     H(rot)  DE(clash)    DE(int)     intcor
     18.00     -18.93       2.91        0.00      53.76       1.00       0.20       0.74       ----

> <Gold.Chemscore.Fitness>
17.9953

> <Gold.Chemscore.DG>
-18.9317

> <Gold.Chemscore.ZeroCoef>
-5.4800

> <Gold.Chemscore.Hbond>
2.9106

> <Gold.Chemscore.Metal>
0.0000

> <Gold.Chemscore.Lipo>
53.7618

> <Gold.Chemscore.Internal_Hbond>
0.0000

> <Gold.Chemscore.DEClash>
0.1972

> <Gold.Chemscore.DEInternal>
0.7392

> <Gold.Chemscore.Rot>
1.0000

> <Gold.Chemscore.Internal.Correction>
   9.000000E+99

> <Gold.Chemscore.Hbonds>
donor molecule, donor type, donor heavy atom, donor atom, acceptor molecule, acceptor atom, score
      L1  H    12    26       P1  7957  1.00
      L1  H    12    29       P1  7948  0.90
      P1  H  7997  8008       L1     8  0.98

> <Gold.Chemscore.Hbond.Weighted>
-9.7216

> <Gold.Chemscore.Metal.Weighted>
-0.0000

> <Gold.Chemscore.Lipo.Weighted>
-6.2901

> <Gold.Chemscore.Internal_Hbond.Weighted>
0.0000

> <Gold.Chemscore.DEClash.Weighted>
0.1972

> <Gold.Chemscore.DEInternal.Weighted>
0.7392

> <Gold.Chemscore.Rot.Weighted>
2.5600

> <Gold.Chemscore.Internal.Correction.Weighted>
   9.000000E+99

> <Gold.Protein.RotatedTorsions>
[ 6907 6896 6895 6894 ] final -133.13 input  -60.11 | X-H torsion
[ 7974 7965 7964 7962 ] final -107.55 input  175.53 | X-H torsion
[ 8008 7997 7996 7995 ] final  -61.93 input   59.86 | X-H torsion
[ 10167 10162 10161 10158 ] final  112.05 input  -65.29 | X-H torsion
[ 10718 10713 10712 10709 ] final  -39.17 input   66.30 | X-H torsion
[ 10763 10752 10751 10750 ] final  -54.69 input  -60.55 | X-H torsion
[ 11005 11000 10999 10996 ] final  125.03 input  -57.11 | X-H torsion

> <Gold.Protein.ActiveResidues>
 VAL166  LYS551  ARG553  GLY616  TRP617  ASP618  TYR619  PRO620  LYS621  CYS622 
 ASP623  PHE694  ASN695  SER759  ASP760  ASP761  ALA762  ILE779  LEU786  VAL792 
 PHE793  MET794  SER795  GLU796  ALA797  LYS798  CYS799  TRP800  GLU811  SER814 

> <Gold.Protein.RotatedAtoms>
  150.9704  133.6350  159.2738 H   0  0  0  0  0  0  0  0  0  0  0  0  # atno 6907 bound_to 6896
  151.3641  135.0908  159.9453 H   0  0  0  0  0  0  0  0  0  0  0  0  # atno 6908 bound_to 6896
  152.5181  133.9272  159.7617 H   0  0  0  0  0  0  0  0  0  0  0  0  # atno 6909 bound_to 6896
  145.2039  140.9068  143.3353 H   0  0  0  0  0  0  0  0  0  0  0  0  # atno 7974 bound_to 7965
  154.4473  140.1007  156.6507 H   0  0  0  0  0  0  0  0  0  0  0  0  # atno 8008 bound_to 7997
  155.5401  140.3483  155.4426 H   0  0  0  0  0  0  0  0  0  0  0  0  # atno 8009 bound_to 7997
  156.0603  140.1325  156.9937 H   0  0  0  0  0  0  0  0  0  0  0  0  # atno 8010 bound_to 7997
  139.6565  144.7129  151.1948 H   0  0  0  0  0  0  0  0  0  0  0  0  # atno 10167 bound_to 10162
  156.2955  130.4233  149.8196 H   0  0  0  0  0  0  0  0  0  0  0  0  # atno 10718 bound_to 10713
  154.1789  135.6446  153.5029 H   0  0  0  0  0  0  0  0  0  0  0  0  # atno 10763 bound_to 10752
  153.0064  135.5401  154.6535 H   0  0  0  0  0  0  0  0  0  0  0  0  # atno 10764 bound_to 10752
  154.5894  135.2932  155.0624 H   0  0  0  0  0  0  0  0  0  0  0  0  # atno 10765 bound_to 10752
  139.9387  134.9637  156.8498 H   0  0  0  0  0  0  0  0  0  0  0  0  # atno 11005 bound_to 11000
  144.9921  139.3680  143.6210 LP  0  0  0  0  0  0  0  0  0  0  0  0  # atno 17320 bound_to 7965
  146.3412  139.9108  142.8780 LP  0  0  0  0  0  0  0  0  0  0  0  0  # atno 17321 bound_to 7965
  140.7561  143.6064  150.8648 LP  0  0  0  0  0  0  0  0  0  0  0  0  # atno 17342 bound_to 10162
  139.9718  143.6048  152.2971 LP  0  0  0  0  0  0  0  0  0  0  0  0  # atno 17343 bound_to 10162
  156.5593  130.8376  151.3324 LP  0  0  0  0  0  0  0  0  0  0  0  0  # atno 17370 bound_to 10713
  157.7354  130.9761  150.2080 LP  0  0  0  0  0  0  0  0  0  0  0  0  # atno 17371 bound_to 10713
  140.6008  134.0173  155.7536 LP  0  0  0  0  0  0  0  0  0  0  0  0  # atno 17394 bound_to 11000
  141.1012  133.9765  157.3075 LP  0  0  0  0  0  0  0  0  0  0  0  0  # atno 17395 bound_to 11000

$$$$
