AV-unprocessed.smi:1940|AV-procd|sdf|7842|dock1
  -GOLD-   22720 9583D 1   1.00000     0.00000
 Structure written by MMmdl.
 50 52  0  0  0  0  0  0  0  0  2 V2000
  144.6668  136.8509  153.4910 C   0  0  0  0  0  0  0  0  0  0  0  0
  145.5428  137.1565  152.2673 C   0  0  1  0  0  0  0  0  0  0  0  0
  146.9036  137.4462  152.7183 N   0  0  0  0  0  0  0  0  0  0  0  0
  147.2514  138.3652  153.6308 C   0  0  0  0  0  0  0  0  0  0  0  0
  146.4463  139.0975  154.2052 O   0  0  0  0  0  0  0  0  0  0  0  0
  148.5834  138.3895  153.8100 N   0  0  0  0  0  0  0  0  0  0  0  0
  149.3381  139.1984  154.7018 C   0  0  0  0  0  0  0  0  0  0  0  0
  150.7460  139.1203  154.6324 C   0  0  0  0  0  0  0  0  0  0  0  0
  151.5342  139.8951  155.5079 C   0  0  0  0  0  0  0  0  0  0  0  0
  150.8986  140.7326  156.4526 C   0  0  0  0  0  0  0  0  0  0  0  0
  151.5953  141.5373  157.3629 N   0  0  0  0  0  0  0  0  0  0  0  0
  151.2405  142.9507  157.2629 C   0  0  0  0  0  0  0  0  0  0  0  0
  152.1721  143.8099  158.1351 C   0  0  0  0  0  0  0  0  0  0  0  0
  152.1833  143.3080  159.5880 C   0  0  0  0  0  0  0  0  0  0  0  0
  152.5306  141.8110  159.6308 C   0  0  0  0  0  0  0  0  0  0  0  0
  151.5887  141.0025  158.7220 C   0  0  0  0  0  0  0  0  0  0  0  0
  149.5496  140.7688  156.4996 N   0  3  0  0  0  0  0  0  0  0  0  0
  148.7583  140.0458  155.6778 C   0  0  0  0  0  0  0  0  0  0  0  0
  145.5528  135.9901  151.2593 C   0  0  2  0  0  0  0  0  0  0  0  0
  144.1664  135.4921  150.8417 C   0  0  0  0  0  0  0  0  0  0  0  0
  144.4609  134.0658  150.4399 C   0  0  0  0  0  0  0  0  0  0  0  0
  145.4833  133.6588  151.4949 C   0  0  0  0  0  0  0  0  0  0  0  0
  146.1974  134.8479  151.8215 O   0  0  0  0  0  0  0  0  0  0  0  0
  143.6354  136.6542  153.1973 H   0  0  0  0  0  0  0  0  0  0  0  0
  144.6540  137.6923  154.1845 H   0  0  0  0  0  0  0  0  0  0  0  0
  145.0300  135.9773  154.0331 H   0  0  0  0  0  0  0  0  0  0  0  0
  145.1179  138.0294  151.7687 H   0  0  0  0  0  0  0  0  0  0  0  0
  147.6394  136.8996  152.2952 H   0  0  0  0  0  0  0  0  0  0  0  0
  149.1231  137.7886  153.2042 H   0  0  0  0  0  0  0  0  0  0  0  0
  151.2234  138.4750  153.9093 H   0  0  0  0  0  0  0  0  0  0  0  0
  152.6118  139.8421  155.4532 H   0  0  0  0  0  0  0  0  0  0  0  0
  151.3044  143.2741  156.2231 H   0  0  0  0  0  0  0  0  0  0  0  0
  150.2056  143.0910  157.5785 H   0  0  0  0  0  0  0  0  0  0  0  0
  153.1845  143.7758  157.7301 H   0  0  0  0  0  0  0  0  0  0  0  0
  151.8600  144.8540  158.1008 H   0  0  0  0  0  0  0  0  0  0  0  0
  152.8999  143.8787  160.1795 H   0  0  0  0  0  0  0  0  0  0  0  0
  151.2041  143.4706  160.0405 H   0  0  0  0  0  0  0  0  0  0  0  0
  153.5625  141.6665  159.3076 H   0  0  0  0  0  0  0  0  0  0  0  0
  152.4720  141.4406  160.6545 H   0  0  0  0  0  0  0  0  0  0  0  0
  150.5744  141.0328  159.1224 H   0  0  0  0  0  0  0  0  0  0  0  0
  151.8961  139.9559  158.7073 H   0  0  0  0  0  0  0  0  0  0  0  0
  147.6989  140.1678  155.8462 H   0  0  0  0  0  0  0  0  0  0  0  0
  146.1091  136.2723  150.3636 H   0  0  0  0  0  0  0  0  0  0  0  0
  143.4803  135.5051  151.6902 H   0  0  0  0  0  0  0  0  0  0  0  0
  143.7261  136.0810  150.0366 H   0  0  0  0  0  0  0  0  0  0  0  0
  143.5768  133.4280  150.4323 H   0  0  0  0  0  0  0  0  0  0  0  0
  144.9126  134.0408  149.4473 H   0  0  0  0  0  0  0  0  0  0  0  0
  144.9792  133.3008  152.3934 H   0  0  0  0  0  0  0  0  0  0  0  0
  146.1536  132.8732  151.1458 H   0  0  0  0  0  0  0  0  0  0  0  0
  149.1048  141.3713  157.1926 H   0  0  0  0  0  0  0  0  0  0  0  0
  1  2  1  0  0  0  0
  1 24  1  0  0  0  0
  1 25  1  0  0  0  0
  1 26  1  0  0  0  0
  2  3  1  0  0  0  0
  2 19  1  0  0  0  0
  2 27  1  0  0  0  0
  3  4  1  0  0  0  0
  3 28  1  0  0  0  0
  4  5  2  0  0  0  0
  4  6  1  0  0  0  0
  6  7  1  0  0  0  0
  6 29  1  0  0  0  0
  7 18  1  0  0  0  0
  7  8  2  0  0  0  0
  8  9  1  0  0  0  0
  8 30  1  0  0  0  0
  9 10  2  0  0  0  0
  9 31  1  0  0  0  0
 10 11  1  0  0  0  0
 10 17  1  0  0  0  0
 11 16  1  0  0  0  0
 11 12  1  0  0  0  0
 12 13  1  0  0  0  0
 12 32  1  0  0  0  0
 12 33  1  0  0  0  0
 13 14  1  0  0  0  0
 13 34  1  0  0  0  0
 13 35  1  0  0  0  0
 14 15  1  0  0  0  0
 14 36  1  0  0  0  0
 14 37  1  0  0  0  0
 15 16  1  0  0  0  0
 15 38  1  0  0  0  0
 15 39  1  0  0  0  0
 16 40  1  0  0  0  0
 16 41  1  0  0  0  0
 17 18  2  0  0  0  0
 17 50  1  0  0  0  0
 18 42  1  0  0  0  0
 19 23  1  0  0  0  0
 19 20  1  0  0  0  0
 19 43  1  0  0  0  0
 20 21  1  0  0  0  0
 20 44  1  0  0  0  0
 20 45  1  0  0  0  0
 21 22  1  0  0  0  0
 21 46  1  0  0  0  0
 21 47  1  0  0  0  0
 22 23  1  0  0  0  0
 22 48  1  0  0  0  0
 22 49  1  0  0  0  0
M  CHG  1  17   1
M  END
> <s_m_source_file>
AV-unprocessed.smi

> <i_m_source_file_index>
1940

> <i_lp_mmshare_version>
43012

> <i_f3d_flags>
0

> <s_epik_input>
TzFbQ0gyXVtDSDJdW0NIMl1bQ0BIXTFbQ0BIXShbQ0gzXSlbTkhdQyg9TylbTkhdYzJbY0hdW2NIXWMobltjSF0yKU4zW0NIMl1bQ0gyXVtDSDJdW0NIMl1bQ0gyXTM=

> <s_epik_cmdline>
J2VwaWtfcHl0aG9uJywgJy1waCcsICc3LjAnLCAnLXRuJywgJzgnLCAnLW1hJywgJzIwMCcsICctbWV0YWxfYmluZGluZycsICctaW1hZScsICc8aW5maWxlLm1hZT4nLCAnLW9tYWUnLCAnPG91dGZpbGUubWFlPic=

> <r_lp_tautomer_probability>
0.999994

> <r_epik_Ionization_Penalty>
1.10603

> <r_epik_Ionization_Penalty_Charging>
1.10601

> <r_epik_Ionization_Penalty_Neutral>
1.929e-05

> <r_epik_State_Penalty>
1.16358

> <r_epik_Charging_Adjusted_Penalty>
2.26959

> <i_epik_Tot_Q>
1

> <i_epik_Tot_abs_Q>
1

> <r_epik_Metal_State_Penalty>
1.25013

> <b_epik_Metal_Only>
0

> <s_lp_Force_Field>
OPLS_2005

> <r_lp_Energy>
42.9594

> <b_lp_Chiralities_Consistent>
1

> <s_lp_Variant>
AV-unprocessed.smi:1940-6

> <Gold.Version>
5.8.1

> <Gold.Id.Protein>
6NUR|6NUR_protein|mol2

> <Gold.PLP.Fitness>
46.1837

> <Gold.PLP.PLP>
-40.9782

> <Gold.PLP.part.hbond>
-2.1490

> <Gold.PLP.part.metal>
0.0000

> <Gold.PLP.part.buried>
-4.7261

> <Gold.PLP.part.nonpolar>
-35.7838

> <Gold.PLP.part.repulsive>
0.9087

> <Gold.PLP.ligand.clash>
0.0000

> <Gold.PLP.ligand.torsion>
0.2813

> <Gold.PLP.Chemscore.Hbond>
1.8636

> <Gold.PLP.Chemscore.CHOScore>
0.0000

> <Gold.PLP.Chemscore.Metal>
0.0000

> <Gold.Chemscore.Hbonds>
donor molecule, donor type, donor heavy atom, donor atom, acceptor molecule, acceptor atom, score
      L1  H     3    28       P1  7948  0.99
      L1  H     6    29       P1  7948  0.87

> <Gold.PLP.Chemscore.Internal.Correction>
0.1775

> <Gold.Rescore>
     Score         DG    S(hbond)    S(metal)    S(lipo)     H(rot)  DE(clash)    DE(int)     intcor
     19.19     -21.21       1.95        0.00     108.60       1.36       0.52       1.51       ----

> <Gold.Chemscore.Fitness>
19.1908

> <Gold.Chemscore.DG>
-21.2144

> <Gold.Chemscore.ZeroCoef>
-5.4800

> <Gold.Chemscore.Hbond>
1.9468

> <Gold.Chemscore.Metal>
0.0000

> <Gold.Chemscore.Lipo>
108.5993

> <Gold.Chemscore.Internal_Hbond>
0.0000

> <Gold.Chemscore.DEClash>
0.5180

> <Gold.Chemscore.DEInternal>
1.5056

> <Gold.Chemscore.Rot>
1.3571

> <Gold.Chemscore.Internal.Correction>
   9.000000E+99

> <Gold.Chemscore.Hbonds>
donor molecule, donor type, donor heavy atom, donor atom, acceptor molecule, acceptor atom, score
      L1  H     3    28       P1  7948  0.92
      L1  H     6    29       P1  7948  0.80

> <Gold.Chemscore.Hbond.Weighted>
-6.5023

> <Gold.Chemscore.Metal.Weighted>
-0.0000

> <Gold.Chemscore.Lipo.Weighted>
-12.7061

> <Gold.Chemscore.Internal_Hbond.Weighted>
0.0000

> <Gold.Chemscore.DEClash.Weighted>
0.5180

> <Gold.Chemscore.DEInternal.Weighted>
1.5056

> <Gold.Chemscore.Rot.Weighted>
3.4741

> <Gold.Chemscore.Internal.Correction.Weighted>
   9.000000E+99

> <Gold.Protein.RotatedTorsions>
[ 6907 6896 6895 6894 ] final  -45.90 input  -60.11 | X-H torsion
[ 7974 7965 7964 7962 ] final   25.20 input  175.53 | X-H torsion
[ 8008 7997 7996 7995 ] final   97.98 input   59.86 | X-H torsion
[ 10167 10162 10161 10158 ] final  175.37 input  -65.29 | X-H torsion
[ 10718 10713 10712 10709 ] final  145.09 input   66.30 | X-H torsion
[ 10763 10752 10751 10750 ] final  -15.41 input  -60.55 | X-H torsion
[ 11005 11000 10999 10996 ] final  -81.05 input  -57.11 | X-H torsion

> <Gold.Protein.ActiveResidues>
 VAL166  LYS551  ARG553  GLY616  TRP617  ASP618  TYR619  PRO620  LYS621  CYS622 
 ASP623  PHE694  ASN695  SER759  ASP760  ASP761  ALA762  ILE779  LEU786  VAL792 
 PHE793  MET794  SER795  GLU796  ALA797  LYS798  CYS799  TRP800  GLU811  SER814 

> <Gold.Protein.RotatedAtoms>
  150.9170  134.8588  159.7463 H   0  0  0  0  0  0  0  0  0  0  0  0  # atno 6907 bound_to 6896
  152.4973  134.4274  159.9511 H   0  0  0  0  0  0  0  0  0  0  0  0  # atno 6908 bound_to 6896
  151.4311  133.3630  159.2804 H   0  0  0  0  0  0  0  0  0  0  0  0  # atno 6909 bound_to 6896
  146.1900  139.7498  142.8839 H   0  0  0  0  0  0  0  0  0  0  0  0  # atno 7974 bound_to 7965
  156.0957  140.3250  155.7874 H   0  0  0  0  0  0  0  0  0  0  0  0  # atno 8008 bound_to 7997
  155.4922  140.0562  157.2969 H   0  0  0  0  0  0  0  0  0  0  0  0  # atno 8009 bound_to 7997
  154.4665  140.1991  156.0121 H   0  0  0  0  0  0  0  0  0  0  0  0  # atno 8010 bound_to 7997
  139.5174  144.3040  152.0353 H   0  0  0  0  0  0  0  0  0  0  0  0  # atno 10167 bound_to 10162
  157.3494  131.0948  151.1013 H   0  0  0  0  0  0  0  0  0  0  0  0  # atno 10718 bound_to 10713
  153.5429  135.7013  153.5628 H   0  0  0  0  0  0  0  0  0  0  0  0  # atno 10763 bound_to 10752
  153.3586  135.3976  155.1701 H   0  0  0  0  0  0  0  0  0  0  0  0  # atno 10764 bound_to 10752
  154.8671  135.3783  154.4934 H   0  0  0  0  0  0  0  0  0  0  0  0  # atno 10765 bound_to 10752
  141.1667  133.7178  156.8364 H   0  0  0  0  0  0  0  0  0  0  0  0  # atno 11005 bound_to 11000
  145.3821  141.0360  143.3171 LP  0  0  0  0  0  0  0  0  0  0  0  0  # atno 17320 bound_to 7965
  144.8469  139.5383  143.6874 LP  0  0  0  0  0  0  0  0  0  0  0  0  # atno 17321 bound_to 7965
  140.2486  144.4193  150.6231 LP  0  0  0  0  0  0  0  0  0  0  0  0  # atno 17342 bound_to 10162
  140.6240  143.2179  151.6635 LP  0  0  0  0  0  0  0  0  0  0  0  0  # atno 17343 bound_to 10162
  157.2194  130.6474  149.5805 LP  0  0  0  0  0  0  0  0  0  0  0  0  # atno 17370 bound_to 10713
  155.9719  130.4634  150.6180 LP  0  0  0  0  0  0  0  0  0  0  0  0  # atno 17371 bound_to 10713
  140.2014  134.8894  157.3173 LP  0  0  0  0  0  0  0  0  0  0  0  0  # atno 17394 bound_to 11000
  140.2183  134.4054  155.7578 LP  0  0  0  0  0  0  0  0  0  0  0  0  # atno 17395 bound_to 11000

$$$$
