AV-unprocessed.smi:1196|AV-procd|sdf|5005|dock7
  -GOLD-   22720 4 13D 1   1.00000     0.00000
 Structure written by MMmdl.
 36 37  0  0  0  0  0  0  0  0  2 V2000
  149.3625  141.6201  156.7562 C   0  0  0  0  0  0  0  0  0  0  0  0
  150.8090  141.2656  156.3857 C   0  0  1  0  0  0  0  0  0  0  0  0
  151.7185  141.2439  157.6320 C   0  0  0  0  0  0  0  0  0  0  0  0
  151.9298  142.5664  158.1942 N   0  0  0  0  0  0  0  0  0  0  0  0
  151.4547  143.7772  157.7362 C   0  0  0  0  0  0  0  0  0  0  0  0
  151.9209  144.7428  158.5816 C   0  0  0  0  0  0  0  0  0  0  0  0
  152.6777  144.0143  159.5416 C   0  0  0  0  0  0  0  0  0  0  0  0
  152.6783  142.7116  159.3094 N   0  0  0  0  0  0  0  0  0  0  0  0
  150.8210  139.9703  155.7065 N   0  0  0  0  0  0  0  0  0  0  0  0
  151.9132  139.3199  155.2735 C   0  0  0  0  0  0  0  0  0  0  0  0
  153.0579  139.7527  155.4080 O   0  0  0  0  0  0  0  0  0  0  0  0
  151.6742  137.9673  154.5985 C   0  0  0  0  0  0  0  0  0  0  0  0
  151.1099  136.9131  155.5694 C   0  0  0  0  0  0  0  0  0  0  0  0
  151.0509  135.5012  154.9535 C   0  0  2  0  0  0  0  0  0  0  0  0
  149.9142  135.3630  154.0689 N   0  0  0  0  0  0  0  0  0  0  0  0
  149.1193  134.3658  154.4521 C   0  0  0  0  0  0  0  0  0  0  0  0
  148.1077  134.0663  153.8216 O   0  0  0  0  0  0  0  0  0  0  0  0
  149.5968  133.7972  155.5761 N   0  5  0  0  0  0  0  0  0  0  0  0
  150.7391  134.4016  155.9686 C   0  0  0  0  0  0  0  0  0  0  0  0
  151.4678  134.1759  156.9336 O   0  0  0  0  0  0  0  0  0  0  0  0
  149.3100  142.5958  157.2398 H   0  0  0  0  0  0  0  0  0  0  0  0
  148.9352  140.8863  157.4407 H   0  0  0  0  0  0  0  0  0  0  0  0
  148.7283  141.6588  155.8698 H   0  0  0  0  0  0  0  0  0  0  0  0
  151.1651  142.0438  155.7080 H   0  0  0  0  0  0  0  0  0  0  0  0
  151.2706  140.6236  158.4092 H   0  0  0  0  0  0  0  0  0  0  0  0
  152.6841  140.7935  157.3947 H   0  0  0  0  0  0  0  0  0  0  0  0
  150.8376  143.8502  156.8528 H   0  0  0  0  0  0  0  0  0  0  0  0
  151.7482  145.8070  158.5226 H   0  0  0  0  0  0  0  0  0  0  0  0
  153.2222  144.3904  160.3949 H   0  0  0  0  0  0  0  0  0  0  0  0
  149.9248  139.5305  155.5563 H   0  0  0  0  0  0  0  0  0  0  0  0
  150.9854  138.1206  153.7673 H   0  0  0  0  0  0  0  0  0  0  0  0
  152.6081  137.6038  154.1670 H   0  0  0  0  0  0  0  0  0  0  0  0
  151.7404  136.8836  156.4598 H   0  0  0  0  0  0  0  0  0  0  0  0
  150.1163  137.2087  155.9117 H   0  0  0  0  0  0  0  0  0  0  0  0
  151.9729  135.2588  154.4235 H   0  0  0  0  0  0  0  0  0  0  0  0
  149.7658  135.9415  153.2554 H   0  0  0  0  0  0  0  0  0  0  0  0
  1  2  1  0  0  0  0
  1 21  1  0  0  0  0
  1 22  1  0  0  0  0
  1 23  1  0  0  0  0
  2  3  1  0  0  0  0
  2  9  1  0  0  0  0
  2 24  1  0  0  0  0
  3  4  1  0  0  0  0
  3 25  1  0  0  0  0
  3 26  1  0  0  0  0
  4  8  1  0  0  0  0
  4  5  1  0  0  0  0
  5  6  2  0  0  0  0
  5 27  1  0  0  0  0
  6  7  1  0  0  0  0
  6 28  1  0  0  0  0
  7  8  2  0  0  0  0
  7 29  1  0  0  0  0
  9 10  1  0  0  0  0
  9 30  1  0  0  0  0
 10 11  2  0  0  0  0
 10 12  1  0  0  0  0
 12 13  1  0  0  0  0
 12 31  1  0  0  0  0
 12 32  1  0  0  0  0
 13 14  1  0  0  0  0
 13 33  1  0  0  0  0
 13 34  1  0  0  0  0
 14 19  1  0  0  0  0
 14 15  1  0  0  0  0
 14 35  1  0  0  0  0
 15 16  1  0  0  0  0
 15 36  1  0  0  0  0
 16 17  2  0  0  0  0
 16 18  1  0  0  0  0
 18 19  1  0  0  0  0
 19 20  2  0  0  0  0
M  CHG  1  18  -1
M  END
> <s_m_source_file>
AV-unprocessed.smi

> <i_m_source_file_index>
1196

> <i_lp_mmshare_version>
43012

> <i_f3d_flags>
0

> <s_epik_input>
bjFbY0hdW2NIXVtjSF1uMVtDSDJdW0NAQEhdKFtDSDNdKVtOSF1DKD1PKVtDSDJdW0NIMl1bQ0BASF0yW05IXUMoPU8pW05IXUMyPU8=

> <s_epik_cmdline>
J2VwaWtfcHl0aG9uJywgJy1waCcsICc3LjAnLCAnLXRuJywgJzgnLCAnLW1hJywgJzIwMCcsICctbWV0YWxfYmluZGluZycsICctaW1hZScsICc8aW5maWxlLm1hZT4nLCAnLW9tYWUnLCAnPG91dGZpbGUubWFlPic=

> <r_lp_tautomer_probability>
1

> <r_epik_Ionization_Penalty>
2.57056

> <r_epik_Ionization_Penalty_Charging>
2.57023

> <r_epik_Ionization_Penalty_Neutral>
0.000331301

> <r_epik_State_Penalty>
2.56828

> <r_epik_Charging_Adjusted_Penalty>
5.13851

> <i_epik_Tot_Q>
-1

> <i_epik_Tot_abs_Q>
1

> <r_epik_Metal_State_Penalty>
0.444883

> <b_epik_Metal_Only>
1

> <s_lp_Force_Field>
OPLS_2005

> <r_lp_Energy>
8.81211

> <b_lp_Chiralities_Consistent>
1

> <s_lp_Variant>
AV-unprocessed.smi:1196-10

> <Gold.Version>
5.8.1

> <Gold.Id.Protein>
6NUR|6NUR_protein|mol2

> <Gold.PLP.Fitness>
47.0189

> <Gold.PLP.PLP>
-36.9476

> <Gold.PLP.part.hbond>
-3.2006

> <Gold.PLP.part.metal>
0.0000

> <Gold.PLP.part.buried>
-4.8473

> <Gold.PLP.part.nonpolar>
-28.7216

> <Gold.PLP.part.repulsive>
0.2556

> <Gold.PLP.ligand.clash>
0.0000

> <Gold.PLP.ligand.torsion>
0.2298

> <Gold.PLP.Chemscore.Hbond>
2.4640

> <Gold.PLP.Chemscore.CHOScore>
1.0000

> <Gold.PLP.Chemscore.Metal>
0.0000

> <Gold.Chemscore.Hbonds>
donor molecule, donor type, donor heavy atom, donor atom, acceptor molecule, acceptor atom, score
      L1  H    15    36       P1  7948  0.60
      P1  H  6896  6909       L1    20  0.04
      P1  H  7997  8009       L1    11  1.00
      L1  C     5    27       P1  8028  1.00

> <Gold.PLP.Chemscore.Internal.Correction>
0.1389

> <Gold.Rescore>
     Score         DG    S(hbond)    S(metal)    S(lipo)     H(rot)  DE(clash)    DE(int)     intcor
     15.23     -15.49       2.71        0.00      71.39       2.89       0.02       0.23       ----

> <Gold.Chemscore.Fitness>
15.2327

> <Gold.Chemscore.DG>
-15.4851

> <Gold.Chemscore.ZeroCoef>
-5.4800

> <Gold.Chemscore.Hbond>
2.7134

> <Gold.Chemscore.Metal>
0.0000

> <Gold.Chemscore.Lipo>
71.3896

> <Gold.Chemscore.Internal_Hbond>
0.0000

> <Gold.Chemscore.DEClash>
0.0202

> <Gold.Chemscore.DEInternal>
0.2322

> <Gold.Chemscore.Rot>
2.8946

> <Gold.Chemscore.Internal.Correction>
   9.000000E+99

> <Gold.Chemscore.Hbonds>
donor molecule, donor type, donor heavy atom, donor atom, acceptor molecule, acceptor atom, score
      L1  H    15    36       P1  7948  0.04
      P1  H  6896  6909       L1    20  0.05
      P1  H  7997  8009       L1    11  0.95

> <Gold.Chemscore.Hbond.Weighted>
-9.0627

> <Gold.Chemscore.Metal.Weighted>
-0.0000

> <Gold.Chemscore.Lipo.Weighted>
-8.3526

> <Gold.Chemscore.Internal_Hbond.Weighted>
0.0000

> <Gold.Chemscore.DEClash.Weighted>
0.0202

> <Gold.Chemscore.DEInternal.Weighted>
0.2322

> <Gold.Chemscore.Rot.Weighted>
7.4101

> <Gold.Chemscore.Internal.Correction.Weighted>
   9.000000E+99

> <Gold.Protein.RotatedTorsions>
[ 6907 6896 6895 6894 ] final  -16.35 input  -60.11 | X-H torsion
[ 7974 7965 7964 7962 ] final -151.97 input  175.53 | X-H torsion
[ 8008 7997 7996 7995 ] final -153.89 input   59.86 | X-H torsion
[ 10167 10162 10161 10158 ] final  161.74 input  -65.29 | X-H torsion
[ 10718 10713 10712 10709 ] final  -55.46 input   66.30 | X-H torsion
[ 10763 10752 10751 10750 ] final  123.89 input  -60.55 | X-H torsion
[ 11005 11000 10999 10996 ] final   -2.47 input  -57.11 | X-H torsion

> <Gold.Protein.ActiveResidues>
 VAL166  LYS551  ARG553  GLY616  TRP617  ASP618  TYR619  PRO620  LYS621  CYS622 
 ASP623  PHE694  ASN695  SER759  ASP760  ASP761  ALA762  ILE779  LEU786  VAL792 
 PHE793  MET794  SER795  GLU796  ALA797  LYS798  CYS799  TRP800  GLU811  SER814 

> <Gold.Protein.RotatedAtoms>
  151.3100  135.0791  159.9268 H   0  0  0  0  0  0  0  0  0  0  0  0  # atno 6907 bound_to 6896
  152.5280  133.9745  159.7788 H   0  0  0  0  0  0  0  0  0  0  0  0  # atno 6908 bound_to 6896
  151.0047  133.5970  159.2720 H   0  0  0  0  0  0  0  0  0  0  0  0  # atno 6909 bound_to 6896
  144.7820  140.4726  143.5832 H   0  0  0  0  0  0  0  0  0  0  0  0  # atno 7974 bound_to 7965
  155.6778  140.0741  157.2496 H   0  0  0  0  0  0  0  0  0  0  0  0  # atno 8008 bound_to 7997
  154.4111  140.1687  156.2001 H   0  0  0  0  0  0  0  0  0  0  0  0  # atno 8009 bound_to 7997
  155.9561  140.3373  155.6453 H   0  0  0  0  0  0  0  0  0  0  0  0  # atno 8010 bound_to 7997
  139.4852  144.4506  151.8834 H   0  0  0  0  0  0  0  0  0  0  0  0  # atno 10167 bound_to 10162
  156.1366  130.4156  150.0175 H   0  0  0  0  0  0  0  0  0  0  0  0  # atno 10718 bound_to 10713
  153.6527  135.3360  155.3104 H   0  0  0  0  0  0  0  0  0  0  0  0  # atno 10763 bound_to 10752
  154.8534  135.4345  154.1887 H   0  0  0  0  0  0  0  0  0  0  0  0  # atno 10764 bound_to 10752
  153.2833  135.7011  153.7438 H   0  0  0  0  0  0  0  0  0  0  0  0  # atno 10765 bound_to 10752
  140.6587  133.9340  155.8423 H   0  0  0  0  0  0  0  0  0  0  0  0  # atno 11005 bound_to 11000
  145.6024  139.1505  143.3121 LP  0  0  0  0  0  0  0  0  0  0  0  0  # atno 17320 bound_to 7965
  146.2033  140.6145  142.9092 LP  0  0  0  0  0  0  0  0  0  0  0  0  # atno 17321 bound_to 7965
  140.3963  144.2551  150.5896 LP  0  0  0  0  0  0  0  0  0  0  0  0  # atno 17342 bound_to 10162
  140.5099  143.2293  151.8551 LP  0  0  0  0  0  0  0  0  0  0  0  0  # atno 17343 bound_to 10162
  156.8072  130.9311  151.3645 LP  0  0  0  0  0  0  0  0  0  0  0  0  # atno 17370 bound_to 10713
  157.6538  130.8907  149.9687 LP  0  0  0  0  0  0  0  0  0  0  0  0  # atno 17371 bound_to 10713
  141.0482  134.0523  157.3817 LP  0  0  0  0  0  0  0  0  0  0  0  0  # atno 17394 bound_to 11000
  139.9020  135.0168  156.7315 LP  0  0  0  0  0  0  0  0  0  0  0  0  # atno 17395 bound_to 11000

$$$$
