AV-unprocessed.smi:24|AV-procd|sdf|177|dock7
  -GOLD-   2262015433D 1   1.00000     0.00000
 Structure written by MMmdl.
 61 65  0  0  0  0  0  0  0  0  1 V2000
  155.0174  129.2707  154.9427 C   0  0  0  0  0  0  0  0  0  0  0  0
  154.5323  130.1727  155.9263 O   0  0  0  0  0  0  0  0  0  0  0  0
  153.2405  130.6371  155.7999 C   0  0  0  0  0  0  0  0  0  0  0  0
  152.8872  131.7653  156.5671 C   0  0  0  0  0  0  0  0  0  0  0  0
  151.5899  132.3071  156.4992 C   0  0  0  0  0  0  0  0  0  0  0  0
  150.6154  131.7201  155.6627 C   0  0  0  0  0  0  0  0  0  0  0  0
  149.2015  132.2916  155.5626 C   0  0  2  0  0  0  0  0  0  0  0  0
  148.3423  131.5228  154.5551 C   0  0  0  0  0  0  0  0  0  0  0  0
  147.9406  132.6069  153.6122 C   0  0  0  0  0  0  0  0  0  0  0  0
  147.0976  132.3348  152.4270 C   0  0  0  0  0  0  0  0  0  0  0  0
  147.0436  133.2837  151.3804 C   0  0  0  0  0  0  0  0  0  0  0  0
  146.2371  133.0278  150.2543 C   0  0  0  0  0  0  0  0  0  0  0  0
  145.4907  131.8355  150.1746 C   0  0  0  0  0  0  0  0  0  0  0  0
  145.5476  130.8929  151.2203 C   0  0  0  0  0  0  0  0  0  0  0  0
  146.3513  131.1370  152.3514 C   0  0  0  0  0  0  0  0  0  0  0  0
  148.3934  133.7630  153.9295 N   0  0  0  0  0  0  0  0  0  0  0  0
  149.1245  133.6732  155.0686 N   0  0  0  0  0  0  0  0  0  0  0  0
  149.6228  134.7508  155.7147 C   0  0  0  0  0  0  0  0  0  0  0  0
  150.1716  134.6548  156.8139 O   0  0  0  0  0  0  0  0  0  0  0  0
  149.4839  136.1330  155.0422 C   0  0  0  0  0  0  0  0  0  0  0  0
  150.2112  137.2097  155.7498 N   0  0  0  0  0  0  0  0  0  0  0  0
  151.5593  136.9818  156.1199 C   0  0  0  0  0  0  0  0  0  0  0  0
  152.1178  135.9113  155.8747 O   0  0  0  0  0  0  0  0  0  0  0  0
  152.2200  138.0906  156.7964 C   0  0  0  0  0  0  0  0  0  0  0  0
  153.5162  137.9861  157.1354 F   0  0  0  0  0  0  0  0  0  0  0  0
  151.5560  139.2315  157.0724 C   0  0  0  0  0  0  0  0  0  0  0  0
  150.2199  139.4221  156.7593 N   0  0  0  0  0  0  0  0  0  0  0  0
  149.4962  140.7368  157.0116 C   0  0  1  0  0  0  0  0  0  0  0  0
  149.8615  141.4156  158.3380 C   0  0  0  0  0  0  0  0  0  0  0  0
  150.9394  142.4181  157.9343 C   0  0  0  0  0  0  0  0  0  0  0  0
  151.0704  142.2628  156.4151 C   0  0  0  0  0  0  0  0  0  0  0  0
  149.8580  141.6387  156.0150 O   0  0  0  0  0  0  0  0  0  0  0  0
  149.5297  138.4136  156.0489 C   0  0  0  0  0  0  0  0  0  0  0  0
  148.3572  138.5773  155.7040 O   0  0  0  0  0  0  0  0  0  0  0  0
  150.9644  130.5962  154.8871 C   0  0  0  0  0  0  0  0  0  0  0  0
  152.2634  130.0556  154.9539 C   0  0  0  0  0  0  0  0  0  0  0  0
  156.0439  128.9943  155.1836 H   0  0  0  0  0  0  0  0  0  0  0  0
  155.0224  129.7268  153.9519 H   0  0  0  0  0  0  0  0  0  0  0  0
  154.4271  128.3540  154.9162 H   0  0  0  0  0  0  0  0  0  0  0  0
  153.6203  132.2228  157.2151 H   0  0  0  0  0  0  0  0  0  0  0  0
  151.3507  133.1763  157.0940 H   0  0  0  0  0  0  0  0  0  0  0  0
  148.7308  132.2528  156.5470 H   0  0  0  0  0  0  0  0  0  0  0  0
  148.9043  130.7442  154.0373 H   0  0  0  0  0  0  0  0  0  0  0  0
  147.4739  131.0693  155.0343 H   0  0  0  0  0  0  0  0  0  0  0  0
  147.6084  134.2039  151.4233 H   0  0  0  0  0  0  0  0  0  0  0  0
  146.1903  133.7478  149.4506 H   0  0  0  0  0  0  0  0  0  0  0  0
  144.8730  131.6433  149.3095 H   0  0  0  0  0  0  0  0  0  0  0  0
  144.9726  129.9809  151.1548 H   0  0  0  0  0  0  0  0  0  0  0  0
  146.3769  130.3997  153.1400 H   0  0  0  0  0  0  0  0  0  0  0  0
  149.8322  136.0617  154.0103 H   0  0  0  0  0  0  0  0  0  0  0  0
  148.4225  136.3681  154.9484 H   0  0  0  0  0  0  0  0  0  0  0  0
  152.1173  140.0188  157.5499 H   0  0  0  0  0  0  0  0  0  0  0  0
  148.4329  140.4955  156.9692 H   0  0  0  0  0  0  0  0  0  0  0  0
  148.9823  141.9511  158.6977 H   0  0  0  0  0  0  0  0  0  0  0  0
  150.1522  140.7049  159.1111 H   0  0  0  0  0  0  0  0  0  0  0  0
  150.6239  143.4297  158.1913 H   0  0  0  0  0  0  0  0  0  0  0  0
  151.8886  142.2288  158.4360 H   0  0  0  0  0  0  0  0  0  0  0  0
  151.2102  143.2176  155.9082 H   0  0  0  0  0  0  0  0  0  0  0  0
  151.9150  141.6216  156.1601 H   0  0  0  0  0  0  0  0  0  0  0  0
  150.2331  130.1409  154.2355 H   0  0  0  0  0  0  0  0  0  0  0  0
  152.4850  129.1929  154.3446 H   0  0  0  0  0  0  0  0  0  0  0  0
  1  2  1  0  0  0  0
  1 37  1  0  0  0  0
  1 38  1  0  0  0  0
  1 39  1  0  0  0  0
  2  3  1  0  0  0  0
  3 36  1  0  0  0  0
  3  4  2  0  0  0  0
  4  5  1  0  0  0  0
  4 40  1  0  0  0  0
  5  6  2  0  0  0  0
  5 41  1  0  0  0  0
  6  7  1  0  0  0  0
  6 35  1  0  0  0  0
  7 17  1  0  0  0  0
  7  8  1  0  0  0  0
  7 42  1  0  0  0  0
  8  9  1  0  0  0  0
  8 43  1  0  0  0  0
  8 44  1  0  0  0  0
  9 10  1  0  0  0  0
  9 16  2  0  0  0  0
 10 15  1  0  0  0  0
 10 11  2  0  0  0  0
 11 12  1  0  0  0  0
 11 45  1  0  0  0  0
 12 13  2  0  0  0  0
 12 46  1  0  0  0  0
 13 14  1  0  0  0  0
 13 47  1  0  0  0  0
 14 15  2  0  0  0  0
 14 48  1  0  0  0  0
 15 49  1  0  0  0  0
 16 17  1  0  0  0  0
 17 18  1  0  0  0  0
 18 19  2  0  0  0  0
 18 20  1  0  0  0  0
 20 21  1  0  0  0  0
 20 50  1  0  0  0  0
 20 51  1  0  0  0  0
 21 33  1  0  0  0  0
 21 22  1  0  0  0  0
 22 23  2  0  0  0  0
 22 24  1  0  0  0  0
 24 25  1  0  0  0  0
 24 26  2  0  0  0  0
 26 27  1  0  0  0  0
 26 52  1  0  0  0  0
 27 28  1  0  0  0  0
 27 33  1  0  0  0  0
 28 32  1  0  0  0  0
 28 29  1  0  0  0  0
 28 53  1  0  0  0  0
 29 30  1  0  0  0  0
 29 54  1  0  0  0  0
 29 55  1  0  0  0  0
 30 31  1  0  0  0  0
 30 56  1  0  0  0  0
 30 57  1  0  0  0  0
 31 32  1  0  0  0  0
 31 58  1  0  0  0  0
 31 59  1  0  0  0  0
 33 34  2  0  0  0  0
 35 36  2  0  0  0  0
 35 60  1  0  0  0  0
 36 61  1  0  0  0  0
M  END
> <s_m_source_file>
AV-unprocessed.smi

> <i_m_source_file_index>
24

> <i_lp_mmshare_version>
43012

> <i_f3d_flags>
0

> <s_epik_input>
W0NIM11PYzFbY0hdW2NIXWMoW2NIXVtjSF0xKVtDQEBIXTJbQ0gyXUMoYzNbY0hdW2NIXVtjSF1bY0hdW2NIXTMpPU5OMkMoPU8pW0NIMl1uNGMoPU8pYyhGKVtjSF1uKGM0PU8pW0NAQEhdNVtDSDJdW0NIMl1bQ0gyXU81

> <s_epik_cmdline>
J2VwaWtfcHl0aG9uJywgJy1waCcsICc3LjAnLCAnLXRuJywgJzgnLCAnLW1hJywgJzIwMCcsICctbWV0YWxfYmluZGluZycsICctaW1hZScsICc8aW5maWxlLm1hZT4nLCAnLW9tYWUnLCAnPG91dGZpbGUubWFlPic=

> <r_lp_tautomer_probability>
1

> <r_epik_Ionization_Penalty>
1.46326e-08

> <r_epik_Ionization_Penalty_Charging>
4.53232e-09

> <r_epik_Ionization_Penalty_Neutral>
1.01002e-08

> <r_epik_State_Penalty>
-0

> <r_epik_Charging_Adjusted_Penalty>
4.53232e-09

> <i_epik_Tot_Q>
0

> <i_epik_Tot_abs_Q>
0

> <r_epik_Metal_State_Penalty>
-0

> <b_epik_Metal_Only>
0

> <s_epik_Chemistry_Notes>
This compound has an imine and may undergo hydrolysis. This compound contains an acetal/aminal-like group ( X-CH(R)-Y where X, Y are N, S, or O) that may be acid/base labile, releasing an aldehyde.

> <s_lp_Force_Field>
OPLS_2005

> <r_lp_Energy>
47.9394

> <b_lp_Chiralities_Consistent>
1

> <s_lp_Variant>
AV-unprocessed.smi:24-3

> <Gold.Version>
5.8.1

> <Gold.Id.Protein>
6NUR|6NUR_protein|mol2

> <Gold.PLP.Fitness>
48.3014

> <Gold.PLP.PLP>
-47.3493

> <Gold.PLP.part.hbond>
-0.8843

> <Gold.PLP.part.metal>
0.0000

> <Gold.PLP.part.buried>
-5.1790

> <Gold.PLP.part.nonpolar>
-40.2575

> <Gold.PLP.part.repulsive>
0.2881

> <Gold.PLP.ligand.clash>
0.0097

> <Gold.PLP.ligand.torsion>
1.1214

> <Gold.PLP.Chemscore.Hbond>
1.0000

> <Gold.PLP.Chemscore.CHOScore>
0.0000

> <Gold.PLP.Chemscore.Metal>
0.0000

> <Gold.Chemscore.Hbonds>
donor molecule, donor type, donor heavy atom, donor atom, acceptor molecule, acceptor atom, score
      P1  H 10752 10764       L1    23  0.81

> <Gold.PLP.Chemscore.Internal.Correction>
0.2045

> <Gold.Rescore>
     Score         DG    S(hbond)    S(metal)    S(lipo)     H(rot)  DE(clash)    DE(int)     intcor
     12.09     -19.07       0.96        0.00     131.88       1.98       0.11       6.87       ----

> <Gold.Chemscore.Fitness>
12.0901

> <Gold.Chemscore.DG>
-19.0675

> <Gold.Chemscore.ZeroCoef>
-5.4800

> <Gold.Chemscore.Hbond>
0.9623

> <Gold.Chemscore.Metal>
0.0000

> <Gold.Chemscore.Lipo>
131.8763

> <Gold.Chemscore.Internal_Hbond>
0.0000

> <Gold.Chemscore.DEClash>
0.1117

> <Gold.Chemscore.DEInternal>
6.8657

> <Gold.Chemscore.Rot>
1.9750

> <Gold.Chemscore.Internal.Correction>
   9.000000E+99

> <Gold.Chemscore.Hbonds>
donor molecule, donor type, donor heavy atom, donor atom, acceptor molecule, acceptor atom, score
      P1  H 10752 10764       L1    23  0.77

> <Gold.Chemscore.Hbond.Weighted>
-3.2140

> <Gold.Chemscore.Metal.Weighted>
-0.0000

> <Gold.Chemscore.Lipo.Weighted>
-15.4295

> <Gold.Chemscore.Internal_Hbond.Weighted>
0.0000

> <Gold.Chemscore.DEClash.Weighted>
0.1117

> <Gold.Chemscore.DEInternal.Weighted>
6.8657

> <Gold.Chemscore.Rot.Weighted>
5.0561

> <Gold.Chemscore.Internal.Correction.Weighted>
   9.000000E+99

> <Gold.Protein.RotatedTorsions>
[ 6907 6896 6895 6894 ] final  -84.69 input  -60.11 | X-H torsion
[ 7974 7965 7964 7962 ] final  -86.61 input  175.53 | X-H torsion
[ 8008 7997 7996 7995 ] final  -66.21 input   59.86 | X-H torsion
[ 10167 10162 10161 10158 ] final   42.22 input  -65.29 | X-H torsion
[ 10718 10713 10712 10709 ] final   84.70 input   66.30 | X-H torsion
[ 10763 10752 10751 10750 ] final  -14.12 input  -60.55 | X-H torsion
[ 11005 11000 10999 10996 ] final   43.02 input  -57.11 | X-H torsion

> <Gold.Protein.ActiveResidues>
 VAL166  LYS551  ARG553  GLY616  TRP617  ASP618  TYR619  PRO620  LYS621  CYS622 
 ASP623  PHE694  ASN695  SER759  ASP760  ASP761  ALA762  ILE779  LEU786  VAL792 
 PHE793  MET794  SER795  GLU796  ALA797  LYS798  CYS799  TRP800  GLU811  SER814 

> <Gold.Protein.RotatedAtoms>
  150.6875  134.3320  159.4830 H   0  0  0  0  0  0  0  0  0  0  0  0  # atno 6907 bound_to 6896
  152.1183  134.9221  160.0573 H   0  0  0  0  0  0  0  0  0  0  0  0  # atno 6908 bound_to 6896
  152.0437  133.3954  159.4384 H   0  0  0  0  0  0  0  0  0  0  0  0  # atno 6909 bound_to 6896
  145.4776  140.9558  143.1882 H   0  0  0  0  0  0  0  0  0  0  0  0  # atno 7974 bound_to 7965
  154.4720  140.0917  156.7167 H   0  0  0  0  0  0  0  0  0  0  0  0  # atno 8008 bound_to 7997
  155.4699  140.3464  155.4306 H   0  0  0  0  0  0  0  0  0  0  0  0  # atno 8009 bound_to 7997
  156.1054  140.1433  156.9399 H   0  0  0  0  0  0  0  0  0  0  0  0  # atno 8010 bound_to 7997
  140.3566  144.2282  150.6141 H   0  0  0  0  0  0  0  0  0  0  0  0  # atno 10167 bound_to 10162
  157.6902  131.0144  150.2711 H   0  0  0  0  0  0  0  0  0  0  0  0  # atno 10718 bound_to 10713
  153.5236  135.7015  153.5719 H   0  0  0  0  0  0  0  0  0  0  0  0  # atno 10763 bound_to 10752
  153.3757  135.3933  155.1821 H   0  0  0  0  0  0  0  0  0  0  0  0  # atno 10764 bound_to 10752
  154.8692  135.3823  154.4726 H   0  0  0  0  0  0  0  0  0  0  0  0  # atno 10765 bound_to 10752
  140.1684  134.4253  155.8273 H   0  0  0  0  0  0  0  0  0  0  0  0  # atno 11005 bound_to 11000
  144.7908  139.6333  143.7114 LP  0  0  0  0  0  0  0  0  0  0  0  0  # atno 17320 bound_to 7965
  146.2360  139.5906  142.9523 LP  0  0  0  0  0  0  0  0  0  0  0  0  # atno 17321 bound_to 7965
  140.5168  143.2276  151.8451 LP  0  0  0  0  0  0  0  0  0  0  0  0  # atno 17342 bound_to 10162
  139.4819  144.4885  151.9216 LP  0  0  0  0  0  0  0  0  0  0  0  0  # atno 17343 bound_to 10162
  156.3274  130.3795  149.7521 LP  0  0  0  0  0  0  0  0  0  0  0  0  # atno 17370 bound_to 10713
  156.5072  130.8155  151.3155 LP  0  0  0  0  0  0  0  0  0  0  0  0  # atno 17371 bound_to 10713
  141.2215  133.6944  156.7719 LP  0  0  0  0  0  0  0  0  0  0  0  0  # atno 17394 bound_to 11000
  140.2407  134.8616  157.3570 LP  0  0  0  0  0  0  0  0  0  0  0  0  # atno 17395 bound_to 11000

$$$$
