AV-unprocessed.smi:528|AV-procd|sdf|2834|dock8
  -GOLD-   2262023323D 1   1.00000     0.00000
 Structure written by MMmdl.
 45 47  0  0  0  0  0  0  0  0  1 V2000
  153.8631  136.6782  158.5770 C   0  0  0  0  0  0  0  0  0  0  0  0
  153.8081  137.8887  157.6303 C   0  0  1  0  0  0  0  0  0  0  0  0
  155.1483  138.1065  157.0885 N   0  0  0  0  0  0  0  0  0  0  0  0
  155.9133  137.1856  156.4811 C   0  0  0  0  0  0  0  0  0  0  0  0
  155.5479  136.0283  156.2708 O   0  0  0  0  0  0  0  0  0  0  0  0
  157.3065  137.6529  156.0397 C   0  0  0  0  0  0  0  0  0  0  0  0
  157.5537  137.4241  154.6064 N   0  0  0  0  0  0  0  0  0  0  0  0
  158.4921  136.4307  154.2641 C   0  0  0  0  0  0  0  0  0  0  0  0
  158.8190  136.1393  152.9904 C   0  0  0  0  0  0  0  0  0  0  0  0
  159.7963  135.0249  152.6496 C   0  0  0  0  0  0  0  0  0  0  0  0
  160.9768  135.2267  153.2353 F   0  0  0  0  0  0  0  0  0  0  0  0
  159.3169  133.8568  153.0741 F   0  0  0  0  0  0  0  0  0  0  0  0
  159.9909  134.9398  151.3331 F   0  0  0  0  0  0  0  0  0  0  0  0
  158.1246  136.8848  151.9591 C   0  0  0  0  0  0  0  0  0  0  0  0
  157.2192  137.8333  152.2690 C   0  0  0  0  0  0  0  0  0  0  0  0
  156.8910  138.1549  153.6596 C   0  0  0  0  0  0  0  0  0  0  0  0
  156.0713  139.0252  153.9552 O   0  0  0  0  0  0  0  0  0  0  0  0
  152.7884  137.6897  156.4800 C   0  0  1  0  0  0  0  0  0  0  0  0
  151.3193  137.9174  156.9142 C   0  0  0  0  0  0  0  0  0  0  0  0
  150.8044  138.9549  155.9011 C   0  0  2  0  0  0  0  0  0  0  0  0
  150.6806  138.3018  154.5129 C   0  0  0  0  0  0  0  0  0  0  0  0
  152.1507  138.1400  154.0852 C   0  0  0  0  0  0  0  0  0  0  0  0
  152.9217  138.6896  155.3006 C   0  0  1  0  0  0  0  0  0  0  0  0
  152.0263  139.8471  155.7285 C   0  0  0  0  0  0  0  0  0  0  0  0
  152.9009  136.4972  159.0554 H   0  0  0  0  0  0  0  0  0  0  0  0
  154.5933  136.8367  159.3711 H   0  0  0  0  0  0  0  0  0  0  0  0
  154.1449  135.7694  158.0442 H   0  0  0  0  0  0  0  0  0  0  0  0
  153.5025  138.7527  158.2223 H   0  0  0  0  0  0  0  0  0  0  0  0
  155.5374  139.0303  157.2113 H   0  0  0  0  0  0  0  0  0  0  0  0
  157.4032  138.7106  156.2879 H   0  0  0  0  0  0  0  0  0  0  0  0
  158.0725  137.1487  156.6325 H   0  0  0  0  0  0  0  0  0  0  0  0
  158.9347  135.9202  155.1071 H   0  0  0  0  0  0  0  0  0  0  0  0
  158.3379  136.6840  150.9195 H   0  0  0  0  0  0  0  0  0  0  0  0
  156.7239  138.3717  151.4743 H   0  0  0  0  0  0  0  0  0  0  0  0
  152.9062  136.6732  156.1008 H   0  0  0  0  0  0  0  0  0  0  0  0
  150.7352  136.9966  156.8998 H   0  0  0  0  0  0  0  0  0  0  0  0
  151.2582  138.3297  157.9221 H   0  0  0  0  0  0  0  0  0  0  0  0
  149.8994  139.4696  156.2249 H   0  0  0  0  0  0  0  0  0  0  0  0
  150.1506  137.3495  154.5511 H   0  0  0  0  0  0  0  0  0  0  0  0
  150.1493  138.9550  153.8198 H   0  0  0  0  0  0  0  0  0  0  0  0
  152.4093  137.1054  153.8577 H   0  0  0  0  0  0  0  0  0  0  0  0
  152.3575  138.7369  153.1958 H   0  0  0  0  0  0  0  0  0  0  0  0
  153.9430  138.9737  155.0495 H   0  0  0  0  0  0  0  0  0  0  0  0
  151.9019  140.6071  154.9550 H   0  0  0  0  0  0  0  0  0  0  0  0
  152.3481  140.3290  156.6529 H   0  0  0  0  0  0  0  0  0  0  0  0
  1  2  1  0  0  0  0
  1 25  1  0  0  0  0
  1 26  1  0  0  0  0
  1 27  1  0  0  0  0
  2  3  1  0  0  0  0
  2 18  1  0  0  0  0
  2 28  1  0  0  0  0
  3  4  1  0  0  0  0
  3 29  1  0  0  0  0
  4  5  2  0  0  0  0
  4  6  1  0  0  0  0
  6  7  1  0  0  0  0
  6 30  1  0  0  0  0
  6 31  1  0  0  0  0
  7 16  1  0  0  0  0
  7  8  1  0  0  0  0
  8  9  2  0  0  0  0
  8 32  1  0  0  0  0
  9 10  1  0  0  0  0
  9 14  1  0  0  0  0
 10 11  1  0  0  0  0
 10 12  1  0  0  0  0
 10 13  1  0  0  0  0
 14 15  2  0  0  0  0
 14 33  1  0  0  0  0
 15 16  1  0  0  0  0
 15 34  1  0  0  0  0
 16 17  2  0  0  0  0
 18 23  1  0  0  0  0
 18 19  1  0  0  0  0
 18 35  1  0  0  0  0
 19 20  1  0  0  0  0
 19 36  1  0  0  0  0
 19 37  1  0  0  0  0
 20 24  1  0  0  0  0
 20 21  1  0  0  0  0
 20 38  1  0  0  0  0
 21 22  1  0  0  0  0
 21 39  1  0  0  0  0
 21 40  1  0  0  0  0
 22 23  1  0  0  0  0
 22 41  1  0  0  0  0
 22 42  1  0  0  0  0
 23 24  1  0  0  0  0
 23 43  1  0  0  0  0
 24 44  1  0  0  0  0
 24 45  1  0  0  0  0
M  END
> <s_m_source_file>
AV-unprocessed.smi

> <i_m_source_file_index>
528

> <i_lp_mmshare_version>
43012

> <i_f3d_flags>
0

> <s_epik_input>
W0NIMl0xW0NIMl1bQ0BASF0oW0NIMl0yKVtDQEBIXShbQ0gyXVtDQEhdMTIpW0NASF0oW0NIM10pW05IXUMoPU8pW0NIMl1uM1tjSF1jKEMoRikoRilGKVtjSF1bY0hdYzM9Tw==

> <s_epik_cmdline>
J2VwaWtfcHl0aG9uJywgJy1waCcsICc3LjAnLCAnLXRuJywgJzgnLCAnLW1hJywgJzIwMCcsICctbWV0YWxfYmluZGluZycsICctaW1hZScsICc8aW5maWxlLm1hZT4nLCAnLW9tYWUnLCAnPG91dGZpbGUubWFlPic=

> <r_lp_tautomer_probability>
1

> <r_epik_Ionization_Penalty>
4.09479e-08

> <r_epik_Ionization_Penalty_Charging>
1.9321e-08

> <r_epik_Ionization_Penalty_Neutral>
2.16269e-08

> <r_epik_State_Penalty>
-0

> <r_epik_Charging_Adjusted_Penalty>
1.9321e-08

> <i_epik_Tot_Q>
0

> <i_epik_Tot_abs_Q>
0

> <r_epik_Metal_State_Penalty>
-0

> <b_epik_Metal_Only>
0

> <s_lp_Force_Field>
OPLS_2005

> <r_lp_Energy>
62.5946

> <b_lp_Chiralities_Consistent>
1

> <s_lp_Variant>
AV-unprocessed.smi:528-4

> <Gold.Version>
5.8.1

> <Gold.Id.Protein>
6NUR|6NUR_protein|mol2

> <Gold.PLP.Fitness>
45.5922

> <Gold.PLP.PLP>
-40.5920

> <Gold.PLP.part.hbond>
-2.0000

> <Gold.PLP.part.metal>
0.0000

> <Gold.PLP.part.buried>
-4.2107

> <Gold.PLP.part.nonpolar>
-37.9709

> <Gold.PLP.part.repulsive>
4.0957

> <Gold.PLP.ligand.clash>
0.0000

> <Gold.PLP.ligand.torsion>
0.5187

> <Gold.PLP.Chemscore.Hbond>
1.9920

> <Gold.PLP.Chemscore.CHOScore>
0.0000

> <Gold.PLP.Chemscore.Metal>
0.0000

> <Gold.Chemscore.Hbonds>
donor molecule, donor type, donor heavy atom, donor atom, acceptor molecule, acceptor atom, score
      P1  H  7997  8009       L1    17  0.99
      P1  H 10752 10765       L1     5  1.00

> <Gold.PLP.Chemscore.Internal.Correction>
0.0615

> <Gold.Rescore>
     Score         DG    S(hbond)    S(metal)    S(lipo)     H(rot)  DE(clash)    DE(int)     intcor
     17.98     -20.60       1.96        0.00     110.80       1.71       1.62       1.00       ----

> <Gold.Chemscore.Fitness>
17.9841

> <Gold.Chemscore.DG>
-20.5998

> <Gold.Chemscore.ZeroCoef>
-5.4800

> <Gold.Chemscore.Hbond>
1.9583

> <Gold.Chemscore.Metal>
0.0000

> <Gold.Chemscore.Lipo>
110.7966

> <Gold.Chemscore.Internal_Hbond>
0.0000

> <Gold.Chemscore.DEClash>
1.6174

> <Gold.Chemscore.DEInternal>
0.9983

> <Gold.Chemscore.Rot>
1.7125

> <Gold.Chemscore.Internal.Correction>
   9.000000E+99

> <Gold.Chemscore.Hbonds>
donor molecule, donor type, donor heavy atom, donor atom, acceptor molecule, acceptor atom, score
      P1  H  7997  8009       L1    17  0.90
      P1  H 10752 10765       L1     5  0.99

> <Gold.Chemscore.Hbond.Weighted>
-6.5406

> <Gold.Chemscore.Metal.Weighted>
-0.0000

> <Gold.Chemscore.Lipo.Weighted>
-12.9632

> <Gold.Chemscore.Internal_Hbond.Weighted>
0.0000

> <Gold.Chemscore.DEClash.Weighted>
1.6174

> <Gold.Chemscore.DEInternal.Weighted>
0.9983

> <Gold.Chemscore.Rot.Weighted>
4.3840

> <Gold.Chemscore.Internal.Correction.Weighted>
   9.000000E+99

> <Gold.Protein.RotatedTorsions>
[ 6907 6896 6895 6894 ] final -132.41 input  -60.11 | X-H torsion
[ 7974 7965 7964 7962 ] final  134.36 input  175.53 | X-H torsion
[ 8008 7997 7996 7995 ] final  -62.15 input   59.86 | X-H torsion
[ 10167 10162 10161 10158 ] final -150.42 input  -65.29 | X-H torsion
[ 10718 10713 10712 10709 ] final  141.75 input   66.30 | X-H torsion
[ 10763 10752 10751 10750 ] final  -63.74 input  -60.55 | X-H torsion
[ 11005 11000 10999 10996 ] final -123.57 input  -57.11 | X-H torsion

> <Gold.Protein.ActiveResidues>
 VAL166  LYS551  ARG553  GLY616  TRP617  ASP618  TYR619  PRO620  LYS621  CYS622 
 ASP623  PHE694  ASN695  SER759  ASP760  ASP761  ALA762  ILE779  LEU786  VAL792 
 PHE793  MET794  SER795  GLU796  ALA797  LYS798  CYS799  TRP800  GLU811  SER814 

> <Gold.Protein.RotatedAtoms>
  150.9620  133.6435  159.2752 H   0  0  0  0  0  0  0  0  0  0  0  0  # atno 6907 bound_to 6896
  151.3754  135.0929  159.9488 H   0  0  0  0  0  0  0  0  0  0  0  0  # atno 6908 bound_to 6896
  152.5151  133.9166  159.7568 H   0  0  0  0  0  0  0  0  0  0  0  0  # atno 6909 bound_to 6896
  144.9771  139.4543  143.5404 H   0  0  0  0  0  0  0  0  0  0  0  0  # atno 7974 bound_to 7965
  154.4485  140.1002  156.6543 H   0  0  0  0  0  0  0  0  0  0  0  0  # atno 8008 bound_to 7997
  155.5363  140.3482  155.4418 H   0  0  0  0  0  0  0  0  0  0  0  0  # atno 8009 bound_to 7997
  156.0628  140.1330  156.9910 H   0  0  0  0  0  0  0  0  0  0  0  0  # atno 8010 bound_to 7997
  139.7356  143.8740  152.2548 H   0  0  0  0  0  0  0  0  0  0  0  0  # atno 10167 bound_to 10162
  157.3885  131.1001  151.0670 H   0  0  0  0  0  0  0  0  0  0  0  0  # atno 10718 bound_to 10713
  154.3196  135.6199  153.5501 H   0  0  0  0  0  0  0  0  0  0  0  0  # atno 10763 bound_to 10752
  152.9821  135.5720  154.5085 H   0  0  0  0  0  0  0  0  0  0  0  0  # atno 10764 bound_to 10752
  154.4751  135.2861  155.1590 H   0  0  0  0  0  0  0  0  0  0  0  0  # atno 10765 bound_to 10752
  140.9908  134.0541  157.3656 H   0  0  0  0  0  0  0  0  0  0  0  0  # atno 11005 bound_to 11000
  146.3398  139.9021  142.8793 LP  0  0  0  0  0  0  0  0  0  0  0  0  # atno 17320 bound_to 7965
  145.2474  141.0031  143.3901 LP  0  0  0  0  0  0  0  0  0  0  0  0  # atno 17321 bound_to 7965
  139.8676  144.7085  150.9025 LP  0  0  0  0  0  0  0  0  0  0  0  0  # atno 17342 bound_to 10162
  140.7778  143.3765  151.1554 LP  0  0  0  0  0  0  0  0  0  0  0  0  # atno 17343 bound_to 10162
  157.1712  130.6268  149.5641 LP  0  0  0  0  0  0  0  0  0  0  0  0  # atno 17370 bound_to 10713
  155.9792  130.4784  150.6703 LP  0  0  0  0  0  0  0  0  0  0  0  0  # atno 17371 bound_to 10713
  139.8991  135.0157  156.7182 LP  0  0  0  0  0  0  0  0  0  0  0  0  # atno 17394 bound_to 11000
  140.7042  133.9279  155.8043 LP  0  0  0  0  0  0  0  0  0  0  0  0  # atno 17395 bound_to 11000

$$$$
