AV-unprocessed.smi:919|AV-procd|sdf|4167|dock10
  -GOLD-   22720 2 73D 1   1.00000     0.00000
 Structure written by MMmdl.
 43 45  0  0  0  0  0  0  0  0  1 V2000
  145.5973  144.1283  153.2453 C   0  0  0  0  0  0  0  0  0  0  0  0
  145.6109  143.1851  154.4138 C   0  0  0  0  0  0  0  0  0  0  0  0
  144.8301  143.4208  155.4550 N   0  0  0  0  0  0  0  0  0  0  0  0
  145.0728  142.3811  156.3581 O   0  0  0  0  0  0  0  0  0  0  0  0
  146.0004  141.5500  155.8181 C   0  0  0  0  0  0  0  0  0  0  0  0
  146.3978  140.3714  156.6407 C   0  0  0  0  0  0  0  0  0  0  0  0
  146.3812  141.9996  154.5840 C   0  0  0  0  0  0  0  0  0  0  0  0
  147.3760  141.4037  153.6260 C   0  0  0  0  0  0  0  0  0  0  0  0
  148.6864  141.0333  154.3381 C   0  0  0  0  0  0  0  0  0  0  0  0
  149.0195  141.9984  155.3782 N   0  0  0  0  0  0  0  0  0  0  0  0
  149.7629  141.7336  156.4660 C   0  0  0  0  0  0  0  0  0  0  0  0
  150.2612  140.6329  156.6951 O   0  0  0  0  0  0  0  0  0  0  0  0
  149.9243  142.7741  157.3023 N   0  0  0  0  0  0  0  0  0  0  0  0
  150.6724  142.8079  158.5610 C   0  0  1  0  0  0  0  0  0  0  0  0
  152.0802  142.1760  158.4463 C   0  0  0  0  0  0  0  0  0  0  0  0
  153.0093  143.3284  158.8701 C   0  0  2  0  0  0  0  0  0  0  0  0
  152.8337  143.6056  160.3759 C   0  0  0  0  0  0  0  0  0  0  0  0
  151.4464  144.2746  160.4414 C   0  0  0  0  0  0  0  0  0  0  0  0
  150.9979  144.2615  158.9680 C   0  0  1  0  0  0  0  0  0  0  0  0
  152.3148  144.5304  158.2452 C   0  0  0  0  0  0  0  0  0  0  0  0
  146.5968  144.2467  152.8255 H   0  0  0  0  0  0  0  0  0  0  0  0
  145.2419  145.1188  153.5317 H   0  0  0  0  0  0  0  0  0  0  0  0
  144.9471  143.7566  152.4534 H   0  0  0  0  0  0  0  0  0  0  0  0
  147.3062  139.9107  156.2523 H   0  0  0  0  0  0  0  0  0  0  0  0
  145.6096  139.6185  156.6414 H   0  0  0  0  0  0  0  0  0  0  0  0
  146.5862  140.6660  157.6733 H   0  0  0  0  0  0  0  0  0  0  0  0
  146.9626  140.5161  153.1456 H   0  0  0  0  0  0  0  0  0  0  0  0
  147.5854  142.1031  152.8158 H   0  0  0  0  0  0  0  0  0  0  0  0
  148.6207  140.0311  154.7658 H   0  0  0  0  0  0  0  0  0  0  0  0
  149.5068  141.0104  153.6201 H   0  0  0  0  0  0  0  0  0  0  0  0
  148.6516  142.9324  155.2705 H   0  0  0  0  0  0  0  0  0  0  0  0
  149.4886  143.6432  157.0288 H   0  0  0  0  0  0  0  0  0  0  0  0
  150.0815  142.3250  159.3416 H   0  0  0  0  0  0  0  0  0  0  0  0
  152.1926  141.2989  159.0848 H   0  0  0  0  0  0  0  0  0  0  0  0
  152.3013  141.8693  157.4228 H   0  0  0  0  0  0  0  0  0  0  0  0
  154.0474  143.1871  158.5678 H   0  0  0  0  0  0  0  0  0  0  0  0
  152.8849  142.6933  160.9715 H   0  0  0  0  0  0  0  0  0  0  0  0
  153.6044  144.2865  160.7394 H   0  0  0  0  0  0  0  0  0  0  0  0
  150.7553  143.7415  161.0952 H   0  0  0  0  0  0  0  0  0  0  0  0
  151.5323  145.2975  160.8102 H   0  0  0  0  0  0  0  0  0  0  0  0
  150.1997  144.9736  158.7548 H   0  0  0  0  0  0  0  0  0  0  0  0
  152.7713  145.4842  158.5158 H   0  0  0  0  0  0  0  0  0  0  0  0
  152.2350  144.4679  157.1585 H   0  0  0  0  0  0  0  0  0  0  0  0
  1  2  1  0  0  0  0
  1 21  1  0  0  0  0
  1 22  1  0  0  0  0
  1 23  1  0  0  0  0
  2  7  1  0  0  0  0
  2  3  2  0  0  0  0
  3  4  1  0  0  0  0
  4  5  1  0  0  0  0
  5  6  1  0  0  0  0
  5  7  2  0  0  0  0
  6 24  1  0  0  0  0
  6 25  1  0  0  0  0
  6 26  1  0  0  0  0
  7  8  1  0  0  0  0
  8  9  1  0  0  0  0
  8 27  1  0  0  0  0
  8 28  1  0  0  0  0
  9 10  1  0  0  0  0
  9 29  1  0  0  0  0
  9 30  1  0  0  0  0
 10 11  1  0  0  0  0
 10 31  1  0  0  0  0
 11 12  2  0  0  0  0
 11 13  1  0  0  0  0
 13 14  1  0  0  0  0
 13 32  1  0  0  0  0
 14 19  1  0  0  0  0
 14 15  1  0  0  0  0
 14 33  1  0  0  0  0
 15 16  1  0  0  0  0
 15 34  1  0  0  0  0
 15 35  1  0  0  0  0
 16 20  1  0  0  0  0
 16 17  1  0  0  0  0
 16 36  1  0  0  0  0
 17 18  1  0  0  0  0
 17 37  1  0  0  0  0
 17 38  1  0  0  0  0
 18 19  1  0  0  0  0
 18 39  1  0  0  0  0
 18 40  1  0  0  0  0
 19 20  1  0  0  0  0
 19 41  1  0  0  0  0
 20 42  1  0  0  0  0
 20 43  1  0  0  0  0
M  END
> <s_m_source_file>
AV-unprocessed.smi

> <i_m_source_file_index>
919

> <i_lp_mmshare_version>
43012

> <i_f3d_flags>
0

> <s_epik_input>
W0NIM11jMW5vYyhbQ0gzXSljMVtDSDJdW0NIMl1bTkhdQyg9TylbTkhdW0NASF0oW0NIMl1bQ0BASF0yMylbQ0BASF0oW0NIMl0zKVtDSDJdW0NIMl0y

> <s_epik_cmdline>
J2VwaWtfcHl0aG9uJywgJy1waCcsICc3LjAnLCAnLXRuJywgJzgnLCAnLW1hJywgJzIwMCcsICctbWV0YWxfYmluZGluZycsICctaW1hZScsICc8aW5maWxlLm1hZT4nLCAnLW9tYWUnLCAnPG91dGZpbGUubWFlPic=

> <r_lp_tautomer_probability>
1

> <r_epik_Ionization_Penalty>
6.40771e-05

> <r_epik_Ionization_Penalty_Charging>
0

> <r_epik_Ionization_Penalty_Neutral>
6.40771e-05

> <r_epik_State_Penalty>
-0

> <r_epik_Charging_Adjusted_Penalty>
0

> <i_epik_Tot_Q>
0

> <i_epik_Tot_abs_Q>
0

> <r_epik_Metal_State_Penalty>
-0

> <b_epik_Metal_Only>
0

> <s_lp_Force_Field>
OPLS_2005

> <r_lp_Energy>
47.296

> <b_lp_Chiralities_Consistent>
1

> <s_lp_Variant>
AV-unprocessed.smi:919-4

> <Gold.Version>
5.8.1

> <Gold.Id.Protein>
6NUR|6NUR_protein|mol2

> <Gold.PLP.Fitness>
47.4291

> <Gold.PLP.PLP>
-42.9834

> <Gold.PLP.part.hbond>
-2.0000

> <Gold.PLP.part.metal>
0.0000

> <Gold.PLP.part.buried>
-6.3692

> <Gold.PLP.part.nonpolar>
-34.2555

> <Gold.PLP.part.repulsive>
0.4395

> <Gold.PLP.ligand.clash>
0.0000

> <Gold.PLP.ligand.torsion>
0.6447

> <Gold.PLP.Chemscore.Hbond>
1.9040

> <Gold.PLP.Chemscore.CHOScore>
0.0000

> <Gold.PLP.Chemscore.Metal>
0.0000

> <Gold.Chemscore.Hbonds>
donor molecule, donor type, donor heavy atom, donor atom, acceptor molecule, acceptor atom, score
      L1  H    10    31       P1  8028  0.94
      L1  H    13    32       P1  8028  0.98

> <Gold.PLP.Chemscore.Internal.Correction>
0.0232

> <Gold.Rescore>
     Score         DG    S(hbond)    S(metal)    S(lipo)     H(rot)  DE(clash)    DE(int)     intcor
     20.28     -20.65       1.76        0.00     112.67       1.52       0.15       0.22       ----

> <Gold.Chemscore.Fitness>
20.2836

> <Gold.Chemscore.DG>
-20.6516

> <Gold.Chemscore.ZeroCoef>
-5.4800

> <Gold.Chemscore.Hbond>
1.7575

> <Gold.Chemscore.Metal>
0.0000

> <Gold.Chemscore.Lipo>
112.6733

> <Gold.Chemscore.Internal_Hbond>
0.0000

> <Gold.Chemscore.DEClash>
0.1485

> <Gold.Chemscore.DEInternal>
0.2196

> <Gold.Chemscore.Rot>
1.5161

> <Gold.Chemscore.Internal.Correction>
   9.000000E+99

> <Gold.Chemscore.Hbonds>
donor molecule, donor type, donor heavy atom, donor atom, acceptor molecule, acceptor atom, score
      L1  H    10    31       P1  8028  0.91
      L1  H    13    32       P1  8028  0.82

> <Gold.Chemscore.Hbond.Weighted>
-5.8701

> <Gold.Chemscore.Metal.Weighted>
-0.0000

> <Gold.Chemscore.Lipo.Weighted>
-13.1828

> <Gold.Chemscore.Internal_Hbond.Weighted>
0.0000

> <Gold.Chemscore.DEClash.Weighted>
0.1485

> <Gold.Chemscore.DEInternal.Weighted>
0.2196

> <Gold.Chemscore.Rot.Weighted>
3.8813

> <Gold.Chemscore.Internal.Correction.Weighted>
   9.000000E+99

> <Gold.Protein.RotatedTorsions>
[ 6907 6896 6895 6894 ] final  161.51 input  -60.11 | X-H torsion
[ 7974 7965 7964 7962 ] final   10.76 input  175.53 | X-H torsion
[ 8008 7997 7996 7995 ] final   53.26 input   59.86 | X-H torsion
[ 10167 10162 10161 10158 ] final   -2.13 input  -65.29 | X-H torsion
[ 10718 10713 10712 10709 ] final -145.76 input   66.30 | X-H torsion
[ 10763 10752 10751 10750 ] final  -82.80 input  -60.55 | X-H torsion
[ 11005 11000 10999 10996 ] final  -14.85 input  -57.11 | X-H torsion

> <Gold.Protein.ActiveResidues>
 VAL166  LYS551  ARG553  GLY616  TRP617  ASP618  TYR619  PRO620  LYS621  CYS622 
 ASP623  PHE694  ASN695  SER759  ASP760  ASP761  ALA762  ILE779  LEU786  VAL792 
 PHE793  MET794  SER795  GLU796  ALA797  LYS798  CYS799  TRP800  GLU811  SER814 

> <Gold.Protein.RotatedAtoms>
  151.9545  133.3676  159.4011 H   0  0  0  0  0  0  0  0  0  0  0  0  # atno 6907 bound_to 6896
  150.6975  134.4306  159.5256 H   0  0  0  0  0  0  0  0  0  0  0  0  # atno 6908 bound_to 6896
  152.1984  134.8609  160.0561 H   0  0  0  0  0  0  0  0  0  0  0  0  # atno 6909 bound_to 6896
  146.2383  139.9586  142.8461 H   0  0  0  0  0  0  0  0  0  0  0  0  # atno 7974 bound_to 7965
  155.4654  140.3463  155.4318 H   0  0  0  0  0  0  0  0  0  0  0  0  # atno 8008 bound_to 7997
  156.1134  140.1467  156.9335 H   0  0  0  0  0  0  0  0  0  0  0  0  # atno 8009 bound_to 7997
  154.4772  140.0881  156.7270 H   0  0  0  0  0  0  0  0  0  0  0  0  # atno 8010 bound_to 7997
  140.6838  143.6694  150.8198 H   0  0  0  0  0  0  0  0  0  0  0  0  # atno 10167 bound_to 10162
  156.3865  130.7863  151.2061 H   0  0  0  0  0  0  0  0  0  0  0  0  # atno 10718 bound_to 10713
  154.5800  135.5578  153.7176 H   0  0  0  0  0  0  0  0  0  0  0  0  # atno 10763 bound_to 10752
  153.0078  135.6318  154.1995 H   0  0  0  0  0  0  0  0  0  0  0  0  # atno 10764 bound_to 10752
  154.1936  135.2881  155.2994 H   0  0  0  0  0  0  0  0  0  0  0  0  # atno 10765 bound_to 10752
  140.7907  133.8290  155.9377 H   0  0  0  0  0  0  0  0  0  0  0  0  # atno 11005 bound_to 11000
  145.1793  140.9759  143.4276 LP  0  0  0  0  0  0  0  0  0  0  0  0  # atno 17320 bound_to 7965
  144.9957  139.3646  143.6192 LP  0  0  0  0  0  0  0  0  0  0  0  0  # atno 17321 bound_to 7965
  140.0398  143.5358  152.2723 LP  0  0  0  0  0  0  0  0  0  0  0  0  # atno 17342 bound_to 10162
  139.6181  144.7623  151.2801 LP  0  0  0  0  0  0  0  0  0  0  0  0  # atno 17343 bound_to 10162
  157.7496  131.0328  150.4245 LP  0  0  0  0  0  0  0  0  0  0  0  0  # atno 17370 bound_to 10713
  156.4498  130.4009  149.6643 LP  0  0  0  0  0  0  0  0  0  0  0  0  # atno 17371 bound_to 10713
  140.9392  134.1922  157.4809 LP  0  0  0  0  0  0  0  0  0  0  0  0  # atno 17394 bound_to 11000
  139.8731  134.9865  156.5327 LP  0  0  0  0  0  0  0  0  0  0  0  0  # atno 17395 bound_to 11000

$$$$
