#       Name:                AV-unprocessed.smi:1952
#       Creating user name   scv26
#       Creation time:       Fri Mar 27 10:03:40 2020


#       File generated by GOLD software.
#

@<TRIPOS>MOLECULE
AV-unprocessed.smi:1952
    47    48     1
SMALL
NO_CHARGES


@<TRIPOS>ATOM
      1 ****        -5.9342   2.6464   1.4384 C.3            1 S1                 0.0000
      2 ****        -4.5039   2.2349   1.3619 C.2            1 S1                 0.0000
      3 ****        -3.8604   1.0558   1.6133 C.2            1 S1                 0.0000
      4 ****        -2.5021   1.3682   1.3400 C.2            1 S1                 0.0000
      5 ****        -1.4873   0.3886   1.4862 N.am           1 S1                 0.0000
      6 ****        -0.1714   0.5312   1.2541 C.2            1 S1                 0.0000
      7 ****         0.3703   1.5663   0.8649 O.2            1 S1                 0.0000
      8 ****         0.4896  -0.6111   1.4962 N.am           1 S1                 0.0000
      9 ****         1.9250  -0.8240   1.3159 C.3            1 S1                 0.0000
     10 ****         2.4807  -1.5519   2.5471 C.3            1 S1                 0.0000
     11 ****         2.1874  -1.6324   0.0267 C.3            1 S1                 0.0000
     12 ****         1.7353  -1.0069  -1.2169 N.3            1 S1                 0.0000
     13 ****         2.5123   0.1808  -1.5662 C.3            1 S1                 0.0000
     14 ****         2.0285   0.8137  -2.8822 C.3            1 S1                 0.0000
     15 ****         2.0807  -0.1535  -3.9262 O.3            1 S1                 0.0000
     16 ****         1.3001  -1.3100  -3.6424 C.3            1 S1                 0.0000
     17 ****         1.7855  -1.9484  -2.3296 C.3            1 S1                 0.0000
     18 ****        -2.3320   2.6241   0.9561 N.2            1 S1                 0.0000
     19 ****        -3.6140   3.1860   0.9686 O.3            1 S1                 0.0000
     20 ****        -6.5728   1.7949   1.6744 H              1 S1                 0.0000
     21 ****        -6.2675   3.0656   0.4889 H              1 S1                 0.0000
     22 ****        -6.0779   3.4012   2.2117 H              1 S1                 0.0000
     23 ****        -4.2943   0.1225   1.9400 H              1 S1                 0.0000
     24 ****        -1.7972  -0.5198   1.7974 H              1 S1                 0.0000
     25 ****        -0.0455  -1.4066   1.8116 H              1 S1                 0.0000
     26 ****         2.4439   0.1334   1.2608 H              1 S1                 0.0000
     27 ****         3.5567  -1.7042   2.4584 H              1 S1                 0.0000
     28 ****         2.0161  -2.5302   2.6760 H              1 S1                 0.0000
     29 ****         2.3049  -0.9765   3.4567 H              1 S1                 0.0000
     30 ****         3.2528  -1.8556  -0.0493 H              1 S1                 0.0000
     31 ****         1.6916  -2.5984   0.1353 H              1 S1                 0.0000
     32 ****         2.4442   0.9285  -0.7773 H              1 S1                 0.0000
     33 ****         3.5676  -0.0804  -1.6581 H              1 S1                 0.0000
     34 ****         1.0102   1.1916  -2.7764 H              1 S1                 0.0000
     35 ****         2.6590   1.6620  -3.1494 H              1 S1                 0.0000
     36 ****         0.2457  -1.0378  -3.5729 H              1 S1                 0.0000
     37 ****         1.3956  -2.0170  -4.4666 H              1 S1                 0.0000
     38 ****         2.8057  -2.3125  -2.4609 H              1 S1                 0.0000
     39 ****         1.1694  -2.8200  -2.1057 H              1 S1                 0.0000
     40 ****        -0.1784   2.3854   0.6975 LP             1 S1                 0.0000
     41 ****         1.3590   1.5879   0.7163 LP             1 S1                 0.0000
     42 ****         0.7899  -0.7255  -1.0524 LP             1 S1                 0.0000
     43 ****         3.0320  -0.4333  -4.0560 LP             1 S1                 0.0000
     44 ****         1.7387   0.2650  -4.7676 LP             1 S1                 0.0000
     45 ****        -1.4733   3.0739   0.7104 LP             1 S1                 0.0000
     46 ****        -3.6382   3.9545   1.6081 LP             1 S1                 0.0000
     47 ****        -3.8491   3.5080   0.0515 LP             1 S1                 0.0000
@<TRIPOS>BOND
    1    1    2 1     
    2    1   20 1     
    3    1   21 1     
    4    1   22 1     
    5    2   19 1     
    6    2    3 2     
    7    3    4 1     
    8    3   23 1     
    9    4    5 1     
   10    4   18 2     
   11    5    6 am    
   12    5   24 1     
   13    6    7 2     
   14    6    8 am    
   15    8    9 1     
   16    8   25 1     
   17    9   10 1     
   18    9   11 1     
   19    9   26 1     
   20   10   27 1     
   21   10   28 1     
   22   10   29 1     
   23   11   12 1     
   24   11   30 1     
   25   11   31 1     
   26   12   17 1     
   27   12   13 1     
   28   13   14 1     
   29   13   32 1     
   30   13   33 1     
   31   14   15 1     
   32   14   34 1     
   33   14   35 1     
   34   15   16 1     
   35   16   17 1     
   36   16   36 1     
   37   16   37 1     
   38   17   38 1     
   39   17   39 1     
   40   18   19 1     
   41    7   40 1     
   42    7   41 1     
   43   12   42 1     
   44   15   43 1     
   45   15   44 1     
   46   18   45 1     
   47   19   46 1     
   48   19   47 1     
@<TRIPOS>SUBSTRUCTURE
      1 S1             1
@<TRIPOS>SET
LONE_PAIRS      STATIC     ATOMS    <user>   **** ""
8 40 41 42 43 44 45 46 47
DONOR_HYDROGENS      STATIC     ATOMS    <user>   **** ""
2 24 25
ATOM$BLUE        STATIC     ATOMS    COLORGROUP SYSTEM
8 40 41 42 43 44 45 46 47
ATOM$RED        STATIC     ATOMS    COLORGROUP SYSTEM
2 24 25
