AV-unprocessed.smi:1724|AV-procd|sdf|6951|dock8
  -GOLD-   22720 8163D 1   1.00000     0.00000
 Structure written by MMmdl.
 37 38  0  0  0  0  0  0  0  0  2 V2000
  147.4805  132.4725  154.5898 O   0  0  0  0  0  0  0  0  0  0  0  0
  148.2414  133.3450  154.1723 C   0  0  0  0  0  0  0  0  0  0  0  0
  147.8441  134.3421  153.3683 N   0  0  0  0  0  0  0  0  0  0  0  0
  146.4893  134.5353  152.8578 C   0  0  0  0  0  0  0  0  0  0  0  0
  145.9820  133.3179  152.0575 C   0  0  2  0  0  0  0  0  0  0  0  0
  146.5529  133.2519  150.6278 C   0  0  0  0  0  0  0  0  0  0  0  0
  145.9334  132.0780  149.8611 C   0  0  0  0  0  0  0  0  0  0  0  0
  144.4004  132.1442  149.9235 C   0  0  0  0  0  0  0  0  0  0  0  0
  143.9758  132.1648  151.2815 O   0  0  0  0  0  0  0  0  0  0  0  0
  144.4408  133.3078  151.9923 C   0  0  0  0  0  0  0  0  0  0  0  0
  149.5528  133.4549  154.4539 N   0  0  0  0  0  0  0  0  0  0  0  0
  150.3792  132.6263  155.2334 C   0  0  0  0  0  0  0  0  0  0  0  0
  150.9148  131.4439  154.8206 C   0  0  0  0  0  0  0  0  0  0  0  0
  151.7763  130.6362  155.6748 C   0  0  0  0  0  0  0  0  0  0  0  0
  152.3085  129.2695  155.2817 C   0  0  0  0  0  0  0  0  0  0  0  0
  152.9008  128.6697  156.3145 F   0  0  0  0  0  0  0  0  0  0  0  0
  151.3259  128.4817  154.8446 F   0  0  0  0  0  0  0  0  0  0  0  0
  153.2051  129.3960  154.3045 F   0  0  0  0  0  0  0  0  0  0  0  0
  151.9629  131.2052  156.9195 C   0  0  0  0  0  0  0  0  0  0  0  0
  151.4931  132.3781  157.3974 N   0  5  0  0  0  0  0  0  0  0  0  0
  150.6886  133.1255  156.5899 C   0  0  0  0  0  0  0  0  0  0  0  0
  150.2202  134.2007  156.9661 O   0  0  0  0  0  0  0  0  0  0  0  0
  148.5362  135.0186  153.0817 H   0  0  0  0  0  0  0  0  0  0  0  0
  145.8412  134.6994  153.7192 H   0  0  0  0  0  0  0  0  0  0  0  0
  146.4217  135.4423  152.2543 H   0  0  0  0  0  0  0  0  0  0  0  0
  146.2947  132.4158  152.5861 H   0  0  0  0  0  0  0  0  0  0  0  0
  146.3435  134.1847  150.1020 H   0  0  0  0  0  0  0  0  0  0  0  0
  147.6372  133.1401  150.6466 H   0  0  0  0  0  0  0  0  0  0  0  0
  146.2703  132.0861  148.8242 H   0  0  0  0  0  0  0  0  0  0  0  0
  146.2746  131.1369  150.2941 H   0  0  0  0  0  0  0  0  0  0  0  0
  144.0258  133.0251  149.3995 H   0  0  0  0  0  0  0  0  0  0  0  0
  143.9674  131.2729  149.4317 H   0  0  0  0  0  0  0  0  0  0  0  0
  144.0229  133.2770  152.9990 H   0  0  0  0  0  0  0  0  0  0  0  0
  144.0625  134.2168  151.5216 H   0  0  0  0  0  0  0  0  0  0  0  0
  150.0249  134.2613  154.0716 H   0  0  0  0  0  0  0  0  0  0  0  0
  150.7328  131.0663  153.8287 H   0  0  0  0  0  0  0  0  0  0  0  0
  152.5790  130.6286  157.6420 H   0  0  0  0  0  0  0  0  0  0  0  0
  1  2  2  0  0  0  0
  2  3  1  0  0  0  0
  2 11  1  0  0  0  0
  3  4  1  0  0  0  0
  3 23  1  0  0  0  0
  4  5  1  0  0  0  0
  4 24  1  0  0  0  0
  4 25  1  0  0  0  0
  5 10  1  0  0  0  0
  5  6  1  0  0  0  0
  5 26  1  0  0  0  0
  6  7  1  0  0  0  0
  6 27  1  0  0  0  0
  6 28  1  0  0  0  0
  7  8  1  0  0  0  0
  7 29  1  0  0  0  0
  7 30  1  0  0  0  0
  8  9  1  0  0  0  0
  8 31  1  0  0  0  0
  8 32  1  0  0  0  0
  9 10  1  0  0  0  0
 10 33  1  0  0  0  0
 10 34  1  0  0  0  0
 11 12  1  0  0  0  0
 11 35  1  0  0  0  0
 12 21  1  0  0  0  0
 12 13  2  0  0  0  0
 13 14  1  0  0  0  0
 13 36  1  0  0  0  0
 14 15  1  0  0  0  0
 14 19  2  0  0  0  0
 15 16  1  0  0  0  0
 15 17  1  0  0  0  0
 15 18  1  0  0  0  0
 19 20  1  0  0  0  0
 19 37  1  0  0  0  0
 20 21  1  0  0  0  0
 21 22  2  0  0  0  0
M  CHG  1  20  -1
M  END
> <s_m_source_file>
AV-unprocessed.smi

> <i_m_source_file_index>
1724

> <i_lp_mmshare_version>
43012

> <i_f3d_flags>
0

> <s_epik_input>
Tz1jMVtuSF1bY0hdYyhDKEYpKEYpRilbY0hdYzFbTkhdQyg9TylbTkhdW0NIMl1bQ0BASF0yW0NIMl1bQ0gyXVtDSDJdT1tDSDJdMg==

> <s_epik_cmdline>
J2VwaWtfcHl0aG9uJywgJy1waCcsICc3LjAnLCAnLXRuJywgJzgnLCAnLW1hJywgJzIwMCcsICctbWV0YWxfYmluZGluZycsICctaW1hZScsICc8aW5maWxlLm1hZT4nLCAnLW9tYWUnLCAnPG91dGZpbGUubWFlPic=

> <r_lp_tautomer_probability>
1

> <r_epik_Ionization_Penalty>
3.16025

> <r_epik_Ionization_Penalty_Charging>
0.171172

> <r_epik_Ionization_Penalty_Neutral>
2.98908

> <r_epik_State_Penalty>
2.98521

> <r_epik_Charging_Adjusted_Penalty>
3.15638

> <i_epik_Tot_Q>
-1

> <i_epik_Tot_abs_Q>
1

> <r_epik_Metal_State_Penalty>
0.452642

> <b_epik_Metal_Only>
1

> <s_lp_Force_Field>
OPLS_2005

> <r_lp_Energy>
24.3751

> <b_lp_Chiralities_Consistent>
1

> <s_lp_Variant>
AV-unprocessed.smi:1724-3

> <Gold.Version>
5.8.1

> <Gold.Id.Protein>
6NUR|6NUR_protein|mol2

> <Gold.PLP.Fitness>
40.3897

> <Gold.PLP.PLP>
-33.5292

> <Gold.PLP.part.hbond>
-2.0000

> <Gold.PLP.part.metal>
0.0000

> <Gold.PLP.part.buried>
-4.1672

> <Gold.PLP.part.nonpolar>
-26.7068

> <Gold.PLP.part.repulsive>
0.2324

> <Gold.PLP.ligand.clash>
0.0000

> <Gold.PLP.ligand.torsion>
1.0604

> <Gold.PLP.Chemscore.Hbond>
2.9760

> <Gold.PLP.Chemscore.CHOScore>
0.0000

> <Gold.PLP.Chemscore.Metal>
0.0000

> <Gold.Chemscore.Hbonds>
donor molecule, donor type, donor heavy atom, donor atom, acceptor molecule, acceptor atom, score
      L1  H     3    23       P1  7948  0.90
      P1  H  6896  6907       L1    20  1.85

> <Gold.PLP.Chemscore.Internal.Correction>
0.0534

> <Gold.Rescore>
     Score         DG    S(hbond)    S(metal)    S(lipo)     H(rot)  DE(clash)    DE(int)     intcor
     15.64     -16.60       1.84        0.00      71.50       1.32       0.02       0.93       ----

> <Gold.Chemscore.Fitness>
15.6432

> <Gold.Chemscore.DG>
-16.5974

> <Gold.Chemscore.ZeroCoef>
-5.4800

> <Gold.Chemscore.Hbond>
1.8395

> <Gold.Chemscore.Metal>
0.0000

> <Gold.Chemscore.Lipo>
71.4954

> <Gold.Chemscore.Internal_Hbond>
0.0000

> <Gold.Chemscore.DEClash>
0.0249

> <Gold.Chemscore.DEInternal>
0.9293

> <Gold.Chemscore.Rot>
1.3248

> <Gold.Chemscore.Internal.Correction>
   9.000000E+99

> <Gold.Chemscore.Hbonds>
donor molecule, donor type, donor heavy atom, donor atom, acceptor molecule, acceptor atom, score
      L1  H     3    23       P1  7948  0.62
      P1  H  6896  6907       L1    20  0.57

> <Gold.Chemscore.Hbond.Weighted>
-6.1440

> <Gold.Chemscore.Metal.Weighted>
-0.0000

> <Gold.Chemscore.Lipo.Weighted>
-8.3650

> <Gold.Chemscore.Internal_Hbond.Weighted>
0.0000

> <Gold.Chemscore.DEClash.Weighted>
0.0249

> <Gold.Chemscore.DEInternal.Weighted>
0.9293

> <Gold.Chemscore.Rot.Weighted>
3.3915

> <Gold.Chemscore.Internal.Correction.Weighted>
   9.000000E+99

> <Gold.Protein.RotatedTorsions>
[ 6907 6896 6895 6894 ] final -174.25 input  -60.11 | X-H torsion
[ 7974 7965 7964 7962 ] final  -88.60 input  175.53 | X-H torsion
[ 8008 7997 7996 7995 ] final   55.02 input   59.86 | X-H torsion
[ 10167 10162 10161 10158 ] final -178.58 input  -65.29 | X-H torsion
[ 10718 10713 10712 10709 ] final   54.99 input   66.30 | X-H torsion
[ 10763 10752 10751 10750 ] final   86.42 input  -60.55 | X-H torsion
[ 11005 11000 10999 10996 ] final  -44.09 input  -57.11 | X-H torsion

> <Gold.Protein.ActiveResidues>
 VAL166  LYS551  ARG553  GLY616  TRP617  ASP618  TYR619  PRO620  LYS621  CYS622 
 ASP623  PHE694  ASN695  SER759  ASP760  ASP761  ALA762  ILE779  LEU786  VAL792 
 PHE793  MET794  SER795  GLU796  ALA797  LYS798  CYS799  TRP800  GLU811  SER814 

> <Gold.Protein.RotatedAtoms>
  151.5693  133.3392  159.2986 H   0  0  0  0  0  0  0  0  0  0  0  0  # atno 6907 bound_to 6896
  150.8377  134.7659  159.6917 H   0  0  0  0  0  0  0  0  0  0  0  0  # atno 6908 bound_to 6896
  152.4450  134.5520  159.9921 H   0  0  0  0  0  0  0  0  0  0  0  0  # atno 6909 bound_to 6896
  145.4510  140.9560  143.2022 H   0  0  0  0  0  0  0  0  0  0  0  0  # atno 7974 bound_to 7965
  155.4942  140.3472  155.4360 H   0  0  0  0  0  0  0  0  0  0  0  0  # atno 8008 bound_to 7997
  156.0957  140.1422  156.9562 H   0  0  0  0  0  0  0  0  0  0  0  0  # atno 8009 bound_to 7997
  154.4662  140.0917  156.7003 H   0  0  0  0  0  0  0  0  0  0  0  0  # atno 8010 bound_to 7997
  139.5426  144.2322  152.0925 H   0  0  0  0  0  0  0  0  0  0  0  0  # atno 10167 bound_to 10162
  157.5306  130.8628  149.8682 H   0  0  0  0  0  0  0  0  0  0  0  0  # atno 10718 bound_to 10713
  153.1568  135.4581  154.9716 H   0  0  0  0  0  0  0  0  0  0  0  0  # atno 10763 bound_to 10752
  154.7868  135.3206  154.7871 H   0  0  0  0  0  0  0  0  0  0  0  0  # atno 10764 bound_to 10752
  153.8367  135.6934  153.4862 H   0  0  0  0  0  0  0  0  0  0  0  0  # atno 10765 bound_to 10752
  141.0428  133.6773  156.2824 H   0  0  0  0  0  0  0  0  0  0  0  0  # atno 11005 bound_to 11000
  144.8062  139.6048  143.7050 LP  0  0  0  0  0  0  0  0  0  0  0  0  # atno 17320 bound_to 7965
  146.2504  139.6188  142.9431 LP  0  0  0  0  0  0  0  0  0  0  0  0  # atno 17321 bound_to 7965
  140.1803  144.4850  150.6532 LP  0  0  0  0  0  0  0  0  0  0  0  0  # atno 17342 bound_to 10162
  140.6662  143.2269  151.5738 LP  0  0  0  0  0  0  0  0  0  0  0  0  # atno 17343 bound_to 10162
  156.0420  130.3737  150.1413 LP  0  0  0  0  0  0  0  0  0  0  0  0  # atno 17370 bound_to 10713
  156.9597  130.9801  151.3481 LP  0  0  0  0  0  0  0  0  0  0  0  0  # atno 17371 bound_to 10713
  140.6203  134.5368  157.5546 LP  0  0  0  0  0  0  0  0  0  0  0  0  # atno 17394 bound_to 11000
  139.9288  134.8003  156.0990 LP  0  0  0  0  0  0  0  0  0  0  0  0  # atno 17395 bound_to 11000

$$$$
