AV-unprocessed.smi:3014|AV-procd|sdf|11466|dock4
  -GOLD-   2272016403D 1   1.00000     0.00000
 Structure written by MMmdl.
 45 46  0  0  0  0  0  0  0  0  1 V2000
  158.2805  135.9057  151.1105 C   0  0  0  0  0  0  0  0  0  0  0  0
  157.5748  136.3858  152.3866 C   0  0  2  0  0  0  0  0  0  0  0  0
  157.1019  137.8460  152.2510 C   0  0  0  0  0  0  0  0  0  0  0  0
  156.4048  138.3371  153.5295 C   0  0  0  0  0  0  0  0  0  0  0  0
  157.3084  138.1633  154.7615 C   0  0  0  0  0  0  0  0  0  0  0  0
  157.7861  136.7089  154.9173 C   0  0  1  0  0  0  0  0  0  0  0  0
  156.6467  135.9127  155.2171 O   0  0  0  0  0  0  0  0  0  0  0  0
  156.4068  135.7061  156.6040 C   0  0  0  0  0  0  0  0  0  0  0  0
  155.8658  136.9927  157.2328 C   0  0  0  0  0  0  0  0  0  0  0  0
  154.9845  137.6184  156.6439 O   0  0  0  0  0  0  0  0  0  0  0  0
  156.3938  137.3516  158.4191 N   0  0  0  0  0  0  0  0  0  0  0  0
  156.1046  138.5002  159.1995 C   0  0  0  0  0  0  0  0  0  0  0  0
  157.1109  138.8973  160.1060 C   0  0  0  0  0  0  0  0  0  0  0  0
  156.8533  140.0381  160.8902 C   0  0  0  0  0  0  0  0  0  0  0  0
  155.6990  140.7273  160.7838 N   0  0  0  0  0  0  0  0  0  0  0  0
  154.7979  140.2846  159.8985 C   0  0  0  0  0  0  0  0  0  0  0  0
  153.6022  140.9987  159.7811 N   0  0  0  0  0  0  0  0  0  0  0  0
  152.5840  140.6105  158.8090 C   0  0  0  0  0  0  0  0  0  0  0  0
  153.3399  142.1750  160.6051 C   0  0  0  0  0  0  0  0  0  0  0  0
  154.9539  139.2110  159.1134 N   0  0  0  0  0  0  0  0  0  0  0  0
  158.4790  136.2242  153.6254 C   0  0  0  0  0  0  0  0  0  0  0  0
  159.1768  136.4928  150.9081 H   0  0  0  0  0  0  0  0  0  0  0  0
  157.6242  135.9906  150.2439 H   0  0  0  0  0  0  0  0  0  0  0  0
  158.5786  134.8605  151.1959 H   0  0  0  0  0  0  0  0  0  0  0  0
  156.6937  135.7579  152.5276 H   0  0  0  0  0  0  0  0  0  0  0  0
  157.9546  138.4906  152.0335 H   0  0  0  0  0  0  0  0  0  0  0  0
  156.4201  137.9406  151.4052 H   0  0  0  0  0  0  0  0  0  0  0  0
  156.1252  139.3852  153.4198 H   0  0  0  0  0  0  0  0  0  0  0  0
  155.4754  137.7850  153.6742 H   0  0  0  0  0  0  0  0  0  0  0  0
  158.1740  138.8203  154.6675 H   0  0  0  0  0  0  0  0  0  0  0  0
  156.7789  138.4813  155.6601 H   0  0  0  0  0  0  0  0  0  0  0  0
  158.4883  136.6675  155.7518 H   0  0  0  0  0  0  0  0  0  0  0  0
  155.6814  134.9083  156.7629 H   0  0  0  0  0  0  0  0  0  0  0  0
  157.3308  135.4237  157.1099 H   0  0  0  0  0  0  0  0  0  0  0  0
  157.0981  136.7332  158.7943 H   0  0  0  0  0  0  0  0  0  0  0  0
  158.0407  138.3556  160.1997 H   0  0  0  0  0  0  0  0  0  0  0  0
  157.5777  140.3991  161.6049 H   0  0  0  0  0  0  0  0  0  0  0  0
  152.2708  139.5791  158.9755 H   0  0  0  0  0  0  0  0  0  0  0  0
  152.9781  140.6903  157.7954 H   0  0  0  0  0  0  0  0  0  0  0  0
  151.6968  141.2405  158.8733 H   0  0  0  0  0  0  0  0  0  0  0  0
  154.1161  142.9260  160.4540 H   0  0  0  0  0  0  0  0  0  0  0  0
  153.3249  141.9034  161.6610 H   0  0  0  0  0  0  0  0  0  0  0  0
  152.3816  142.6357  160.3651 H   0  0  0  0  0  0  0  0  0  0  0  0
  158.7959  135.1864  153.7244 H   0  0  0  0  0  0  0  0  0  0  0  0
  159.3941  136.7996  153.4791 H   0  0  0  0  0  0  0  0  0  0  0  0
  1  2  1  0  0  0  0
  1 22  1  0  0  0  0
  1 23  1  0  0  0  0
  1 24  1  0  0  0  0
  2 21  1  0  0  0  0
  2  3  1  0  0  0  0
  2 25  1  0  0  0  0
  3  4  1  0  0  0  0
  3 26  1  0  0  0  0
  3 27  1  0  0  0  0
  4  5  1  0  0  0  0
  4 28  1  0  0  0  0
  4 29  1  0  0  0  0
  5  6  1  0  0  0  0
  5 30  1  0  0  0  0
  5 31  1  0  0  0  0
  6  7  1  0  0  0  0
  6 21  1  0  0  0  0
  6 32  1  0  0  0  0
  7  8  1  0  0  0  0
  8  9  1  0  0  0  0
  8 33  1  0  0  0  0
  8 34  1  0  0  0  0
  9 10  2  0  0  0  0
  9 11  1  0  0  0  0
 11 12  1  0  0  0  0
 11 35  1  0  0  0  0
 12 20  1  0  0  0  0
 12 13  2  0  0  0  0
 13 14  1  0  0  0  0
 13 36  1  0  0  0  0
 14 15  2  0  0  0  0
 14 37  1  0  0  0  0
 15 16  1  0  0  0  0
 16 17  1  0  0  0  0
 16 20  2  0  0  0  0
 17 18  1  0  0  0  0
 17 19  1  0  0  0  0
 18 38  1  0  0  0  0
 18 39  1  0  0  0  0
 18 40  1  0  0  0  0
 19 41  1  0  0  0  0
 19 42  1  0  0  0  0
 19 43  1  0  0  0  0
 21 44  1  0  0  0  0
 21 45  1  0  0  0  0
M  END
> <s_m_source_file>
AV-unprocessed.smi

> <i_m_source_file_index>
3014

> <i_lp_mmshare_version>
43012

> <i_f3d_flags>
0

> <s_epik_input>
W0NIM11bQ0BASF0xW0NIMl1bQ0gyXVtDSDJdW0NASF0oW0NIMl0xKU9bQ0gyXUMoPU8pW05IXWMyW2NIXVtjSF1uYyhuMilOKFtDSDNdKVtDSDNd

> <s_epik_cmdline>
J2VwaWtfcHl0aG9uJywgJy1waCcsICc3LjAnLCAnLXRuJywgJzgnLCAnLW1hJywgJzIwMCcsICctbWV0YWxfYmluZGluZycsICctaW1hZScsICc8aW5maWxlLm1hZT4nLCAnLW9tYWUnLCAnPG91dGZpbGUubWFlPic=

> <r_lp_tautomer_probability>
1

> <r_epik_Ionization_Penalty>
0.000308195

> <r_epik_Ionization_Penalty_Charging>
0

> <r_epik_Ionization_Penalty_Neutral>
0.000308195

> <r_epik_State_Penalty>
-0

> <r_epik_Charging_Adjusted_Penalty>
0

> <i_epik_Tot_Q>
0

> <i_epik_Tot_abs_Q>
0

> <r_epik_Metal_State_Penalty>
-0

> <b_epik_Metal_Only>
0

> <s_lp_Force_Field>
OPLS_2005

> <r_lp_Energy>
6.70314

> <b_lp_Chiralities_Consistent>
1

> <s_lp_Variant>
AV-unprocessed.smi:3014-1

> <Gold.Version>
5.8.1

> <Gold.Id.Protein>
6NUR|6NUR_protein|mol2

> <Gold.PLP.Fitness>
40.4347

> <Gold.PLP.PLP>
-36.0309

> <Gold.PLP.part.hbond>
-4.0000

> <Gold.PLP.part.metal>
0.0000

> <Gold.PLP.part.buried>
-4.0671

> <Gold.PLP.part.nonpolar>
-29.4066

> <Gold.PLP.part.repulsive>
0.0640

> <Gold.PLP.ligand.clash>
0.0000

> <Gold.PLP.ligand.torsion>
0.8119

> <Gold.PLP.Chemscore.Hbond>
2.0000

> <Gold.PLP.Chemscore.CHOScore>
0.0000

> <Gold.PLP.Chemscore.Metal>
0.0000

> <Gold.Chemscore.Hbonds>
donor molecule, donor type, donor heavy atom, donor atom, acceptor molecule, acceptor atom, score
      P1  H  7997  8010       L1    20  1.00
      P1  H 10752 10764       L1     7  0.85

> <Gold.PLP.Chemscore.Internal.Correction>
0.0276

> <Gold.Rescore>
     Score         DG    S(hbond)    S(metal)    S(lipo)     H(rot)  DE(clash)    DE(int)     intcor
     13.15     -15.47       0.46        0.00     103.52       1.43       0.09       2.23       ----

> <Gold.Chemscore.Fitness>
13.1506

> <Gold.Chemscore.DG>
-15.4743

> <Gold.Chemscore.ZeroCoef>
-5.4800

> <Gold.Chemscore.Hbond>
0.4626

> <Gold.Chemscore.Metal>
0.0000

> <Gold.Chemscore.Lipo>
103.5243

> <Gold.Chemscore.Internal_Hbond>
0.0000

> <Gold.Chemscore.DEClash>
0.0916

> <Gold.Chemscore.DEInternal>
2.2322

> <Gold.Chemscore.Rot>
1.4310

> <Gold.Chemscore.Internal.Correction>
   9.000000E+99

> <Gold.Chemscore.Hbonds>
donor molecule, donor type, donor heavy atom, donor atom, acceptor molecule, acceptor atom, score
      P1  H  7997  8010       L1    20  0.20
      P1  H 10752 10764       L1     7  0.15

> <Gold.Chemscore.Hbond.Weighted>
-1.5452

> <Gold.Chemscore.Metal.Weighted>
-0.0000

> <Gold.Chemscore.Lipo.Weighted>
-12.1123

> <Gold.Chemscore.Internal_Hbond.Weighted>
0.0000

> <Gold.Chemscore.DEClash.Weighted>
0.0916

> <Gold.Chemscore.DEInternal.Weighted>
2.2322

> <Gold.Chemscore.Rot.Weighted>
3.6632

> <Gold.Chemscore.Internal.Correction.Weighted>
   9.000000E+99

> <Gold.Protein.RotatedTorsions>
[ 6907 6896 6895 6894 ] final   51.75 input  -60.11 | X-H torsion
[ 7974 7965 7964 7962 ] final -126.69 input  175.53 | X-H torsion
[ 8008 7997 7996 7995 ] final   12.17 input   59.86 | X-H torsion
[ 10167 10162 10161 10158 ] final  -42.60 input  -65.29 | X-H torsion
[ 10718 10713 10712 10709 ] final  150.34 input   66.30 | X-H torsion
[ 10763 10752 10751 10750 ] final   99.70 input  -60.55 | X-H torsion
[ 11005 11000 10999 10996 ] final   84.38 input  -57.11 | X-H torsion

> <Gold.Protein.ActiveResidues>
 VAL166  LYS551  ARG553  GLY616  TRP617  ASP618  TYR619  PRO620  LYS621  CYS622 
 ASP623  PHE694  ASN695  SER759  ASP760  ASP761  ALA762  ILE779  LEU786  VAL792 
 PHE793  MET794  SER795  GLU796  ALA797  LYS798  CYS799  TRP800  GLU811  SER814 

> <Gold.Protein.RotatedAtoms>
  152.3160  134.7439  160.0324 H   0  0  0  0  0  0  0  0  0  0  0  0  # atno 6907 bound_to 6896
  151.7903  133.3353  159.3505 H   0  0  0  0  0  0  0  0  0  0  0  0  # atno 6908 bound_to 6896
  150.7345  134.5779  159.5968 H   0  0  0  0  0  0  0  0  0  0  0  0  # atno 6909 bound_to 6896
  144.9847  140.7674  143.4591 H   0  0  0  0  0  0  0  0  0  0  0  0  # atno 7974 bound_to 7965
  154.8170  140.2877  155.5813 H   0  0  0  0  0  0  0  0  0  0  0  0  # atno 8008 bound_to 7997
  156.2994  140.2557  156.3000 H   0  0  0  0  0  0  0  0  0  0  0  0  # atno 8009 bound_to 7997
  154.9382  140.0382  157.2072 H   0  0  0  0  0  0  0  0  0  0  0  0  # atno 8010 bound_to 7997
  140.6963  143.3029  151.3232 H   0  0  0  0  0  0  0  0  0  0  0  0  # atno 10167 bound_to 10162
  157.2847  131.0842  151.1506 H   0  0  0  0  0  0  0  0  0  0  0  0  # atno 10718 bound_to 10713
  153.3047  135.4104  155.1284 H   0  0  0  0  0  0  0  0  0  0  0  0  # atno 10763 bound_to 10752
  154.8559  135.3550  154.5804 H   0  0  0  0  0  0  0  0  0  0  0  0  # atno 10764 bound_to 10752
  153.6230  135.7063  153.5362 H   0  0  0  0  0  0  0  0  0  0  0  0  # atno 10765 bound_to 10752
  139.9002  134.8212  156.2437 H   0  0  0  0  0  0  0  0  0  0  0  0  # atno 11005 bound_to 11000
  145.2371  139.2089  143.5012 LP  0  0  0  0  0  0  0  0  0  0  0  0  # atno 17320 bound_to 7965
  146.3417  140.2259  142.8592 LP  0  0  0  0  0  0  0  0  0  0  0  0  # atno 17321 bound_to 7965
  139.6423  144.0516  152.2564 LP  0  0  0  0  0  0  0  0  0  0  0  0  # atno 17342 bound_to 10162
  140.0025  144.6283  150.7717 LP  0  0  0  0  0  0  0  0  0  0  0  0  # atno 17343 bound_to 10162
  157.2926  130.6804  149.6122 LP  0  0  0  0  0  0  0  0  0  0  0  0  # atno 17370 bound_to 10713
  155.9665  130.4416  150.5347 LP  0  0  0  0  0  0  0  0  0  0  0  0  # atno 17371 bound_to 10713
  141.0268  133.7010  156.1362 LP  0  0  0  0  0  0  0  0  0  0  0  0  # atno 17394 bound_to 11000
  140.7154  134.4416  157.5579 LP  0  0  0  0  0  0  0  0  0  0  0  0  # atno 17395 bound_to 11000

$$$$
