AV-unprocessed.smi:1749|AV-procd|sdf|7049|dock6
  -GOLD-   22720 8263D 1   1.00000     0.00000
 Structure written by MMmdl.
 31 32  0  0  0  0  0  0  0  0  2 V2000
  151.0018  145.2973  159.6096 C   0  0  0  0  0  0  0  0  0  0  0  0
  152.0168  144.1457  159.6365 C   0  0  1  0  0  0  0  0  0  0  0  0
  152.3805  143.7475  161.0797 C   0  0  0  0  0  0  0  0  0  0  0  0
  153.3994  142.5977  161.1056 C   0  0  0  0  0  0  0  0  0  0  0  0
  152.8871  141.3825  160.3181 C   0  0  0  0  0  0  0  0  0  0  0  0
  152.5248  141.7640  158.8713 C   0  0  1  0  0  0  0  0  0  0  0  0
  151.9956  140.5910  158.1815 N   0  0  0  0  0  0  0  0  0  0  0  0
  152.6032  139.3950  158.0519 C   0  0  0  0  0  0  0  0  0  0  0  0
  153.7272  139.2428  158.5287 O   0  0  0  0  0  0  0  0  0  0  0  0
  151.9344  138.4113  157.3941 N   0  5  0  0  0  0  0  0  0  0  0  0
  151.3956  138.5909  156.1737 C   0  0  0  0  0  0  0  0  0  0  0  0
  151.1473  139.8093  155.6667 N   0  0  0  0  0  0  0  0  0  0  0  0
  150.5860  139.7683  154.3976 N   0  0  0  0  0  0  0  0  0  0  0  0
  150.4349  138.5140  153.9734 C   0  0  0  0  0  0  0  0  0  0  0  0
  150.9643  137.2694  155.0852 S   0  0  0  0  0  0  0  0  0  0  0  0
  151.5047  142.9219  158.8516 C   0  0  0  0  0  0  0  0  0  0  0  0
  150.0638  145.0113  160.0862 H   0  0  0  0  0  0  0  0  0  0  0  0
  150.7774  145.5974  158.5857 H   0  0  0  0  0  0  0  0  0  0  0  0
  151.3879  146.1726  160.1322 H   0  0  0  0  0  0  0  0  0  0  0  0
  152.9253  144.4996  159.1468 H   0  0  0  0  0  0  0  0  0  0  0  0
  152.7867  144.6072  161.6137 H   0  0  0  0  0  0  0  0  0  0  0  0
  151.4803  143.4467  161.6176 H   0  0  0  0  0  0  0  0  0  0  0  0
  154.3449  142.9363  160.6799 H   0  0  0  0  0  0  0  0  0  0  0  0
  153.6095  142.3102  162.1361 H   0  0  0  0  0  0  0  0  0  0  0  0
  153.6443  140.5975  160.3196 H   0  0  0  0  0  0  0  0  0  0  0  0
  152.0118  140.9685  160.8215 H   0  0  0  0  0  0  0  0  0  0  0  0
  153.4380  142.0869  158.3677 H   0  0  0  0  0  0  0  0  0  0  0  0
  151.0791  140.6878  157.7697 H   0  0  0  0  0  0  0  0  0  0  0  0
  150.0105  138.3201  152.9998 H   0  0  0  0  0  0  0  0  0  0  0  0
  150.5580  142.5842  159.2765 H   0  0  0  0  0  0  0  0  0  0  0  0
  151.2924  143.2119  157.8217 H   0  0  0  0  0  0  0  0  0  0  0  0
  1  2  1  0  0  0  0
  1 17  1  0  0  0  0
  1 18  1  0  0  0  0
  1 19  1  0  0  0  0
  2 16  1  0  0  0  0
  2  3  1  0  0  0  0
  2 20  1  0  0  0  0
  3  4  1  0  0  0  0
  3 21  1  0  0  0  0
  3 22  1  0  0  0  0
  4  5  1  0  0  0  0
  4 23  1  0  0  0  0
  4 24  1  0  0  0  0
  5  6  1  0  0  0  0
  5 25  1  0  0  0  0
  5 26  1  0  0  0  0
  6  7  1  0  0  0  0
  6 16  1  0  0  0  0
  6 27  1  0  0  0  0
  7  8  1  0  0  0  0
  7 28  1  0  0  0  0
  8  9  2  0  0  0  0
  8 10  1  0  0  0  0
 10 11  1  0  0  0  0
 11 15  1  0  0  0  0
 11 12  2  0  0  0  0
 12 13  1  0  0  0  0
 13 14  2  0  0  0  0
 14 15  1  0  0  0  0
 14 29  1  0  0  0  0
 16 30  1  0  0  0  0
 16 31  1  0  0  0  0
M  CHG  1  10  -1
M  END
> <s_m_source_file>
AV-unprocessed.smi

> <i_m_source_file_index>
1749

> <i_lp_mmshare_version>
43012

> <i_f3d_flags>
0

> <s_epik_input>
W0NIM11bQ0BASF0xW0NIMl1bQ0gyXVtDSDJdW0NASF0oW0NIMl0xKVtOSF1DKD1PKVtOSF1jMm5uW2NIXXMy

> <s_epik_cmdline>
J2VwaWtfcHl0aG9uJywgJy1waCcsICc3LjAnLCAnLXRuJywgJzgnLCAnLW1hJywgJzIwMCcsICctbWV0YWxfYmluZGluZycsICctaW1hZScsICc8aW5maWxlLm1hZT4nLCAnLW9tYWUnLCAnPG91dGZpbGUubWFlPic=

> <r_lp_tautomer_probability>
1

> <r_epik_Ionization_Penalty>
4.55442

> <r_epik_Ionization_Penalty_Charging>
4.5081

> <r_epik_Ionization_Penalty_Neutral>
0.0463156

> <r_epik_State_Penalty>
4.50781

> <r_epik_Charging_Adjusted_Penalty>
9.01591

> <i_epik_Tot_Q>
-1

> <i_epik_Tot_abs_Q>
1

> <r_epik_Metal_State_Penalty>
0.823335

> <b_epik_Metal_Only>
1

> <s_lp_Force_Field>
OPLS_2005

> <r_lp_Energy>
8.86437

> <b_lp_Chiralities_Consistent>
1

> <s_lp_Variant>
AV-unprocessed.smi:1749-6

> <Gold.Version>
5.8.1

> <Gold.Id.Protein>
6NUR|6NUR_protein|mol2

> <Gold.PLP.Fitness>
43.0033

> <Gold.PLP.PLP>
-32.4464

> <Gold.PLP.part.hbond>
-2.0000

> <Gold.PLP.part.metal>
0.0000

> <Gold.PLP.part.buried>
-5.8232

> <Gold.PLP.part.nonpolar>
-25.1948

> <Gold.PLP.part.repulsive>
0.2253

> <Gold.PLP.ligand.clash>
0.0000

> <Gold.PLP.ligand.torsion>
0.5533

> <Gold.PLP.Chemscore.Hbond>
2.0000

> <Gold.PLP.Chemscore.CHOScore>
1.8852

> <Gold.PLP.Chemscore.Metal>
0.0000

> <Gold.Chemscore.Hbonds>
donor molecule, donor type, donor heavy atom, donor atom, acceptor molecule, acceptor atom, score
      P1  H  7989  7998       L1    13  1.00
      P1  H  7997  8009       L1     9  1.00
      L1  C    14    29       P1  7948  0.95
      L1  C    14    29       P1  7957  0.94

> <Gold.PLP.Chemscore.Internal.Correction>
0.0078

> <Gold.Rescore>
     Score         DG    S(hbond)    S(metal)    S(lipo)     H(rot)  DE(clash)    DE(int)     intcor
     15.40     -18.38       1.45        0.00      90.79       1.00       0.01       2.97       ----

> <Gold.Chemscore.Fitness>
15.3980

> <Gold.Chemscore.DG>
-18.3775

> <Gold.Chemscore.ZeroCoef>
-5.4800

> <Gold.Chemscore.Hbond>
1.4476

> <Gold.Chemscore.Metal>
0.0000

> <Gold.Chemscore.Lipo>
90.7902

> <Gold.Chemscore.Internal_Hbond>
0.0000

> <Gold.Chemscore.DEClash>
0.0089

> <Gold.Chemscore.DEInternal>
2.9706

> <Gold.Chemscore.Rot>
1.0000

> <Gold.Chemscore.Internal.Correction>
   9.000000E+99

> <Gold.Chemscore.Hbonds>
donor molecule, donor type, donor heavy atom, donor atom, acceptor molecule, acceptor atom, score
      P1  H  7989  7998       L1    13  0.38
      P1  H  7997  8009       L1     9  0.59

> <Gold.Chemscore.Hbond.Weighted>
-4.8350

> <Gold.Chemscore.Metal.Weighted>
-0.0000

> <Gold.Chemscore.Lipo.Weighted>
-10.6224

> <Gold.Chemscore.Internal_Hbond.Weighted>
0.0000

> <Gold.Chemscore.DEClash.Weighted>
0.0089

> <Gold.Chemscore.DEInternal.Weighted>
2.9706

> <Gold.Chemscore.Rot.Weighted>
2.5600

> <Gold.Chemscore.Internal.Correction.Weighted>
   9.000000E+99

> <Gold.Protein.RotatedTorsions>
[ 6907 6896 6895 6894 ] final  -19.68 input  -60.11 | X-H torsion
[ 7974 7965 7964 7962 ] final  131.69 input  175.53 | X-H torsion
[ 8008 7997 7996 7995 ] final  126.09 input   59.86 | X-H torsion
[ 10167 10162 10161 10158 ] final  153.32 input  -65.29 | X-H torsion
[ 10718 10713 10712 10709 ] final   -7.55 input   66.30 | X-H torsion
[ 10763 10752 10751 10750 ] final   50.67 input  -60.55 | X-H torsion
[ 11005 11000 10999 10996 ] final  104.14 input  -57.11 | X-H torsion

> <Gold.Protein.ActiveResidues>
 VAL166  LYS551  ARG553  GLY616  TRP617  ASP618  TYR619  PRO620  LYS621  CYS622 
 ASP623  PHE694  ASN695  SER759  ASP760  ASP761  ALA762  ILE779  LEU786  VAL792 
 PHE793  MET794  SER795  GLU796  ALA797  LYS798  CYS799  TRP800  GLU811  SER814 

> <Gold.Protein.RotatedAtoms>
  151.2595  135.0649  159.9092 H   0  0  0  0  0  0  0  0  0  0  0  0  # atno 6907 bound_to 6896
  152.5368  134.0246  159.8007 H   0  0  0  0  0  0  0  0  0  0  0  0  # atno 6908 bound_to 6896
  151.0467  133.5609  159.2677 H   0  0  0  0  0  0  0  0  0  0  0  0  # atno 6909 bound_to 6896
  145.0046  139.4279  143.5275 H   0  0  0  0  0  0  0  0  0  0  0  0  # atno 7974 bound_to 7965
  156.2854  140.2701  156.2055 H   0  0  0  0  0  0  0  0  0  0  0  0  # atno 8008 bound_to 7997
  155.0318  140.0386  157.2495 H   0  0  0  0  0  0  0  0  0  0  0  0  # atno 8009 bound_to 7997
  154.7348  140.2713  155.6429 H   0  0  0  0  0  0  0  0  0  0  0  0  # atno 8010 bound_to 7997
  139.4828  144.5283  151.7765 H   0  0  0  0  0  0  0  0  0  0  0  0  # atno 10167 bound_to 10162
  156.7155  130.5135  149.5881 H   0  0  0  0  0  0  0  0  0  0  0  0  # atno 10718 bound_to 10713
  152.9784  135.5871  154.4290 H   0  0  0  0  0  0  0  0  0  0  0  0  # atno 10763 bound_to 10752
  154.3905  135.2768  155.2159 H   0  0  0  0  0  0  0  0  0  0  0  0  # atno 10764 bound_to 10752
  154.4034  135.6098  153.5964 H   0  0  0  0  0  0  0  0  0  0  0  0  # atno 10765 bound_to 10752
  139.8789  134.9289  156.5316 H   0  0  0  0  0  0  0  0  0  0  0  0  # atno 11005 bound_to 11000
  146.3458  139.9455  142.8735 LP  0  0  0  0  0  0  0  0  0  0  0  0  # atno 17320 bound_to 7965
  145.2106  140.9894  143.4103 LP  0  0  0  0  0  0  0  0  0  0  0  0  # atno 17321 bound_to 7965
  140.4806  144.1455  150.5932 LP  0  0  0  0  0  0  0  0  0  0  0  0  # atno 17342 bound_to 10162
  140.4282  143.2580  151.9629 LP  0  0  0  0  0  0  0  0  0  0  0  0  # atno 17343 bound_to 10162
  156.1631  130.6387  151.0744 LP  0  0  0  0  0  0  0  0  0  0  0  0  # atno 17370 bound_to 10713
  157.6919  131.0807  150.7083 LP  0  0  0  0  0  0  0  0  0  0  0  0  # atno 17371 bound_to 10713
  140.8376  133.8230  155.9044 LP  0  0  0  0  0  0  0  0  0  0  0  0  # atno 17394 bound_to 11000
  140.9268  134.2072  157.4890 LP  0  0  0  0  0  0  0  0  0  0  0  0  # atno 17395 bound_to 11000

$$$$
