AV-unprocessed.smi:1785|AV-procd|sdf|7201|dock5
  -GOLD-   22720 8443D 1   1.00000     0.00000
 Structure written by MMmdl.
 27 28  0  0  0  0  0  0  0  0  2 V2000
  153.3867  140.7301  160.6151 C   0  0  0  0  0  0  0  0  0  0  0  0
  152.7176  142.0543  160.2826 C   0  0  0  0  0  0  0  0  0  0  0  0
  152.6695  143.0681  161.2624 C   0  0  0  0  0  0  0  0  0  0  0  0
  152.0452  144.2891  160.9563 C   0  0  0  0  0  0  0  0  0  0  0  0
  151.4899  144.4419  159.6745 C   0  0  0  0  0  0  0  0  0  0  0  0
  151.5313  143.4780  158.7322 N   0  0  0  0  0  0  0  0  0  0  0  0
  152.1387  142.2977  159.0060 C   0  0  0  0  0  0  0  0  0  0  0  0
  152.1483  141.3621  158.0410 N   0  5  0  0  0  0  0  0  0  0  0  0
  151.2171  141.3696  157.0519 C   0  0  0  0  0  0  0  0  0  0  0  0
  150.2873  142.1788  156.9833 O   0  0  0  0  0  0  0  0  0  0  0  0
  151.3765  140.3377  156.0309 C   0  0  0  0  0  0  0  0  0  0  0  0
  150.4237  140.1658  155.0834 C   0  0  0  0  0  0  0  0  0  0  0  0
  150.4778  139.1959  154.1134 O   0  0  0  0  0  0  0  0  0  0  0  0
  151.4818  138.2095  154.3177 C   0  0  0  0  0  0  0  0  0  0  0  0
  152.7767  138.8640  154.8188 C   0  0  0  0  0  0  0  0  0  0  0  0
  152.5282  139.5811  156.0222 O   0  0  0  0  0  0  0  0  0  0  0  0
  153.7114  140.6977  161.6553 H   0  0  0  0  0  0  0  0  0  0  0  0
  154.2617  140.5790  159.9825 H   0  0  0  0  0  0  0  0  0  0  0  0
  152.6962  139.9020  160.4528 H   0  0  0  0  0  0  0  0  0  0  0  0
  153.1039  142.9138  162.2391 H   0  0  0  0  0  0  0  0  0  0  0  0
  151.9913  145.0850  161.6841 H   0  0  0  0  0  0  0  0  0  0  0  0
  150.9971  145.3621  159.3977 H   0  0  0  0  0  0  0  0  0  0  0  0
  149.5103  140.7392  155.0155 H   0  0  0  0  0  0  0  0  0  0  0  0
  151.1227  137.4748  155.0399 H   0  0  0  0  0  0  0  0  0  0  0  0
  151.6584  137.6803  153.3814 H   0  0  0  0  0  0  0  0  0  0  0  0
  153.5406  138.1089  155.0048 H   0  0  0  0  0  0  0  0  0  0  0  0
  153.1754  139.5476  154.0681 H   0  0  0  0  0  0  0  0  0  0  0  0
  1  2  1  0  0  0  0
  1 17  1  0  0  0  0
  1 18  1  0  0  0  0
  1 19  1  0  0  0  0
  2  7  1  0  0  0  0
  2  3  2  0  0  0  0
  3  4  1  0  0  0  0
  3 20  1  0  0  0  0
  4  5  2  0  0  0  0
  4 21  1  0  0  0  0
  5  6  1  0  0  0  0
  5 22  1  0  0  0  0
  6  7  2  0  0  0  0
  7  8  1  0  0  0  0
  8  9  1  0  0  0  0
  9 10  2  0  0  0  0
  9 11  1  0  0  0  0
 11 16  1  0  0  0  0
 11 12  2  0  0  0  0
 12 13  1  0  0  0  0
 12 23  1  0  0  0  0
 13 14  1  0  0  0  0
 14 15  1  0  0  0  0
 14 24  1  0  0  0  0
 14 25  1  0  0  0  0
 15 16  1  0  0  0  0
 15 26  1  0  0  0  0
 15 27  1  0  0  0  0
M  CHG  1   8  -1
M  END
> <s_m_source_file>
AV-unprocessed.smi

> <i_m_source_file_index>
1785

> <i_lp_mmshare_version>
43012

> <i_f3d_flags>
0

> <s_epik_input>
W0NIM11jMVtjSF1bY0hdW2NIXW5jMVtOSF1DKD1PKUMyPVtDSF1PW0NIMl1bQ0gyXU8y

> <s_epik_cmdline>
J2VwaWtfcHl0aG9uJywgJy1waCcsICc3LjAnLCAnLXRuJywgJzgnLCAnLW1hJywgJzIwMCcsICctbWV0YWxfYmluZGluZycsICctaW1hZScsICc8aW5maWxlLm1hZT4nLCAnLW9tYWUnLCAnPG91dGZpbGUubWFlPic=

> <r_lp_tautomer_probability>
1

> <r_epik_Ionization_Penalty>
11.0036

> <r_epik_Ionization_Penalty_Charging>
5.9985

> <r_epik_Ionization_Penalty_Neutral>
5.00509

> <r_epik_State_Penalty>
5.99847

> <r_epik_Charging_Adjusted_Penalty>
11.997

> <i_epik_Tot_Q>
-1

> <i_epik_Tot_abs_Q>
1

> <r_epik_Metal_State_Penalty>
1.95147

> <b_epik_Metal_Only>
1

> <s_lp_Force_Field>
OPLS_2005

> <r_lp_Energy>
4.89912

> <b_lp_Chiralities_Consistent>
1

> <s_lp_Variant>
AV-unprocessed.smi:1785-2

> <Gold.Version>
5.8.1

> <Gold.Id.Protein>
6NUR|6NUR_protein|mol2

> <Gold.PLP.Fitness>
41.3410

> <Gold.PLP.PLP>
-38.4826

> <Gold.PLP.part.hbond>
-1.5120

> <Gold.PLP.part.metal>
0.0000

> <Gold.PLP.part.buried>
-5.0356

> <Gold.PLP.part.nonpolar>
-31.9625

> <Gold.PLP.part.repulsive>
0.3706

> <Gold.PLP.ligand.clash>
0.0000

> <Gold.PLP.ligand.torsion>
0.1576

> <Gold.PLP.Chemscore.Hbond>
1.0000

> <Gold.PLP.Chemscore.CHOScore>
0.0000

> <Gold.PLP.Chemscore.Metal>
0.0000

> <Gold.Chemscore.Hbonds>
donor molecule, donor type, donor heavy atom, donor atom, acceptor molecule, acceptor atom, score
      P1  H  7997  8009       L1    16  1.00

> <Gold.PLP.Chemscore.Internal.Correction>
0.1736

> <Gold.Rescore>
     Score         DG    S(hbond)    S(metal)    S(lipo)     H(rot)  DE(clash)    DE(int)     intcor
     15.67     -17.61       0.59        0.00      86.93       0.00       0.02       1.93       ----

> <Gold.Chemscore.Fitness>
15.6701

> <Gold.Chemscore.DG>
-17.6139

> <Gold.Chemscore.ZeroCoef>
-5.4800

> <Gold.Chemscore.Hbond>
0.5878

> <Gold.Chemscore.Metal>
0.0000

> <Gold.Chemscore.Lipo>
86.9272

> <Gold.Chemscore.Internal_Hbond>
0.0000

> <Gold.Chemscore.DEClash>
0.0155

> <Gold.Chemscore.DEInternal>
1.9282

> <Gold.Chemscore.Rot>
0.0000

> <Gold.Chemscore.Internal.Correction>
   9.000000E+99

> <Gold.Chemscore.Hbonds>
donor molecule, donor type, donor heavy atom, donor atom, acceptor molecule, acceptor atom, score
      P1  H  7997  8009       L1    16  0.29

> <Gold.Chemscore.Hbond.Weighted>
-1.9634

> <Gold.Chemscore.Metal.Weighted>
-0.0000

> <Gold.Chemscore.Lipo.Weighted>
-10.1705

> <Gold.Chemscore.Internal_Hbond.Weighted>
0.0000

> <Gold.Chemscore.DEClash.Weighted>
0.0155

> <Gold.Chemscore.DEInternal.Weighted>
1.9282

> <Gold.Chemscore.Rot.Weighted>
0.0000

> <Gold.Chemscore.Internal.Correction.Weighted>
   9.000000E+99

> <Gold.Protein.RotatedTorsions>
[ 6907 6896 6895 6894 ] final -125.69 input  -60.11 | X-H torsion
[ 7974 7965 7964 7962 ] final   69.98 input  175.53 | X-H torsion
[ 8008 7997 7996 7995 ] final -175.53 input   59.86 | X-H torsion
[ 10167 10162 10161 10158 ] final -167.82 input  -65.29 | X-H torsion
[ 10718 10713 10712 10709 ] final   55.66 input   66.30 | X-H torsion
[ 10763 10752 10751 10750 ] final -135.80 input  -60.55 | X-H torsion
[ 11005 11000 10999 10996 ] final  104.50 input  -57.11 | X-H torsion

> <Gold.Protein.ActiveResidues>
 VAL166  LYS551  ARG553  GLY616  TRP617  ASP618  TYR619  PRO620  LYS621  CYS622 
 ASP623  PHE694  ASN695  SER759  ASP760  ASP761  ALA762  ILE779  LEU786  VAL792 
 PHE793  MET794  SER795  GLU796  ALA797  LYS798  CYS799  TRP800  GLU811  SER814 

> <Gold.Protein.RotatedAtoms>
  150.8893  133.7265  159.2909 H   0  0  0  0  0  0  0  0  0  0  0  0  # atno 6907 bound_to 6896
  151.4820  135.1051  159.9790 H   0  0  0  0  0  0  0  0  0  0  0  0  # atno 6908 bound_to 6896
  152.4810  133.8207  159.7107 H   0  0  0  0  0  0  0  0  0  0  0  0  # atno 6909 bound_to 6896
  145.7838  139.2900  143.1250 H   0  0  0  0  0  0  0  0  0  0  0  0  # atno 7974 bound_to 7965
  155.9837  140.1187  157.0703 H   0  0  0  0  0  0  0  0  0  0  0  0  # atno 8008 bound_to 7997
  154.4190  140.1139  156.5538 H   0  0  0  0  0  0  0  0  0  0  0  0  # atno 8009 bound_to 7997
  155.6436  140.3473  155.4726 H   0  0  0  0  0  0  0  0  0  0  0  0  # atno 8010 bound_to 7997
  139.6025  144.0982  152.1757 H   0  0  0  0  0  0  0  0  0  0  0  0  # atno 10167 bound_to 10162
  157.5364  130.8666  149.8759 H   0  0  0  0  0  0  0  0  0  0  0  0  # atno 10718 bound_to 10713
  154.8696  135.3692  154.4957 H   0  0  0  0  0  0  0  0  0  0  0  0  # atno 10763 bound_to 10752
  153.5601  135.7023  153.5556 H   0  0  0  0  0  0  0  0  0  0  0  0  # atno 10764 bound_to 10752
  153.3636  135.4040  155.1700 H   0  0  0  0  0  0  0  0  0  0  0  0  # atno 10765 bound_to 10752
  139.8792  134.9303  156.5372 H   0  0  0  0  0  0  0  0  0  0  0  0  # atno 11005 bound_to 11000
  146.0047  140.8489  143.0001 LP  0  0  0  0  0  0  0  0  0  0  0  0  # atno 17320 bound_to 7965
  144.6792  140.2403  143.7344 LP  0  0  0  0  0  0  0  0  0  0  0  0  # atno 17321 bound_to 7965
  140.0581  144.5878  150.7284 LP  0  0  0  0  0  0  0  0  0  0  0  0  # atno 17342 bound_to 10162
  140.7260  143.2637  151.4119 LP  0  0  0  0  0  0  0  0  0  0  0  0  # atno 17343 bound_to 10162
  156.0462  130.3727  150.1312 LP  0  0  0  0  0  0  0  0  0  0  0  0  # atno 17370 bound_to 10713
  156.9494  130.9770  151.3501 LP  0  0  0  0  0  0  0  0  0  0  0  0  # atno 17371 bound_to 10713
  140.8337  133.8259  155.9008 LP  0  0  0  0  0  0  0  0  0  0  0  0  # atno 17394 bound_to 11000
  140.9304  134.2029  157.4868 LP  0  0  0  0  0  0  0  0  0  0  0  0  # atno 17395 bound_to 11000

$$$$
