AV-unprocessed.smi:392|AV-procd|sdf|2480|dock6
  -GOLD-   2262022423D 1   1.00000     0.00000
 Structure written by MMmdl.
 32 34  0  0  0  0  0  0  0  0  1 V2000
  151.8428  140.1666  154.9624 O   0  0  0  0  0  0  0  0  0  0  0  0
  150.6994  140.6452  155.6418 C   0  0  2  0  0  0  0  0  0  0  0  0
  150.6271  139.9442  157.0122 C   0  0  0  0  0  0  0  0  0  0  0  0
  151.4666  140.5916  158.0038 N   0  0  0  0  0  0  0  0  0  0  0  0
  152.2476  139.9939  158.9244 C   0  0  0  0  0  0  0  0  0  0  0  0
  152.9316  140.7828  159.7482 N   0  0  0  0  0  0  0  0  0  0  0  0
  152.5528  142.0400  159.3093 C   0  0  0  0  0  0  0  0  0  0  0  0
  152.9267  143.3235  159.7680 C   0  0  0  0  0  0  0  0  0  0  0  0
  152.4035  144.4815  159.1558 C   0  0  0  0  0  0  0  0  0  0  0  0
  151.4999  144.3750  158.0784 C   0  0  0  0  0  0  0  0  0  0  0  0
  151.1116  143.1071  157.6045 C   0  0  0  0  0  0  0  0  0  0  0  0
  151.6370  141.9546  158.2174 C   0  0  0  0  0  0  0  0  0  0  0  0
  149.4225  140.4559  154.8302 C   0  0  0  0  0  0  0  0  0  0  0  0
  148.6160  141.5689  154.5034 C   0  0  0  0  0  0  0  0  0  0  0  0
  147.4466  141.4012  153.7373 C   0  0  0  0  0  0  0  0  0  0  0  0
  147.0757  140.1193  153.2900 C   0  0  0  0  0  0  0  0  0  0  0  0
  147.8763  139.0060  153.6082 C   0  0  0  0  0  0  0  0  0  0  0  0
  149.0468  139.1712  154.3742 C   0  0  0  0  0  0  0  0  0  0  0  0
  149.8110  138.0898  154.6608 F   0  0  0  0  0  0  0  0  0  0  0  0
  152.5048  139.9558  155.6032 H   0  0  0  0  0  0  0  0  0  0  0  0
  150.8688  141.7111  155.7977 H   0  0  0  0  0  0  0  0  0  0  0  0
  149.6003  139.9165  157.3804 H   0  0  0  0  0  0  0  0  0  0  0  0
  150.9553  138.9076  156.9240 H   0  0  0  0  0  0  0  0  0  0  0  0
  152.3115  138.9180  158.9987 H   0  0  0  0  0  0  0  0  0  0  0  0
  153.6180  143.4170  160.5923 H   0  0  0  0  0  0  0  0  0  0  0  0
  152.6966  145.4570  159.5148 H   0  0  0  0  0  0  0  0  0  0  0  0
  151.1046  145.2675  157.6160 H   0  0  0  0  0  0  0  0  0  0  0  0
  150.4187  143.0208  156.7809 H   0  0  0  0  0  0  0  0  0  0  0  0
  148.8944  142.5582  154.8356 H   0  0  0  0  0  0  0  0  0  0  0  0
  146.8353  142.2571  153.4912 H   0  0  0  0  0  0  0  0  0  0  0  0
  146.1794  139.9905  152.7013 H   0  0  0  0  0  0  0  0  0  0  0  0
  147.5936  138.0229  153.2615 H   0  0  0  0  0  0  0  0  0  0  0  0
  1  2  1  0  0  0  0
  1 20  1  0  0  0  0
  2  3  1  0  0  0  0
  2 13  1  0  0  0  0
  2 21  1  0  0  0  0
  3  4  1  0  0  0  0
  3 22  1  0  0  0  0
  3 23  1  0  0  0  0
  4 12  1  0  0  0  0
  4  5  1  0  0  0  0
  5  6  2  0  0  0  0
  5 24  1  0  0  0  0
  6  7  1  0  0  0  0
  7 12  2  0  0  0  0
  7  8  1  0  0  0  0
  8  9  2  0  0  0  0
  8 25  1  0  0  0  0
  9 10  1  0  0  0  0
  9 26  1  0  0  0  0
 10 11  2  0  0  0  0
 10 27  1  0  0  0  0
 11 12  1  0  0  0  0
 11 28  1  0  0  0  0
 13 18  1  0  0  0  0
 13 14  2  0  0  0  0
 14 15  1  0  0  0  0
 14 29  1  0  0  0  0
 15 16  2  0  0  0  0
 15 30  1  0  0  0  0
 16 17  1  0  0  0  0
 16 31  1  0  0  0  0
 17 18  2  0  0  0  0
 17 32  1  0  0  0  0
 18 19  1  0  0  0  0
M  END
> <s_m_source_file>
AV-unprocessed.smi

> <i_m_source_file_index>
392

> <i_lp_mmshare_version>
43012

> <i_f3d_flags>
0

> <s_epik_input>
RmMxW2NIXVtjSF1bY0hdW2NIXWMxW0NASF0oW09IXSlbQ0gyXW4oW2NIXW4yKWMoYzIzKVtjSF1bY0hdW2NIXVtjSF0z

> <s_epik_cmdline>
J2VwaWtfcHl0aG9uJywgJy1waCcsICc3LjAnLCAnLXRuJywgJzgnLCAnLW1hJywgJzIwMCcsICctbWV0YWxfYmluZGluZycsICctaW1hZScsICc8aW5maWxlLm1hZT4nLCAnLW9tYWUnLCAnPG91dGZpbGUubWFlPic=

> <r_epik_Ionization_Penalty>
0.0696512

> <r_epik_Ionization_Penalty_Charging>
0

> <r_epik_Ionization_Penalty_Neutral>
0.0696512

> <r_epik_State_Penalty>
0.0610247

> <r_epik_Charging_Adjusted_Penalty>
0.0610247

> <i_epik_Tot_Q>
0

> <i_epik_Tot_abs_Q>
0

> <r_epik_Metal_State_Penalty>
6.42746e-05

> <b_epik_Metal_Only>
0

> <s_lp_Force_Field>
OPLS_2005

> <r_lp_Energy>
12.7977

> <b_lp_Chiralities_Consistent>
1

> <s_lp_Variant>
AV-unprocessed.smi:392-1

> <Gold.Version>
5.8.1

> <Gold.Id.Protein>
6NUR|6NUR_protein|mol2

> <Gold.PLP.Fitness>
47.8368

> <Gold.PLP.PLP>
-46.4110

> <Gold.PLP.part.hbond>
-1.0000

> <Gold.PLP.part.metal>
0.0000

> <Gold.PLP.part.buried>
-4.3189

> <Gold.PLP.part.nonpolar>
-41.6173

> <Gold.PLP.part.repulsive>
0.0000

> <Gold.PLP.ligand.clash>
0.0000

> <Gold.PLP.ligand.torsion>
0.5741

> <Gold.PLP.Chemscore.Hbond>
0.8512

> <Gold.PLP.Chemscore.CHOScore>
0.0000

> <Gold.PLP.Chemscore.Metal>
0.0000

> <Gold.Chemscore.Hbonds>
donor molecule, donor type, donor heavy atom, donor atom, acceptor molecule, acceptor atom, score
      P1  H  7989  7998       L1     1  0.88

> <Gold.PLP.Chemscore.Internal.Correction>
0.0203

> <Gold.Rescore>
     Score         DG    S(hbond)    S(metal)    S(lipo)     H(rot)  DE(clash)    DE(int)     intcor
     14.74     -16.46       0.79        0.00     113.19       1.91       0.09       1.62       ----

> <Gold.Chemscore.Fitness>
14.7446

> <Gold.Chemscore.DG>
-16.4588

> <Gold.Chemscore.ZeroCoef>
-5.4800

> <Gold.Chemscore.Hbond>
0.7872

> <Gold.Chemscore.Metal>
0.0000

> <Gold.Chemscore.Lipo>
113.1892

> <Gold.Chemscore.Internal_Hbond>
0.0000

> <Gold.Chemscore.DEClash>
0.0921

> <Gold.Chemscore.DEInternal>
1.6221

> <Gold.Chemscore.Rot>
1.9116

> <Gold.Chemscore.Internal.Correction>
   9.000000E+99

> <Gold.Chemscore.Hbonds>
donor molecule, donor type, donor heavy atom, donor atom, acceptor molecule, acceptor atom, score
      P1  H  7989  7998       L1     1  0.26

> <Gold.Chemscore.Hbond.Weighted>
-2.6294

> <Gold.Chemscore.Metal.Weighted>
-0.0000

> <Gold.Chemscore.Lipo.Weighted>
-13.2431

> <Gold.Chemscore.Internal_Hbond.Weighted>
0.0000

> <Gold.Chemscore.DEClash.Weighted>
0.0921

> <Gold.Chemscore.DEInternal.Weighted>
1.6221

> <Gold.Chemscore.Rot.Weighted>
4.8937

> <Gold.Chemscore.Internal.Correction.Weighted>
   9.000000E+99

> <Gold.Protein.RotatedTorsions>
[ 6907 6896 6895 6894 ] final  -46.51 input  -60.11 | X-H torsion
[ 7974 7965 7964 7962 ] final  171.85 input  175.53 | X-H torsion
[ 8008 7997 7996 7995 ] final  -75.57 input   59.86 | X-H torsion
[ 10167 10162 10161 10158 ] final  -48.86 input  -65.29 | X-H torsion
[ 10718 10713 10712 10709 ] final  147.74 input   66.30 | X-H torsion
[ 10763 10752 10751 10750 ] final  155.07 input  -60.55 | X-H torsion
[ 11005 11000 10999 10996 ] final  -72.28 input  -57.11 | X-H torsion

> <Gold.Protein.ActiveResidues>
 VAL166  LYS551  ARG553  GLY616  TRP617  ASP618  TYR619  PRO620  LYS621  CYS622 
 ASP623  PHE694  ASN695  SER759  ASP760  ASP761  ALA762  ILE779  LEU786  VAL792 
 PHE793  MET794  SER795  GLU796  ALA797  LYS798  CYS799  TRP800  GLU811  SER814 

> <Gold.Protein.RotatedAtoms>
  150.9105  134.8521  159.7421 H   0  0  0  0  0  0  0  0  0  0  0  0  # atno 6907 bound_to 6896
  152.4941  134.4367  159.9540 H   0  0  0  0  0  0  0  0  0  0  0  0  # atno 6908 bound_to 6896
  151.4410  133.3604  159.2817 H   0  0  0  0  0  0  0  0  0  0  0  0  # atno 6909 bound_to 6896
  144.7283  139.9412  143.6428 H   0  0  0  0  0  0  0  0  0  0  0  0  # atno 7974 bound_to 7965
  154.5429  140.0742  156.8540 H   0  0  0  0  0  0  0  0  0  0  0  0  # atno 8008 bound_to 7997
  155.3145  140.3392  155.4225 H   0  0  0  0  0  0  0  0  0  0  0  0  # atno 8009 bound_to 7997
  156.1891  140.1679  156.8114 H   0  0  0  0  0  0  0  0  0  0  0  0  # atno 8010 bound_to 7997
  140.6712  143.2722  151.4132 H   0  0  0  0  0  0  0  0  0  0  0  0  # atno 10167 bound_to 10162
  157.3172  131.0898  151.1269 H   0  0  0  0  0  0  0  0  0  0  0  0  # atno 10718 bound_to 10713
  154.1625  135.2809  155.3104 H   0  0  0  0  0  0  0  0  0  0  0  0  # atno 10763 bound_to 10752
  154.6136  135.5490  153.7503 H   0  0  0  0  0  0  0  0  0  0  0  0  # atno 10764 bound_to 10752
  153.0188  135.6421  154.1766 H   0  0  0  0  0  0  0  0  0  0  0  0  # atno 10765 bound_to 10752
  141.1606  133.6842  156.7035 H   0  0  0  0  0  0  0  0  0  0  0  0  # atno 11005 bound_to 11000
  146.0783  139.3771  143.0480 LP  0  0  0  0  0  0  0  0  0  0  0  0  # atno 17320 bound_to 7965
  145.7875  140.9829  143.1066 LP  0  0  0  0  0  0  0  0  0  0  0  0  # atno 17321 bound_to 7965
  139.5981  144.1354  152.2167 LP  0  0  0  0  0  0  0  0  0  0  0  0  # atno 17342 bound_to 10162
  140.0730  144.5764  150.7178 LP  0  0  0  0  0  0  0  0  0  0  0  0  # atno 17343 bound_to 10162
  157.2568  130.6640  149.5956 LP  0  0  0  0  0  0  0  0  0  0  0  0  # atno 17370 bound_to 10713
  155.9682  130.4521  150.5761 LP  0  0  0  0  0  0  0  0  0  0  0  0  # atno 17371 bound_to 10713
  140.2940  134.8217  157.4041 LP  0  0  0  0  0  0  0  0  0  0  0  0  # atno 17394 bound_to 11000
  140.1321  134.5082  155.8097 LP  0  0  0  0  0  0  0  0  0  0  0  0  # atno 17395 bound_to 11000

$$$$
