AV-unprocessed.smi:2726|AV-procd|sdf|10519|dock3
  -GOLD-   2272014563D 1   1.00000     0.00000
 Structure written by MMmdl.
 41 42  0  0  0  0  0  0  0  0  1 V2000
  145.9928  136.4495  153.4537 C   0  0  0  0  0  0  0  0  0  0  0  0
  145.4973  137.1067  152.1532 C   0  0  0  0  0  0  0  0  0  0  0  0
  146.5426  138.1409  151.6850 C   0  0  0  0  0  0  0  0  0  0  0  0
  145.3001  136.0119  151.0836 C   0  0  0  0  0  0  0  0  0  0  0  0
  144.2223  137.7642  152.4655 N   0  0  0  0  0  0  0  0  0  0  0  0
  143.1043  137.2193  152.9745 C   0  0  0  0  0  0  0  0  0  0  0  0
  142.9892  136.0302  153.2696 O   0  0  0  0  0  0  0  0  0  0  0  0
  142.1342  138.1416  153.0936 N   0  0  0  0  0  0  0  0  0  0  0  0
  140.8124  137.9725  153.5856 C   0  0  0  0  0  0  0  0  0  0  0  0
  140.2773  136.7361  154.0182 C   0  0  0  0  0  0  0  0  0  0  0  0
  138.9567  136.6995  154.5053 C   0  0  0  0  0  0  0  0  0  0  0  0
  138.2135  137.8967  154.5526 C   0  0  0  0  0  0  0  0  0  0  0  0
  136.8964  137.8553  155.0348 N   0  0  0  0  0  0  0  0  0  0  0  0
  135.9296  137.2307  154.1470 C   0  0  0  0  0  0  0  0  0  0  0  0
  134.7000  136.9519  155.0149 C   0  0  0  0  0  0  0  0  0  0  0  0
  135.2308  136.9266  156.4535 C   0  0  0  0  0  0  0  0  0  0  0  0
  136.7306  137.2066  156.3251 C   0  0  0  0  0  0  0  0  0  0  0  0
  138.7250  139.0856  154.1530 N   0  0  0  0  0  0  0  0  0  0  0  0
  139.9919  139.1144  153.6885 C   0  0  0  0  0  0  0  0  0  0  0  0
  146.9455  135.9404  153.3033 H   0  0  0  0  0  0  0  0  0  0  0  0
  145.2813  135.7095  153.8224 H   0  0  0  0  0  0  0  0  0  0  0  0
  146.1376  137.1878  154.2435 H   0  0  0  0  0  0  0  0  0  0  0  0
  146.6689  138.9383  152.4184 H   0  0  0  0  0  0  0  0  0  0  0  0
  146.2661  138.6047  150.7382 H   0  0  0  0  0  0  0  0  0  0  0  0
  147.5171  137.6741  151.5380 H   0  0  0  0  0  0  0  0  0  0  0  0
  146.2242  135.4579  150.9157 H   0  0  0  0  0  0  0  0  0  0  0  0
  144.9990  136.4264  150.1216 H   0  0  0  0  0  0  0  0  0  0  0  0
  144.5380  135.2929  151.3864 H   0  0  0  0  0  0  0  0  0  0  0  0
  144.1877  138.7524  152.2627 H   0  0  0  0  0  0  0  0  0  0  0  0
  142.3466  139.0591  152.7296 H   0  0  0  0  0  0  0  0  0  0  0  0
  140.8531  135.8240  154.0002 H   0  0  0  0  0  0  0  0  0  0  0  0
  138.5260  135.7671  154.8404 H   0  0  0  0  0  0  0  0  0  0  0  0
  135.6889  137.8830  153.3070 H   0  0  0  0  0  0  0  0  0  0  0  0
  136.3236  136.2959  153.7456 H   0  0  0  0  0  0  0  0  0  0  0  0
  133.9691  137.7537  154.9037 H   0  0  0  0  0  0  0  0  0  0  0  0
  134.2139  136.0171  154.7344 H   0  0  0  0  0  0  0  0  0  0  0  0
  134.7479  137.7080  157.0415 H   0  0  0  0  0  0  0  0  0  0  0  0
  135.0427  135.9732  156.9485 H   0  0  0  0  0  0  0  0  0  0  0  0
  137.2897  136.2704  156.3599 H   0  0  0  0  0  0  0  0  0  0  0  0
  137.0904  137.8437  157.1335 H   0  0  0  0  0  0  0  0  0  0  0  0
  140.3602  140.0832  153.3832 H   0  0  0  0  0  0  0  0  0  0  0  0
  1  2  1  0  0  0  0
  1 20  1  0  0  0  0
  1 21  1  0  0  0  0
  1 22  1  0  0  0  0
  2  3  1  0  0  0  0
  2  4  1  0  0  0  0
  2  5  1  0  0  0  0
  3 23  1  0  0  0  0
  3 24  1  0  0  0  0
  3 25  1  0  0  0  0
  4 26  1  0  0  0  0
  4 27  1  0  0  0  0
  4 28  1  0  0  0  0
  5  6  1  0  0  0  0
  5 29  1  0  0  0  0
  6  7  2  0  0  0  0
  6  8  1  0  0  0  0
  8  9  1  0  0  0  0
  8 30  1  0  0  0  0
  9 19  1  0  0  0  0
  9 10  2  0  0  0  0
 10 11  1  0  0  0  0
 10 31  1  0  0  0  0
 11 12  2  0  0  0  0
 11 32  1  0  0  0  0
 12 13  1  0  0  0  0
 12 18  1  0  0  0  0
 13 17  1  0  0  0  0
 13 14  1  0  0  0  0
 14 15  1  0  0  0  0
 14 33  1  0  0  0  0
 14 34  1  0  0  0  0
 15 16  1  0  0  0  0
 15 35  1  0  0  0  0
 15 36  1  0  0  0  0
 16 17  1  0  0  0  0
 16 37  1  0  0  0  0
 16 38  1  0  0  0  0
 17 39  1  0  0  0  0
 17 40  1  0  0  0  0
 18 19  2  0  0  0  0
 19 41  1  0  0  0  0
M  END
> <s_m_source_file>
AV-unprocessed.smi

> <i_m_source_file_index>
2726

> <i_lp_mmshare_version>
43012

> <i_f3d_flags>
0

> <s_epik_input>
W0NIM11DKFtDSDNdKShbQ0gzXSlbTkhdQyg9TylbTkhdYzFbY0hdW2NIXWMobltjSF0xKU4yW0NIMl1bQ0gyXVtDSDJdW0NIMl0y

> <s_epik_cmdline>
J2VwaWtfcHl0aG9uJywgJy1waCcsICc3LjAnLCAnLXRuJywgJzgnLCAnLW1hJywgJzIwMCcsICctbWV0YWxfYmluZGluZycsICctaW1hZScsICc8aW5maWxlLm1hZT4nLCAnLW9tYWUnLCAnPG91dGZpbGUubWFlPic=

> <r_lp_tautomer_probability>
1

> <r_epik_Ionization_Penalty>
0.105331

> <r_epik_Ionization_Penalty_Charging>
0

> <r_epik_Ionization_Penalty_Neutral>
0.105331

> <r_epik_State_Penalty>
0.0946433

> <r_epik_Charging_Adjusted_Penalty>
0.0946433

> <i_epik_Tot_Q>
0

> <i_epik_Tot_abs_Q>
0

> <r_epik_Metal_State_Penalty>
0.0802816

> <b_epik_Metal_Only>
0

> <s_lp_Force_Field>
OPLS_2005

> <r_lp_Energy>
34.5725

> <b_lp_Chiralities_Consistent>
1

> <s_lp_Variant>
AV-unprocessed.smi:2726-1

> <Gold.Version>
5.8.1

> <Gold.Id.Protein>
6NUR|6NUR_protein|mol2

> <Gold.PLP.Fitness>
40.6008

> <Gold.PLP.PLP>
-32.8050

> <Gold.PLP.part.hbond>
-3.0000

> <Gold.PLP.part.metal>
0.0000

> <Gold.PLP.part.buried>
-2.5069

> <Gold.PLP.part.nonpolar>
-28.0193

> <Gold.PLP.part.repulsive>
0.2710

> <Gold.PLP.ligand.clash>
0.0000

> <Gold.PLP.ligand.torsion>
0.2200

> <Gold.PLP.Chemscore.Hbond>
1.9760

> <Gold.PLP.Chemscore.CHOScore>
0.7622

> <Gold.PLP.Chemscore.Metal>
0.0000

> <Gold.Chemscore.Hbonds>
donor molecule, donor type, donor heavy atom, donor atom, acceptor molecule, acceptor atom, score
      L1  H     5    29       P1 10175  1.00
      L1  H     8    30       P1 10175  0.99
      L1  C    19    41       P1 10160  0.69

> <Gold.PLP.Chemscore.Internal.Correction>
0.0209

> <Gold.Rescore>
     Score         DG    S(hbond)    S(metal)    S(lipo)     H(rot)  DE(clash)    DE(int)     intcor
     15.24     -16.80       1.83        0.00      70.02       1.17       0.29       1.28       ----

> <Gold.Chemscore.Fitness>
15.2371

> <Gold.Chemscore.DG>
-16.8023

> <Gold.Chemscore.ZeroCoef>
-5.4800

> <Gold.Chemscore.Hbond>
1.8348

> <Gold.Chemscore.Metal>
0.0000

> <Gold.Chemscore.Lipo>
70.0156

> <Gold.Chemscore.Internal_Hbond>
0.0000

> <Gold.Chemscore.DEClash>
0.2897

> <Gold.Chemscore.DEInternal>
1.2756

> <Gold.Chemscore.Rot>
1.1710

> <Gold.Chemscore.Internal.Correction>
   9.000000E+99

> <Gold.Chemscore.Hbonds>
donor molecule, donor type, donor heavy atom, donor atom, acceptor molecule, acceptor atom, score
      L1  H     5    29       P1 10175  0.99
      L1  H     8    30       P1 10175  0.92

> <Gold.Chemscore.Hbond.Weighted>
-6.1283

> <Gold.Chemscore.Metal.Weighted>
-0.0000

> <Gold.Chemscore.Lipo.Weighted>
-8.1918

> <Gold.Chemscore.Internal_Hbond.Weighted>
0.0000

> <Gold.Chemscore.DEClash.Weighted>
0.2897

> <Gold.Chemscore.DEInternal.Weighted>
1.2756

> <Gold.Chemscore.Rot.Weighted>
2.9978

> <Gold.Chemscore.Internal.Correction.Weighted>
   9.000000E+99

> <Gold.Protein.RotatedTorsions>
[ 6907 6896 6895 6894 ] final -137.05 input  -60.11 | X-H torsion
[ 7974 7965 7964 7962 ] final  -62.04 input  175.53 | X-H torsion
[ 8008 7997 7996 7995 ] final   83.38 input   59.86 | X-H torsion
[ 10167 10162 10161 10158 ] final  108.62 input  -65.29 | X-H torsion
[ 10718 10713 10712 10709 ] final   21.96 input   66.30 | X-H torsion
[ 10763 10752 10751 10750 ] final   66.42 input  -60.55 | X-H torsion
[ 11005 11000 10999 10996 ] final   38.41 input  -57.11 | X-H torsion

> <Gold.Protein.ActiveResidues>
 VAL166  LYS551  ARG553  GLY616  TRP617  ASP618  TYR619  PRO620  LYS621  CYS622 
 ASP623  PHE694  ASN695  SER759  ASP760  ASP761  ALA762  ILE779  LEU786  VAL792 
 PHE793  MET794  SER795  GLU796  ALA797  LYS798  CYS799  TRP800  GLU811  SER814 

> <Gold.Protein.RotatedAtoms>
  151.0176  133.5906  159.2674 H   0  0  0  0  0  0  0  0  0  0  0  0  # atno 6907 bound_to 6896
  151.3035  135.0774  159.9256 H   0  0  0  0  0  0  0  0  0  0  0  0  # atno 6908 bound_to 6896
  152.5315  133.9854  159.7880 H   0  0  0  0  0  0  0  0  0  0  0  0  # atno 6909 bound_to 6896
  145.7961  140.8682  143.0255 H   0  0  0  0  0  0  0  0  0  0  0  0  # atno 7974 bound_to 7965
  155.9232  140.3420  155.6189 H   0  0  0  0  0  0  0  0  0  0  0  0  # atno 8008 bound_to 7997
  155.7248  140.0788  157.2333 H   0  0  0  0  0  0  0  0  0  0  0  0  # atno 8009 bound_to 7997
  154.4073  140.1599  156.2430 H   0  0  0  0  0  0  0  0  0  0  0  0  # atno 8010 bound_to 7997
  139.6832  144.7116  151.1479 H   0  0  0  0  0  0  0  0  0  0  0  0  # atno 10167 bound_to 10162
  157.1457  130.6652  149.5995 H   0  0  0  0  0  0  0  0  0  0  0  0  # atno 10718 bound_to 10713
  153.0139  135.5321  154.6821 H   0  0  0  0  0  0  0  0  0  0  0  0  # atno 10763 bound_to 10752
  154.5978  135.2865  155.0569 H   0  0  0  0  0  0  0  0  0  0  0  0  # atno 10764 bound_to 10752
  154.1638  135.6543  153.5045 H   0  0  0  0  0  0  0  0  0  0  0  0  # atno 10765 bound_to 10752
  140.2129  134.3734  155.8041 H   0  0  0  0  0  0  0  0  0  0  0  0  # atno 11005 bound_to 11000
  144.6775  140.0193  143.7484 LP  0  0  0  0  0  0  0  0  0  0  0  0  # atno 17320 bound_to 7965
  145.9926  139.3027  143.0976 LP  0  0  0  0  0  0  0  0  0  0  0  0  # atno 17321 bound_to 7965
  140.7659  143.5669  150.9038 LP  0  0  0  0  0  0  0  0  0  0  0  0  # atno 17342 bound_to 10162
  139.9342  143.6458  152.3069 LP  0  0  0  0  0  0  0  0  0  0  0  0  # atno 17343 bound_to 10162
  155.9780  130.4762  150.6627 LP  0  0  0  0  0  0  0  0  0  0  0  0  # atno 17370 bound_to 10713
  157.4266  131.0844  151.1079 LP  0  0  0  0  0  0  0  0  0  0  0  0  # atno 17371 bound_to 10713
  141.2226  133.7152  156.8447 LP  0  0  0  0  0  0  0  0  0  0  0  0  # atno 17394 bound_to 11000
  140.1932  134.8951  157.3084 LP  0  0  0  0  0  0  0  0  0  0  0  0  # atno 17395 bound_to 11000

$$$$
