AV-unprocessed.smi:2438|AV-procd|sdf|9597|dock7
  -GOLD-   2272013233D 1   1.00000     0.00000
 Structure written by MMmdl.
 43 44  0  0  0  0  0  0  0  0  1 V2000
  147.9604  136.9212  156.6029 C   0  0  0  0  0  0  0  0  0  0  0  0
  148.4089  137.0620  155.2233 N   0  0  0  0  0  0  0  0  0  0  0  0
  149.7693  136.6217  154.9453 C   0  0  0  0  0  0  0  0  0  0  0  0
  148.0706  138.2666  154.5743 C   0  0  0  0  0  0  0  0  0  0  0  0
  147.1329  138.2214  153.5967 N   0  0  0  0  0  0  0  0  0  0  0  0
  146.8002  139.3702  153.0059 C   0  0  0  0  0  0  0  0  0  0  0  0
  147.2999  140.5771  153.2717 N   0  0  0  0  0  0  0  0  0  0  0  0
  148.2372  140.6459  154.2398 C   0  0  0  0  0  0  0  0  0  0  0  0
  148.6692  139.4982  154.9484 C   0  0  0  0  0  0  0  0  0  0  0  0
  149.6969  139.5355  155.9300 N   0  0  0  0  0  0  0  0  0  0  0  0
  150.3365  140.6167  156.4037 C   0  0  0  0  0  0  0  0  0  0  0  0
  150.1073  141.7778  156.0650 O   0  0  0  0  0  0  0  0  0  0  0  0
  151.2474  140.2739  157.3251 N   0  0  0  0  0  0  0  0  0  0  0  0
  152.0819  141.2042  158.0793 C   0  0  2  0  0  0  0  0  0  0  0  0
  152.7522  140.4618  159.2487 C   0  0  0  0  0  0  0  0  0  0  0  0
  153.5764  141.4212  160.1191 C   0  0  0  0  0  0  0  0  0  0  0  0
  152.7155  142.5861  160.6311 C   0  0  0  0  0  0  0  0  0  0  0  0
  152.0493  143.3542  159.4703 C   0  0  2  0  0  0  0  0  0  0  0  0
  151.1947  144.5354  159.9752 C   0  0  0  0  0  0  0  0  0  0  0  0
  150.2134  144.1057  160.7693 F   0  0  0  0  0  0  0  0  0  0  0  0
  151.9558  145.3921  160.6560 F   0  0  0  0  0  0  0  0  0  0  0  0
  150.6588  145.1857  158.9424 F   0  0  0  0  0  0  0  0  0  0  0  0
  151.2311  142.3844  158.5907 C   0  0  0  0  0  0  0  0  0  0  0  0
  146.9166  137.2212  156.7058 H   0  0  0  0  0  0  0  0  0  0  0  0
  148.5660  137.5312  157.2744 H   0  0  0  0  0  0  0  0  0  0  0  0
  148.0422  135.8817  156.9210 H   0  0  0  0  0  0  0  0  0  0  0  0
  149.9833  136.6069  153.8766 H   0  0  0  0  0  0  0  0  0  0  0  0
  149.9273  135.6139  155.3302 H   0  0  0  0  0  0  0  0  0  0  0  0
  150.4886  137.2857  155.4262 H   0  0  0  0  0  0  0  0  0  0  0  0
  146.0512  139.3162  152.2298 H   0  0  0  0  0  0  0  0  0  0  0  0
  148.6568  141.6242  154.4187 H   0  0  0  0  0  0  0  0  0  0  0  0
  149.9035  138.6548  156.3786 H   0  0  0  0  0  0  0  0  0  0  0  0
  151.3614  139.2931  157.5348 H   0  0  0  0  0  0  0  0  0  0  0  0
  152.8707  141.5932  157.4323 H   0  0  0  0  0  0  0  0  0  0  0  0
  151.9933  139.9777  159.8654 H   0  0  0  0  0  0  0  0  0  0  0  0
  153.3949  139.6670  158.8681 H   0  0  0  0  0  0  0  0  0  0  0  0
  154.0076  140.8794  160.9615 H   0  0  0  0  0  0  0  0  0  0  0  0
  154.4152  141.8118  159.5413 H   0  0  0  0  0  0  0  0  0  0  0  0
  151.9514  142.2017  161.3078 H   0  0  0  0  0  0  0  0  0  0  0  0
  153.3363  143.2611  161.2207 H   0  0  0  0  0  0  0  0  0  0  0  0
  152.8449  143.7702  158.8499 H   0  0  0  0  0  0  0  0  0  0  0  0
  150.8094  142.9237  157.7418 H   0  0  0  0  0  0  0  0  0  0  0  0
  150.3837  142.0029  159.1621 H   0  0  0  0  0  0  0  0  0  0  0  0
  1  2  1  0  0  0  0
  1 24  1  0  0  0  0
  1 25  1  0  0  0  0
  1 26  1  0  0  0  0
  2  3  1  0  0  0  0
  2  4  1  0  0  0  0
  3 27  1  0  0  0  0
  3 28  1  0  0  0  0
  3 29  1  0  0  0  0
  4  9  1  0  0  0  0
  4  5  2  0  0  0  0
  5  6  1  0  0  0  0
  6  7  2  0  0  0  0
  6 30  1  0  0  0  0
  7  8  1  0  0  0  0
  8  9  2  0  0  0  0
  8 31  1  0  0  0  0
  9 10  1  0  0  0  0
 10 11  1  0  0  0  0
 10 32  1  0  0  0  0
 11 12  2  0  0  0  0
 11 13  1  0  0  0  0
 13 14  1  0  0  0  0
 13 33  1  0  0  0  0
 14 23  1  0  0  0  0
 14 15  1  0  0  0  0
 14 34  1  0  0  0  0
 15 16  1  0  0  0  0
 15 35  1  0  0  0  0
 15 36  1  0  0  0  0
 16 17  1  0  0  0  0
 16 37  1  0  0  0  0
 16 38  1  0  0  0  0
 17 18  1  0  0  0  0
 17 39  1  0  0  0  0
 17 40  1  0  0  0  0
 18 19  1  0  0  0  0
 18 23  1  0  0  0  0
 18 41  1  0  0  0  0
 19 20  1  0  0  0  0
 19 21  1  0  0  0  0
 19 22  1  0  0  0  0
 23 42  1  0  0  0  0
 23 43  1  0  0  0  0
M  END
> <s_m_source_file>
AV-unprocessed.smi

> <i_m_source_file_index>
2438

> <i_lp_mmshare_version>
43012

> <i_f3d_flags>
0

> <s_epik_input>
W0NIM11OKFtDSDNdKWMxbltjSF1uW2NIXWMxW05IXUMoPU8pW05IXVtDQEBIXTJbQ0gyXVtDSDJdW0NIMl1bQ0BASF0oQyhGKShGKUYpW0NIMl0y

> <s_epik_cmdline>
J2VwaWtfcHl0aG9uJywgJy1waCcsICc3LjAnLCAnLXRuJywgJzgnLCAnLW1hJywgJzIwMCcsICctbWV0YWxfYmluZGluZycsICctaW1hZScsICc8aW5maWxlLm1hZT4nLCAnLW9tYWUnLCAnPG91dGZpbGUubWFlPic=

> <r_lp_tautomer_probability>
1

> <r_epik_Ionization_Penalty>
0.01759

> <r_epik_Ionization_Penalty_Charging>
0

> <r_epik_Ionization_Penalty_Neutral>
0.01759

> <r_epik_State_Penalty>
0.0133536

> <r_epik_Charging_Adjusted_Penalty>
0.0133536

> <i_epik_Tot_Q>
0

> <i_epik_Tot_abs_Q>
0

> <r_epik_Metal_State_Penalty>
0.0129828

> <b_epik_Metal_Only>
0

> <s_lp_Force_Field>
OPLS_2005

> <r_lp_Energy>
11.5061

> <b_lp_Chiralities_Consistent>
1

> <s_lp_Variant>
AV-unprocessed.smi:2438-3

> <Gold.Version>
5.8.1

> <Gold.Id.Protein>
6NUR|6NUR_protein|mol2

> <Gold.PLP.Fitness>
38.5415

> <Gold.PLP.PLP>
-37.1145

> <Gold.PLP.part.hbond>
0.0000

> <Gold.PLP.part.metal>
0.0000

> <Gold.PLP.part.buried>
-7.4520

> <Gold.PLP.part.nonpolar>
-31.1635

> <Gold.PLP.part.repulsive>
1.1057

> <Gold.PLP.ligand.clash>
0.0000

> <Gold.PLP.ligand.torsion>
0.3443

> <Gold.PLP.Chemscore.Hbond>
0.0000

> <Gold.PLP.Chemscore.CHOScore>
0.5919

> <Gold.PLP.Chemscore.Metal>
0.0000

> <Gold.Chemscore.Hbonds>
donor molecule, donor type, donor heavy atom, donor atom, acceptor molecule, acceptor atom, score
      L1  C     6    30       P1 10175  0.63

> <Gold.PLP.Chemscore.Internal.Correction>
0.3398

> <Gold.Rescore>
     Score         DG    S(hbond)    S(metal)    S(lipo)     H(rot)  DE(clash)    DE(int)     intcor
      8.94     -12.07       0.00        0.00      84.70       1.30       0.25       2.88       ----

> <Gold.Chemscore.Fitness>
8.9353

> <Gold.Chemscore.DG>
-12.0658

> <Gold.Chemscore.ZeroCoef>
-5.4800

> <Gold.Chemscore.Hbond>
0.0000

> <Gold.Chemscore.Metal>
0.0000

> <Gold.Chemscore.Lipo>
84.7040

> <Gold.Chemscore.Internal_Hbond>
0.0000

> <Gold.Chemscore.DEClash>
0.2501

> <Gold.Chemscore.DEInternal>
2.8803

> <Gold.Chemscore.Rot>
1.2987

> <Gold.Chemscore.Internal.Correction>
   9.000000E+99

> <Gold.Chemscore.Hbond.Weighted>
-0.0000

> <Gold.Chemscore.Metal.Weighted>
-0.0000

> <Gold.Chemscore.Lipo.Weighted>
-9.9104

> <Gold.Chemscore.Internal_Hbond.Weighted>
0.0000

> <Gold.Chemscore.DEClash.Weighted>
0.2501

> <Gold.Chemscore.DEInternal.Weighted>
2.8803

> <Gold.Chemscore.Rot.Weighted>
3.3246

> <Gold.Chemscore.Internal.Correction.Weighted>
   9.000000E+99

> <Gold.Protein.RotatedTorsions>
[ 6907 6896 6895 6894 ] final   25.85 input  -60.11 | X-H torsion
[ 7974 7965 7964 7962 ] final -152.78 input  175.53 | X-H torsion
[ 8008 7997 7996 7995 ] final  148.93 input   59.86 | X-H torsion
[ 10167 10162 10161 10158 ] final  129.02 input  -65.29 | X-H torsion
[ 10718 10713 10712 10709 ] final -143.26 input   66.30 | X-H torsion
[ 10763 10752 10751 10750 ] final -127.96 input  -60.55 | X-H torsion
[ 11005 11000 10999 10996 ] final  107.03 input  -57.11 | X-H torsion

> <Gold.Protein.ActiveResidues>
 VAL166  LYS551  ARG553  GLY616  TRP617  ASP618  TYR619  PRO620  LYS621  CYS622 
 ASP623  PHE694  ASN695  SER759  ASP760  ASP761  ALA762  ILE779  LEU786  VAL792 
 PHE793  MET794  SER795  GLU796  ALA797  LYS798  CYS799  TRP800  GLU811  SER814 

> <Gold.Protein.RotatedAtoms>
  151.9788  135.0039  160.0556 H   0  0  0  0  0  0  0  0  0  0  0  0  # atno 6907 bound_to 6896
  152.1716  133.4642  159.4920 H   0  0  0  0  0  0  0  0  0  0  0  0  # atno 6908 bound_to 6896
  150.6902  134.1864  159.4311 H   0  0  0  0  0  0  0  0  0  0  0  0  # atno 6909 bound_to 6896
  144.7776  140.4616  143.5862 H   0  0  0  0  0  0  0  0  0  0  0  0  # atno 7974 bound_to 7965
  156.2773  140.2115  156.5777 H   0  0  0  0  0  0  0  0  0  0  0  0  # atno 8008 bound_to 7997
  154.7084  140.0514  157.0549 H   0  0  0  0  0  0  0  0  0  0  0  0  # atno 8009 bound_to 7997
  155.0639  140.3169  155.4655 H   0  0  0  0  0  0  0  0  0  0  0  0  # atno 8010 bound_to 7997
  139.5498  144.6804  151.4358 H   0  0  0  0  0  0  0  0  0  0  0  0  # atno 10167 bound_to 10162
  156.3558  130.7712  151.1872 H   0  0  0  0  0  0  0  0  0  0  0  0  # atno 10718 bound_to 10713
  154.8754  135.3944  154.3679 H   0  0  0  0  0  0  0  0  0  0  0  0  # atno 10763 bound_to 10752
  153.4442  135.7027  153.6155 H   0  0  0  0  0  0  0  0  0  0  0  0  # atno 10764 bound_to 10752
  153.4722  135.3788  155.2366 H   0  0  0  0  0  0  0  0  0  0  0  0  # atno 10765 bound_to 10752
  139.8822  134.9388  156.5757 H   0  0  0  0  0  0  0  0  0  0  0  0  # atno 11005 bound_to 11000
  145.6142  139.1516  143.3059 LP  0  0  0  0  0  0  0  0  0  0  0  0  # atno 17320 bound_to 7965
  146.1965  140.6256  142.9122 LP  0  0  0  0  0  0  0  0  0  0  0  0  # atno 17321 bound_to 7965
  140.6757  143.8194  150.7056 LP  0  0  0  0  0  0  0  0  0  0  0  0  # atno 17342 bound_to 10162
  140.1632  143.4258  152.2052 LP  0  0  0  0  0  0  0  0  0  0  0  0  # atno 17343 bound_to 10162
  157.7467  131.0414  150.4646 LP  0  0  0  0  0  0  0  0  0  0  0  0  # atno 17370 bound_to 10713
  156.4848  130.4082  149.6440 LP  0  0  0  0  0  0  0  0  0  0  0  0  # atno 17371 bound_to 10713
  140.8064  133.8464  155.8772 LP  0  0  0  0  0  0  0  0  0  0  0  0  # atno 17394 bound_to 11000
  140.9546  134.1735  157.4702 LP  0  0  0  0  0  0  0  0  0  0  0  0  # atno 17395 bound_to 11000

$$$$
