AV-unprocessed.smi:694|AV-procd|sdf|3383|dock4
  -GOLD-   22720 0363D 1   1.00000     0.00000
 Structure written by MMmdl.
 42 43  0  0  0  0  0  0  0  0  1 V2000
  152.2724  144.5260  160.4533 C   0  0  0  0  0  0  0  0  0  0  0  0
  152.4630  143.0825  160.3524 N   0  0  0  0  0  0  0  0  0  0  0  0
  153.2404  142.3803  161.3658 C   0  0  0  0  0  0  0  0  0  0  0  0
  151.9341  142.3783  159.2464 C   0  0  0  0  0  0  0  0  0  0  0  0
  152.2343  141.0108  159.0277 C   0  0  0  0  0  0  0  0  0  0  0  0
  151.6784  140.3549  157.9130 C   0  0  0  0  0  0  0  0  0  0  0  0
  150.8295  141.0673  157.0450 C   0  0  0  0  0  0  0  0  0  0  0  0
  150.2952  140.3832  155.9202 N   0  0  0  0  0  0  0  0  0  0  0  0
  149.1757  140.6597  155.2301 C   0  0  0  0  0  0  0  0  0  0  0  0
  148.3944  141.5773  155.4801 O   0  0  0  0  0  0  0  0  0  0  0  0
  148.9939  139.7827  154.2325 N   0  0  0  0  0  0  0  0  0  0  0  0
  147.8604  139.7691  153.3125 C   0  0  0  0  0  0  0  0  0  0  0  0
  147.2889  138.3490  153.1292 C   0  0  1  0  0  0  0  0  0  0  0  0
  146.6533  137.7481  154.3921 C   0  0  0  0  0  0  0  0  0  0  0  0
  145.6193  136.7210  153.9064 C   0  0  0  0  0  0  0  0  0  0  0  0
  145.4885  136.9219  152.3910 C   0  0  0  0  0  0  0  0  0  0  0  0
  146.1557  138.2686  152.1021 C   0  0  2  0  0  0  0  0  0  0  0  0
  146.6317  138.3350  150.7739 O   0  0  0  0  0  0  0  0  0  0  0  0
  150.5964  142.4324  157.3329 C   0  0  0  0  0  0  0  0  0  0  0  0
  151.1291  143.0649  158.3993 N   0  0  0  0  0  0  0  0  0  0  0  0
  152.7748  145.0350  159.6301 H   0  0  0  0  0  0  0  0  0  0  0  0
  152.6774  144.9173  161.3866 H   0  0  0  0  0  0  0  0  0  0  0  0
  151.2119  144.7779  160.4213 H   0  0  0  0  0  0  0  0  0  0  0  0
  152.6278  141.6292  161.8654 H   0  0  0  0  0  0  0  0  0  0  0  0
  153.6118  143.0665  162.1268 H   0  0  0  0  0  0  0  0  0  0  0  0
  154.1021  141.8866  160.9156 H   0  0  0  0  0  0  0  0  0  0  0  0
  152.8767  140.4520  159.6908 H   0  0  0  0  0  0  0  0  0  0  0  0
  151.8999  139.3128  157.7331 H   0  0  0  0  0  0  0  0  0  0  0  0
  150.7903  139.5472  155.6467 H   0  0  0  0  0  0  0  0  0  0  0  0
  149.6869  139.0598  154.1052 H   0  0  0  0  0  0  0  0  0  0  0  0
  147.0801  140.4582  153.6406 H   0  0  0  0  0  0  0  0  0  0  0  0
  148.2122  140.1471  152.3524 H   0  0  0  0  0  0  0  0  0  0  0  0
  148.0916  137.6823  152.8080 H   0  0  0  0  0  0  0  0  0  0  0  0
  147.3977  137.3029  155.0529 H   0  0  0  0  0  0  0  0  0  0  0  0
  146.1408  138.5267  154.9586 H   0  0  0  0  0  0  0  0  0  0  0  0
  145.9357  135.7021  154.1322 H   0  0  0  0  0  0  0  0  0  0  0  0
  144.6636  136.8834  154.4061 H   0  0  0  0  0  0  0  0  0  0  0  0
  146.0260  136.1212  151.8802 H   0  0  0  0  0  0  0  0  0  0  0  0
  144.4526  136.8891  152.0522 H   0  0  0  0  0  0  0  0  0  0  0  0
  145.4409  139.0753  152.2714 H   0  0  0  0  0  0  0  0  0  0  0  0
  145.9124  138.5734  150.2093 H   0  0  0  0  0  0  0  0  0  0  0  0
  149.9894  143.0571  156.6965 H   0  0  0  0  0  0  0  0  0  0  0  0
  1  2  1  0  0  0  0
  1 21  1  0  0  0  0
  1 22  1  0  0  0  0
  1 23  1  0  0  0  0
  2  3  1  0  0  0  0
  2  4  1  0  0  0  0
  3 24  1  0  0  0  0
  3 25  1  0  0  0  0
  3 26  1  0  0  0  0
  4 20  1  0  0  0  0
  4  5  2  0  0  0  0
  5  6  1  0  0  0  0
  5 27  1  0  0  0  0
  6  7  2  0  0  0  0
  6 28  1  0  0  0  0
  7  8  1  0  0  0  0
  7 19  1  0  0  0  0
  8  9  1  0  0  0  0
  8 29  1  0  0  0  0
  9 10  2  0  0  0  0
  9 11  1  0  0  0  0
 11 12  1  0  0  0  0
 11 30  1  0  0  0  0
 12 13  1  0  0  0  0
 12 31  1  0  0  0  0
 12 32  1  0  0  0  0
 13 17  1  0  0  0  0
 13 14  1  0  0  0  0
 13 33  1  0  0  0  0
 14 15  1  0  0  0  0
 14 34  1  0  0  0  0
 14 35  1  0  0  0  0
 15 16  1  0  0  0  0
 15 36  1  0  0  0  0
 15 37  1  0  0  0  0
 16 17  1  0  0  0  0
 16 38  1  0  0  0  0
 16 39  1  0  0  0  0
 17 18  1  0  0  0  0
 17 40  1  0  0  0  0
 18 41  1  0  0  0  0
 19 20  2  0  0  0  0
 19 42  1  0  0  0  0
M  END
> <s_m_source_file>
AV-unprocessed.smi

> <i_m_source_file_index>
694

> <i_lp_mmshare_version>
43012

> <i_f3d_flags>
0

> <s_epik_input>
W0NIM11OKFtDSDNdKWMxW2NIXVtjSF1jKFtjSF1uMSlbTkhdQyg9TylbTkhdW0NIMl1bQ0BASF0yW0NIMl1bQ0gyXVtDSDJdW0NASF0yW09IXQ==

> <s_epik_cmdline>
J2VwaWtfcHl0aG9uJywgJy1waCcsICc3LjAnLCAnLXRuJywgJzgnLCAnLW1hJywgJzIwMCcsICctbWV0YWxfYmluZGluZycsICctaW1hZScsICc8aW5maWxlLm1hZT4nLCAnLW9tYWUnLCAnPG91dGZpbGUubWFlPic=

> <r_lp_tautomer_probability>
1

> <r_epik_Ionization_Penalty>
0.60335

> <r_epik_Ionization_Penalty_Charging>
0

> <r_epik_Ionization_Penalty_Neutral>
0.60335

> <r_epik_State_Penalty>
0.616805

> <r_epik_Charging_Adjusted_Penalty>
0.616805

> <i_epik_Tot_Q>
0

> <i_epik_Tot_abs_Q>
0

> <r_epik_Metal_State_Penalty>
0.301709

> <b_epik_Metal_Only>
0

> <s_lp_Force_Field>
OPLS_2005

> <r_lp_Energy>
25.3577

> <b_lp_Chiralities_Consistent>
1

> <s_lp_Variant>
AV-unprocessed.smi:694-8

> <Gold.Version>
5.8.1

> <Gold.Id.Protein>
6NUR|6NUR_protein|mol2

> <Gold.PLP.Fitness>
42.0032

> <Gold.PLP.PLP>
-33.7923

> <Gold.PLP.part.hbond>
-2.8833

> <Gold.PLP.part.metal>
0.0000

> <Gold.PLP.part.buried>
-1.7903

> <Gold.PLP.part.nonpolar>
-30.9742

> <Gold.PLP.part.repulsive>
0.3833

> <Gold.PLP.ligand.clash>
0.0000

> <Gold.PLP.ligand.torsion>
0.2517

> <Gold.PLP.Chemscore.Hbond>
1.9023

> <Gold.PLP.Chemscore.CHOScore>
1.0000

> <Gold.PLP.Chemscore.Metal>
0.0000

> <Gold.Chemscore.Hbonds>
donor molecule, donor type, donor heavy atom, donor atom, acceptor molecule, acceptor atom, score
      L1  H    18    41       P1 10171  0.94
      P1  H  7954  7966       L1    18  0.99
      L1  C    19    42       P1  8028  1.00

> <Gold.PLP.Chemscore.Internal.Correction>
0.0077

> <Gold.Rescore>
     Score         DG    S(hbond)    S(metal)    S(lipo)     H(rot)  DE(clash)    DE(int)     intcor
     14.07     -16.04       1.80        0.00      76.68       1.73       0.64       1.33       ----

> <Gold.Chemscore.Fitness>
14.0730

> <Gold.Chemscore.DG>
-16.0443

> <Gold.Chemscore.ZeroCoef>
-5.4800

> <Gold.Chemscore.Hbond>
1.7997

> <Gold.Chemscore.Metal>
0.0000

> <Gold.Chemscore.Lipo>
76.6798

> <Gold.Chemscore.Internal_Hbond>
0.0000

> <Gold.Chemscore.DEClash>
0.6449

> <Gold.Chemscore.DEInternal>
1.3264

> <Gold.Chemscore.Rot>
1.7259

> <Gold.Chemscore.Internal.Correction>
   9.000000E+99

> <Gold.Chemscore.Hbonds>
donor molecule, donor type, donor heavy atom, donor atom, acceptor molecule, acceptor atom, score
      L1  H    18    41       P1 10171  0.86
      P1  H  7954  7966       L1    18  0.83

> <Gold.Chemscore.Hbond.Weighted>
-6.0111

> <Gold.Chemscore.Metal.Weighted>
-0.0000

> <Gold.Chemscore.Lipo.Weighted>
-8.9715

> <Gold.Chemscore.Internal_Hbond.Weighted>
0.0000

> <Gold.Chemscore.DEClash.Weighted>
0.6449

> <Gold.Chemscore.DEInternal.Weighted>
1.3264

> <Gold.Chemscore.Rot.Weighted>
4.4184

> <Gold.Chemscore.Internal.Correction.Weighted>
   9.000000E+99

> <Gold.Protein.RotatedTorsions>
[ 6907 6896 6895 6894 ] final   -4.95 input  -60.11 | X-H torsion
[ 7974 7965 7964 7962 ] final   80.25 input  175.53 | X-H torsion
[ 8008 7997 7996 7995 ] final  149.80 input   59.86 | X-H torsion
[ 10167 10162 10161 10158 ] final  131.59 input  -65.29 | X-H torsion
[ 10718 10713 10712 10709 ] final  -30.69 input   66.30 | X-H torsion
[ 10763 10752 10751 10750 ] final -101.43 input  -60.55 | X-H torsion
[ 11005 11000 10999 10996 ] final  -52.11 input  -57.11 | X-H torsion

> <Gold.Protein.ActiveResidues>
 VAL166  LYS551  ARG553  GLY616  TRP617  ASP618  TYR619  PRO620  LYS621  CYS622 
 ASP623  PHE694  ASN695  SER759  ASP760  ASP761  ALA762  ILE779  LEU786  VAL792 
 PHE793  MET794  SER795  GLU796  ALA797  LYS798  CYS799  TRP800  GLU811  SER814 

> <Gold.Protein.RotatedAtoms>
  151.4895  135.1057  159.9799 H   0  0  0  0  0  0  0  0  0  0  0  0  # atno 6907 bound_to 6896
  152.4747  133.8106  159.7012 H   0  0  0  0  0  0  0  0  0  0  0  0  # atno 6908 bound_to 6896
  150.8777  133.7354  159.2968 H   0  0  0  0  0  0  0  0  0  0  0  0  # atno 6909 bound_to 6896
  145.6537  139.2454  143.1962 H   0  0  0  0  0  0  0  0  0  0  0  0  # atno 7974 bound_to 7965
  156.2741  140.2092  156.5916 H   0  0  0  0  0  0  0  0  0  0  0  0  # atno 8008 bound_to 7997
  154.6978  140.0524  157.0451 H   0  0  0  0  0  0  0  0  0  0  0  0  # atno 8009 bound_to 7997
  155.0777  140.3183  155.4614 H   0  0  0  0  0  0  0  0  0  0  0  0  # atno 8010 bound_to 7997
  139.5377  144.6699  151.4729 H   0  0  0  0  0  0  0  0  0  0  0  0  # atno 10167 bound_to 10162
  156.3966  130.4382  149.7354 H   0  0  0  0  0  0  0  0  0  0  0  0  # atno 10718 bound_to 10713
  154.7657  135.4898  153.9549 H   0  0  0  0  0  0  0  0  0  0  0  0  # atno 10763 bound_to 10752
  153.1305  135.6751  153.9194 H   0  0  0  0  0  0  0  0  0  0  0  0  # atno 10764 bound_to 10752
  153.8899  135.3122  155.3426 H   0  0  0  0  0  0  0  0  0  0  0  0  # atno 10765 bound_to 10752
  141.0907  133.6633  156.3977 H   0  0  0  0  0  0  0  0  0  0  0  0  # atno 11005 bound_to 11000
  146.1183  140.7342  142.9470 LP  0  0  0  0  0  0  0  0  0  0  0  0  # atno 17320 bound_to 7965
  144.7113  140.4050  143.7078 LP  0  0  0  0  0  0  0  0  0  0  0  0  # atno 17321 bound_to 7965
  140.6592  143.8534  150.6869 LP  0  0  0  0  0  0  0  0  0  0  0  0  # atno 17342 bound_to 10162
  140.1923  143.4026  152.1853 LP  0  0  0  0  0  0  0  0  0  0  0  0  # atno 17343 bound_to 10162
  156.4387  130.7850  151.2871 LP  0  0  0  0  0  0  0  0  0  0  0  0  # atno 17370 bound_to 10713
  157.7502  131.0131  150.3413 LP  0  0  0  0  0  0  0  0  0  0  0  0  # atno 17371 bound_to 10713
  140.5258  134.6260  157.5333 LP  0  0  0  0  0  0  0  0  0  0  0  0  # atno 17394 bound_to 11000
  139.9733  134.7257  155.9999 LP  0  0  0  0  0  0  0  0  0  0  0  0  # atno 17395 bound_to 11000

$$$$
