AV-unprocessed.smi:48|AV-procd|sdf|462|dock8
  -GOLD-   2262016333D 1   1.00000     0.00000
 Structure written by MMmdl.
 30 32  0  0  0  0  0  0  0  0  1 V2000
  150.4983  134.8493  157.0294 O   0  0  0  0  0  0  0  0  0  0  0  0
  150.4137  134.5678  155.6488 C   0  0  0  0  0  0  0  0  0  0  0  0
  150.5422  135.8653  154.8366 C   0  0  2  0  0  0  0  0  0  0  0  0
  151.6550  136.6175  155.3042 O   0  0  0  0  0  0  0  0  0  0  0  0
  151.4881  137.9576  154.9595 C   0  0  2  0  0  0  0  0  0  0  0  0
  151.9625  138.7876  156.1075 N   0  0  0  0  0  0  0  0  0  0  0  0
  152.9238  138.4774  157.0011 C   0  0  0  0  0  0  0  0  0  0  0  0
  153.1845  139.3686  157.9567 N   0  0  0  0  0  0  0  0  0  0  0  0
  152.2794  140.3721  157.6528 C   0  0  0  0  0  0  0  0  0  0  0  0
  151.9971  141.6236  158.2522 C   0  0  0  0  0  0  0  0  0  0  0  0
  152.8658  142.1578  159.6441 Cl  0  0  0  0  0  0  0  0  0  0  0  0
  151.0270  142.3957  157.7071 N   0  0  0  0  0  0  0  0  0  0  0  0
  150.3689  141.9567  156.6273 C   0  0  0  0  0  0  0  0  0  0  0  0
  150.5256  140.8098  155.9566 N   0  0  0  0  0  0  0  0  0  0  0  0
  151.5044  140.0326  156.5075 C   0  0  0  0  0  0  0  0  0  0  0  0
  149.9926  138.1916  154.6842 C   0  0  1  0  0  0  0  0  0  0  0  0
  149.7785  138.5261  153.3248 O   0  0  0  0  0  0  0  0  0  0  0  0
  149.3824  136.8391  155.0517 C   0  0  1  0  0  0  0  0  0  0  0  0
  148.2362  136.5082  154.2895 O   0  0  0  0  0  0  0  0  0  0  0  0
  150.6620  135.6608  153.7706 H   0  0  0  0  0  0  0  0  0  0  0  0
  152.1380  138.2273  154.1253 H   0  0  0  0  0  0  0  0  0  0  0  0
  149.5940  138.9927  155.3083 H   0  0  0  0  0  0  0  0  0  0  0  0
  149.1033  136.8469  156.1054 H   0  0  0  0  0  0  0  0  0  0  0  0
  150.8047  135.7366  157.1369 H   0  0  0  0  0  0  0  0  0  0  0  0
  151.2311  133.8892  155.4035 H   0  0  0  0  0  0  0  0  0  0  0  0
  149.4822  134.0480  155.4220 H   0  0  0  0  0  0  0  0  0  0  0  0
  153.4661  137.5447  156.9466 H   0  0  0  0  0  0  0  0  0  0  0  0
  149.6082  142.6201  156.2433 H   0  0  0  0  0  0  0  0  0  0  0  0
  149.4037  137.7784  152.8854 H   0  0  0  0  0  0  0  0  0  0  0  0
  148.4833  136.4709  153.3783 H   0  0  0  0  0  0  0  0  0  0  0  0
  1  2  1  0  0  0  0
  1 24  1  0  0  0  0
  2  3  1  0  0  0  0
  2 25  1  0  0  0  0
  2 26  1  0  0  0  0
  3 20  1  0  0  0  0
  3 18  1  0  0  0  0
  3  4  1  0  0  0  0
  4  5  1  0  0  0  0
  5 21  1  0  0  0  0
  5  6  1  0  0  0  0
  5 16  1  0  0  0  0
  6 15  1  0  0  0  0
  6  7  1  0  0  0  0
  7  8  2  0  0  0  0
  7 27  1  0  0  0  0
  8  9  1  0  0  0  0
  9 15  2  0  0  0  0
  9 10  1  0  0  0  0
 10 11  1  0  0  0  0
 10 12  2  0  0  0  0
 12 13  1  0  0  0  0
 13 14  2  0  0  0  0
 13 28  1  0  0  0  0
 14 15  1  0  0  0  0
 16 22  1  0  0  0  0
 16 17  1  0  0  0  0
 16 18  1  0  0  0  0
 17 29  1  0  0  0  0
 18 23  1  0  0  0  0
 18 19  1  0  0  0  0
 19 30  1  0  0  0  0
M  END
> <s_m_source_file>
AV-unprocessed.smi

> <i_m_source_file_index>
48

> <i_lp_mmshare_version>
43012

> <i_f3d_flags>
0

> <s_epik_input>
W09IXVtDSDJdW0NASF0xT1tDQEhdKFtDQEhdKFtPSF0pW0NAQEhdMVtPSF0pbihbY0hdbjIpYyhjMjMpbltjSF1uYzNDbA==

> <s_epik_cmdline>
J2VwaWtfcHl0aG9uJywgJy1waCcsICc3LjAnLCAnLXRuJywgJzgnLCAnLW1hJywgJzIwMCcsICctbWV0YWxfYmluZGluZycsICctaW1hZScsICc8aW5maWxlLm1hZT4nLCAnLW9tYWUnLCAnPG91dGZpbGUubWFlPic=

> <r_lp_tautomer_probability>
1

> <r_epik_Ionization_Penalty>
3.45505e-06

> <r_epik_Ionization_Penalty_Charging>
0

> <r_epik_Ionization_Penalty_Neutral>
3.45505e-06

> <r_epik_State_Penalty>
-0

> <r_epik_Charging_Adjusted_Penalty>
0

> <i_epik_Tot_Q>
0

> <i_epik_Tot_abs_Q>
0

> <r_epik_Metal_State_Penalty>
-0

> <b_epik_Metal_Only>
0

> <s_epik_Chemistry_Notes>
This compound contains an acetal/aminal-like group ( X-CH(R)-Y where X, Y are N, S, or O) that may be acid/base labile, releasing an aldehyde.

> <s_lp_Force_Field>
OPLS_2005

> <r_lp_Energy>
36.5243

> <b_lp_Chiralities_Consistent>
1

> <s_lp_Variant>
AV-unprocessed.smi:48-16

> <Gold.Version>
5.8.1

> <Gold.Id.Protein>
6NUR|6NUR_protein|mol2

> <Gold.PLP.Fitness>
42.5617

> <Gold.PLP.PLP>
-29.5316

> <Gold.PLP.part.hbond>
-5.6834

> <Gold.PLP.part.metal>
0.0000

> <Gold.PLP.part.buried>
-3.7752

> <Gold.PLP.part.nonpolar>
-20.4675

> <Gold.PLP.part.repulsive>
0.1967

> <Gold.PLP.ligand.clash>
0.0000

> <Gold.PLP.ligand.torsion>
0.7889

> <Gold.PLP.Chemscore.Hbond>
3.8640

> <Gold.PLP.Chemscore.CHOScore>
1.0000

> <Gold.PLP.Chemscore.Metal>
0.0000

> <Gold.Chemscore.Hbonds>
donor molecule, donor type, donor heavy atom, donor atom, acceptor molecule, acceptor atom, score
      L1  H    17    29       P1  7948  1.00
      L1  H    19    30       P1  7948  1.00
      P1  H  7997  8008       L1     8  0.80
      P1  H 10752 10764       L1     4  1.00
      L1  C    13    28       P1  8028  1.00

> <Gold.PLP.Chemscore.Internal.Correction>
0.0159

> <Gold.Rescore>
     Score         DG    S(hbond)    S(metal)    S(lipo)     H(rot)  DE(clash)    DE(int)     intcor
     10.43     -12.26       3.45        0.00      42.49       3.80       0.20       1.62       ----

> <Gold.Chemscore.Fitness>
10.4334

> <Gold.Chemscore.DG>
-12.2586

> <Gold.Chemscore.ZeroCoef>
-5.4800

> <Gold.Chemscore.Hbond>
3.4550

> <Gold.Chemscore.Metal>
0.0000

> <Gold.Chemscore.Lipo>
42.4909

> <Gold.Chemscore.Internal_Hbond>
0.0000

> <Gold.Chemscore.DEClash>
0.2037

> <Gold.Chemscore.DEInternal>
1.6216

> <Gold.Chemscore.Rot>
3.8017

> <Gold.Chemscore.Internal.Correction>
   9.000000E+99

> <Gold.Chemscore.Hbonds>
donor molecule, donor type, donor heavy atom, donor atom, acceptor molecule, acceptor atom, score
      L1  H    17    29       P1  7948  0.91
      L1  H    19    30       P1  7948  0.99
      P1  H  7997  8008       L1     8  0.05
      P1  H 10752 10764       L1     4  0.34

> <Gold.Chemscore.Hbond.Weighted>
-11.5396

> <Gold.Chemscore.Metal.Weighted>
-0.0000

> <Gold.Chemscore.Lipo.Weighted>
-4.9714

> <Gold.Chemscore.Internal_Hbond.Weighted>
0.0000

> <Gold.Chemscore.DEClash.Weighted>
0.2037

> <Gold.Chemscore.DEInternal.Weighted>
1.6216

> <Gold.Chemscore.Rot.Weighted>
9.7324

> <Gold.Chemscore.Internal.Correction.Weighted>
   9.000000E+99

> <Gold.Protein.RotatedTorsions>
[ 6907 6896 6895 6894 ] final   58.63 input  -60.11 | X-H torsion
[ 7974 7965 7964 7962 ] final -162.33 input  175.53 | X-H torsion
[ 8008 7997 7996 7995 ] final -104.41 input   59.86 | X-H torsion
[ 10167 10162 10161 10158 ] final -162.76 input  -65.29 | X-H torsion
[ 10718 10713 10712 10709 ] final    3.10 input   66.30 | X-H torsion
[ 10763 10752 10751 10750 ] final  -38.25 input  -60.55 | X-H torsion
[ 11005 11000 10999 10996 ] final  -13.77 input  -57.11 | X-H torsion

> <Gold.Protein.ActiveResidues>
 VAL166  LYS551  ARG553  GLY616  TRP617  ASP618  TYR619  PRO620  LYS621  CYS622 
 ASP623  PHE694  ASN695  SER759  ASP760  ASP761  ALA762  ILE779  LEU786  VAL792 
 PHE793  MET794  SER795  GLU796  ALA797  LYS798  CYS799  TRP800  GLU811  SER814 

> <Gold.Protein.RotatedAtoms>
  152.3841  134.6544  160.0131 H   0  0  0  0  0  0  0  0  0  0  0  0  # atno 6907 bound_to 6896
  151.6798  133.3306  159.3225 H   0  0  0  0  0  0  0  0  0  0  0  0  # atno 6908 bound_to 6896
  150.7771  134.6727  159.6445 H   0  0  0  0  0  0  0  0  0  0  0  0  # atno 6909 bound_to 6896
  144.7361  140.3268  143.6160 H   0  0  0  0  0  0  0  0  0  0  0  0  # atno 7974 bound_to 7965
  154.8849  140.0418  157.1804 H   0  0  0  0  0  0  0  0  0  0  0  0  # atno 8008 bound_to 7997
  154.8600  140.2942  155.5524 H   0  0  0  0  0  0  0  0  0  0  0  0  # atno 8009 bound_to 7997
  156.2998  140.2448  156.3573 H   0  0  0  0  0  0  0  0  0  0  0  0  # atno 8010 bound_to 7997
  139.6369  144.0333  152.2061 H   0  0  0  0  0  0  0  0  0  0  0  0  # atno 10167 bound_to 10162
  156.8728  130.5626  149.5656 H   0  0  0  0  0  0  0  0  0  0  0  0  # atno 10718 bound_to 10713
  153.9097  135.6794  153.4751 H   0  0  0  0  0  0  0  0  0  0  0  0  # atno 10763 bound_to 10752
  153.1085  135.4794  154.8991 H   0  0  0  0  0  0  0  0  0  0  0  0  # atno 10764 bound_to 10752
  154.7533  135.3191  154.8471 H   0  0  0  0  0  0  0  0  0  0  0  0  # atno 10765 bound_to 10752
  140.7795  133.8374  155.9279 H   0  0  0  0  0  0  0  0  0  0  0  0  # atno 11005 bound_to 11000
  145.7512  139.1794  143.2320 LP  0  0  0  0  0  0  0  0  0  0  0  0  # atno 17320 bound_to 7965
  146.1059  140.7488  142.9526 LP  0  0  0  0  0  0  0  0  0  0  0  0  # atno 17321 bound_to 7965
  140.0013  144.6291  150.7727 LP  0  0  0  0  0  0  0  0  0  0  0  0  # atno 17342 bound_to 10162
  140.7470  143.2899  151.3359 LP  0  0  0  0  0  0  0  0  0  0  0  0  # atno 17343 bound_to 10162
  156.0717  130.5749  150.9397 LP  0  0  0  0  0  0  0  0  0  0  0  0  # atno 17370 bound_to 10713
  157.6186  131.0931  150.8665 LP  0  0  0  0  0  0  0  0  0  0  0  0  # atno 17371 bound_to 10713
  140.9496  134.1796  157.4737 LP  0  0  0  0  0  0  0  0  0  0  0  0  # atno 17394 bound_to 11000
  139.8744  134.9904  156.5501 LP  0  0  0  0  0  0  0  0  0  0  0  0  # atno 17395 bound_to 11000

$$$$
