AV-unprocessed.smi:473|AV-procd|sdf|2664|dock4
  -GOLD-   2262023 73D 1   1.00000     0.00000
 Structure written by MMmdl.
 43 45  0  0  0  0  0  0  0  0  2 V2000
  152.5227  143.7067  161.2649 C   0  0  0  0  0  0  0  0  0  0  0  0
  152.2920  142.8896  160.0051 C   0  0  0  0  0  0  0  0  0  0  0  0
  151.3485  143.3558  159.0616 C   0  0  0  0  0  0  0  0  0  0  0  0
  151.1622  142.5882  157.9180 C   0  0  0  0  0  0  0  0  0  0  0  0
  150.3240  142.7748  156.8163 N   0  3  0  0  0  0  0  0  0  0  0  0
  150.4924  141.7478  155.9375 C   0  0  0  0  0  0  0  0  0  0  0  0
  151.4259  140.9086  156.4620 N   0  0  0  0  0  0  0  0  0  0  0  0
  151.9689  139.6511  155.9296 C   0  0  0  0  0  0  0  0  0  0  0  0
  150.9054  138.7865  155.2198 C   0  0  1  0  0  0  0  0  0  0  0  0
  150.5848  139.2826  153.9351 O   0  0  0  0  0  0  0  0  0  0  0  0
  151.3049  137.3071  155.0957 C   0  0  0  0  0  0  0  0  0  0  0  0
  150.1487  136.5234  154.8512 O   0  0  0  0  0  0  0  0  0  0  0  0
  150.3114  135.1595  155.2029 C   0  0  0  0  0  0  0  0  0  0  0  0
  149.2325  134.3805  154.5187 C   0  0  0  0  0  0  0  0  0  0  0  0
  147.8695  134.4945  154.5059 C   0  0  0  0  0  0  0  0  0  0  0  0
  147.3852  133.4611  153.6567 C   0  0  0  0  0  0  0  0  0  0  0  0
  148.4888  132.7916  153.2112 C   0  0  0  0  0  0  0  0  0  0  0  0
  149.6229  133.3389  153.7261 O   0  0  0  0  0  0  0  0  0  0  0  0
  151.8733  141.3932  157.6967 C   0  0  0  0  0  0  0  0  0  0  0  0
  152.8079  140.9205  158.6155 C   0  0  0  0  0  0  0  0  0  0  0  0
  153.0133  141.6878  159.7839 C   0  0  0  0  0  0  0  0  0  0  0  0
  154.0287  141.1972  160.8023 C   0  0  0  0  0  0  0  0  0  0  0  0
  151.8613  144.5726  161.3059 H   0  0  0  0  0  0  0  0  0  0  0  0
  153.5504  144.0688  161.3013 H   0  0  0  0  0  0  0  0  0  0  0  0
  152.3354  143.1037  162.1538 H   0  0  0  0  0  0  0  0  0  0  0  0
  150.7976  144.2708  159.2222 H   0  0  0  0  0  0  0  0  0  0  0  0
  149.9770  141.6211  154.9961 H   0  0  0  0  0  0  0  0  0  0  0  0
  152.8048  139.8837  155.2699 H   0  0  0  0  0  0  0  0  0  0  0  0
  152.3932  139.0990  156.7691 H   0  0  0  0  0  0  0  0  0  0  0  0
  149.9815  138.8373  155.7972 H   0  0  0  0  0  0  0  0  0  0  0  0
  149.7108  138.9995  153.7145 H   0  0  0  0  0  0  0  0  0  0  0  0
  151.9973  137.1875  154.2609 H   0  0  0  0  0  0  0  0  0  0  0  0
  151.8215  136.9686  155.9956 H   0  0  0  0  0  0  0  0  0  0  0  0
  151.2918  134.7993  154.8885 H   0  0  0  0  0  0  0  0  0  0  0  0
  150.2359  135.0326  156.2837 H   0  0  0  0  0  0  0  0  0  0  0  0
  147.2917  135.2325  155.0424 H   0  0  0  0  0  0  0  0  0  0  0  0
  146.3597  133.2366  153.4030 H   0  0  0  0  0  0  0  0  0  0  0  0
  148.6408  131.9469  152.5555 H   0  0  0  0  0  0  0  0  0  0  0  0
  153.3618  140.0086  158.4456 H   0  0  0  0  0  0  0  0  0  0  0  0
  154.5110  140.2761  160.4728 H   0  0  0  0  0  0  0  0  0  0  0  0
  153.5456  140.9959  161.7587 H   0  0  0  0  0  0  0  0  0  0  0  0
  154.8084  141.9432  160.9569 H   0  0  0  0  0  0  0  0  0  0  0  0
  149.6826  143.5444  156.6728 H   0  0  0  0  0  0  0  0  0  0  0  0
  1  2  1  0  0  0  0
  1 23  1  0  0  0  0
  1 24  1  0  0  0  0
  1 25  1  0  0  0  0
  2 21  1  0  0  0  0
  2  3  2  0  0  0  0
  3  4  1  0  0  0  0
  3 26  1  0  0  0  0
  4 19  2  0  0  0  0
  4  5  1  0  0  0  0
  5  6  2  0  0  0  0
  5 43  1  0  0  0  0
  6  7  1  0  0  0  0
  6 27  1  0  0  0  0
  7  8  1  0  0  0  0
  7 19  1  0  0  0  0
  8  9  1  0  0  0  0
  8 28  1  0  0  0  0
  8 29  1  0  0  0  0
  9 10  1  0  0  0  0
  9 11  1  0  0  0  0
  9 30  1  0  0  0  0
 10 31  1  0  0  0  0
 11 12  1  0  0  0  0
 11 32  1  0  0  0  0
 11 33  1  0  0  0  0
 12 13  1  0  0  0  0
 13 14  1  0  0  0  0
 13 34  1  0  0  0  0
 13 35  1  0  0  0  0
 14 18  1  0  0  0  0
 14 15  2  0  0  0  0
 15 16  1  0  0  0  0
 15 36  1  0  0  0  0
 16 17  2  0  0  0  0
 16 37  1  0  0  0  0
 17 18  1  0  0  0  0
 17 38  1  0  0  0  0
 19 20  1  0  0  0  0
 20 21  2  0  0  0  0
 20 39  1  0  0  0  0
 21 22  1  0  0  0  0
 22 40  1  0  0  0  0
 22 41  1  0  0  0  0
 22 42  1  0  0  0  0
M  CHG  1   5   1
M  END
> <s_m_source_file>
AV-unprocessed.smi

> <i_m_source_file_index>
473

> <i_lp_mmshare_version>
43012

> <i_f3d_flags>
0

> <s_epik_input>
W0NIM11jKFtjSF0xKWMoW0NIM10pW2NIXWMoYzEyKW4oW2NIXW4yKVtDSDJdW0NASF0oW09IXSlbQ0gyXU9bQ0gyXWMzW2NIXVtjSF1bY0hdbzM=

> <s_epik_cmdline>
J2VwaWtfcHl0aG9uJywgJy1waCcsICc3LjAnLCAnLXRuJywgJzgnLCAnLW1hJywgJzIwMCcsICctbWV0YWxfYmluZGluZycsICctaW1hZScsICc8aW5maWxlLm1hZT4nLCAnLW9tYWUnLCAnPG91dGZpbGUubWFlPic=

> <r_epik_Ionization_Penalty>
1.03981

> <r_epik_Ionization_Penalty_Charging>
1.03981

> <r_epik_Ionization_Penalty_Neutral>
9.34185e-07

> <r_epik_State_Penalty>
1.09172

> <r_epik_Charging_Adjusted_Penalty>
2.13153

> <i_epik_Tot_Q>
1

> <i_epik_Tot_abs_Q>
1

> <r_epik_Metal_State_Penalty>
5.0824

> <b_epik_Metal_Only>
0

> <s_lp_Force_Field>
OPLS_2005

> <r_lp_Energy>
14.3304

> <b_lp_Chiralities_Consistent>
1

> <s_lp_Variant>
AV-unprocessed.smi:473-4

> <Gold.Version>
5.8.1

> <Gold.Id.Protein>
6NUR|6NUR_protein|mol2

> <Gold.PLP.Fitness>
56.0792

> <Gold.PLP.PLP>
-45.7581

> <Gold.PLP.part.hbond>
-3.0000

> <Gold.PLP.part.metal>
0.0000

> <Gold.PLP.part.buried>
-4.4945

> <Gold.PLP.part.nonpolar>
-37.8447

> <Gold.PLP.part.repulsive>
0.3968

> <Gold.PLP.ligand.clash>
0.0000

> <Gold.PLP.ligand.torsion>
0.8075

> <Gold.PLP.Chemscore.Hbond>
3.0000

> <Gold.PLP.Chemscore.CHOScore>
0.9612

> <Gold.PLP.Chemscore.Metal>
0.0000

> <Gold.Chemscore.Hbonds>
donor molecule, donor type, donor heavy atom, donor atom, acceptor molecule, acceptor atom, score
      L1  H     5    43       P1  8028  2.00
      P1  H  7989  7998       L1    10  1.00
      L1  C    17    38       P1 10747  1.00

> <Gold.PLP.Chemscore.Internal.Correction>
0.0525

> <Gold.Rescore>
     Score         DG    S(hbond)    S(metal)    S(lipo)     H(rot)  DE(clash)    DE(int)     intcor
     19.15     -20.19       1.97        0.00     123.91       2.49       0.23       0.80       ----

> <Gold.Chemscore.Fitness>
19.1516

> <Gold.Chemscore.DG>
-20.1866

> <Gold.Chemscore.ZeroCoef>
-5.4800

> <Gold.Chemscore.Hbond>
1.9723

> <Gold.Chemscore.Metal>
0.0000

> <Gold.Chemscore.Lipo>
123.9051

> <Gold.Chemscore.Internal_Hbond>
0.0000

> <Gold.Chemscore.DEClash>
0.2345

> <Gold.Chemscore.DEInternal>
0.8004

> <Gold.Chemscore.Rot>
2.4913

> <Gold.Chemscore.Internal.Correction>
   9.000000E+99

> <Gold.Chemscore.Hbonds>
donor molecule, donor type, donor heavy atom, donor atom, acceptor molecule, acceptor atom, score
      L1  H     5    43       P1  8028  0.97
      P1  H  7989  7998       L1    10  0.80

> <Gold.Chemscore.Hbond.Weighted>
-6.5875

> <Gold.Chemscore.Metal.Weighted>
-0.0000

> <Gold.Chemscore.Lipo.Weighted>
-14.4969

> <Gold.Chemscore.Internal_Hbond.Weighted>
0.0000

> <Gold.Chemscore.DEClash.Weighted>
0.2345

> <Gold.Chemscore.DEInternal.Weighted>
0.8004

> <Gold.Chemscore.Rot.Weighted>
6.3778

> <Gold.Chemscore.Internal.Correction.Weighted>
   9.000000E+99

> <Gold.Protein.RotatedTorsions>
[ 6907 6896 6895 6894 ] final -163.78 input  -60.11 | X-H torsion
[ 7974 7965 7964 7962 ] final  102.48 input  175.53 | X-H torsion
[ 8008 7997 7996 7995 ] final  -39.90 input   59.86 | X-H torsion
[ 10167 10162 10161 10158 ] final  -94.29 input  -65.29 | X-H torsion
[ 10718 10713 10712 10709 ] final -141.32 input   66.30 | X-H torsion
[ 10763 10752 10751 10750 ] final  172.95 input  -60.55 | X-H torsion
[ 11005 11000 10999 10996 ] final  108.98 input  -57.11 | X-H torsion

> <Gold.Protein.ActiveResidues>
 VAL166  LYS551  ARG553  GLY616  TRP617  ASP618  TYR619  PRO620  LYS621  CYS622 
 ASP623  PHE694  ASN695  SER759  ASP760  ASP761  ALA762  ILE779  LEU786  VAL792 
 PHE793  MET794  SER795  GLU796  ALA797  LYS798  CYS799  TRP800  GLU811  SER814 

> <Gold.Protein.RotatedAtoms>
  151.4014  133.3756  159.2732 H   0  0  0  0  0  0  0  0  0  0  0  0  # atno 6907 bound_to 6896
  150.9431  134.8839  159.7635 H   0  0  0  0  0  0  0  0  0  0  0  0  # atno 6908 bound_to 6896
  152.5080  134.3965  159.9454 H   0  0  0  0  0  0  0  0  0  0  0  0  # atno 6909 bound_to 6896
  145.3586  139.2423  143.3519 H   0  0  0  0  0  0  0  0  0  0  0  0  # atno 7974 bound_to 7965
  154.4018  140.1539  156.2939 H   0  0  0  0  0  0  0  0  0  0  0  0  # atno 8008 bound_to 7997
  155.8761  140.3446  155.5833 H   0  0  0  0  0  0  0  0  0  0  0  0  # atno 8009 bound_to 7997
  155.7720  140.0831  157.2093 H   0  0  0  0  0  0  0  0  0  0  0  0  # atno 8010 bound_to 7997
  140.3159  143.3077  152.0099 H   0  0  0  0  0  0  0  0  0  0  0  0  # atno 10167 bound_to 10162
  156.3326  130.7594  151.1715 H   0  0  0  0  0  0  0  0  0  0  0  0  # atno 10718 bound_to 10713
  154.4333  135.2760  155.1897 H   0  0  0  0  0  0  0  0  0  0  0  0  # atno 10763 bound_to 10752
  154.3794  135.6091  153.5786 H   0  0  0  0  0  0  0  0  0  0  0  0  # atno 10764 bound_to 10752
  152.9837  135.5876  154.4648 H   0  0  0  0  0  0  0  0  0  0  0  0  # atno 10765 bound_to 10752
  139.8853  134.9445  156.6055 H   0  0  0  0  0  0  0  0  0  0  0  0  # atno 11005 bound_to 11000
  146.2937  140.4215  142.8730 LP  0  0  0  0  0  0  0  0  0  0  0  0  # atno 17320 bound_to 7965
  144.8663  140.7211  143.6075 LP  0  0  0  0  0  0  0  0  0  0  0  0  # atno 17321 bound_to 7965
  139.4884  144.6349  151.6996 LP  0  0  0  0  0  0  0  0  0  0  0  0  # atno 17342 bound_to 10162
  140.5527  144.0399  150.6134 LP  0  0  0  0  0  0  0  0  0  0  0  0  # atno 17343 bound_to 10162
  157.7433  131.0477  150.4957 LP  0  0  0  0  0  0  0  0  0  0  0  0  # atno 17370 bound_to 10713
  156.5125  130.4143  149.6293 LP  0  0  0  0  0  0  0  0  0  0  0  0  # atno 17371 bound_to 10713
  140.7851  133.8628  155.8599 LP  0  0  0  0  0  0  0  0  0  0  0  0  # atno 17394 bound_to 11000
  140.9726  134.1510  157.4563 LP  0  0  0  0  0  0  0  0  0  0  0  0  # atno 17395 bound_to 11000

$$$$
