AV-unprocessed.smi:1457|AV-procd|sdf|5919|dock4
  -GOLD-   22720 6 03D 1   1.00000     0.00000
 Structure written by MMmdl.
 36 37  0  0  0  0  0  0  0  0  2 V2000
  147.4027  129.0523  152.8189 C   0  0  0  0  0  0  0  0  0  0  0  0
  147.8588  130.4579  152.8709 N   0  3  2  0  0  0  0  0  0  0  0  0
  148.4366  130.8157  154.1905 C   0  0  0  0  0  0  0  0  0  0  0  0
  149.0168  132.2398  154.1716 C   0  0  0  0  0  0  0  0  0  0  0  0
  147.9547  133.2654  153.7427 C   0  0  1  0  0  0  0  0  0  0  0  0
  148.5585  134.5909  153.6331 N   0  0  0  0  0  0  0  0  0  0  0  0
  149.0608  135.3091  154.6479 C   0  0  0  0  0  0  0  0  0  0  0  0
  149.0602  134.9294  155.8187 O   0  0  0  0  0  0  0  0  0  0  0  0
  149.5365  136.4893  154.2158 N   0  0  0  0  0  0  0  0  0  0  0  0
  150.1879  137.5051  154.9659 C   0  0  0  0  0  0  0  0  0  0  0  0
  150.7341  137.3123  156.2580 C   0  0  0  0  0  0  0  0  0  0  0  0
  151.3777  138.3926  156.8918 C   0  0  0  0  0  0  0  0  0  0  0  0
  151.4574  139.6220  156.2096 C   0  0  0  0  0  0  0  0  0  0  0  0
  150.9538  139.8161  154.9725 N   0  0  0  0  0  0  0  0  0  0  0  0
  150.3396  138.7754  154.3705 C   0  0  0  0  0  0  0  0  0  0  0  0
  147.3442  132.8495  152.3937 C   0  0  0  0  0  0  0  0  0  0  0  0
  146.8020  131.4111  152.4494 C   0  0  0  0  0  0  0  0  0  0  0  0
  146.5880  128.8781  153.5230 H   0  0  0  0  0  0  0  0  0  0  0  0
  148.2195  128.3730  153.0653 H   0  0  0  0  0  0  0  0  0  0  0  0
  147.0509  128.7986  151.8183 H   0  0  0  0  0  0  0  0  0  0  0  0
  147.6682  130.7335  154.9611 H   0  0  0  0  0  0  0  0  0  0  0  0
  149.2236  130.1064  154.4502 H   0  0  0  0  0  0  0  0  0  0  0  0
  149.4040  132.4936  155.1594 H   0  0  0  0  0  0  0  0  0  0  0  0
  149.8663  132.2752  153.4877 H   0  0  0  0  0  0  0  0  0  0  0  0
  147.1621  133.2667  154.4931 H   0  0  0  0  0  0  0  0  0  0  0  0
  148.6007  134.9933  152.7082 H   0  0  0  0  0  0  0  0  0  0  0  0
  149.3777  136.7053  153.2424 H   0  0  0  0  0  0  0  0  0  0  0  0
  150.6867  136.3612  156.7652 H   0  0  0  0  0  0  0  0  0  0  0  0
  151.8046  138.2791  157.8773 H   0  0  0  0  0  0  0  0  0  0  0  0
  151.9435  140.4705  156.6680 H   0  0  0  0  0  0  0  0  0  0  0  0
  149.9524  138.9657  153.3800 H   0  0  0  0  0  0  0  0  0  0  0  0
  146.5423  133.5358  152.1184 H   0  0  0  0  0  0  0  0  0  0  0  0
  148.0966  132.9221  151.6067 H   0  0  0  0  0  0  0  0  0  0  0  0
  146.4246  131.1271  151.4662 H   0  0  0  0  0  0  0  0  0  0  0  0
  145.9599  131.3537  153.1410 H   0  0  0  0  0  0  0  0  0  0  0  0
  148.6070  130.5404  152.1971 H   0  0  0  0  0  0  0  0  0  0  0  0
  1  2  1  0  0  0  0
  1 18  1  0  0  0  0
  1 19  1  0  0  0  0
  1 20  1  0  0  0  0
  2 17  1  0  0  0  0
  2  3  1  0  0  0  0
  2 36  1  0  0  0  0
  3  4  1  0  0  0  0
  3 21  1  0  0  0  0
  3 22  1  0  0  0  0
  4  5  1  0  0  0  0
  4 23  1  0  0  0  0
  4 24  1  0  0  0  0
  5  6  1  0  0  0  0
  5 16  1  0  0  0  0
  5 25  1  0  0  0  0
  6  7  1  0  0  0  0
  6 26  1  0  0  0  0
  7  8  2  0  0  0  0
  7  9  1  0  0  0  0
  9 10  1  0  0  0  0
  9 27  1  0  0  0  0
 10 15  1  0  0  0  0
 10 11  2  0  0  0  0
 11 12  1  0  0  0  0
 11 28  1  0  0  0  0
 12 13  2  0  0  0  0
 12 29  1  0  0  0  0
 13 14  1  0  0  0  0
 13 30  1  0  0  0  0
 14 15  2  0  0  0  0
 15 31  1  0  0  0  0
 16 17  1  0  0  0  0
 16 32  1  0  0  0  0
 16 33  1  0  0  0  0
 17 34  1  0  0  0  0
 17 35  1  0  0  0  0
M  CHG  1   2   1
M  END
> <s_m_source_file>
AV-unprocessed.smi

> <i_m_source_file_index>
1457

> <i_lp_mmshare_version>
43012

> <i_f3d_flags>
0

> <s_epik_input>
W0NIM11OMVtDSDJdW0NIMl1bQ0hdKFtDSDJdW0NIMl0xKVtOSF1DKD1PKVtOSF1jMltjSF1bY0hdW2NIXW5bY0hdMg==

> <s_epik_cmdline>
J2VwaWtfcHl0aG9uJywgJy1waCcsICc3LjAnLCAnLXRuJywgJzgnLCAnLW1hJywgJzIwMCcsICctbWV0YWxfYmluZGluZycsICctaW1hZScsICc8aW5maWxlLm1hZT4nLCAnLW9tYWUnLCAnPG91dGZpbGUubWFlPic=

> <r_lp_tautomer_probability>
1

> <r_epik_Ionization_Penalty>
0.00766642

> <r_epik_Ionization_Penalty_Charging>
0.00366825

> <r_epik_Ionization_Penalty_Neutral>
0.00399817

> <r_epik_State_Penalty>
-0

> <r_epik_Charging_Adjusted_Penalty>
0.00366825

> <i_epik_Tot_Q>
1

> <i_epik_Tot_abs_Q>
1

> <r_epik_Metal_State_Penalty>
-0

> <b_epik_Metal_Only>
0

> <s_lp_Force_Field>
OPLS_2005

> <r_lp_Energy>
19.7358

> <b_lp_Chiralities_Consistent>
1

> <s_lp_Variant>
AV-unprocessed.smi:1457-1

> <Gold.Version>
5.8.1

> <Gold.Id.Protein>
6NUR|6NUR_protein|mol2

> <Gold.PLP.Fitness>
43.0077

> <Gold.PLP.PLP>
-28.2591

> <Gold.PLP.part.hbond>
-5.0000

> <Gold.PLP.part.metal>
0.0000

> <Gold.PLP.part.buried>
-0.9772

> <Gold.PLP.part.nonpolar>
-22.0038

> <Gold.PLP.part.repulsive>
0.1879

> <Gold.PLP.ligand.clash>
0.0000

> <Gold.PLP.ligand.torsion>
0.0903

> <Gold.PLP.Chemscore.Hbond>
3.9760

> <Gold.PLP.Chemscore.CHOScore>
1.0000

> <Gold.PLP.Chemscore.Metal>
0.0000

> <Gold.Chemscore.Hbonds>
donor molecule, donor type, donor heavy atom, donor atom, acceptor molecule, acceptor atom, score
      L1  H     2    36       P1 10747  0.88
      L1  H     6    26       P1  7948  0.89
      L1  H     9    27       P1  7948  0.89
      P1  H  7989  7998       L1    14  1.00
      L1  C    15    31       P1  7957  1.00

> <Gold.PLP.Chemscore.Internal.Correction>
0.0012

> <Gold.Rescore>
     Score         DG    S(hbond)    S(metal)    S(lipo)     H(rot)  DE(clash)    DE(int)     intcor
     19.06     -20.57       3.03        0.00      64.25       1.00       0.05       1.46       ----

> <Gold.Chemscore.Fitness>
19.0597

> <Gold.Chemscore.DG>
-20.5704

> <Gold.Chemscore.ZeroCoef>
-5.4800

> <Gold.Chemscore.Hbond>
3.0340

> <Gold.Chemscore.Metal>
0.0000

> <Gold.Chemscore.Lipo>
64.2475

> <Gold.Chemscore.Internal_Hbond>
0.0000

> <Gold.Chemscore.DEClash>
0.0489

> <Gold.Chemscore.DEInternal>
1.4619

> <Gold.Chemscore.Rot>
1.0000

> <Gold.Chemscore.Internal.Correction>
   9.000000E+99

> <Gold.Chemscore.Hbonds>
donor molecule, donor type, donor heavy atom, donor atom, acceptor molecule, acceptor atom, score
      L1  H     2    36       P1 10747  0.64
      L1  H     6    26       P1  7948  0.28
      L1  H     9    27       P1  7948  0.72
      P1  H  7989  7998       L1    14  0.45

> <Gold.Chemscore.Hbond.Weighted>
-10.1335

> <Gold.Chemscore.Metal.Weighted>
-0.0000

> <Gold.Chemscore.Lipo.Weighted>
-7.5170

> <Gold.Chemscore.Internal_Hbond.Weighted>
0.0000

> <Gold.Chemscore.DEClash.Weighted>
0.0489

> <Gold.Chemscore.DEInternal.Weighted>
1.4619

> <Gold.Chemscore.Rot.Weighted>
2.5600

> <Gold.Chemscore.Internal.Correction.Weighted>
   9.000000E+99

> <Gold.Protein.RotatedTorsions>
[ 6907 6896 6895 6894 ] final  112.94 input  -60.11 | X-H torsion
[ 7974 7965 7964 7962 ] final  164.48 input  175.53 | X-H torsion
[ 8008 7997 7996 7995 ] final  -55.55 input   59.86 | X-H torsion
[ 10167 10162 10161 10158 ] final   20.23 input  -65.29 | X-H torsion
[ 10718 10713 10712 10709 ] final   70.99 input   66.30 | X-H torsion
[ 10763 10752 10751 10750 ] final -179.63 input  -60.55 | X-H torsion
[ 11005 11000 10999 10996 ] final  148.36 input  -57.11 | X-H torsion

> <Gold.Protein.ActiveResidues>
 VAL166  LYS551  ARG553  GLY616  TRP617  ASP618  TYR619  PRO620  LYS621  CYS622 
 ASP623  PHE694  ASN695  SER759  ASP760  ASP761  ALA762  ILE779  LEU786  VAL792 
 PHE793  MET794  SER795  GLU796  ALA797  LYS798  CYS799  TRP800  GLU811  SER814 

> <Gold.Protein.RotatedAtoms>
  152.4889  133.8446  159.7169 H   0  0  0  0  0  0  0  0  0  0  0  0  # atno 6907 bound_to 6896
  150.9000  133.7122  159.2888 H   0  0  0  0  0  0  0  0  0  0  0  0  # atno 6908 bound_to 6896
  151.4567  135.1038  159.9765 H   0  0  0  0  0  0  0  0  0  0  0  0  # atno 6909 bound_to 6896
  144.7543  139.8332  143.6355 H   0  0  0  0  0  0  0  0  0  0  0  0  # atno 7974 bound_to 7965
  154.4199  140.1150  156.5495 H   0  0  0  0  0  0  0  0  0  0  0  0  # atno 8008 bound_to 7997
  155.6424  140.3496  155.4700 H   0  0  0  0  0  0  0  0  0  0  0  0  # atno 8009 bound_to 7997
  155.9860  140.1170  157.0673 H   0  0  0  0  0  0  0  0  0  0  0  0  # atno 8010 bound_to 7997
  140.5519  143.9493  150.6584 H   0  0  0  0  0  0  0  0  0  0  0  0  # atno 10167 bound_to 10162
  157.6429  130.9506  150.0728 H   0  0  0  0  0  0  0  0  0  0  0  0  # atno 10718 bound_to 10713
  154.5327  135.2801  155.1166 H   0  0  0  0  0  0  0  0  0  0  0  0  # atno 10763 bound_to 10752
  154.2680  135.6309  153.5303 H   0  0  0  0  0  0  0  0  0  0  0  0  # atno 10764 bound_to 10752
  152.9960  135.5621  154.5844 H   0  0  0  0  0  0  0  0  0  0  0  0  # atno 10765 bound_to 10752
  140.0953  134.9016  157.1714 H   0  0  0  0  0  0  0  0  0  0  0  0  # atno 11005 bound_to 11000
  146.1534  139.4624  143.0034 LP  0  0  0  0  0  0  0  0  0  0  0  0  # atno 17320 bound_to 7965
  145.6833  141.0185  143.1594 LP  0  0  0  0  0  0  0  0  0  0  0  0  # atno 17321 bound_to 7965
  140.2921  143.3317  152.1052 LP  0  0  0  0  0  0  0  0  0  0  0  0  # atno 17342 bound_to 10162
  139.5031  144.6749  151.6154 LP  0  0  0  0  0  0  0  0  0  0  0  0  # atno 17343 bound_to 10162
  156.1727  130.3647  149.9143 LP  0  0  0  0  0  0  0  0  0  0  0  0  # atno 17370 bound_to 10713
  156.7114  130.8972  151.3610 LP  0  0  0  0  0  0  0  0  0  0  0  0  # atno 17371 bound_to 10713
  140.3295  134.2826  155.7230 LP  0  0  0  0  0  0  0  0  0  0  0  0  # atno 17394 bound_to 11000
  141.2090  133.7761  157.0023 LP  0  0  0  0  0  0  0  0  0  0  0  0  # atno 17395 bound_to 11000

$$$$
