AV-unprocessed.smi:371|AV-procd|sdf|2441|dock3
  -GOLD-   2262022383D 1   1.00000     0.00000
 Structure written by MMmdl.
 39 40  0  0  0  0  0  0  0  0  1 V2000
  153.4045  142.9901  162.8366 C   0  0  0  0  0  0  0  0  0  0  0  0
  152.9696  142.6286  161.4215 C   0  0  0  0  0  0  0  0  0  0  0  0
  152.0125  143.4903  160.7676 C   0  0  0  0  0  0  0  0  0  0  0  0
  151.5413  143.2031  159.5438 C   0  0  0  0  0  0  0  0  0  0  0  0
  150.5203  144.1139  158.8709 C   0  0  0  0  0  0  0  0  0  0  0  0
  151.9955  142.0487  158.8479 N   0  0  0  0  0  0  0  0  0  0  0  0
  151.4492  141.7405  157.5043 C   0  0  0  0  0  0  0  0  0  0  0  0
  150.1894  140.8444  157.5765 C   0  0  2  0  0  0  0  0  0  0  0  0
  150.5830  139.4871  157.5239 O   0  0  0  0  0  0  0  0  0  0  0  0
  149.2204  141.1685  156.4462 C   0  0  0  0  0  0  0  0  0  0  0  0
  149.6168  140.9865  155.1019 C   0  0  0  0  0  0  0  0  0  0  0  0
  148.7295  141.2840  154.0497 C   0  0  0  0  0  0  0  0  0  0  0  0
  147.4390  141.7684  154.3333 C   0  0  0  0  0  0  0  0  0  0  0  0
  147.0377  141.9559  155.6695 C   0  0  0  0  0  0  0  0  0  0  0  0
  147.9229  141.6579  156.7242 C   0  0  0  0  0  0  0  0  0  0  0  0
  147.5145  141.8443  158.0023 F   0  0  0  0  0  0  0  0  0  0  0  0
  152.9409  141.2061  159.3756 C   0  0  0  0  0  0  0  0  0  0  0  0
  153.3728  140.2595  158.7096 O   0  0  0  0  0  0  0  0  0  0  0  0
  153.4021  141.5238  160.7555 C   0  0  0  0  0  0  0  0  0  0  0  0
  154.3774  140.5929  161.3579 C   0  0  0  0  0  0  0  0  0  0  0  0
  154.4103  139.3688  160.8133 N   0  0  0  0  0  0  0  0  0  0  0  0
  155.0750  140.8440  162.3393 O   0  0  0  0  0  0  0  0  0  0  0  0
  152.7987  143.8021  163.2398 H   0  0  0  0  0  0  0  0  0  0  0  0
  154.4443  143.3174  162.8460 H   0  0  0  0  0  0  0  0  0  0  0  0
  153.2974  142.1393  163.5103 H   0  0  0  0  0  0  0  0  0  0  0  0
  151.6620  144.3760  161.2778 H   0  0  0  0  0  0  0  0  0  0  0  0
  150.0998  144.8183  159.5893 H   0  0  0  0  0  0  0  0  0  0  0  0
  149.6832  143.5596  158.4512 H   0  0  0  0  0  0  0  0  0  0  0  0
  150.9925  144.6975  158.0804 H   0  0  0  0  0  0  0  0  0  0  0  0
  151.2082  142.6691  156.9891 H   0  0  0  0  0  0  0  0  0  0  0  0
  152.1908  141.2964  156.8376 H   0  0  0  0  0  0  0  0  0  0  0  0
  149.6851  140.9905  158.5315 H   0  0  0  0  0  0  0  0  0  0  0  0
  151.1179  139.3599  156.7553 H   0  0  0  0  0  0  0  0  0  0  0  0
  150.6059  140.6171  154.8736 H   0  0  0  0  0  0  0  0  0  0  0  0
  149.0395  141.1405  153.0251 H   0  0  0  0  0  0  0  0  0  0  0  0
  146.7573  141.9961  153.5271 H   0  0  0  0  0  0  0  0  0  0  0  0
  146.0476  142.3287  155.8869 H   0  0  0  0  0  0  0  0  0  0  0  0
  155.0365  138.6686  161.1839 H   0  0  0  0  0  0  0  0  0  0  0  0
  153.7929  139.1445  160.0466 H   0  0  0  0  0  0  0  0  0  0  0  0
  1  2  1  0  0  0  0
  1 23  1  0  0  0  0
  1 24  1  0  0  0  0
  1 25  1  0  0  0  0
  2 19  2  0  0  0  0
  2  3  1  0  0  0  0
  3  4  2  0  0  0  0
  3 26  1  0  0  0  0
  4  5  1  0  0  0  0
  4  6  1  0  0  0  0
  5 27  1  0  0  0  0
  5 28  1  0  0  0  0
  5 29  1  0  0  0  0
  6  7  1  0  0  0  0
  6 17  1  0  0  0  0
  7  8  1  0  0  0  0
  7 30  1  0  0  0  0
  7 31  1  0  0  0  0
  8  9  1  0  0  0  0
  8 10  1  0  0  0  0
  8 32  1  0  0  0  0
  9 33  1  0  0  0  0
 10 15  1  0  0  0  0
 10 11  2  0  0  0  0
 11 12  1  0  0  0  0
 11 34  1  0  0  0  0
 12 13  2  0  0  0  0
 12 35  1  0  0  0  0
 13 14  1  0  0  0  0
 13 36  1  0  0  0  0
 14 15  2  0  0  0  0
 14 37  1  0  0  0  0
 15 16  1  0  0  0  0
 17 18  2  0  0  0  0
 17 19  1  0  0  0  0
 19 20  1  0  0  0  0
 20 21  1  0  0  0  0
 20 22  2  0  0  0  0
 21 38  1  0  0  0  0
 21 39  1  0  0  0  0
M  END
> <s_m_source_file>
AV-unprocessed.smi

> <i_m_source_file_index>
371

> <i_lp_mmshare_version>
43012

> <i_f3d_flags>
0

> <s_epik_input>
W0NIM11jMVtjSF1jKFtDSDNdKW4oYyg9TyljMUMoPU8pW05IMl0pW0NIMl1bQ0BIXShbT0hdKWMyW2NIXVtjSF1bY0hdW2NIXWMyRg==

> <s_epik_cmdline>
J2VwaWtfcHl0aG9uJywgJy1waCcsICc3LjAnLCAnLXRuJywgJzgnLCAnLW1hJywgJzIwMCcsICctbWV0YWxfYmluZGluZycsICctaW1hZScsICc8aW5maWxlLm1hZT4nLCAnLW9tYWUnLCAnPG91dGZpbGUubWFlPic=

> <r_lp_tautomer_probability>
1

> <r_epik_Ionization_Penalty>
3.46512e-07

> <r_epik_Ionization_Penalty_Charging>
1.35363e-07

> <r_epik_Ionization_Penalty_Neutral>
2.11149e-07

> <r_epik_State_Penalty>
-0

> <r_epik_Charging_Adjusted_Penalty>
1.35363e-07

> <i_epik_Tot_Q>
0

> <i_epik_Tot_abs_Q>
0

> <r_epik_Metal_State_Penalty>
-0

> <b_epik_Metal_Only>
0

> <s_lp_Force_Field>
OPLS_2005

> <r_lp_Energy>
40.8148

> <b_lp_Chiralities_Consistent>
1

> <s_lp_Variant>
AV-unprocessed.smi:371-1

> <Gold.Version>
5.8.1

> <Gold.Id.Protein>
6NUR|6NUR_protein|mol2

> <Gold.PLP.Fitness>
47.3729

> <Gold.PLP.PLP>
-46.1553

> <Gold.PLP.part.hbond>
-2.0000

> <Gold.PLP.part.metal>
0.0000

> <Gold.PLP.part.buried>
-5.3155

> <Gold.PLP.part.nonpolar>
-38.3149

> <Gold.PLP.part.repulsive>
0.0260

> <Gold.PLP.ligand.clash>
0.0000

> <Gold.PLP.ligand.torsion>
0.9381

> <Gold.PLP.Chemscore.Hbond>
0.9280

> <Gold.PLP.Chemscore.CHOScore>
0.0000

> <Gold.PLP.Chemscore.Metal>
0.0000

> <Gold.Chemscore.Hbonds>
donor molecule, donor type, donor heavy atom, donor atom, acceptor molecule, acceptor atom, score
      P1  H  7997  8009       L1    18  0.84

> <Gold.PLP.Chemscore.Internal.Correction>
0.3097

> <Gold.Rescore>
     Score         DG    S(hbond)    S(metal)    S(lipo)     H(rot)  DE(clash)    DE(int)     intcor
     13.72     -16.13       0.97        0.00     107.89       2.04       0.12       2.30       ----

> <Gold.Chemscore.Fitness>
13.7161

> <Gold.Chemscore.DG>
-16.1345

> <Gold.Chemscore.ZeroCoef>
-5.4800

> <Gold.Chemscore.Hbond>
0.9738

> <Gold.Chemscore.Metal>
0.0000

> <Gold.Chemscore.Lipo>
107.8918

> <Gold.Chemscore.Internal_Hbond>
0.0000

> <Gold.Chemscore.DEClash>
0.1226

> <Gold.Chemscore.DEInternal>
2.2958

> <Gold.Chemscore.Rot>
2.0396

> <Gold.Chemscore.Internal.Correction>
   9.000000E+99

> <Gold.Chemscore.Hbonds>
donor molecule, donor type, donor heavy atom, donor atom, acceptor molecule, acceptor atom, score
      P1  H  7997  8009       L1    18  0.78

> <Gold.Chemscore.Hbond.Weighted>
-3.2525

> <Gold.Chemscore.Metal.Weighted>
-0.0000

> <Gold.Chemscore.Lipo.Weighted>
-12.6233

> <Gold.Chemscore.Internal_Hbond.Weighted>
0.0000

> <Gold.Chemscore.DEClash.Weighted>
0.1226

> <Gold.Chemscore.DEInternal.Weighted>
2.2958

> <Gold.Chemscore.Rot.Weighted>
5.2214

> <Gold.Chemscore.Internal.Correction.Weighted>
   9.000000E+99

> <Gold.Protein.RotatedTorsions>
[ 6907 6896 6895 6894 ] final -149.47 input  -60.11 | X-H torsion
[ 7974 7965 7964 7962 ] final  106.60 input  175.53 | X-H torsion
[ 8008 7997 7996 7995 ] final  148.20 input   59.86 | X-H torsion
[ 10167 10162 10161 10158 ] final  151.05 input  -65.29 | X-H torsion
[ 10718 10713 10712 10709 ] final   65.90 input   66.30 | X-H torsion
[ 10763 10752 10751 10750 ] final  -85.86 input  -60.55 | X-H torsion
[ 11005 11000 10999 10996 ] final   18.39 input  -57.11 | X-H torsion

> <Gold.Protein.ActiveResidues>
 VAL166  LYS551  ARG553  GLY616  TRP617  ASP618  TYR619  PRO620  LYS621  CYS622 
 ASP623  PHE694  ASN695  SER759  ASP760  ASP761  ALA762  ILE779  LEU786  VAL792 
 PHE793  MET794  SER795  GLU796  ALA797  LYS798  CYS799  TRP800  GLU811  SER814 

> <Gold.Protein.RotatedAtoms>
  151.1846  133.4704  159.2594 H   0  0  0  0  0  0  0  0  0  0  0  0  # atno 6907 bound_to 6896
  151.1224  135.0086  159.8555 H   0  0  0  0  0  0  0  0  0  0  0  0  # atno 6908 bound_to 6896
  152.5456  134.1756  159.8668 H   0  0  0  0  0  0  0  0  0  0  0  0  # atno 6909 bound_to 6896
  145.3045  139.2559  143.3796 H   0  0  0  0  0  0  0  0  0  0  0  0  # atno 7974 bound_to 7965
  156.2799  140.2135  156.5660 H   0  0  0  0  0  0  0  0  0  0  0  0  # atno 8008 bound_to 7997
  154.7174  140.0506  157.0630 H   0  0  0  0  0  0  0  0  0  0  0  0  # atno 8009 bound_to 7997
  155.0524  140.3157  155.4690 H   0  0  0  0  0  0  0  0  0  0  0  0  # atno 8010 bound_to 7997
  139.4844  144.5472  151.7463 H   0  0  0  0  0  0  0  0  0  0  0  0  # atno 10167 bound_to 10162
  157.6135  130.9239  150.0038 H   0  0  0  0  0  0  0  0  0  0  0  0  # atno 10718 bound_to 10713
  154.6159  135.5470  153.7523 H   0  0  0  0  0  0  0  0  0  0  0  0  # atno 10763 bound_to 10752
  153.0216  135.6401  154.1511 H   0  0  0  0  0  0  0  0  0  0  0  0  # atno 10764 bound_to 10752
  154.1447  135.2906  155.3131 H   0  0  0  0  0  0  0  0  0  0  0  0  # atno 10765 bound_to 10752
  140.4253  134.1476  155.7676 H   0  0  0  0  0  0  0  0  0  0  0  0  # atno 11005 bound_to 11000
  146.3140  140.3567  142.8661 LP  0  0  0  0  0  0  0  0  0  0  0  0  # atno 17320 bound_to 7965
  144.9066  140.7707  143.5833 LP  0  0  0  0  0  0  0  0  0  0  0  0  # atno 17321 bound_to 7965
  140.5021  144.1153  150.5973 LP  0  0  0  0  0  0  0  0  0  0  0  0  # atno 17342 bound_to 10162
  140.4050  143.2685  151.9902 LP  0  0  0  0  0  0  0  0  0  0  0  0  # atno 17343 bound_to 10162
  156.1247  130.3645  149.9828 LP  0  0  0  0  0  0  0  0  0  0  0  0  # atno 17370 bound_to 10713
  156.7902  130.9253  151.3646 LP  0  0  0  0  0  0  0  0  0  0  0  0  # atno 17371 bound_to 10713
  141.1767  133.8498  157.1396 LP  0  0  0  0  0  0  0  0  0  0  0  0  # atno 17394 bound_to 11000
  140.0171  134.9962  157.0516 LP  0  0  0  0  0  0  0  0  0  0  0  0  # atno 17395 bound_to 11000

$$$$
