AV-unprocessed.smi:497|AV-procd|sdf|2725|dock8
  -GOLD-   2262023173D 1   1.00000     0.00000
 Structure written by MMmdl.
 40 42  0  0  0  0  0  0  0  0  2 V2000
  153.5314  137.8739  156.5294 C   0  0  0  0  0  0  0  0  0  0  0  0
  153.3523  138.8758  155.5441 O   0  0  0  0  0  0  0  0  0  0  0  0
  151.9887  139.0635  155.2006 C   0  0  0  0  0  0  0  0  0  0  0  0
  151.1704  139.3313  156.4713 C   0  0  0  0  0  0  0  0  0  0  0  0
  150.9501  140.7677  156.6985 N   0  0  0  0  0  0  0  0  0  0  0  0
  150.1721  141.6660  156.0261 C   0  0  0  0  0  0  0  0  0  0  0  0
  149.3041  141.4047  154.8344 C   0  0  0  0  0  0  0  0  0  0  0  0
  148.1521  142.2952  154.7667 N   0  0  0  0  0  0  0  0  0  0  0  0
  147.0440  142.0709  154.0431 C   0  0  0  0  0  0  0  0  0  0  0  0
  146.8779  141.0664  153.3516 O   0  0  0  0  0  0  0  0  0  0  0  0
  146.0095  143.1204  154.1100 C   0  0  0  0  0  0  0  0  0  0  0  0
  145.5991  144.0495  153.1898 C   0  0  0  0  0  0  0  0  0  0  0  0
  144.5681  144.8086  153.8094 C   0  0  0  0  0  0  0  0  0  0  0  0
  144.4233  144.2912  155.0646 C   0  0  0  0  0  0  0  0  0  0  0  0
  145.2951  143.2656  155.2642 O   0  0  0  0  0  0  0  0  0  0  0  0
  150.3273  142.8724  156.6420 N   0  3  0  0  0  0  0  0  0  0  0  0
  151.2157  142.7480  157.7102 C   0  0  0  0  0  0  0  0  0  0  0  0
  151.6846  143.6904  158.6203 C   0  0  0  0  0  0  0  0  0  0  0  0
  152.5973  143.2315  159.5928 C   0  0  0  0  0  0  0  0  0  0  0  0
  153.0096  141.8836  159.6346 C   0  0  0  0  0  0  0  0  0  0  0  0
  152.5259  140.9371  158.7072 C   0  0  0  0  0  0  0  0  0  0  0  0
  151.6227  141.3989  157.7503 C   0  0  0  0  0  0  0  0  0  0  0  0
  154.5920  137.7730  156.7602 H   0  0  0  0  0  0  0  0  0  0  0  0
  153.1697  136.9066  156.1781 H   0  0  0  0  0  0  0  0  0  0  0  0
  153.0090  138.1299  157.4520 H   0  0  0  0  0  0  0  0  0  0  0  0
  151.8869  139.9041  154.5124 H   0  0  0  0  0  0  0  0  0  0  0  0
  151.6087  138.1770  154.6903 H   0  0  0  0  0  0  0  0  0  0  0  0
  150.1968  138.8478  156.3978 H   0  0  0  0  0  0  0  0  0  0  0  0
  151.6551  138.9020  157.3484 H   0  0  0  0  0  0  0  0  0  0  0  0
  149.9001  141.5457  153.9326 H   0  0  0  0  0  0  0  0  0  0  0  0
  148.9748  140.3653  154.8225 H   0  0  0  0  0  0  0  0  0  0  0  0
  148.2040  143.1522  155.2980 H   0  0  0  0  0  0  0  0  0  0  0  0
  145.9909  144.1711  152.1905 H   0  0  0  0  0  0  0  0  0  0  0  0
  144.0044  145.6291  153.3904 H   0  0  0  0  0  0  0  0  0  0  0  0
  143.7822  144.5221  155.9027 H   0  0  0  0  0  0  0  0  0  0  0  0
  151.3712  144.7237  158.5893 H   0  0  0  0  0  0  0  0  0  0  0  0
  152.9899  143.9272  160.3204 H   0  0  0  0  0  0  0  0  0  0  0  0
  153.7115  141.5689  160.3933 H   0  0  0  0  0  0  0  0  0  0  0  0
  152.8494  139.9076  158.7468 H   0  0  0  0  0  0  0  0  0  0  0  0
  149.8587  143.7194  156.3481 H   0  0  0  0  0  0  0  0  0  0  0  0
  1  2  1  0  0  0  0
  1 23  1  0  0  0  0
  1 24  1  0  0  0  0
  1 25  1  0  0  0  0
  2  3  1  0  0  0  0
  3  4  1  0  0  0  0
  3 26  1  0  0  0  0
  3 27  1  0  0  0  0
  4  5  1  0  0  0  0
  4 28  1  0  0  0  0
  4 29  1  0  0  0  0
  5 22  1  0  0  0  0
  5  6  1  0  0  0  0
  6  7  1  0  0  0  0
  6 16  2  0  0  0  0
  7  8  1  0  0  0  0
  7 30  1  0  0  0  0
  7 31  1  0  0  0  0
  8  9  1  0  0  0  0
  8 32  1  0  0  0  0
  9 10  2  0  0  0  0
  9 11  1  0  0  0  0
 11 15  1  0  0  0  0
 11 12  2  0  0  0  0
 12 13  1  0  0  0  0
 12 33  1  0  0  0  0
 13 14  2  0  0  0  0
 13 34  1  0  0  0  0
 14 15  1  0  0  0  0
 14 35  1  0  0  0  0
 16 17  1  0  0  0  0
 16 40  1  0  0  0  0
 17 22  2  0  0  0  0
 17 18  1  0  0  0  0
 18 19  2  0  0  0  0
 18 36  1  0  0  0  0
 19 20  1  0  0  0  0
 19 37  1  0  0  0  0
 20 21  2  0  0  0  0
 20 38  1  0  0  0  0
 21 22  1  0  0  0  0
 21 39  1  0  0  0  0
M  CHG  1  16   1
M  END
> <s_m_source_file>
AV-unprocessed.smi

> <i_m_source_file_index>
497

> <i_lp_mmshare_version>
43012

> <i_f3d_flags>
0

> <s_epik_input>
W2NIXTFbY0hdW2NIXVtjSF1jKGMxMiluKFtDSDJdW0NIMl1PW0NIM10pYyhuMilbQ0gyXVtOSF1DKD1PKWMzW2NIXVtjSF1bY0hdbzM=

> <s_epik_cmdline>
J2VwaWtfcHl0aG9uJywgJy1waCcsICc3LjAnLCAnLXRuJywgJzgnLCAnLW1hJywgJzIwMCcsICctbWV0YWxfYmluZGluZycsICctaW1hZScsICc8aW5maWxlLm1hZT4nLCAnLW9tYWUnLCAnPG91dGZpbGUubWFlPic=

> <r_epik_Ionization_Penalty>
1.26486

> <r_epik_Ionization_Penalty_Charging>
1.26483

> <r_epik_Ionization_Penalty_Neutral>
2.77772e-05

> <r_epik_State_Penalty>
1.33577

> <r_epik_Charging_Adjusted_Penalty>
2.6006

> <i_epik_Tot_Q>
1

> <i_epik_Tot_abs_Q>
1

> <r_epik_Metal_State_Penalty>
1.44158

> <b_epik_Metal_Only>
0

> <s_lp_Force_Field>
OPLS_2005

> <r_lp_Energy>
9.51778

> <b_lp_Chiralities_Consistent>
1

> <s_lp_Variant>
AV-unprocessed.smi:497-2

> <Gold.Version>
5.8.1

> <Gold.Id.Protein>
6NUR|6NUR_protein|mol2

> <Gold.PLP.Fitness>
57.7904

> <Gold.PLP.PLP>
-50.2117

> <Gold.PLP.part.hbond>
-3.0000

> <Gold.PLP.part.metal>
0.0000

> <Gold.PLP.part.buried>
-7.4619

> <Gold.PLP.part.nonpolar>
-41.0805

> <Gold.PLP.part.repulsive>
0.6159

> <Gold.PLP.ligand.clash>
0.0000

> <Gold.PLP.ligand.torsion>
2.2317

> <Gold.PLP.Chemscore.Hbond>
4.0000

> <Gold.PLP.Chemscore.CHOScore>
0.0000

> <Gold.PLP.Chemscore.Metal>
0.0000

> <Gold.Chemscore.Hbonds>
donor molecule, donor type, donor heavy atom, donor atom, acceptor molecule, acceptor atom, score
      L1  H     8    32       P1  8028  1.00
      L1  H    16    40       P1  8028  2.00
      P1  H  7997  8010       L1     2  1.00

> <Gold.PLP.Chemscore.Internal.Correction>
0.0420

> <Gold.Rescore>
     Score         DG    S(hbond)    S(metal)    S(lipo)     H(rot)  DE(clash)    DE(int)     intcor
     20.96     -23.23       2.77        0.00     115.43       1.96       0.02       2.26       ----

> <Gold.Chemscore.Fitness>
20.9596

> <Gold.Chemscore.DG>
-23.2331

> <Gold.Chemscore.ZeroCoef>
-5.4800

> <Gold.Chemscore.Hbond>
2.7719

> <Gold.Chemscore.Metal>
0.0000

> <Gold.Chemscore.Lipo>
115.4321

> <Gold.Chemscore.Internal_Hbond>
0.0000

> <Gold.Chemscore.DEClash>
0.0170

> <Gold.Chemscore.DEInternal>
2.2565

> <Gold.Chemscore.Rot>
1.9573

> <Gold.Chemscore.Internal.Correction>
   9.000000E+99

> <Gold.Chemscore.Hbonds>
donor molecule, donor type, donor heavy atom, donor atom, acceptor molecule, acceptor atom, score
      L1  H     8    32       P1  8028  0.91
      L1  H    16    40       P1  8028  0.95
      P1  H  7997  8010       L1     2  0.33

> <Gold.Chemscore.Hbond.Weighted>
-9.2582

> <Gold.Chemscore.Metal.Weighted>
-0.0000

> <Gold.Chemscore.Lipo.Weighted>
-13.5056

> <Gold.Chemscore.Internal_Hbond.Weighted>
0.0000

> <Gold.Chemscore.DEClash.Weighted>
0.0170

> <Gold.Chemscore.DEInternal.Weighted>
2.2565

> <Gold.Chemscore.Rot.Weighted>
5.0107

> <Gold.Chemscore.Internal.Correction.Weighted>
   9.000000E+99

> <Gold.Protein.RotatedTorsions>
[ 6907 6896 6895 6894 ] final -143.07 input  -60.11 | X-H torsion
[ 7974 7965 7964 7962 ] final  -83.05 input  175.53 | X-H torsion
[ 8008 7997 7996 7995 ] final   88.86 input   59.86 | X-H torsion
[ 10167 10162 10161 10158 ] final  -94.79 input  -65.29 | X-H torsion
[ 10718 10713 10712 10709 ] final  -59.83 input   66.30 | X-H torsion
[ 10763 10752 10751 10750 ] final  173.01 input  -60.55 | X-H torsion
[ 11005 11000 10999 10996 ] final  -57.01 input  -57.11 | X-H torsion

> <Gold.Protein.ActiveResidues>
 VAL166  LYS551  ARG553  GLY616  TRP617  ASP618  TYR619  PRO620  LYS621  CYS622 
 ASP623  PHE694  ASN695  SER759  ASP760  ASP761  ALA762  ILE779  LEU786  VAL792 
 PHE793  MET794  SER795  GLU796  ALA797  LYS798  CYS799  TRP800  GLU811  SER814 

> <Gold.Protein.RotatedAtoms>
  151.0955  133.5283  159.2612 H   0  0  0  0  0  0  0  0  0  0  0  0  # atno 6907 bound_to 6896
  151.2133  135.0489  159.8930 H   0  0  0  0  0  0  0  0  0  0  0  0  # atno 6908 bound_to 6896
  152.5438  134.0768  159.8271 H   0  0  0  0  0  0  0  0  0  0  0  0  # atno 6909 bound_to 6896
  145.5252  140.9527  143.1633 H   0  0  0  0  0  0  0  0  0  0  0  0  # atno 7974 bound_to 7965
  155.9929  140.3367  155.6771 H   0  0  0  0  0  0  0  0  0  0  0  0  # atno 8008 bound_to 7997
  155.6396  140.0694  157.2641 H   0  0  0  0  0  0  0  0  0  0  0  0  # atno 8009 bound_to 7997
  154.4225  140.1745  156.1546 H   0  0  0  0  0  0  0  0  0  0  0  0  # atno 8010 bound_to 7997
  140.3108  143.3106  152.0150 H   0  0  0  0  0  0  0  0  0  0  0  0  # atno 10167 bound_to 10162
  156.1034  130.4183  150.0769 H   0  0  0  0  0  0  0  0  0  0  0  0  # atno 10718 bound_to 10713
  154.4341  135.2760  155.1893 H   0  0  0  0  0  0  0  0  0  0  0  0  # atno 10763 bound_to 10752
  154.3786  135.6092  153.5782 H   0  0  0  0  0  0  0  0  0  0  0  0  # atno 10764 bound_to 10752
  152.9837  135.5875  154.4657 H   0  0  0  0  0  0  0  0  0  0  0  0  # atno 10765 bound_to 10752
  141.1146  133.6610  156.4705 H   0  0  0  0  0  0  0  0  0  0  0  0  # atno 11005 bound_to 11000
  144.7655  139.6855  143.7216 LP  0  0  0  0  0  0  0  0  0  0  0  0  # atno 17320 bound_to 7965
  146.2080  139.5418  142.9699 LP  0  0  0  0  0  0  0  0  0  0  0  0  # atno 17321 bound_to 7965
  139.4894  144.6386  151.6925 LP  0  0  0  0  0  0  0  0  0  0  0  0  # atno 17342 bound_to 10162
  140.5570  144.0332  150.6152 LP  0  0  0  0  0  0  0  0  0  0  0  0  # atno 17343 bound_to 10162
  156.8751  130.9537  151.3605 LP  0  0  0  0  0  0  0  0  0  0  0  0  # atno 17370 bound_to 10713
  157.6207  130.8653  149.9104 LP  0  0  0  0  0  0  0  0  0  0  0  0  # atno 17371 bound_to 10713
  140.4682  134.6778  157.5117 LP  0  0  0  0  0  0  0  0  0  0  0  0  # atno 17394 bound_to 11000
  140.0059  134.6764  155.9455 LP  0  0  0  0  0  0  0  0  0  0  0  0  # atno 17395 bound_to 11000

$$$$
