AV-unprocessed.smi:2204|AV-procd|sdf|8938|dock6
  -GOLD-   2272012153D 1   1.00000     0.00000
 Structure written by MMmdl.
 39 40  0  0  0  0  0  0  0  0  1 V2000
  153.8488  141.2460  161.0617 C   0  0  0  0  0  0  0  0  0  0  0  0
  152.9522  142.2891  160.4630 C   0  0  0  0  0  0  0  0  0  0  0  0
  152.4585  143.4791  161.0666 C   0  0  0  0  0  0  0  0  0  0  0  0
  151.6952  144.0599  160.0933 C   0  0  0  0  0  0  0  0  0  0  0  0
  150.9126  145.3318  160.1170 C   0  0  0  0  0  0  0  0  0  0  0  0
  151.7543  143.2293  158.9874 N   0  0  0  0  0  0  0  0  0  0  0  0
  151.1145  143.3780  157.6871 C   0  0  0  0  0  0  0  0  0  0  0  0
  150.5858  142.0471  157.1415 C   0  0  0  0  0  0  0  0  0  0  0  0
  150.9204  140.9918  157.6790 O   0  0  0  0  0  0  0  0  0  0  0  0
  149.7826  142.1071  156.0661 N   0  0  0  0  0  0  0  0  0  0  0  0
  149.1829  140.9673  155.3786 C   0  0  1  0  0  0  0  0  0  0  0  0
  148.0332  141.4824  154.4988 C   0  0  0  0  0  0  0  0  0  0  0  0
  150.2612  140.2216  154.5646 C   0  0  2  0  0  0  0  0  0  0  0  0
  149.9084  138.7716  154.2218 C   0  0  0  0  0  0  0  0  0  0  0  0
  151.2742  138.1405  154.0819 C   0  0  0  0  0  0  0  0  0  0  0  0
  152.0382  138.8286  155.2060 C   0  0  0  0  0  0  0  0  0  0  0  0
  151.4817  140.1362  155.3017 O   0  0  0  0  0  0  0  0  0  0  0  0
  152.5273  142.1457  159.2188 N   0  0  0  0  0  0  0  0  0  0  0  0
  154.2371  141.5675  162.0283 H   0  0  0  0  0  0  0  0  0  0  0  0
  154.7016  141.0402  160.4143 H   0  0  0  0  0  0  0  0  0  0  0  0
  153.3117  140.3099  161.2149 H   0  0  0  0  0  0  0  0  0  0  0  0
  152.6381  143.8506  162.0645 H   0  0  0  0  0  0  0  0  0  0  0  0
  150.9681  145.8050  161.0974 H   0  0  0  0  0  0  0  0  0  0  0  0
  149.8617  145.1484  159.8939 H   0  0  0  0  0  0  0  0  0  0  0  0
  151.2980  146.0389  159.3824 H   0  0  0  0  0  0  0  0  0  0  0  0
  150.2919  144.0889  157.7653 H   0  0  0  0  0  0  0  0  0  0  0  0
  151.8342  143.8061  156.9873 H   0  0  0  0  0  0  0  0  0  0  0  0
  149.5672  143.0209  155.6950 H   0  0  0  0  0  0  0  0  0  0  0  0
  148.7563  140.2778  156.1094 H   0  0  0  0  0  0  0  0  0  0  0  0
  147.5109  140.6633  154.0045 H   0  0  0  0  0  0  0  0  0  0  0  0
  148.3965  142.1608  153.7262 H   0  0  0  0  0  0  0  0  0  0  0  0
  147.2967  142.0220  155.0955 H   0  0  0  0  0  0  0  0  0  0  0  0
  150.4764  140.7619  153.6410 H   0  0  0  0  0  0  0  0  0  0  0  0
  149.3668  138.3019  155.0444 H   0  0  0  0  0  0  0  0  0  0  0  0
  149.3035  138.6825  153.3188 H   0  0  0  0  0  0  0  0  0  0  0  0
  151.2596  137.0545  154.1774 H   0  0  0  0  0  0  0  0  0  0  0  0
  151.7105  138.3962  153.1154 H   0  0  0  0  0  0  0  0  0  0  0  0
  151.8699  138.3117  156.1516 H   0  0  0  0  0  0  0  0  0  0  0  0
  153.1125  138.8620  155.0241 H   0  0  0  0  0  0  0  0  0  0  0  0
  1  2  1  0  0  0  0
  1 19  1  0  0  0  0
  1 20  1  0  0  0  0
  1 21  1  0  0  0  0
  2 18  2  0  0  0  0
  2  3  1  0  0  0  0
  3  4  2  0  0  0  0
  3 22  1  0  0  0  0
  4  5  1  0  0  0  0
  4  6  1  0  0  0  0
  5 23  1  0  0  0  0
  5 24  1  0  0  0  0
  5 25  1  0  0  0  0
  6  7  1  0  0  0  0
  6 18  1  0  0  0  0
  7  8  1  0  0  0  0
  7 26  1  0  0  0  0
  7 27  1  0  0  0  0
  8  9  2  0  0  0  0
  8 10  1  0  0  0  0
 10 11  1  0  0  0  0
 10 28  1  0  0  0  0
 11 12  1  0  0  0  0
 11 13  1  0  0  0  0
 11 29  1  0  0  0  0
 12 30  1  0  0  0  0
 12 31  1  0  0  0  0
 12 32  1  0  0  0  0
 13 17  1  0  0  0  0
 13 14  1  0  0  0  0
 13 33  1  0  0  0  0
 14 15  1  0  0  0  0
 14 34  1  0  0  0  0
 14 35  1  0  0  0  0
 15 16  1  0  0  0  0
 15 36  1  0  0  0  0
 15 37  1  0  0  0  0
 16 17  1  0  0  0  0
 16 38  1  0  0  0  0
 16 39  1  0  0  0  0
M  END
> <s_m_source_file>
AV-unprocessed.smi

> <i_m_source_file_index>
2204

> <i_lp_mmshare_version>
43012

> <i_f3d_flags>
0

> <s_epik_input>
W0NIM11jMVtjSF1jKFtDSDNdKW4objEpW0NIMl1DKD1PKVtOSF1bQ0BIXShbQ0gzXSlbQ0BASF0yW0NIMl1bQ0gyXVtDSDJdTzI=

> <s_epik_cmdline>
J2VwaWtfcHl0aG9uJywgJy1waCcsICc3LjAnLCAnLXRuJywgJzgnLCAnLW1hJywgJzIwMCcsICctbWV0YWxfYmluZGluZycsICctaW1hZScsICc8aW5maWxlLm1hZT4nLCAnLW9tYWUnLCAnPG91dGZpbGUubWFlPic=

> <r_lp_tautomer_probability>
1

> <r_epik_Ionization_Penalty>
0.000433354

> <r_epik_Ionization_Penalty_Charging>
0

> <r_epik_Ionization_Penalty_Neutral>
0.000433354

> <r_epik_State_Penalty>
-0

> <r_epik_Charging_Adjusted_Penalty>
0

> <i_epik_Tot_Q>
0

> <i_epik_Tot_abs_Q>
0

> <r_epik_Metal_State_Penalty>
-0

> <b_epik_Metal_Only>
0

> <s_lp_Force_Field>
OPLS_2005

> <r_lp_Energy>
17.6032

> <b_lp_Chiralities_Consistent>
1

> <s_lp_Variant>
AV-unprocessed.smi:2204-2

> <Gold.Version>
5.8.1

> <Gold.Id.Protein>
6NUR|6NUR_protein|mol2

> <Gold.PLP.Fitness>
47.6896

> <Gold.PLP.PLP>
-46.6313

> <Gold.PLP.part.hbond>
-2.0000

> <Gold.PLP.part.metal>
0.0000

> <Gold.PLP.part.buried>
-4.0313

> <Gold.PLP.part.nonpolar>
-40.5580

> <Gold.PLP.part.repulsive>
0.1498

> <Gold.PLP.ligand.clash>
0.0000

> <Gold.PLP.ligand.torsion>
0.9683

> <Gold.PLP.Chemscore.Hbond>
0.9920

> <Gold.PLP.Chemscore.CHOScore>
0.0000

> <Gold.PLP.Chemscore.Metal>
0.0000

> <Gold.Chemscore.Hbonds>
donor molecule, donor type, donor heavy atom, donor atom, acceptor molecule, acceptor atom, score
      L1  H    10    28       P1  8028  1.00

> <Gold.PLP.Chemscore.Internal.Correction>
0.0189

> <Gold.Rescore>
     Score         DG    S(hbond)    S(metal)    S(lipo)     H(rot)  DE(clash)    DE(int)     intcor
     12.37     -17.57       0.99        0.00     107.90       1.50       0.10       5.10       ----

> <Gold.Chemscore.Fitness>
12.3722

> <Gold.Chemscore.DG>
-17.5745

> <Gold.Chemscore.ZeroCoef>
-5.4800

> <Gold.Chemscore.Hbond>
0.9915

> <Gold.Chemscore.Metal>
0.0000

> <Gold.Chemscore.Lipo>
107.8990

> <Gold.Chemscore.Internal_Hbond>
0.0000

> <Gold.Chemscore.DEClash>
0.1049

> <Gold.Chemscore.DEInternal>
5.0973

> <Gold.Chemscore.Rot>
1.5005

> <Gold.Chemscore.Internal.Correction>
   9.000000E+99

> <Gold.Chemscore.Hbonds>
donor molecule, donor type, donor heavy atom, donor atom, acceptor molecule, acceptor atom, score
      L1  H    10    28       P1  8028  0.99

> <Gold.Chemscore.Hbond.Weighted>
-3.3115

> <Gold.Chemscore.Metal.Weighted>
-0.0000

> <Gold.Chemscore.Lipo.Weighted>
-12.6242

> <Gold.Chemscore.Internal_Hbond.Weighted>
0.0000

> <Gold.Chemscore.DEClash.Weighted>
0.1049

> <Gold.Chemscore.DEInternal.Weighted>
5.0973

> <Gold.Chemscore.Rot.Weighted>
3.8412

> <Gold.Chemscore.Internal.Correction.Weighted>
   9.000000E+99

> <Gold.Protein.RotatedTorsions>
[ 6907 6896 6895 6894 ] final  122.42 input  -60.11 | X-H torsion
[ 7974 7965 7964 7962 ] final  -97.39 input  175.53 | X-H torsion
[ 8008 7997 7996 7995 ] final    0.42 input   59.86 | X-H torsion
[ 10167 10162 10161 10158 ] final  -85.26 input  -65.29 | X-H torsion
[ 10718 10713 10712 10709 ] final  166.78 input   66.30 | X-H torsion
[ 10763 10752 10751 10750 ] final  -97.32 input  -60.55 | X-H torsion
[ 11005 11000 10999 10996 ] final -116.11 input  -57.11 | X-H torsion

> <Gold.Protein.ActiveResidues>
 VAL166  LYS551  ARG553  GLY616  TRP617  ASP618  TYR619  PRO620  LYS621  CYS622 
 ASP623  PHE694  ASN695  SER759  ASP760  ASP761  ALA762  ILE779  LEU786  VAL792 
 PHE793  MET794  SER795  GLU796  ALA797  LYS798  CYS799  TRP800  GLU811  SER814 

> <Gold.Protein.RotatedAtoms>
  152.4244  133.7170  159.6511 H   0  0  0  0  0  0  0  0  0  0  0  0  # atno 6907 bound_to 6896
  150.8120  133.8394  159.3184 H   0  0  0  0  0  0  0  0  0  0  0  0  # atno 6908 bound_to 6896
  151.6101  135.1043  160.0131 H   0  0  0  0  0  0  0  0  0  0  0  0  # atno 6909 bound_to 6896
  145.3344  140.9448  143.2643 H   0  0  0  0  0  0  0  0  0  0  0  0  # atno 7974 bound_to 7965
  154.6679  140.2605  155.7039 H   0  0  0  0  0  0  0  0  0  0  0  0  # atno 8008 bound_to 7997
  156.2646  140.2835  156.1098 H   0  0  0  0  0  0  0  0  0  0  0  0  # atno 8009 bound_to 7997
  155.1212  140.0377  157.2740 H   0  0  0  0  0  0  0  0  0  0  0  0  # atno 8010 bound_to 7997
  140.4054  143.2645  151.9088 H   0  0  0  0  0  0  0  0  0  0  0  0  # atno 10167 bound_to 10162
  157.0610  131.0340  151.2647 H   0  0  0  0  0  0  0  0  0  0  0  0  # atno 10718 bound_to 10713
  154.7318  135.5051  153.8976 H   0  0  0  0  0  0  0  0  0  0  0  0  # atno 10763 bound_to 10752
  153.0957  135.6671  153.9777 H   0  0  0  0  0  0  0  0  0  0  0  0  # atno 10764 bound_to 10752
  153.9576  135.3051  155.3414 H   0  0  0  0  0  0  0  0  0  0  0  0  # atno 10765 bound_to 10752
  141.0444  133.9786  157.2942 H   0  0  0  0  0  0  0  0  0  0  0  0  # atno 11005 bound_to 11000
  144.8839  139.4866  143.6710 LP  0  0  0  0  0  0  0  0  0  0  0  0  # atno 17320 bound_to 7965
  146.3033  139.7496  142.9075 LP  0  0  0  0  0  0  0  0  0  0  0  0  # atno 17321 bound_to 7965
  139.4783  144.5591  151.8267 LP  0  0  0  0  0  0  0  0  0  0  0  0  # atno 17342 bound_to 10162
  140.4695  144.1607  150.5916 LP  0  0  0  0  0  0  0  0  0  0  0  0  # atno 17343 bound_to 10162
  157.4954  130.7848  149.7550 LP  0  0  0  0  0  0  0  0  0  0  0  0  # atno 17370 bound_to 10713
  155.9978  130.3897  150.2725 LP  0  0  0  0  0  0  0  0  0  0  0  0  # atno 17371 bound_to 10713
  139.9300  135.0200  156.8368 LP  0  0  0  0  0  0  0  0  0  0  0  0  # atno 17394 bound_to 11000
  140.6174  134.0025  155.7603 LP  0  0  0  0  0  0  0  0  0  0  0  0  # atno 17395 bound_to 11000

$$$$
