AV-unprocessed.smi:167|AV-procd|sdf|1395|dock1
  -GOLD-   2262019133D 1   1.00000     0.00000
 Structure written by MMmdl.
 51 55  0  0  0  0  0  0  0  0  1 V2000
  148.7614  142.0860  154.3216 O   0  0  0  0  0  0  0  0  0  0  0  0
  148.9442  141.1202  155.3347 C   0  0  0  0  0  0  0  0  0  0  0  0
  149.4602  141.7925  156.6215 C   0  0  1  0  0  0  0  0  0  0  0  0
  149.3754  140.9019  157.8783 C   0  0  0  0  0  0  0  0  0  0  0  0
  150.8307  140.9453  158.3891 C   0  0  2  0  0  0  0  0  0  0  0  0
  151.1205  142.3405  158.9700 C   0  0  0  0  0  0  0  0  0  0  0  0
  151.2548  143.1783  157.6874 C   0  0  0  0  0  0  0  0  0  0  0  0
  150.9746  142.1214  156.6035 C   0  0  1  0  0  0  0  0  0  0  0  0
  151.6254  140.9487  157.1707 N   0  0  0  0  0  0  0  0  0  0  0  0
  151.8011  139.8157  156.4379 C   0  0  0  0  0  0  0  0  0  0  0  0
  152.6398  139.8474  155.3684 N   0  0  0  0  0  0  0  0  0  0  0  0
  152.8469  138.7505  154.6354 C   0  0  0  0  0  0  0  0  0  0  0  0
  152.3180  137.5356  154.7857 N   0  0  0  0  0  0  0  0  0  0  0  0
  151.4570  137.4979  155.8425 C   0  0  0  0  0  0  0  0  0  0  0  0
  151.1407  138.5819  156.7117 C   0  0  0  0  0  0  0  0  0  0  0  0
  150.2244  138.1597  157.6676 N   0  0  0  0  0  0  0  0  0  0  0  0
  150.0258  136.9001  157.3926 C   0  0  0  0  0  0  0  0  0  0  0  0
  150.7157  136.4220  156.3014 N   0  0  0  0  0  0  0  0  0  0  0  0
  150.7035  135.0803  155.7904 C   0  0  0  0  0  0  0  0  0  0  0  0
  150.5960  134.7865  154.2898 C   0  0  0  0  0  0  0  0  0  0  0  0
  149.7813  133.5117  154.6128 C   0  0  0  0  0  0  0  0  0  0  0  0
  148.5891  133.2039  153.6855 C   0  0  0  0  0  0  0  0  0  0  0  0
  147.8558  134.3627  153.3406 O   0  0  0  0  0  0  0  0  0  0  0  0
  150.6320  132.2307  154.7018 C   0  0  0  0  0  0  0  0  0  0  0  0
  149.9364  131.1869  155.3531 O   0  0  0  0  0  0  0  0  0  0  0  0
  149.4682  134.1959  155.9647 C   0  0  0  0  0  0  0  0  0  0  0  0
  148.6135  142.9253  154.7304 H   0  0  0  0  0  0  0  0  0  0  0  0
  148.0008  140.6006  155.4974 H   0  0  0  0  0  0  0  0  0  0  0  0
  149.6627  140.3808  154.9806 H   0  0  0  0  0  0  0  0  0  0  0  0
  148.8918  142.7123  156.7690 H   0  0  0  0  0  0  0  0  0  0  0  0
  148.6608  141.2765  158.6118 H   0  0  0  0  0  0  0  0  0  0  0  0
  149.0851  139.8813  157.6251 H   0  0  0  0  0  0  0  0  0  0  0  0
  151.0680  140.1450  159.0910 H   0  0  0  0  0  0  0  0  0  0  0  0
  150.3266  142.6947  159.6284 H   0  0  0  0  0  0  0  0  0  0  0  0
  152.0561  142.3453  159.5306 H   0  0  0  0  0  0  0  0  0  0  0  0
  150.5644  144.0218  157.6538 H   0  0  0  0  0  0  0  0  0  0  0  0
  152.2684  143.5696  157.5924 H   0  0  0  0  0  0  0  0  0  0  0  0
  151.3372  142.4425  155.6287 H   0  0  0  0  0  0  0  0  0  0  0  0
  153.5361  138.8621  153.8116 H   0  0  0  0  0  0  0  0  0  0  0  0
  149.3666  136.2848  157.9872 H   0  0  0  0  0  0  0  0  0  0  0  0
  151.5848  134.5825  156.1982 H   0  0  0  0  0  0  0  0  0  0  0  0
  150.0286  135.5413  153.7452 H   0  0  0  0  0  0  0  0  0  0  0  0
  151.5536  134.6032  153.8016 H   0  0  0  0  0  0  0  0  0  0  0  0
  148.9282  132.7346  152.7615 H   0  0  0  0  0  0  0  0  0  0  0  0
  147.8951  132.5068  154.1556 H   0  0  0  0  0  0  0  0  0  0  0  0
  148.3588  134.8597  152.7134 H   0  0  0  0  0  0  0  0  0  0  0  0
  150.9288  131.8877  153.7099 H   0  0  0  0  0  0  0  0  0  0  0  0
  151.5568  132.4068  155.2516 H   0  0  0  0  0  0  0  0  0  0  0  0
  149.0468  131.1738  155.0341 H   0  0  0  0  0  0  0  0  0  0  0  0
  149.5082  133.5403  156.8352 H   0  0  0  0  0  0  0  0  0  0  0  0
  148.5425  134.7733  155.9589 H   0  0  0  0  0  0  0  0  0  0  0  0
  1  2  1  0  0  0  0
  1 27  1  0  0  0  0
  2  3  1  0  0  0  0
  2 28  1  0  0  0  0
  2 29  1  0  0  0  0
  3  8  1  0  0  0  0
  3  4  1  0  0  0  0
  3 30  1  0  0  0  0
  4  5  1  0  0  0  0
  4 31  1  0  0  0  0
  4 32  1  0  0  0  0
  5  9  1  0  0  0  0
  5  6  1  0  0  0  0
  5 33  1  0  0  0  0
  6  7  1  0  0  0  0
  6 34  1  0  0  0  0
  6 35  1  0  0  0  0
  7  8  1  0  0  0  0
  7 36  1  0  0  0  0
  7 37  1  0  0  0  0
  8  9  1  0  0  0  0
  8 38  1  0  0  0  0
  9 10  1  0  0  0  0
 10 15  1  0  0  0  0
 10 11  2  0  0  0  0
 11 12  1  0  0  0  0
 12 13  2  0  0  0  0
 12 39  1  0  0  0  0
 13 14  1  0  0  0  0
 14 18  1  0  0  0  0
 14 15  2  0  0  0  0
 15 16  1  0  0  0  0
 16 17  2  0  0  0  0
 17 18  1  0  0  0  0
 17 40  1  0  0  0  0
 18 19  1  0  0  0  0
 19 26  1  0  0  0  0
 19 20  1  0  0  0  0
 19 41  1  0  0  0  0
 20 21  1  0  0  0  0
 20 42  1  0  0  0  0
 20 43  1  0  0  0  0
 21 22  1  0  0  0  0
 21 24  1  0  0  0  0
 21 26  1  0  0  0  0
 22 23  1  0  0  0  0
 22 44  1  0  0  0  0
 22 45  1  0  0  0  0
 23 46  1  0  0  0  0
 24 25  1  0  0  0  0
 24 47  1  0  0  0  0
 24 48  1  0  0  0  0
 25 49  1  0  0  0  0
 26 50  1  0  0  0  0
 26 51  1  0  0  0  0
M  END
> <s_m_source_file>
AV-unprocessed.smi

> <i_m_source_file_index>
167

> <i_lp_mmshare_version>
43012

> <i_f3d_flags>
0

> <s_epik_input>
W09IXVtDSDJdW0NASF0oW0NIMl1bQ0BASF0xMilbQ0BIXShbQ0gyXVtDSDJdMSlOMmMobltjSF1uMyljKGMzNCluW2NIXW40W0NIXShbQ0gyXTUpW0NIMl1DNShbQ0gyXVtPSF0pW0NIMl1bT0hd

> <s_epik_cmdline>
J2VwaWtfcHl0aG9uJywgJy1waCcsICc3LjAnLCAnLXRuJywgJzgnLCAnLW1hJywgJzIwMCcsICctbWV0YWxfYmluZGluZycsICctaW1hZScsICc8aW5maWxlLm1hZT4nLCAnLW9tYWUnLCAnPG91dGZpbGUubWFlPic=

> <r_lp_tautomer_probability>
1

> <r_epik_Ionization_Penalty>
0.0047903

> <r_epik_Ionization_Penalty_Charging>
0

> <r_epik_Ionization_Penalty_Neutral>
0.0047903

> <r_epik_State_Penalty>
0.00341021

> <r_epik_Charging_Adjusted_Penalty>
0.00341021

> <i_epik_Tot_Q>
0

> <i_epik_Tot_abs_Q>
0

> <r_epik_Metal_State_Penalty>
-0

> <b_epik_Metal_Only>
0

> <s_lp_Force_Field>
OPLS_2005

> <r_lp_Energy>
89.2094

> <b_lp_Chiralities_Consistent>
1

> <s_lp_Variant>
AV-unprocessed.smi:167-4

> <Gold.Version>
5.8.1

> <Gold.Id.Protein>
6NUR|6NUR_protein|mol2

> <Gold.PLP.Fitness>
48.5354

> <Gold.PLP.PLP>
-37.5217

> <Gold.PLP.part.hbond>
-5.4887

> <Gold.PLP.part.metal>
0.0000

> <Gold.PLP.part.buried>
-5.9535

> <Gold.PLP.part.nonpolar>
-26.1636

> <Gold.PLP.part.repulsive>
0.0903

> <Gold.PLP.ligand.clash>
0.0000

> <Gold.PLP.ligand.torsion>
0.9579

> <Gold.PLP.Chemscore.Hbond>
4.1289

> <Gold.PLP.Chemscore.CHOScore>
0.0000

> <Gold.PLP.Chemscore.Metal>
0.0000

> <Gold.Chemscore.Hbonds>
donor molecule, donor type, donor heavy atom, donor atom, acceptor molecule, acceptor atom, score
      L1  H     1    27       P1  8028  1.00
      L1  H    23    46       P1  7948  1.00
      P1  H  7989  7998       L1    11  0.06
      P1  H  7997  8009       L1    11  1.00
      P1  H  8011  8017       L1     1  0.15
      P1  H 10752 10765       L1    13  0.66

> <Gold.PLP.Chemscore.Internal.Correction>
0.5427

> <Gold.Rescore>
     Score         DG    S(hbond)    S(metal)    S(lipo)     H(rot)  DE(clash)    DE(int)     intcor
      9.97     -14.05       2.93        0.00      81.45       4.20       0.29       3.78       ----

> <Gold.Chemscore.Fitness>
9.9744

> <Gold.Chemscore.DG>
-14.0491

> <Gold.Chemscore.ZeroCoef>
-5.4800

> <Gold.Chemscore.Hbond>
2.9344

> <Gold.Chemscore.Metal>
0.0000

> <Gold.Chemscore.Lipo>
81.4520

> <Gold.Chemscore.Internal_Hbond>
0.0000

> <Gold.Chemscore.DEClash>
0.2926

> <Gold.Chemscore.DEInternal>
3.7821

> <Gold.Chemscore.Rot>
4.2038

> <Gold.Chemscore.Internal.Correction>
   9.000000E+99

> <Gold.Chemscore.Hbonds>
donor molecule, donor type, donor heavy atom, donor atom, acceptor molecule, acceptor atom, score
      L1  H     1    27       P1  8028  0.94
      L1  H    23    46       P1  7948  0.55
      P1  H  7997  8009       L1    11  0.17
      P1  H  8011  8017       L1     1  0.10
      P1  H 10752 10765       L1    13  0.31

> <Gold.Chemscore.Hbond.Weighted>
-9.8009

> <Gold.Chemscore.Metal.Weighted>
-0.0000

> <Gold.Chemscore.Lipo.Weighted>
-9.5299

> <Gold.Chemscore.Internal_Hbond.Weighted>
0.0000

> <Gold.Chemscore.DEClash.Weighted>
0.2926

> <Gold.Chemscore.DEInternal.Weighted>
3.7821

> <Gold.Chemscore.Rot.Weighted>
10.7617

> <Gold.Chemscore.Internal.Correction.Weighted>
   9.000000E+99

> <Gold.Protein.RotatedTorsions>
[ 6907 6896 6895 6894 ] final  -27.97 input  -60.11 | X-H torsion
[ 7974 7965 7964 7962 ] final   72.74 input  175.53 | X-H torsion
[ 8008 7997 7996 7995 ] final -149.18 input   59.86 | X-H torsion
[ 10167 10162 10161 10158 ] final    4.26 input  -65.29 | X-H torsion
[ 10718 10713 10712 10709 ] final   80.79 input   66.30 | X-H torsion
[ 10763 10752 10751 10750 ] final -179.32 input  -60.55 | X-H torsion
[ 11005 11000 10999 10996 ] final  -42.37 input  -57.11 | X-H torsion

> <Gold.Protein.ActiveResidues>
 VAL166  LYS551  ARG553  GLY616  TRP617  ASP618  TYR619  PRO620  LYS621  CYS622 
 ASP623  PHE694  ASN695  SER759  ASP760  ASP761  ALA762  ILE779  LEU786  VAL792 
 PHE793  MET794  SER795  GLU796  ALA797  LYS798  CYS799  TRP800  GLU811  SER814 

> <Gold.Protein.RotatedAtoms>
  151.1394  135.0172  159.8618 H   0  0  0  0  0  0  0  0  0  0  0  0  # atno 6907 bound_to 6896
  152.5452  134.1517  159.8531 H   0  0  0  0  0  0  0  0  0  0  0  0  # atno 6908 bound_to 6896
  151.1591  133.4811  159.2627 H   0  0  0  0  0  0  0  0  0  0  0  0  # atno 6909 bound_to 6896
  145.7496  139.2754  143.1439 H   0  0  0  0  0  0  0  0  0  0  0  0  # atno 7974 bound_to 7965
  155.6035  140.0664  157.2726 H   0  0  0  0  0  0  0  0  0  0  0  0  # atno 8008 bound_to 7997
  154.4272  140.1814  156.1245 H   0  0  0  0  0  0  0  0  0  0  0  0  # atno 8009 bound_to 7997
  156.0141  140.3323  155.6974 H   0  0  0  0  0  0  0  0  0  0  0  0  # atno 8010 bound_to 7997
  140.6544  143.7465  150.7628 H   0  0  0  0  0  0  0  0  0  0  0  0  # atno 10167 bound_to 10162
  157.6816  130.9975  150.2131 H   0  0  0  0  0  0  0  0  0  0  0  0  # atno 10718 bound_to 10713
  154.5366  135.2803  155.1133 H   0  0  0  0  0  0  0  0  0  0  0  0  # atno 10763 bound_to 10752
  154.2632  135.6318  153.5286 H   0  0  0  0  0  0  0  0  0  0  0  0  # atno 10764 bound_to 10752
  152.9969  135.5610  154.5894 H   0  0  0  0  0  0  0  0  0  0  0  0  # atno 10765 bound_to 10752
  141.0311  133.6820  156.2585 H   0  0  0  0  0  0  0  0  0  0  0  0  # atno 11005 bound_to 11000
  146.0369  140.8203  142.9848 LP  0  0  0  0  0  0  0  0  0  0  0  0  # atno 17320 bound_to 7965
  144.6852  140.2853  143.7286 LP  0  0  0  0  0  0  0  0  0  0  0  0  # atno 17321 bound_to 7965
  140.1122  143.4689  152.2363 LP  0  0  0  0  0  0  0  0  0  0  0  0  # atno 17342 bound_to 10162
  139.5764  144.7489  151.3755 LP  0  0  0  0  0  0  0  0  0  0  0  0  # atno 17343 bound_to 10162
  156.2798  130.3732  149.7947 LP  0  0  0  0  0  0  0  0  0  0  0  0  # atno 17370 bound_to 10713
  156.5638  130.8395  151.3337 LP  0  0  0  0  0  0  0  0  0  0  0  0  # atno 17371 bound_to 10713
  140.6406  134.5170  157.5569 LP  0  0  0  0  0  0  0  0  0  0  0  0  # atno 17394 bound_to 11000
  139.9208  134.8152  156.1217 LP  0  0  0  0  0  0  0  0  0  0  0  0  # atno 17395 bound_to 11000

$$$$
