AV-unprocessed.smi:2737|AV-procd|sdf|10547|dock1
  -GOLD-   2272014593D 1   1.00000     0.00000
 Structure written by MMmdl.
 43 44  0  0  0  0  0  0  0  0  1 V2000
  143.4289  140.8594  157.1220 C   0  0  0  0  0  0  0  0  0  0  0  0
  143.3680  141.9579  156.2169 O   0  0  0  0  0  0  0  0  0  0  0  0
  144.4523  142.8947  156.2271 C   0  0  0  0  0  0  0  0  0  0  0  0
  144.1956  144.0599  155.2462 C   0  0  0  0  0  0  0  0  0  0  0  0
  144.5080  143.4233  157.6689 C   0  0  0  0  0  0  0  0  0  0  0  0
  145.7197  142.1471  155.9062 C   0  0  0  0  0  0  0  0  0  0  0  0
  146.6102  142.4542  154.9634 N   0  0  0  0  0  0  0  0  0  0  0  0
  147.6011  141.5583  155.2277 C   0  0  0  0  0  0  0  0  0  0  0  0
  148.8497  141.4656  154.4106 C   0  0  0  0  0  0  0  0  0  0  0  0
  150.0807  141.4157  155.3169 C   0  0  0  0  0  0  0  0  0  0  0  0
  150.9220  140.5302  155.1641 O   0  0  0  0  0  0  0  0  0  0  0  0
  150.1734  142.3711  156.2555 N   0  0  0  0  0  0  0  0  0  0  0  0
  151.2500  142.4921  157.2341 C   0  0  0  0  0  0  0  0  0  0  0  0
  151.0167  141.4927  158.3831 C   0  0  0  0  0  0  0  0  0  0  0  0
  152.1014  141.6178  159.4656 C   0  0  0  0  0  0  0  0  0  0  0  0
  152.1918  143.0559  160.0004 C   0  0  0  0  0  0  0  0  0  0  0  0
  152.4262  144.0581  158.8593 C   0  0  0  0  0  0  0  0  0  0  0  0
  151.3427  143.9344  157.7758 C   0  0  0  0  0  0  0  0  0  0  0  0
  147.3969  140.7616  156.2691 N   0  0  0  0  0  0  0  0  0  0  0  0
  146.1518  141.1817  156.7567 O   0  0  0  0  0  0  0  0  0  0  0  0
  142.4797  140.3244  157.0955 H   0  0  0  0  0  0  0  0  0  0  0  0
  143.5993  141.1750  158.1514 H   0  0  0  0  0  0  0  0  0  0  0  0
  144.2061  140.1491  156.8397 H   0  0  0  0  0  0  0  0  0  0  0  0
  144.9691  144.8235  155.3345 H   0  0  0  0  0  0  0  0  0  0  0  0
  143.2381  144.5405  155.4480 H   0  0  0  0  0  0  0  0  0  0  0  0
  144.1937  143.7304  154.2071 H   0  0  0  0  0  0  0  0  0  0  0  0
  145.3294  144.1284  157.8017 H   0  0  0  0  0  0  0  0  0  0  0  0
  144.6521  142.6105  158.3820 H   0  0  0  0  0  0  0  0  0  0  0  0
  143.5841  143.9366  157.9370 H   0  0  0  0  0  0  0  0  0  0  0  0
  148.8180  140.5721  153.7852 H   0  0  0  0  0  0  0  0  0  0  0  0
  148.9123  142.3210  153.7364 H   0  0  0  0  0  0  0  0  0  0  0  0
  149.4338  143.0567  156.3071 H   0  0  0  0  0  0  0  0  0  0  0  0
  152.1946  142.2356  156.7501 H   0  0  0  0  0  0  0  0  0  0  0  0
  150.0376  141.6668  158.8323 H   0  0  0  0  0  0  0  0  0  0  0  0
  151.0013  140.4732  157.9953 H   0  0  0  0  0  0  0  0  0  0  0  0
  151.8910  140.9288  160.2842 H   0  0  0  0  0  0  0  0  0  0  0  0
  153.0658  141.3205  159.0518 H   0  0  0  0  0  0  0  0  0  0  0  0
  151.2701  143.3094  160.5257 H   0  0  0  0  0  0  0  0  0  0  0  0
  152.9960  143.1310  160.7327 H   0  0  0  0  0  0  0  0  0  0  0  0
  152.4427  145.0743  159.2543 H   0  0  0  0  0  0  0  0  0  0  0  0
  153.4070  143.8835  158.4155 H   0  0  0  0  0  0  0  0  0  0  0  0
  151.5599  144.6307  156.9651 H   0  0  0  0  0  0  0  0  0  0  0  0
  150.3800  144.2359  158.1916 H   0  0  0  0  0  0  0  0  0  0  0  0
  1  2  1  0  0  0  0
  1 21  1  0  0  0  0
  1 22  1  0  0  0  0
  1 23  1  0  0  0  0
  2  3  1  0  0  0  0
  3  4  1  0  0  0  0
  3  5  1  0  0  0  0
  3  6  1  0  0  0  0
  4 24  1  0  0  0  0
  4 25  1  0  0  0  0
  4 26  1  0  0  0  0
  5 27  1  0  0  0  0
  5 28  1  0  0  0  0
  5 29  1  0  0  0  0
  6 20  1  0  0  0  0
  6  7  2  0  0  0  0
  7  8  1  0  0  0  0
  8  9  1  0  0  0  0
  8 19  2  0  0  0  0
  9 10  1  0  0  0  0
  9 30  1  0  0  0  0
  9 31  1  0  0  0  0
 10 11  2  0  0  0  0
 10 12  1  0  0  0  0
 12 13  1  0  0  0  0
 12 32  1  0  0  0  0
 13 18  1  0  0  0  0
 13 14  1  0  0  0  0
 13 33  1  0  0  0  0
 14 15  1  0  0  0  0
 14 34  1  0  0  0  0
 14 35  1  0  0  0  0
 15 16  1  0  0  0  0
 15 36  1  0  0  0  0
 15 37  1  0  0  0  0
 16 17  1  0  0  0  0
 16 38  1  0  0  0  0
 16 39  1  0  0  0  0
 17 18  1  0  0  0  0
 17 40  1  0  0  0  0
 17 41  1  0  0  0  0
 18 42  1  0  0  0  0
 18 43  1  0  0  0  0
 19 20  1  0  0  0  0
M  END
> <s_m_source_file>
AV-unprocessed.smi

> <i_m_source_file_index>
2737

> <i_lp_mmshare_version>
43012

> <i_f3d_flags>
0

> <s_epik_input>
W0NIM11PQyhbQ0gzXSkoW0NIM10pYzFuYyhubzEpW0NIMl1DKD1PKVtOSF1bQ0hdMltDSDJdW0NIMl1bQ0gyXVtDSDJdW0NIMl0y

> <s_epik_cmdline>
J2VwaWtfcHl0aG9uJywgJy1waCcsICc3LjAnLCAnLXRuJywgJzgnLCAnLW1hJywgJzIwMCcsICctbWV0YWxfYmluZGluZycsICctaW1hZScsICc8aW5maWxlLm1hZT4nLCAnLW9tYWUnLCAnPG91dGZpbGUubWFlPic=

> <r_lp_tautomer_probability>
1

> <r_epik_Ionization_Penalty>
6.23621e-08

> <r_epik_Ionization_Penalty_Charging>
0

> <r_epik_Ionization_Penalty_Neutral>
6.23621e-08

> <r_epik_State_Penalty>
-0

> <r_epik_Charging_Adjusted_Penalty>
0

> <i_epik_Tot_Q>
0

> <i_epik_Tot_abs_Q>
0

> <r_epik_Metal_State_Penalty>
-0

> <b_epik_Metal_Only>
0

> <s_lp_Force_Field>
OPLS_2005

> <r_lp_Energy>
12.1287

> <b_lp_Chiralities_Consistent>
1

> <s_lp_Variant>
AV-unprocessed.smi:2737-1

> <Gold.Version>
5.8.1

> <Gold.Id.Protein>
6NUR|6NUR_protein|mol2

> <Gold.PLP.Fitness>
40.2729

> <Gold.PLP.PLP>
-35.2653

> <Gold.PLP.part.hbond>
-2.0000

> <Gold.PLP.part.metal>
0.0000

> <Gold.PLP.part.buried>
-4.3355

> <Gold.PLP.part.nonpolar>
-29.0044

> <Gold.PLP.part.repulsive>
0.6184

> <Gold.PLP.ligand.clash>
0.0000

> <Gold.PLP.ligand.torsion>
0.6165

> <Gold.PLP.Chemscore.Hbond>
1.9920

> <Gold.PLP.Chemscore.CHOScore>
0.0000

> <Gold.PLP.Chemscore.Metal>
0.0000

> <Gold.Chemscore.Hbonds>
donor molecule, donor type, donor heavy atom, donor atom, acceptor molecule, acceptor atom, score
      L1  H    12    32       P1  8028  0.86
      P1  H  7989  7998       L1    11  0.98

> <Gold.PLP.Chemscore.Internal.Correction>
0.2646

> <Gold.Rescore>
     Score         DG    S(hbond)    S(metal)    S(lipo)     H(rot)  DE(clash)    DE(int)     intcor
     13.04     -15.28       1.64        0.00      77.58       1.86       0.38       1.85       ----

> <Gold.Chemscore.Fitness>
13.0422

> <Gold.Chemscore.DG>
-15.2753

> <Gold.Chemscore.ZeroCoef>
-5.4800

> <Gold.Chemscore.Hbond>
1.6405

> <Gold.Chemscore.Metal>
0.0000

> <Gold.Chemscore.Lipo>
77.5771

> <Gold.Chemscore.Internal_Hbond>
0.0000

> <Gold.Chemscore.DEClash>
0.3844

> <Gold.Chemscore.DEInternal>
1.8487

> <Gold.Chemscore.Rot>
1.8596

> <Gold.Chemscore.Internal.Correction>
   9.000000E+99

> <Gold.Chemscore.Hbonds>
donor molecule, donor type, donor heavy atom, donor atom, acceptor molecule, acceptor atom, score
      L1  H    12    32       P1  8028  0.86
      P1  H  7989  7998       L1    11  0.42

> <Gold.Chemscore.Hbond.Weighted>
-5.4793

> <Gold.Chemscore.Metal.Weighted>
-0.0000

> <Gold.Chemscore.Lipo.Weighted>
-9.0765

> <Gold.Chemscore.Internal_Hbond.Weighted>
0.0000

> <Gold.Chemscore.DEClash.Weighted>
0.3844

> <Gold.Chemscore.DEInternal.Weighted>
1.8487

> <Gold.Chemscore.Rot.Weighted>
4.7605

> <Gold.Chemscore.Internal.Correction.Weighted>
   9.000000E+99

> <Gold.Protein.RotatedTorsions>
[ 6907 6896 6895 6894 ] final  -24.83 input  -60.11 | X-H torsion
[ 7974 7965 7964 7962 ] final  129.97 input  175.53 | X-H torsion
[ 8008 7997 7996 7995 ] final  -86.02 input   59.86 | X-H torsion
[ 10167 10162 10161 10158 ] final  -23.25 input  -65.29 | X-H torsion
[ 10718 10713 10712 10709 ] final  -19.75 input   66.30 | X-H torsion
[ 10763 10752 10751 10750 ] final   82.09 input  -60.55 | X-H torsion
[ 11005 11000 10999 10996 ] final   -0.09 input  -57.11 | X-H torsion

> <Gold.Protein.ActiveResidues>
 VAL166  LYS551  ARG553  GLY616  TRP617  ASP618  TYR619  PRO620  LYS621  CYS622 
 ASP623  PHE694  ASN695  SER759  ASP760  ASP761  ALA762  ILE779  LEU786  VAL792 
 PHE793  MET794  SER795  GLU796  ALA797  LYS798  CYS799  TRP800  GLU811  SER814 

> <Gold.Protein.RotatedAtoms>
  151.1838  135.0373  159.8803 H   0  0  0  0  0  0  0  0  0  0  0  0  # atno 6907 bound_to 6896
  152.5443  134.1032  159.8337 H   0  0  0  0  0  0  0  0  0  0  0  0  # atno 6908 bound_to 6896
  151.1153  133.5096  159.2636 H   0  0  0  0  0  0  0  0  0  0  0  0  # atno 6909 bound_to 6896
  145.0229  139.4115  143.5188 H   0  0  0  0  0  0  0  0  0  0  0  0  # atno 7974 bound_to 7965
  154.6472  140.0584  156.9914 H   0  0  0  0  0  0  0  0  0  0  0  0  # atno 8008 bound_to 7997
  155.1426  140.3267  155.4430 H   0  0  0  0  0  0  0  0  0  0  0  0  # atno 8009 bound_to 7997
  156.2559  140.1961  156.6541 H   0  0  0  0  0  0  0  0  0  0  0  0  # atno 8010 bound_to 7997
  140.7287  143.4460  151.0586 H   0  0  0  0  0  0  0  0  0  0  0  0  # atno 10167 bound_to 10162
  156.5413  130.4679  149.6497 H   0  0  0  0  0  0  0  0  0  0  0  0  # atno 10718 bound_to 10713
  153.1172  135.4741  154.9136 H   0  0  0  0  0  0  0  0  0  0  0  0  # atno 10763 bound_to 10752
  154.7540  135.3113  154.8506 H   0  0  0  0  0  0  0  0  0  0  0  0  # atno 10764 bound_to 10752
  153.9080  135.6868  153.4806 H   0  0  0  0  0  0  0  0  0  0  0  0  # atno 10765 bound_to 10752
  140.6324  133.9563  155.8281 H   0  0  0  0  0  0  0  0  0  0  0  0  # atno 11005 bound_to 11000
  146.3488  139.9736  142.8703 LP  0  0  0  0  0  0  0  0  0  0  0  0  # atno 17320 bound_to 7965
  145.1872  140.9795  143.4232 LP  0  0  0  0  0  0  0  0  0  0  0  0  # atno 17321 bound_to 7965
  139.8132  143.7922  152.3172 LP  0  0  0  0  0  0  0  0  0  0  0  0  # atno 17342 bound_to 10162
  139.7979  144.7385  150.9865 LP  0  0  0  0  0  0  0  0  0  0  0  0  # atno 17343 bound_to 10162
  156.2969  130.7155  151.2017 LP  0  0  0  0  0  0  0  0  0  0  0  0  # atno 17370 bound_to 10713
  157.7404  131.0516  150.5164 LP  0  0  0  0  0  0  0  0  0  0  0  0  # atno 17371 bound_to 10713
  141.0666  134.0268  157.3586 LP  0  0  0  0  0  0  0  0  0  0  0  0  # atno 17394 bound_to 11000
  139.9111  135.0190  156.7694 LP  0  0  0  0  0  0  0  0  0  0  0  0  # atno 17395 bound_to 11000

$$$$
