AV-unprocessed.smi:2090|AV-procd|sdf|8534|dock3
  -GOLD-   2272011253D 1   1.00000     0.00000
 Structure written by MMmdl.
 41 42  0  0  0  0  0  0  0  0  3 V2000
  146.2314  134.2506  162.5518 C   0  0  0  0  0  0  0  0  0  0  0  0
  147.1169  135.0456  161.6540 C   0  0  0  0  0  0  0  0  0  0  0  0
  147.8096  134.7319  160.5191 C   0  0  0  0  0  0  0  0  0  0  0  0
  148.4381  135.9590  160.1721 C   0  0  0  0  0  0  0  0  0  0  0  0
  149.2480  136.1599  159.1208 N   0  5  0  0  0  0  0  0  0  0  0  0
  149.0303  135.5019  157.9592 C   0  0  0  0  0  0  0  0  0  0  0  0
  149.8377  134.7912  157.3560 O   0  0  0  0  0  0  0  0  0  0  0  0
  147.7990  135.6790  157.4625 N   0  0  0  0  0  0  0  0  0  0  0  0
  147.3024  135.0890  156.2273 C   0  0  0  0  0  0  0  0  0  0  0  0
  148.1069  135.6058  155.0248 C   0  0  0  0  0  0  0  0  0  0  0  0
  147.6842  134.9688  153.7526 N   0  3  2  0  0  0  0  0  0  0  0  0
  146.2166  135.0563  153.5389 C   0  0  0  0  0  0  0  0  0  0  0  0
  145.8226  134.5175  152.1532 C   0  0  0  0  0  0  0  0  0  0  0  0
  146.3051  133.0707  151.9578 C   0  0  1  0  0  0  0  0  0  0  0  0
  145.9457  132.5349  150.5646 C   0  0  0  0  0  0  0  0  0  0  0  0
  147.8188  133.0024  152.2215 C   0  0  0  0  0  0  0  0  0  0  0  0
  148.1724  133.5719  153.6060 C   0  0  0  0  0  0  0  0  0  0  0  0
  148.1659  136.9272  161.0311 N   0  0  0  0  0  0  0  0  0  0  0  0
  147.3123  136.3516  161.9800 O   0  0  0  0  0  0  0  0  0  0  0  0
  146.6999  133.3020  162.8136 H   0  0  0  0  0  0  0  0  0  0  0  0
  145.2810  134.0359  162.0629 H   0  0  0  0  0  0  0  0  0  0  0  0
  146.0223  134.7894  163.4762 H   0  0  0  0  0  0  0  0  0  0  0  0
  147.8566  133.7787  160.0141 H   0  0  0  0  0  0  0  0  0  0  0  0
  147.1650  136.2646  157.9864 H   0  0  0  0  0  0  0  0  0  0  0  0
  147.3786  134.0018  156.2843 H   0  0  0  0  0  0  0  0  0  0  0  0
  146.2449  135.3355  156.1315 H   0  0  0  0  0  0  0  0  0  0  0  0
  148.0311  136.6911  154.9403 H   0  0  0  0  0  0  0  0  0  0  0  0
  149.1598  135.3841  155.2065 H   0  0  0  0  0  0  0  0  0  0  0  0
  145.6996  134.4994  154.3220 H   0  0  0  0  0  0  0  0  0  0  0  0
  145.8927  136.0947  153.6209 H   0  0  0  0  0  0  0  0  0  0  0  0
  144.7398  134.5694  152.0339 H   0  0  0  0  0  0  0  0  0  0  0  0
  146.2487  135.1583  151.3795 H   0  0  0  0  0  0  0  0  0  0  0  0
  145.8028  132.4418  152.6946 H   0  0  0  0  0  0  0  0  0  0  0  0
  146.4128  133.1277  149.7776 H   0  0  0  0  0  0  0  0  0  0  0  0
  144.8677  132.5565  150.4020 H   0  0  0  0  0  0  0  0  0  0  0  0
  146.2762  131.5027  150.4441 H   0  0  0  0  0  0  0  0  0  0  0  0
  148.1636  131.9700  152.1525 H   0  0  0  0  0  0  0  0  0  0  0  0
  148.3555  133.5591  151.4518 H   0  0  0  0  0  0  0  0  0  0  0  0
  149.2531  133.5306  153.7367 H   0  0  0  0  0  0  0  0  0  0  0  0
  147.7370  132.9490  154.3890 H   0  0  0  0  0  0  0  0  0  0  0  0
  148.1082  135.5092  153.0120 H   0  0  0  0  0  0  0  0  0  0  0  0
  1  2  1  0  0  0  0
  1 20  1  0  0  0  0
  1 21  1  0  0  0  0
  1 22  1  0  0  0  0
  2 19  1  0  0  0  0
  2  3  2  0  0  0  0
  3  4  1  0  0  0  0
  3 23  1  0  0  0  0
  4  5  1  0  0  0  0
  4 18  2  0  0  0  0
  5  6  1  0  0  0  0
  6  7  2  0  0  0  0
  6  8  1  0  0  0  0
  8  9  1  0  0  0  0
  8 24  1  0  0  0  0
  9 10  1  0  0  0  0
  9 25  1  0  0  0  0
  9 26  1  0  0  0  0
 10 11  1  0  0  0  0
 10 27  1  0  0  0  0
 10 28  1  0  0  0  0
 11 17  1  0  0  0  0
 11 12  1  0  0  0  0
 11 41  1  0  0  0  0
 12 13  1  0  0  0  0
 12 29  1  0  0  0  0
 12 30  1  0  0  0  0
 13 14  1  0  0  0  0
 13 31  1  0  0  0  0
 13 32  1  0  0  0  0
 14 15  1  0  0  0  0
 14 16  1  0  0  0  0
 14 33  1  0  0  0  0
 15 34  1  0  0  0  0
 15 35  1  0  0  0  0
 15 36  1  0  0  0  0
 16 17  1  0  0  0  0
 16 37  1  0  0  0  0
 16 38  1  0  0  0  0
 17 39  1  0  0  0  0
 17 40  1  0  0  0  0
 18 19  1  0  0  0  0
M  CHG  1   5  -1
M  CHG  1  11   1
M  END
> <s_m_source_file>
AV-unprocessed.smi

> <i_m_source_file_index>
2090

> <i_lp_mmshare_version>
43012

> <i_f3d_flags>
0

> <s_epik_input>
W0NIM11jMVtjSF1jKG5vMSlbTkhdQyg9TylbTkhdW0NIMl1bQ0gyXU4yW0NIMl1bQ0gyXVtDSF0oW0NIM10pW0NIMl1bQ0gyXTI=

> <s_epik_cmdline>
J2VwaWtfcHl0aG9uJywgJy1waCcsICc3LjAnLCAnLXRuJywgJzgnLCAnLW1hJywgJzIwMCcsICctbWV0YWxfYmluZGluZycsICctaW1hZScsICc8aW5maWxlLm1hZT4nLCAnLW9tYWUnLCAnPG91dGZpbGUubWFlPic=

> <r_epik_Ionization_Penalty>
6.22503

> <r_epik_Ionization_Penalty_Charging>
6.22494

> <r_epik_Ionization_Penalty_Neutral>
9.3589e-05

> <r_epik_State_Penalty>
6.22491

> <r_epik_Charging_Adjusted_Penalty>
12.4498

> <i_epik_Tot_Q>
0

> <i_epik_Tot_abs_Q>
2

> <r_epik_Metal_State_Penalty>
2.16853

> <b_epik_Metal_Only>
1

> <s_lp_Force_Field>
OPLS_2005

> <r_lp_Energy>
5.4778

> <b_lp_Chiralities_Consistent>
1

> <s_lp_Variant>
AV-unprocessed.smi:2090-3

> <Gold.Version>
5.8.1

> <Gold.Id.Protein>
6NUR|6NUR_protein|mol2

> <Gold.PLP.Fitness>
41.4395

> <Gold.PLP.PLP>
-27.9018

> <Gold.PLP.part.hbond>
-4.2374

> <Gold.PLP.part.metal>
0.0000

> <Gold.PLP.part.buried>
-3.3480

> <Gold.PLP.part.nonpolar>
-20.7780

> <Gold.PLP.part.repulsive>
0.0139

> <Gold.PLP.ligand.clash>
0.0000

> <Gold.PLP.ligand.torsion>
0.8251

> <Gold.PLP.Chemscore.Hbond>
5.0426

> <Gold.PLP.Chemscore.CHOScore>
0.0000

> <Gold.PLP.Chemscore.Metal>
0.0000

> <Gold.Chemscore.Hbonds>
donor molecule, donor type, donor heavy atom, donor atom, acceptor molecule, acceptor atom, score
      L1  H    11    41       P1  7948  2.00
      P1  H  6896  6909       L1     5  1.01
      P1  H  6931  6943       L1    18  1.00
      P1  H  6934  6947       L1    18  0.21

> <Gold.PLP.Chemscore.Internal.Correction>
0.0602

> <Gold.Rescore>
     Score         DG    S(hbond)    S(metal)    S(lipo)     H(rot)  DE(clash)    DE(int)     intcor
     14.18     -15.19       2.09        0.00      56.98       1.54       0.04       0.98       ----

> <Gold.Chemscore.Fitness>
14.1791

> <Gold.Chemscore.DG>
-15.1931

> <Gold.Chemscore.ZeroCoef>
-5.4800

> <Gold.Chemscore.Hbond>
2.0930

> <Gold.Chemscore.Metal>
0.0000

> <Gold.Chemscore.Lipo>
56.9840

> <Gold.Chemscore.Internal_Hbond>
0.0000

> <Gold.Chemscore.DEClash>
0.0376

> <Gold.Chemscore.DEInternal>
0.9764

> <Gold.Chemscore.Rot>
1.5409

> <Gold.Chemscore.Internal.Correction>
   9.000000E+99

> <Gold.Chemscore.Hbonds>
donor molecule, donor type, donor heavy atom, donor atom, acceptor molecule, acceptor atom, score
      L1  H    11    41       P1  7948  0.98
      P1  H  6896  6909       L1     5  0.01
      P1  H  6931  6943       L1    18  0.54
      P1  H  6934  6947       L1    18  0.05

> <Gold.Chemscore.Hbond.Weighted>
-6.9906

> <Gold.Chemscore.Metal.Weighted>
-0.0000

> <Gold.Chemscore.Lipo.Weighted>
-6.6671

> <Gold.Chemscore.Internal_Hbond.Weighted>
0.0000

> <Gold.Chemscore.DEClash.Weighted>
0.0376

> <Gold.Chemscore.DEInternal.Weighted>
0.9764

> <Gold.Chemscore.Rot.Weighted>
3.9446

> <Gold.Chemscore.Internal.Correction.Weighted>
   9.000000E+99

> <Gold.Protein.RotatedTorsions>
[ 6907 6896 6895 6894 ] final   76.96 input  -60.11 | X-H torsion
[ 7974 7965 7964 7962 ] final  -75.00 input  175.53 | X-H torsion
[ 8008 7997 7996 7995 ] final   14.18 input   59.86 | X-H torsion
[ 10167 10162 10161 10158 ] final  -56.33 input  -65.29 | X-H torsion
[ 10718 10713 10712 10709 ] final -170.51 input   66.30 | X-H torsion
[ 10763 10752 10751 10750 ] final  167.03 input  -60.55 | X-H torsion
[ 11005 11000 10999 10996 ] final  -74.62 input  -57.11 | X-H torsion

> <Gold.Protein.ActiveResidues>
 VAL166  LYS551  ARG553  GLY616  TRP617  ASP618  TYR619  PRO620  LYS621  CYS622 
 ASP623  PHE694  ASN695  SER759  ASP760  ASP761  ALA762  ILE779  LEU786  VAL792 
 PHE793  MET794  SER795  GLU796  ALA797  LYS798  CYS799  TRP800  GLU811  SER814 

> <Gold.Protein.RotatedAtoms>
  152.5097  134.3889  159.9376 H   0  0  0  0  0  0  0  0  0  0  0  0  # atno 6907 bound_to 6896
  151.3849  133.3802  159.2722 H   0  0  0  0  0  0  0  0  0  0  0  0  # atno 6908 bound_to 6896
  150.9477  134.8900  159.7711 H   0  0  0  0  0  0  0  0  0  0  0  0  # atno 6909 bound_to 6896
  145.6318  140.9335  143.1083 H   0  0  0  0  0  0  0  0  0  0  0  0  # atno 7974 bound_to 7965
  154.8448  140.2920  155.5636 H   0  0  0  0  0  0  0  0  0  0  0  0  # atno 8008 bound_to 7997
  156.3013  140.2507  156.3329 H   0  0  0  0  0  0  0  0  0  0  0  0  # atno 8009 bound_to 7997
  154.9085  140.0389  157.1922 H   0  0  0  0  0  0  0  0  0  0  0  0  # atno 8010 bound_to 7997
  140.6323  143.2465  151.5209 H   0  0  0  0  0  0  0  0  0  0  0  0  # atno 10167 bound_to 10162
  156.7272  130.9292  151.3102 H   0  0  0  0  0  0  0  0  0  0  0  0  # atno 10718 bound_to 10713
  154.3478  135.2753  155.2388 H   0  0  0  0  0  0  0  0  0  0  0  0  # atno 10763 bound_to 10752
  154.4631  135.5902  153.6273 H   0  0  0  0  0  0  0  0  0  0  0  0  # atno 10764 bound_to 10752
  152.9852  135.6070  154.3685 H   0  0  0  0  0  0  0  0  0  0  0  0  # atno 10765 bound_to 10752
  141.1637  133.6917  156.7391 H   0  0  0  0  0  0  0  0  0  0  0  0  # atno 11005 bound_to 11000
  144.7191  139.8094  143.7388 LP  0  0  0  0  0  0  0  0  0  0  0  0  # atno 17320 bound_to 7965
  146.1350  139.4394  143.0144 LP  0  0  0  0  0  0  0  0  0  0  0  0  # atno 17321 bound_to 7965
  139.5536  144.2332  152.1574 LP  0  0  0  0  0  0  0  0  0  0  0  0  # atno 17342 bound_to 10162
  140.1579  144.5053  150.6649 LP  0  0  0  0  0  0  0  0  0  0  0  0  # atno 17343 bound_to 10162
  157.6874  130.9199  150.0422 LP  0  0  0  0  0  0  0  0  0  0  0  0  # atno 17370 bound_to 10713
  156.1554  130.3643  149.9377 LP  0  0  0  0  0  0  0  0  0  0  0  0  # atno 17371 bound_to 10713
  140.2687  134.8409  157.3827 LP  0  0  0  0  0  0  0  0  0  0  0  0  # atno 17394 bound_to 11000
  140.1541  134.4811  155.7940 LP  0  0  0  0  0  0  0  0  0  0  0  0  # atno 17395 bound_to 11000

$$$$
