AV-unprocessed.smi:2154|AV-procd|sdf|8774|dock7
  -GOLD-   2272011553D 1   1.00000     0.00000
 Structure written by MMmdl.
 31 32  0  0  0  0  0  0  0  0  2 V2000
  153.0777  142.0493  160.5634 C   0  0  0  0  0  0  0  0  0  0  0  0
  152.9030  143.1959  159.5916 C   0  0  2  0  0  0  0  0  0  0  0  0
  152.0407  144.3872  159.9440 C   0  0  0  0  0  0  0  0  0  0  0  0
  151.5821  143.4093  158.8886 C   0  0  1  0  0  0  0  0  0  0  0  0
  151.5352  143.8074  157.4293 C   0  0  0  0  0  0  0  0  0  0  0  0
  150.7565  142.8909  156.6088 N   0  0  0  0  0  0  0  0  0  0  0  0
  150.9860  141.5776  156.4447 C   0  0  0  0  0  0  0  0  0  0  0  0
  151.8959  140.9798  157.0186 O   0  0  0  0  0  0  0  0  0  0  0  0
  150.0589  140.7956  155.4968 C   0  0  0  0  0  0  0  0  0  0  0  0
  148.7039  141.3591  155.3490 N   0  0  0  0  0  0  0  0  0  0  0  0
  148.2189  141.5501  154.0432 C   0  0  0  0  0  0  0  0  0  0  0  0
  146.9889  142.0447  153.8069 C   0  0  0  0  0  0  0  0  0  0  0  0
  146.1508  142.3860  154.9496 C   0  0  0  0  0  0  0  0  0  0  0  0
  145.0244  142.8373  154.7528 O   0  0  0  0  0  0  0  0  0  0  0  0
  146.6660  142.1824  156.1973 N   0  5  0  0  0  0  0  0  0  0  0  0
  147.9186  141.6776  156.4227 C   0  0  0  0  0  0  0  0  0  0  0  0
  148.3601  141.4923  157.5569 O   0  0  0  0  0  0  0  0  0  0  0  0
  152.1601  141.8739  161.1254 H   0  0  0  0  0  0  0  0  0  0  0  0
  153.8794  142.2727  161.2670 H   0  0  0  0  0  0  0  0  0  0  0  0
  153.3320  141.1380  160.0219 H   0  0  0  0  0  0  0  0  0  0  0  0
  153.7972  143.4119  159.0096 H   0  0  0  0  0  0  0  0  0  0  0  0
  151.5189  144.3731  160.8987 H   0  0  0  0  0  0  0  0  0  0  0  0
  152.3817  145.3668  159.6150 H   0  0  0  0  0  0  0  0  0  0  0  0
  150.7672  142.7501  159.1833 H   0  0  0  0  0  0  0  0  0  0  0  0
  151.1370  144.8213  157.3713 H   0  0  0  0  0  0  0  0  0  0  0  0
  152.5499  143.8476  157.0314 H   0  0  0  0  0  0  0  0  0  0  0  0
  149.9873  143.2930  156.0917 H   0  0  0  0  0  0  0  0  0  0  0  0
  150.5441  140.7221  154.5222 H   0  0  0  0  0  0  0  0  0  0  0  0
  149.9978  139.7680  155.8576 H   0  0  0  0  0  0  0  0  0  0  0  0
  148.8996  141.2666  153.2541 H   0  0  0  0  0  0  0  0  0  0  0  0
  146.6307  142.1824  152.7973 H   0  0  0  0  0  0  0  0  0  0  0  0
  1  2  1  0  0  0  0
  1 18  1  0  0  0  0
  1 19  1  0  0  0  0
  1 20  1  0  0  0  0
  2  4  1  0  0  0  0
  2  3  1  0  0  0  0
  2 21  1  0  0  0  0
  3  4  1  0  0  0  0
  3 22  1  0  0  0  0
  3 23  1  0  0  0  0
  4  5  1  0  0  0  0
  4 24  1  0  0  0  0
  5  6  1  0  0  0  0
  5 25  1  0  0  0  0
  5 26  1  0  0  0  0
  6  7  1  0  0  0  0
  6 27  1  0  0  0  0
  7  8  2  0  0  0  0
  7  9  1  0  0  0  0
  9 10  1  0  0  0  0
  9 28  1  0  0  0  0
  9 29  1  0  0  0  0
 10 16  1  0  0  0  0
 10 11  1  0  0  0  0
 11 12  2  0  0  0  0
 11 30  1  0  0  0  0
 12 13  1  0  0  0  0
 12 31  1  0  0  0  0
 13 14  2  0  0  0  0
 13 15  1  0  0  0  0
 15 16  1  0  0  0  0
 16 17  2  0  0  0  0
M  CHG  1  15  -1
M  END
> <s_m_source_file>
AV-unprocessed.smi

> <i_m_source_file_index>
2154

> <i_lp_mmshare_version>
43012

> <i_f3d_flags>
0

> <s_epik_input>
W0NIM11bQ0BASF0xW0NIMl1bQ0BIXTFbQ0gyXVtOSF1DKD1PKVtDSDJdbjJbY0hdW2NIXWMoPU8pW25IXWMyPU8=

> <s_epik_cmdline>
J2VwaWtfcHl0aG9uJywgJy1waCcsICc3LjAnLCAnLXRuJywgJzgnLCAnLW1hJywgJzIwMCcsICctbWV0YWxfYmluZGluZycsICctaW1hZScsICc8aW5maWxlLm1hZT4nLCAnLW9tYWUnLCAnPG91dGZpbGUubWFlPic=

> <r_lp_tautomer_probability>
0.999537

> <r_epik_Ionization_Penalty>
3.12283

> <r_epik_Ionization_Penalty_Charging>
2.83566e-08

> <r_epik_Ionization_Penalty_Neutral>
3.12283

> <r_epik_State_Penalty>
3.12192

> <r_epik_Charging_Adjusted_Penalty>
3.12192

> <i_epik_Tot_Q>
-1

> <i_epik_Tot_abs_Q>
1

> <r_epik_Metal_State_Penalty>
0.463748

> <b_epik_Metal_Only>
1

> <s_lp_Force_Field>
OPLS_2005

> <r_lp_Energy>
23.7869

> <b_lp_Chiralities_Consistent>
1

> <s_lp_Variant>
AV-unprocessed.smi:2154-5

> <Gold.Version>
5.8.1

> <Gold.Id.Protein>
6NUR|6NUR_protein|mol2

> <Gold.PLP.Fitness>
41.5775

> <Gold.PLP.PLP>
-36.7970

> <Gold.PLP.part.hbond>
-1.0000

> <Gold.PLP.part.metal>
0.0000

> <Gold.PLP.part.buried>
-3.4801

> <Gold.PLP.part.nonpolar>
-31.5141

> <Gold.PLP.part.repulsive>
0.4939

> <Gold.PLP.ligand.clash>
0.0000

> <Gold.PLP.ligand.torsion>
0.8777

> <Gold.PLP.Chemscore.Hbond>
1.0000

> <Gold.PLP.Chemscore.CHOScore>
1.0000

> <Gold.PLP.Chemscore.Metal>
0.0000

> <Gold.Chemscore.Hbonds>
donor molecule, donor type, donor heavy atom, donor atom, acceptor molecule, acceptor atom, score
      L1  H     6    27       P1  8028  1.00
      L1  C    11    30       P1  7957  1.00

> <Gold.PLP.Chemscore.Internal.Correction>
0.5359

> <Gold.Rescore>
     Score         DG    S(hbond)    S(metal)    S(lipo)     H(rot)  DE(clash)    DE(int)     intcor
     12.12     -13.03       0.95        0.00      80.22       1.96       0.02       0.89       ----

> <Gold.Chemscore.Fitness>
12.1190

> <Gold.Chemscore.DG>
-13.0287

> <Gold.Chemscore.ZeroCoef>
-5.4800

> <Gold.Chemscore.Hbond>
0.9530

> <Gold.Chemscore.Metal>
0.0000

> <Gold.Chemscore.Lipo>
80.2191

> <Gold.Chemscore.Internal_Hbond>
0.0000

> <Gold.Chemscore.DEClash>
0.0196

> <Gold.Chemscore.DEInternal>
0.8901

> <Gold.Chemscore.Rot>
1.9609

> <Gold.Chemscore.Internal.Correction>
   9.000000E+99

> <Gold.Chemscore.Hbonds>
donor molecule, donor type, donor heavy atom, donor atom, acceptor molecule, acceptor atom, score
      L1  H     6    27       P1  8028  0.95

> <Gold.Chemscore.Hbond.Weighted>
-3.1830

> <Gold.Chemscore.Metal.Weighted>
-0.0000

> <Gold.Chemscore.Lipo.Weighted>
-9.3856

> <Gold.Chemscore.Internal_Hbond.Weighted>
0.0000

> <Gold.Chemscore.DEClash.Weighted>
0.0196

> <Gold.Chemscore.DEInternal.Weighted>
0.8901

> <Gold.Chemscore.Rot.Weighted>
5.0200

> <Gold.Chemscore.Internal.Correction.Weighted>
   9.000000E+99

> <Gold.Protein.RotatedTorsions>
[ 6907 6896 6895 6894 ] final  107.25 input  -60.11 | X-H torsion
[ 7974 7965 7964 7962 ] final   59.95 input  175.53 | X-H torsion
[ 8008 7997 7996 7995 ] final   86.12 input   59.86 | X-H torsion
[ 10167 10162 10161 10158 ] final  -95.78 input  -65.29 | X-H torsion
[ 10718 10713 10712 10709 ] final   70.98 input   66.30 | X-H torsion
[ 10763 10752 10751 10750 ] final -169.92 input  -60.55 | X-H torsion
[ 11005 11000 10999 10996 ] final   37.57 input  -57.11 | X-H torsion

> <Gold.Protein.ActiveResidues>
 VAL166  LYS551  ARG553  GLY616  TRP617  ASP618  TYR619  PRO620  LYS621  CYS622 
 ASP623  PHE694  ASN695  SER759  ASP760  ASP761  ALA762  ILE779  LEU786  VAL792 
 PHE793  MET794  SER795  GLU796  ALA797  LYS798  CYS799  TRP800  GLU811  SER814 

> <Gold.Protein.RotatedAtoms>
  152.5162  133.9262  159.7557 H   0  0  0  0  0  0  0  0  0  0  0  0  # atno 6907 bound_to 6896
  150.9622  133.6424  159.2759 H   0  0  0  0  0  0  0  0  0  0  0  0  # atno 6908 bound_to 6896
  151.3665  135.0919  159.9504 H   0  0  0  0  0  0  0  0  0  0  0  0  # atno 6909 bound_to 6896
  145.9014  139.3584  143.0590 H   0  0  0  0  0  0  0  0  0  0  0  0  # atno 7974 bound_to 7965
  155.9587  140.3395  155.6472 H   0  0  0  0  0  0  0  0  0  0  0  0  # atno 8008 bound_to 7997
  155.6826  140.0739  157.2497 H   0  0  0  0  0  0  0  0  0  0  0  0  # atno 8009 bound_to 7997
  154.4138  140.1671  156.1986 H   0  0  0  0  0  0  0  0  0  0  0  0  # atno 8010 bound_to 7997
  140.3006  143.3165  152.0252 H   0  0  0  0  0  0  0  0  0  0  0  0  # atno 10167 bound_to 10162
  157.6428  130.9505  150.0725 H   0  0  0  0  0  0  0  0  0  0  0  0  # atno 10718 bound_to 10713
  154.6471  135.2906  155.0032 H   0  0  0  0  0  0  0  0  0  0  0  0  # atno 10763 bound_to 10752
  154.1138  135.6558  153.4894 H   0  0  0  0  0  0  0  0  0  0  0  0  # atno 10764 bound_to 10752
  153.0357  135.5271  154.7363 H   0  0  0  0  0  0  0  0  0  0  0  0  # atno 10765 bound_to 10752
  140.2212  134.3638  155.8004 H   0  0  0  0  0  0  0  0  0  0  0  0  # atno 11005 bound_to 11000
  145.8786  140.9377  143.0613 LP  0  0  0  0  0  0  0  0  0  0  0  0  # atno 17320 bound_to 7965
  144.6736  140.0749  143.7471 LP  0  0  0  0  0  0  0  0  0  0  0  0  # atno 17321 bound_to 7965
  139.4916  144.6458  151.6781 LP  0  0  0  0  0  0  0  0  0  0  0  0  # atno 17342 bound_to 10162
  140.5654  144.0198  150.6190 LP  0  0  0  0  0  0  0  0  0  0  0  0  # atno 17343 bound_to 10162
  156.1725  130.3647  149.9145 LP  0  0  0  0  0  0  0  0  0  0  0  0  # atno 17370 bound_to 10713
  156.7117  130.8973  151.3610 LP  0  0  0  0  0  0  0  0  0  0  0  0  # atno 17371 bound_to 10713
  141.2223  133.7195  156.8579 LP  0  0  0  0  0  0  0  0  0  0  0  0  # atno 17394 bound_to 11000
  140.1847  134.9008  157.2990 LP  0  0  0  0  0  0  0  0  0  0  0  0  # atno 17395 bound_to 11000

$$$$
