AV-unprocessed.smi:3342|AV-procd|sdf|12890|dock4
  -GOLD-   2272019293D 1   1.00000     0.00000
 Structure written by MMmdl.
 41 42  0  0  0  0  0  0  0  0  1 V2000
  147.0744  135.8285  156.3222 C   0  0  0  0  0  0  0  0  0  0  0  0
  147.6667  136.7165  155.2167 C   0  0  1  0  0  0  0  0  0  0  0  0
  149.1860  136.5042  155.0774 C   0  0  0  0  0  0  0  0  0  0  0  0
  149.9206  137.7559  155.0797 N   0  0  0  0  0  0  0  0  0  0  0  0
  150.6509  138.2977  156.1296 C   0  0  0  0  0  0  0  0  0  0  0  0
  151.1730  139.4866  155.6723 C   0  0  0  0  0  0  0  0  0  0  0  0
  150.7778  139.6956  154.3531 N   0  0  0  0  0  0  0  0  0  0  0  0
  150.0387  138.6304  154.0713 C   0  0  0  0  0  0  0  0  0  0  0  0
  147.0079  136.4369  153.9431 N   0  0  0  0  0  0  0  0  0  0  0  0
  145.6814  136.3818  153.7371 C   0  0  0  0  0  0  0  0  0  0  0  0
  144.8703  136.5315  154.6520 O   0  0  0  0  0  0  0  0  0  0  0  0
  145.3177  136.1543  152.4494 N   0  0  0  0  0  0  0  0  0  0  0  0
  146.1832  135.6407  151.3738 C   0  0  0  0  0  0  0  0  0  0  0  0
  145.7750  134.1899  151.0621 C   0  0  0  0  0  0  0  0  0  0  0  0
  144.2798  134.1044  150.6744 C   0  0  0  0  0  0  0  0  0  0  0  0
  143.8402  132.6454  150.4922 C   0  0  0  0  0  0  0  0  0  0  0  0
  142.5990  132.4344  150.0471 N   0  0  0  0  0  0  0  0  0  0  0  0
  144.6082  131.7197  150.7479 O   0  0  0  0  0  0  0  0  0  0  0  0
  143.3978  134.8253  151.7212 C   0  0  0  0  0  0  0  0  0  0  0  0
  143.9211  136.2451  152.0062 C   0  0  0  0  0  0  0  0  0  0  0  0
  147.5452  136.0342  157.2835 H   0  0  0  0  0  0  0  0  0  0  0  0
  147.2180  134.7703  156.1011 H   0  0  0  0  0  0  0  0  0  0  0  0
  146.0041  136.0020  156.4387 H   0  0  0  0  0  0  0  0  0  0  0  0
  147.4947  137.7598  155.4889 H   0  0  0  0  0  0  0  0  0  0  0  0
  149.5580  135.8938  155.9013 H   0  0  0  0  0  0  0  0  0  0  0  0
  149.4167  135.9634  154.1582 H   0  0  0  0  0  0  0  0  0  0  0  0
  150.7389  137.8051  157.0868 H   0  0  0  0  0  0  0  0  0  0  0  0
  151.7977  140.2017  156.1870 H   0  0  0  0  0  0  0  0  0  0  0  0
  149.5742  138.4813  153.1075 H   0  0  0  0  0  0  0  0  0  0  0  0
  147.6095  136.3004  153.1440 H   0  0  0  0  0  0  0  0  0  0  0  0
  146.0543  136.2611  150.4857 H   0  0  0  0  0  0  0  0  0  0  0  0
  147.2486  135.6858  151.5997 H   0  0  0  0  0  0  0  0  0  0  0  0
  146.3936  133.8005  150.2525 H   0  0  0  0  0  0  0  0  0  0  0  0
  145.9786  133.5666  151.9345 H   0  0  0  0  0  0  0  0  0  0  0  0
  144.1543  134.6238  149.7226 H   0  0  0  0  0  0  0  0  0  0  0  0
  142.2650  131.4917  149.9098 H   0  0  0  0  0  0  0  0  0  0  0  0
  141.9988  133.2213  149.8477 H   0  0  0  0  0  0  0  0  0  0  0  0
  142.3671  134.8784  151.3688 H   0  0  0  0  0  0  0  0  0  0  0  0
  143.3758  134.2600  152.6547 H   0  0  0  0  0  0  0  0  0  0  0  0
  143.2764  136.7377  152.7353 H   0  0  0  0  0  0  0  0  0  0  0  0
  143.8651  136.8554  151.1036 H   0  0  0  0  0  0  0  0  0  0  0  0
  1  2  1  0  0  0  0
  1 21  1  0  0  0  0
  1 22  1  0  0  0  0
  1 23  1  0  0  0  0
  2  3  1  0  0  0  0
  2  9  1  0  0  0  0
  2 24  1  0  0  0  0
  3  4  1  0  0  0  0
  3 25  1  0  0  0  0
  3 26  1  0  0  0  0
  4  8  1  0  0  0  0
  4  5  1  0  0  0  0
  5  6  2  0  0  0  0
  5 27  1  0  0  0  0
  6  7  1  0  0  0  0
  6 28  1  0  0  0  0
  7  8  2  0  0  0  0
  8 29  1  0  0  0  0
  9 10  1  0  0  0  0
  9 30  1  0  0  0  0
 10 11  2  0  0  0  0
 10 12  1  0  0  0  0
 12 20  1  0  0  0  0
 12 13  1  0  0  0  0
 13 14  1  0  0  0  0
 13 31  1  0  0  0  0
 13 32  1  0  0  0  0
 14 15  1  0  0  0  0
 14 33  1  0  0  0  0
 14 34  1  0  0  0  0
 15 16  1  0  0  0  0
 15 19  1  0  0  0  0
 15 35  1  0  0  0  0
 16 17  1  0  0  0  0
 16 18  2  0  0  0  0
 17 36  1  0  0  0  0
 17 37  1  0  0  0  0
 19 20  1  0  0  0  0
 19 38  1  0  0  0  0
 19 39  1  0  0  0  0
 20 40  1  0  0  0  0
 20 41  1  0  0  0  0
M  END
> <s_m_source_file>
AV-unprocessed.smi

> <i_m_source_file_index>
3342

> <i_lp_mmshare_version>
43012

> <i_f3d_flags>
0

> <s_epik_input>
W2NIXTFuW2NIXVtjSF1uMVtDSDJdW0NAQEhdKFtDSDNdKVtOSF1DKD1PKU4yW0NIMl1bQ0gyXVtDSF0oQyg9TylbTkgyXSlbQ0gyXVtDSDJdMg==

> <s_epik_cmdline>
J2VwaWtfcHl0aG9uJywgJy1waCcsICc3LjAnLCAnLXRuJywgJzgnLCAnLW1hJywgJzIwMCcsICctbWV0YWxfYmluZGluZycsICctaW1hZScsICc8aW5maWxlLm1hZT4nLCAnLW9tYWUnLCAnPG91dGZpbGUubWFlPic=

> <r_lp_tautomer_probability>
1

> <r_epik_Ionization_Penalty>
0.624431

> <r_epik_Ionization_Penalty_Charging>
0.624374

> <r_epik_Ionization_Penalty_Neutral>
5.67186e-05

> <r_epik_State_Penalty>
0.640677

> <r_epik_Charging_Adjusted_Penalty>
1.26505

> <i_epik_Tot_Q>
0

> <i_epik_Tot_abs_Q>
0

> <r_epik_Metal_State_Penalty>
0.307574

> <b_epik_Metal_Only>
0

> <s_lp_Force_Field>
OPLS_2005

> <r_lp_Energy>
30.3525

> <b_lp_Chiralities_Consistent>
1

> <s_lp_Variant>
AV-unprocessed.smi:3342-4

> <Gold.Version>
5.8.1

> <Gold.Id.Protein>
6NUR|6NUR_protein|mol2

> <Gold.PLP.Fitness>
41.5843

> <Gold.PLP.PLP>
-26.1587

> <Gold.PLP.part.hbond>
-4.0000

> <Gold.PLP.part.metal>
0.0000

> <Gold.PLP.part.buried>
-2.8088

> <Gold.PLP.part.nonpolar>
-20.3385

> <Gold.PLP.part.repulsive>
0.3858

> <Gold.PLP.ligand.clash>
0.0000

> <Gold.PLP.ligand.torsion>
1.0981

> <Gold.PLP.Chemscore.Hbond>
3.9440

> <Gold.PLP.Chemscore.CHOScore>
1.8983

> <Gold.PLP.Chemscore.Metal>
0.0000

> <Gold.Chemscore.Hbonds>
donor molecule, donor type, donor heavy atom, donor atom, acceptor molecule, acceptor atom, score
      L1  H     9    30       P1  7948  1.00
      L1  H    17    36       P1 10952  0.94
      L1  H    17    37       P1 10186  1.00
      P1  H  7989  7998       L1     7  1.00
      L1  C     8    29       P1  7948  0.81
      L1  C     8    29       P1  7957  0.96

> <Gold.PLP.Chemscore.Internal.Correction>
0.0948

> <Gold.Rescore>
     Score         DG    S(hbond)    S(metal)    S(lipo)     H(rot)  DE(clash)    DE(int)     intcor
     13.99     -17.51       3.86        0.00      42.38       2.28       1.31       2.22       ----

> <Gold.Chemscore.Fitness>
13.9860

> <Gold.Chemscore.DG>
-17.5111

> <Gold.Chemscore.ZeroCoef>
-5.4800

> <Gold.Chemscore.Hbond>
3.8618

> <Gold.Chemscore.Metal>
0.0000

> <Gold.Chemscore.Lipo>
42.3821

> <Gold.Chemscore.Internal_Hbond>
0.0000

> <Gold.Chemscore.DEClash>
1.3085

> <Gold.Chemscore.DEInternal>
2.2167

> <Gold.Chemscore.Rot>
2.2757

> <Gold.Chemscore.Internal.Correction>
   9.000000E+99

> <Gold.Chemscore.Hbonds>
donor molecule, donor type, donor heavy atom, donor atom, acceptor molecule, acceptor atom, score
      L1  H     9    30       P1  7948  1.00
      L1  H    17    36       P1 10952  0.87
      L1  H    17    37       P1 10186  0.97
      P1  H  7989  7998       L1     7  0.94

> <Gold.Chemscore.Hbond.Weighted>
-12.8983

> <Gold.Chemscore.Metal.Weighted>
-0.0000

> <Gold.Chemscore.Lipo.Weighted>
-4.9587

> <Gold.Chemscore.Internal_Hbond.Weighted>
0.0000

> <Gold.Chemscore.DEClash.Weighted>
1.3085

> <Gold.Chemscore.DEInternal.Weighted>
2.2167

> <Gold.Chemscore.Rot.Weighted>
5.8259

> <Gold.Chemscore.Internal.Correction.Weighted>
   9.000000E+99

> <Gold.Protein.RotatedTorsions>
[ 6907 6896 6895 6894 ] final  170.40 input  -60.11 | X-H torsion
[ 7974 7965 7964 7962 ] final -152.81 input  175.53 | X-H torsion
[ 8008 7997 7996 7995 ] final -179.63 input   59.86 | X-H torsion
[ 10167 10162 10161 10158 ] final  137.06 input  -65.29 | X-H torsion
[ 10718 10713 10712 10709 ] final -178.28 input   66.30 | X-H torsion
[ 10763 10752 10751 10750 ] final   55.33 input  -60.55 | X-H torsion
[ 11005 11000 10999 10996 ] final   59.39 input  -57.11 | X-H torsion

> <Gold.Protein.ActiveResidues>
 VAL166  LYS551  ARG553  GLY616  TRP617  ASP618  TYR619  PRO620  LYS621  CYS622 
 ASP623  PHE694  ASN695  SER759  ASP760  ASP761  ALA762  ILE779  LEU786  VAL792 
 PHE793  MET794  SER795  GLU796  ALA797  LYS798  CYS799  TRP800  GLU811  SER814 

> <Gold.Protein.RotatedAtoms>
  151.8167  133.3389  159.3571 H   0  0  0  0  0  0  0  0  0  0  0  0  # atno 6907 bound_to 6896
  150.7308  134.5612  159.5852 H   0  0  0  0  0  0  0  0  0  0  0  0  # atno 6908 bound_to 6896
  152.3035  134.7584  160.0403 H   0  0  0  0  0  0  0  0  0  0  0  0  # atno 6909 bound_to 6896
  144.7774  140.4612  143.5863 H   0  0  0  0  0  0  0  0  0  0  0  0  # atno 7974 bound_to 7965
  156.0327  140.1286  157.0240 H   0  0  0  0  0  0  0  0  0  0  0  0  # atno 8008 bound_to 7997
  154.4357  140.1046  156.6194 H   0  0  0  0  0  0  0  0  0  0  0  0  # atno 8009 bound_to 7997
  155.5783  140.3467  155.4535 H   0  0  0  0  0  0  0  0  0  0  0  0  # atno 8010 bound_to 7997
  139.5157  144.6430  151.5516 H   0  0  0  0  0  0  0  0  0  0  0  0  # atno 10167 bound_to 10162
  156.8419  130.9689  151.3099 H   0  0  0  0  0  0  0  0  0  0  0  0  # atno 10718 bound_to 10713
  152.9815  135.5714  154.5048 H   0  0  0  0  0  0  0  0  0  0  0  0  # atno 10763 bound_to 10752
  154.4562  135.2780  155.1748 H   0  0  0  0  0  0  0  0  0  0  0  0  # atno 10764 bound_to 10752
  154.3355  135.6240  153.5625 H   0  0  0  0  0  0  0  0  0  0  0  0  # atno 10765 bound_to 10752
  140.0307  134.6016  155.9511 H   0  0  0  0  0  0  0  0  0  0  0  0  # atno 11005 bound_to 11000
  145.6147  139.1517  143.3056 LP  0  0  0  0  0  0  0  0  0  0  0  0  # atno 17320 bound_to 7965
  146.1962  140.6261  142.9123 LP  0  0  0  0  0  0  0  0  0  0  0  0  # atno 17321 bound_to 7965
  140.6204  143.9268  150.6522 LP  0  0  0  0  0  0  0  0  0  0  0  0  # atno 17342 bound_to 10162
  140.2540  143.3572  152.1381 LP  0  0  0  0  0  0  0  0  0  0  0  0  # atno 17343 bound_to 10162
  157.6351  130.8760  149.9344 LP  0  0  0  0  0  0  0  0  0  0  0  0  # atno 17370 bound_to 10713
  156.0876  130.3666  150.0457 LP  0  0  0  0  0  0  0  0  0  0  0  0  # atno 17371 bound_to 10713
  141.1829  133.6550  156.5096 LP  0  0  0  0  0  0  0  0  0  0  0  0  # atno 17394 bound_to 11000
  140.4230  134.7170  157.4900 LP  0  0  0  0  0  0  0  0  0  0  0  0  # atno 17395 bound_to 11000

$$$$
