AV-unprocessed.smi:2082|AV-procd|sdf|8489|dock7
  -GOLD-   2272011193D 1   1.00000     0.00000
 Structure written by MMmdl.
 39 40  0  0  0  0  0  0  0  0  1 V2000
  151.9611  144.9060  158.8662 C   0  0  0  0  0  0  0  0  0  0  0  0
  151.0771  143.8292  158.6099 O   0  0  0  0  0  0  0  0  0  0  0  0
  151.3633  143.1703  157.3873 C   0  0  0  0  0  0  0  0  0  0  0  0
  150.3493  142.0422  157.1766 C   0  0  0  0  0  0  0  0  0  0  0  0
  150.7283  141.2978  156.0227 O   0  0  0  0  0  0  0  0  0  0  0  0
  149.8349  140.3835  155.5042 C   0  0  0  0  0  0  0  0  0  0  0  0
  148.7112  140.0283  156.2767 C   0  0  0  0  0  0  0  0  0  0  0  0
  147.7939  139.0953  155.7568 C   0  0  0  0  0  0  0  0  0  0  0  0
  148.0363  138.5384  154.4786 C   0  0  0  0  0  0  0  0  0  0  0  0
  147.1768  137.6083  153.8350 N   0  0  0  0  0  0  0  0  0  0  0  0
  145.8407  137.4718  153.9496 C   0  0  0  0  0  0  0  0  0  0  0  0
  145.1624  138.1404  154.7302 O   0  0  0  0  0  0  0  0  0  0  0  0
  145.3092  136.4964  153.1668 N   0  0  0  0  0  0  0  0  0  0  0  0
  146.0242  135.3102  152.6714 C   0  0  0  0  0  0  0  0  0  0  0  0
  145.4638  134.0742  153.3959 C   0  0  0  0  0  0  0  0  0  0  0  0
  144.0000  134.0660  153.4169 N   0  0  0  0  0  0  0  0  0  0  0  0
  143.2126  135.1277  153.1615 C   0  0  0  0  0  0  0  0  0  0  0  0
  141.9872  135.0417  153.1854 O   0  0  0  0  0  0  0  0  0  0  0  0
  143.8755  136.4796  152.8315 C   0  0  0  0  0  0  0  0  0  0  0  0
  149.1824  138.9712  153.7803 C   0  0  0  0  0  0  0  0  0  0  0  0
  150.0659  139.8641  154.2731 N   0  0  0  0  0  0  0  0  0  0  0  0
  151.6970  145.3796  159.8117 H   0  0  0  0  0  0  0  0  0  0  0  0
  151.9014  145.6622  158.0824 H   0  0  0  0  0  0  0  0  0  0  0  0
  152.9926  144.5591  158.9406 H   0  0  0  0  0  0  0  0  0  0  0  0
  151.2868  143.8869  156.5683 H   0  0  0  0  0  0  0  0  0  0  0  0
  152.3799  142.7738  157.3830 H   0  0  0  0  0  0  0  0  0  0  0  0
  150.3017  141.4078  158.0634 H   0  0  0  0  0  0  0  0  0  0  0  0
  149.3600  142.4750  157.0195 H   0  0  0  0  0  0  0  0  0  0  0  0
  148.5524  140.4685  157.2500 H   0  0  0  0  0  0  0  0  0  0  0  0
  146.9218  138.8394  156.3382 H   0  0  0  0  0  0  0  0  0  0  0  0
  147.6377  136.9304  153.2458 H   0  0  0  0  0  0  0  0  0  0  0  0
  145.8359  135.2222  151.6001 H   0  0  0  0  0  0  0  0  0  0  0  0
  147.1092  135.3509  152.7679 H   0  0  0  0  0  0  0  0  0  0  0  0
  145.8219  133.1609  152.9205 H   0  0  0  0  0  0  0  0  0  0  0  0
  145.8184  134.0550  154.4271 H   0  0  0  0  0  0  0  0  0  0  0  0
  143.5509  133.1885  153.6364 H   0  0  0  0  0  0  0  0  0  0  0  0
  143.3072  137.2608  153.3386 H   0  0  0  0  0  0  0  0  0  0  0  0
  143.7653  136.6675  151.7630 H   0  0  0  0  0  0  0  0  0  0  0  0
  149.4021  138.5861  152.7952 H   0  0  0  0  0  0  0  0  0  0  0  0
  1  2  1  0  0  0  0
  1 22  1  0  0  0  0
  1 23  1  0  0  0  0
  1 24  1  0  0  0  0
  2  3  1  0  0  0  0
  3  4  1  0  0  0  0
  3 25  1  0  0  0  0
  3 26  1  0  0  0  0
  4  5  1  0  0  0  0
  4 27  1  0  0  0  0
  4 28  1  0  0  0  0
  5  6  1  0  0  0  0
  6 21  1  0  0  0  0
  6  7  2  0  0  0  0
  7  8  1  0  0  0  0
  7 29  1  0  0  0  0
  8  9  2  0  0  0  0
  8 30  1  0  0  0  0
  9 10  1  0  0  0  0
  9 20  1  0  0  0  0
 10 11  1  0  0  0  0
 10 31  1  0  0  0  0
 11 12  2  0  0  0  0
 11 13  1  0  0  0  0
 13 19  1  0  0  0  0
 13 14  1  0  0  0  0
 14 15  1  0  0  0  0
 14 32  1  0  0  0  0
 14 33  1  0  0  0  0
 15 16  1  0  0  0  0
 15 34  1  0  0  0  0
 15 35  1  0  0  0  0
 16 17  1  0  0  0  0
 16 36  1  0  0  0  0
 17 18  2  0  0  0  0
 17 19  1  0  0  0  0
 19 37  1  0  0  0  0
 19 38  1  0  0  0  0
 20 21  2  0  0  0  0
 20 39  1  0  0  0  0
M  END
> <s_m_source_file>
AV-unprocessed.smi

> <i_m_source_file_index>
2082

> <i_lp_mmshare_version>
43012

> <i_f3d_flags>
0

> <s_epik_input>
W0NIM11PW0NIMl1bQ0gyXU9jMVtjSF1bY0hdYyhbY0hdbjEpW05IXUMoPU8pTjJbQ0gyXVtDSDJdW05IXUMoPU8pW0NIMl0y

> <s_epik_cmdline>
J2VwaWtfcHl0aG9uJywgJy1waCcsICc3LjAnLCAnLXRuJywgJzgnLCAnLW1hJywgJzIwMCcsICctbWV0YWxfYmluZGluZycsICctaW1hZScsICc8aW5maWxlLm1hZT4nLCAnLW9tYWUnLCAnPG91dGZpbGUubWFlPic=

> <r_lp_tautomer_probability>
1

> <r_epik_Ionization_Penalty>
5.92413e-05

> <r_epik_Ionization_Penalty_Charging>
0

> <r_epik_Ionization_Penalty_Neutral>
5.92413e-05

> <r_epik_State_Penalty>
-0

> <r_epik_Charging_Adjusted_Penalty>
0

> <i_epik_Tot_Q>
0

> <i_epik_Tot_abs_Q>
0

> <r_epik_Metal_State_Penalty>
-0

> <b_epik_Metal_Only>
0

> <s_lp_Force_Field>
OPLS_2005

> <r_lp_Energy>
31.1837

> <b_lp_Chiralities_Consistent>
1

> <s_lp_Variant>
AV-unprocessed.smi:2082-1

> <Gold.Version>
5.8.1

> <Gold.Id.Protein>
6NUR|6NUR_protein|mol2

> <Gold.PLP.Fitness>
36.6271

> <Gold.PLP.PLP>
-23.6420

> <Gold.PLP.part.hbond>
-3.0000

> <Gold.PLP.part.metal>
0.0000

> <Gold.PLP.part.buried>
-3.5577

> <Gold.PLP.part.nonpolar>
-18.5778

> <Gold.PLP.part.repulsive>
0.5758

> <Gold.PLP.ligand.clash>
0.0889

> <Gold.PLP.ligand.torsion>
0.6248

> <Gold.PLP.Chemscore.Hbond>
2.9913

> <Gold.PLP.Chemscore.CHOScore>
1.7724

> <Gold.PLP.Chemscore.Metal>
0.0000

> <Gold.Chemscore.Hbonds>
donor molecule, donor type, donor heavy atom, donor atom, acceptor molecule, acceptor atom, score
      L1  H    10    31       P1  7948  0.99
      L1  H    16    36       P1 10957  1.00
      P1  H  7989  7998       L1    21  1.00
      L1  C    20    39       P1  7948  0.99
      L1  C    20    39       P1  7957  0.77

> <Gold.PLP.Chemscore.Internal.Correction>
0.0328

> <Gold.Rescore>
     Score         DG    S(hbond)    S(metal)    S(lipo)     H(rot)  DE(clash)    DE(int)     intcor
     13.81     -15.92       2.67        0.00      52.51       1.81       0.46       1.65       ----

> <Gold.Chemscore.Fitness>
13.8096

> <Gold.Chemscore.DG>
-15.9212

> <Gold.Chemscore.ZeroCoef>
-5.4800

> <Gold.Chemscore.Hbond>
2.6737

> <Gold.Chemscore.Metal>
0.0000

> <Gold.Chemscore.Lipo>
52.5055

> <Gold.Chemscore.Internal_Hbond>
0.0000

> <Gold.Chemscore.DEClash>
0.4641

> <Gold.Chemscore.DEInternal>
1.6475

> <Gold.Chemscore.Rot>
1.8095

> <Gold.Chemscore.Internal.Correction>
   9.000000E+99

> <Gold.Chemscore.Hbonds>
donor molecule, donor type, donor heavy atom, donor atom, acceptor molecule, acceptor atom, score
      L1  H    10    31       P1  7948  0.91
      L1  H    16    36       P1 10957  0.91
      P1  H  7989  7998       L1    21  0.56

> <Gold.Chemscore.Hbond.Weighted>
-8.9303

> <Gold.Chemscore.Metal.Weighted>
-0.0000

> <Gold.Chemscore.Lipo.Weighted>
-6.1431

> <Gold.Chemscore.Internal_Hbond.Weighted>
0.0000

> <Gold.Chemscore.DEClash.Weighted>
0.4641

> <Gold.Chemscore.DEInternal.Weighted>
1.6475

> <Gold.Chemscore.Rot.Weighted>
4.6322

> <Gold.Chemscore.Internal.Correction.Weighted>
   9.000000E+99

> <Gold.Protein.RotatedTorsions>
[ 6907 6896 6895 6894 ] final    6.06 input  -60.11 | X-H torsion
[ 7974 7965 7964 7962 ] final  130.64 input  175.53 | X-H torsion
[ 8008 7997 7996 7995 ] final -163.06 input   59.86 | X-H torsion
[ 10167 10162 10161 10158 ] final   23.59 input  -65.29 | X-H torsion
[ 10718 10713 10712 10709 ] final    8.66 input   66.30 | X-H torsion
[ 10763 10752 10751 10750 ] final  144.18 input  -60.55 | X-H torsion
[ 11005 11000 10999 10996 ] final -144.97 input  -57.11 | X-H torsion

> <Gold.Protein.ActiveResidues>
 VAL166  LYS551  ARG553  GLY616  TRP617  ASP618  TYR619  PRO620  LYS621  CYS622 
 ASP623  PHE694  ASN695  SER759  ASP760  ASP761  ALA762  ILE779  LEU786  VAL792 
 PHE793  MET794  SER795  GLU796  ALA797  LYS798  CYS799  TRP800  GLU811  SER814 

> <Gold.Protein.RotatedAtoms>
  151.6675  135.0981  160.0191 H   0  0  0  0  0  0  0  0  0  0  0  0  # atno 6907 bound_to 6896
  152.3911  133.6676  159.6246 H   0  0  0  0  0  0  0  0  0  0  0  0  # atno 6908 bound_to 6896
  150.7826  133.8870  159.3343 H   0  0  0  0  0  0  0  0  0  0  0  0  # atno 6909 bound_to 6896
  145.0158  139.4178  143.5222 H   0  0  0  0  0  0  0  0  0  0  0  0  # atno 7974 bound_to 7965
  155.8159  140.0912  157.1877 H   0  0  0  0  0  0  0  0  0  0  0  0  # atno 8008 bound_to 7997
  154.3979  140.1446  156.3501 H   0  0  0  0  0  0  0  0  0  0  0  0  # atno 8009 bound_to 7997
  155.8317  140.3442  155.5579 H   0  0  0  0  0  0  0  0  0  0  0  0  # atno 8010 bound_to 7997
  140.5256  143.9928  150.6439 H   0  0  0  0  0  0  0  0  0  0  0  0  # atno 10167 bound_to 10162
  156.9548  130.5911  149.5658 H   0  0  0  0  0  0  0  0  0  0  0  0  # atno 10718 bound_to 10713
  153.9846  135.2938  155.3417 H   0  0  0  0  0  0  0  0  0  0  0  0  # atno 10763 bound_to 10752
  154.7249  135.5093  153.8874 H   0  0  0  0  0  0  0  0  0  0  0  0  # atno 10764 bound_to 10752
  153.0838  135.6687  154.0105 H   0  0  0  0  0  0  0  0  0  0  0  0  # atno 10765 bound_to 10752
  140.7971  134.2901  157.4992 H   0  0  0  0  0  0  0  0  0  0  0  0  # atno 11005 bound_to 11000
  146.3477  139.9627  142.8715 LP  0  0  0  0  0  0  0  0  0  0  0  0  # atno 17320 bound_to 7965
  145.1962  140.9834  143.4182 LP  0  0  0  0  0  0  0  0  0  0  0  0  # atno 17321 bound_to 7965
  140.3289  143.3090  152.0707 LP  0  0  0  0  0  0  0  0  0  0  0  0  # atno 17342 bound_to 10162
  139.4937  144.6523  151.6649 LP  0  0  0  0  0  0  0  0  0  0  0  0  # atno 17343 bound_to 10162
  156.0347  130.5435  150.8623 LP  0  0  0  0  0  0  0  0  0  0  0  0  # atno 17370 bound_to 10713
  157.5697  131.0946  150.9436 LP  0  0  0  0  0  0  0  0  0  0  0  0  # atno 17371 bound_to 10713
  139.8725  134.9408  156.3779 LP  0  0  0  0  0  0  0  0  0  0  0  0  # atno 17394 bound_to 11000
  140.9332  133.7565  156.0051 LP  0  0  0  0  0  0  0  0  0  0  0  0  # atno 17395 bound_to 11000

$$$$
