AV-unprocessed.smi:2144|AV-procd|sdf|8731|dock8
  -GOLD-   2272011503D 1   1.00000     0.00000
 Structure written by MMmdl.
 40 42  0  0  0  0  0  0  0  0  1 V2000
  152.0701  137.0243  157.9650 O   0  0  0  0  0  0  0  0  0  0  0  0
  152.2850  137.6119  159.2325 C   0  0  0  0  0  0  0  0  0  0  0  0
  152.1423  139.1080  159.2455 C   0  0  0  0  0  0  0  0  0  0  0  0
  153.0629  139.9240  159.7650 N   0  0  0  0  0  0  0  0  0  0  0  0
  152.5230  141.1756  159.5451 C   0  0  0  0  0  0  0  0  0  0  0  0
  153.0203  142.4594  159.8650 C   0  0  0  0  0  0  0  0  0  0  0  0
  152.2811  143.6142  159.5346 C   0  0  0  0  0  0  0  0  0  0  0  0
  151.0368  143.5019  158.8811 C   0  0  0  0  0  0  0  0  0  0  0  0
  150.5234  142.2323  158.5529 C   0  0  0  0  0  0  0  0  0  0  0  0
  151.2655  141.0826  158.8849 C   0  0  0  0  0  0  0  0  0  0  0  0
  151.0546  139.7178  158.7103 N   0  0  0  0  0  0  0  0  0  0  0  0
  149.8996  139.0960  158.0756 C   0  0  0  0  0  0  0  0  0  0  0  0
  148.7913  138.7208  159.0815 C   0  0  1  0  0  0  0  0  0  0  0  0
  147.5186  138.9701  158.5181 O   0  0  0  0  0  0  0  0  0  0  0  0
  148.8544  137.2450  159.5009 C   0  0  0  0  0  0  0  0  0  0  0  0
  148.2190  137.0973  160.7637 O   0  0  0  0  0  0  0  0  0  0  0  0
  147.8219  135.8356  161.1533 C   0  0  0  0  0  0  0  0  0  0  0  0
  147.6275  134.7516  160.2595 C   0  0  0  0  0  0  0  0  0  0  0  0
  147.2158  133.4941  160.7420 C   0  0  0  0  0  0  0  0  0  0  0  0
  146.9938  133.3029  162.1181 C   0  0  0  0  0  0  0  0  0  0  0  0
  147.1855  134.3720  163.0125 C   0  0  0  0  0  0  0  0  0  0  0  0
  147.5974  135.6300  162.5314 C   0  0  0  0  0  0  0  0  0  0  0  0
  147.7797  136.6509  163.4028 F   0  0  0  0  0  0  0  0  0  0  0  0
  152.7525  137.3146  157.3796 H   0  0  0  0  0  0  0  0  0  0  0  0
  151.5745  137.1808  159.9380 H   0  0  0  0  0  0  0  0  0  0  0  0
  153.2852  137.3406  159.5687 H   0  0  0  0  0  0  0  0  0  0  0  0
  153.9722  142.5559  160.3656 H   0  0  0  0  0  0  0  0  0  0  0  0
  152.6704  144.5904  159.7837 H   0  0  0  0  0  0  0  0  0  0  0  0
  150.4765  144.3911  158.6322 H   0  0  0  0  0  0  0  0  0  0  0  0
  149.5703  142.1437  158.0535 H   0  0  0  0  0  0  0  0  0  0  0  0
  149.5086  139.7805  157.3220 H   0  0  0  0  0  0  0  0  0  0  0  0
  150.2333  138.2132  157.5300 H   0  0  0  0  0  0  0  0  0  0  0  0
  148.8768  139.3420  159.9731 H   0  0  0  0  0  0  0  0  0  0  0  0
  147.5590  138.7891  157.5917 H   0  0  0  0  0  0  0  0  0  0  0  0
  148.3359  136.6331  158.7604 H   0  0  0  0  0  0  0  0  0  0  0  0
  149.8926  136.9121  159.5494 H   0  0  0  0  0  0  0  0  0  0  0  0
  147.7862  134.8585  159.1973 H   0  0  0  0  0  0  0  0  0  0  0  0
  147.0692  132.6747  160.0537 H   0  0  0  0  0  0  0  0  0  0  0  0
  146.6769  132.3385  162.4866 H   0  0  0  0  0  0  0  0  0  0  0  0
  147.0161  134.2273  164.0692 H   0  0  0  0  0  0  0  0  0  0  0  0
  1  2  1  0  0  0  0
  1 24  1  0  0  0  0
  2  3  1  0  0  0  0
  2 25  1  0  0  0  0
  2 26  1  0  0  0  0
  3 11  1  0  0  0  0
  3  4  2  0  0  0  0
  4  5  1  0  0  0  0
  5 10  2  0  0  0  0
  5  6  1  0  0  0  0
  6  7  2  0  0  0  0
  6 27  1  0  0  0  0
  7  8  1  0  0  0  0
  7 28  1  0  0  0  0
  8  9  2  0  0  0  0
  8 29  1  0  0  0  0
  9 10  1  0  0  0  0
  9 30  1  0  0  0  0
 10 11  1  0  0  0  0
 11 12  1  0  0  0  0
 12 13  1  0  0  0  0
 12 31  1  0  0  0  0
 12 32  1  0  0  0  0
 13 14  1  0  0  0  0
 13 15  1  0  0  0  0
 13 33  1  0  0  0  0
 14 34  1  0  0  0  0
 15 16  1  0  0  0  0
 15 35  1  0  0  0  0
 15 36  1  0  0  0  0
 16 17  1  0  0  0  0
 17 22  1  0  0  0  0
 17 18  2  0  0  0  0
 18 19  1  0  0  0  0
 18 37  1  0  0  0  0
 19 20  2  0  0  0  0
 19 38  1  0  0  0  0
 20 21  1  0  0  0  0
 20 39  1  0  0  0  0
 21 22  2  0  0  0  0
 21 40  1  0  0  0  0
 22 23  1  0  0  0  0
M  END
> <s_m_source_file>
AV-unprocessed.smi

> <i_m_source_file_index>
2144

> <i_lp_mmshare_version>
43012

> <i_f3d_flags>
0

> <s_epik_input>
W2NIXTFbY0hdW2NIXVtjSF1jKGMxMiluKGMobjIpW0NIMl1bT0hdKVtDSDJdW0NASF0oW09IXSlbQ0gyXU9jM1tjSF1bY0hdW2NIXVtjSF1jM0Y=

> <s_epik_cmdline>
J2VwaWtfcHl0aG9uJywgJy1waCcsICc3LjAnLCAnLXRuJywgJzgnLCAnLW1hJywgJzIwMCcsICctbWV0YWxfYmluZGluZycsICctaW1hZScsICc8aW5maWxlLm1hZT4nLCAnLW9tYWUnLCAnPG91dGZpbGUubWFlPic=

> <r_lp_tautomer_probability>
1

> <r_epik_Ionization_Penalty>
0.0547315

> <r_epik_Ionization_Penalty_Charging>
0

> <r_epik_Ionization_Penalty_Neutral>
0.0547315

> <r_epik_State_Penalty>
0.047032

> <r_epik_Charging_Adjusted_Penalty>
0.047032

> <i_epik_Tot_Q>
0

> <i_epik_Tot_abs_Q>
0

> <r_epik_Metal_State_Penalty>
4.89471e-05

> <b_epik_Metal_Only>
0

> <s_lp_Force_Field>
OPLS_2005

> <r_lp_Energy>
15.6378

> <b_lp_Chiralities_Consistent>
1

> <s_lp_Variant>
AV-unprocessed.smi:2144-2

> <Gold.Version>
5.8.1

> <Gold.Id.Protein>
6NUR|6NUR_protein|mol2

> <Gold.PLP.Fitness>
49.5311

> <Gold.PLP.PLP>
-49.6883

> <Gold.PLP.part.hbond>
-2.5995

> <Gold.PLP.part.metal>
0.0000

> <Gold.PLP.part.buried>
-4.3519

> <Gold.PLP.part.nonpolar>
-42.4514

> <Gold.PLP.part.repulsive>
0.0000

> <Gold.PLP.ligand.clash>
0.0000

> <Gold.PLP.ligand.torsion>
1.5711

> <Gold.PLP.Chemscore.Hbond>
0.9764

> <Gold.PLP.Chemscore.CHOScore>
0.0000

> <Gold.PLP.Chemscore.Metal>
0.0000

> <Gold.Chemscore.Hbonds>
donor molecule, donor type, donor heavy atom, donor atom, acceptor molecule, acceptor atom, score
      P1  H  6931  6943       L1    16  0.90
      P1  H  6934  6947       L1    16  0.41

> <Gold.PLP.Chemscore.Internal.Correction>
0.0557

> <Gold.Rescore>
     Score         DG    S(hbond)    S(metal)    S(lipo)     H(rot)  DE(clash)    DE(int)     intcor
     12.42     -13.81       0.78        0.00     119.51       3.22       0.20       1.19       ----

> <Gold.Chemscore.Fitness>
12.4225

> <Gold.Chemscore.DG>
-13.8136

> <Gold.Chemscore.ZeroCoef>
-5.4800

> <Gold.Chemscore.Hbond>
0.7765

> <Gold.Chemscore.Metal>
0.0000

> <Gold.Chemscore.Lipo>
119.5059

> <Gold.Chemscore.Internal_Hbond>
0.0000

> <Gold.Chemscore.DEClash>
0.2043

> <Gold.Chemscore.DEInternal>
1.1868

> <Gold.Chemscore.Rot>
3.2196

> <Gold.Chemscore.Internal.Correction>
   9.000000E+99

> <Gold.Chemscore.Hbonds>
donor molecule, donor type, donor heavy atom, donor atom, acceptor molecule, acceptor atom, score
      P1  H  6931  6943       L1    16  0.48
      P1  H  6934  6947       L1    16  0.11

> <Gold.Chemscore.Hbond.Weighted>
-2.5936

> <Gold.Chemscore.Metal.Weighted>
-0.0000

> <Gold.Chemscore.Lipo.Weighted>
-13.9822

> <Gold.Chemscore.Internal_Hbond.Weighted>
0.0000

> <Gold.Chemscore.DEClash.Weighted>
0.2043

> <Gold.Chemscore.DEInternal.Weighted>
1.1868

> <Gold.Chemscore.Rot.Weighted>
8.2422

> <Gold.Chemscore.Internal.Correction.Weighted>
   9.000000E+99

> <Gold.Protein.RotatedTorsions>
[ 6907 6896 6895 6894 ] final  -96.91 input  -60.11 | X-H torsion
[ 7974 7965 7964 7962 ] final   96.87 input  175.53 | X-H torsion
[ 8008 7997 7996 7995 ] final  143.28 input   59.86 | X-H torsion
[ 10167 10162 10161 10158 ] final  170.35 input  -65.29 | X-H torsion
[ 10718 10713 10712 10709 ] final   86.97 input   66.30 | X-H torsion
[ 10763 10752 10751 10750 ] final  -76.61 input  -60.55 | X-H torsion
[ 11005 11000 10999 10996 ] final -109.24 input  -57.11 | X-H torsion

> <Gold.Protein.ActiveResidues>
 VAL166  LYS551  ARG553  GLY616  TRP617  ASP618  TYR619  PRO620  LYS621  CYS622 
 ASP623  PHE694  ASN695  SER759  ASP760  ASP761  ALA762  ILE779  LEU786  VAL792 
 PHE793  MET794  SER795  GLU796  ALA797  LYS798  CYS799  TRP800  GLU811  SER814 

> <Gold.Protein.RotatedAtoms>
  150.7001  134.1430  159.4111 H   0  0  0  0  0  0  0  0  0  0  0  0  # atno 6907 bound_to 6896
  151.9414  135.0209  160.0545 H   0  0  0  0  0  0  0  0  0  0  0  0  # atno 6908 bound_to 6896
  152.2090  133.4862  159.5136 H   0  0  0  0  0  0  0  0  0  0  0  0  # atno 6909 bound_to 6896
  145.4331  139.2308  143.3133 H   0  0  0  0  0  0  0  0  0  0  0  0  # atno 7974 bound_to 7965
  156.2933  140.2266  156.4865 H   0  0  0  0  0  0  0  0  0  0  0  0  # atno 8008 bound_to 7997
  154.7808  140.0460  157.1146 H   0  0  0  0  0  0  0  0  0  0  0  0  # atno 8009 bound_to 7997
  154.9761  140.3072  155.4970 H   0  0  0  0  0  0  0  0  0  0  0  0  # atno 8010 bound_to 7997
  139.5016  144.3606  151.9828 H   0  0  0  0  0  0  0  0  0  0  0  0  # atno 10167 bound_to 10162
  157.6935  131.0237  150.3053 H   0  0  0  0  0  0  0  0  0  0  0  0  # atno 10718 bound_to 10713
  154.5021  135.5792  153.6539 H   0  0  0  0  0  0  0  0  0  0  0  0  # atno 10763 bound_to 10752
  152.9880  135.6138  154.2989 H   0  0  0  0  0  0  0  0  0  0  0  0  # atno 10764 bound_to 10752
  154.2897  135.2849  155.2639 H   0  0  0  0  0  0  0  0  0  0  0  0  # atno 10765 bound_to 10752
  141.0858  133.9141  157.2188 H   0  0  0  0  0  0  0  0  0  0  0  0  # atno 11005 bound_to 11000
  146.2596  140.5070  142.8859 LP  0  0  0  0  0  0  0  0  0  0  0  0  # atno 17320 bound_to 7965
  144.8170  140.6485  143.6378 LP  0  0  0  0  0  0  0  0  0  0  0  0  # atno 17321 bound_to 7965
  140.3042  144.3611  150.6051 LP  0  0  0  0  0  0  0  0  0  0  0  0  # atno 17342 bound_to 10162
  140.5849  143.2170  151.7360 LP  0  0  0  0  0  0  0  0  0  0  0  0  # atno 17343 bound_to 10162
  156.3563  130.3839  149.7288 LP  0  0  0  0  0  0  0  0  0  0  0  0  # atno 17370 bound_to 10713
  156.4749  130.8014  151.3030 LP  0  0  0  0  0  0  0  0  0  0  0  0  # atno 17371 bound_to 10713
  139.9676  135.0137  156.9428 LP  0  0  0  0  0  0  0  0  0  0  0  0  # atno 17394 bound_to 11000
  140.5366  134.0761  155.7330 LP  0  0  0  0  0  0  0  0  0  0  0  0  # atno 17395 bound_to 11000

$$$$
