AV-unprocessed.smi:3338|AV-procd|sdf|12874|dock9
  -GOLD-   2272019273D 1   1.00000     0.00000
 Structure written by MMmdl.
 44 45  0  0  0  0  0  0  0  0  2 V2000
  145.7401  136.0695  150.5969 C   0  0  0  0  0  0  0  0  0  0  0  0
  145.0810  134.9339  151.3991 C   0  0  1  0  0  0  0  0  0  0  0  0
  145.2453  133.5560  150.7312 C   0  0  0  0  0  0  0  0  0  0  0  0
  146.6766  133.0248  150.8924 C   0  0  0  0  0  0  0  0  0  0  0  0
  147.1051  133.0304  152.3682 C   0  0  0  0  0  0  0  0  0  0  0  0
  146.9721  134.3872  152.9579 N   0  3  2  0  0  0  0  0  0  0  0  0
  147.5208  134.4586  154.3348 C   0  0  0  0  0  0  0  0  0  0  0  0
  147.3045  135.8421  154.9778 C   0  0  0  0  0  0  0  0  0  0  0  0
  148.1293  136.8606  154.3396 N   0  0  0  0  0  0  0  0  0  0  0  0
  148.4885  138.0229  154.9082 C   0  0  0  0  0  0  0  0  0  0  0  0
  148.1344  138.3479  156.0425 O   0  0  0  0  0  0  0  0  0  0  0  0
  149.3812  138.9488  154.0646 C   0  0  1  0  0  0  0  0  0  0  0  0
  148.8725  140.4040  154.0284 C   0  0  0  0  0  0  0  0  0  0  0  0
  150.7683  138.8715  154.5093 N   0  0  0  0  0  0  0  0  0  0  0  0
  151.6217  137.7884  154.4449 C   0  0  0  0  0  0  0  0  0  0  0  0
  152.8122  138.1699  154.9941 C   0  0  0  0  0  0  0  0  0  0  0  0
  152.5894  139.5212  155.3787 C   0  0  0  0  0  0  0  0  0  0  0  0
  151.3656  139.9360  155.0950 N   0  0  0  0  0  0  0  0  0  0  0  0
  145.5744  134.8904  152.8603 C   0  0  0  0  0  0  0  0  0  0  0  0
  146.8222  135.9534  150.5381 H   0  0  0  0  0  0  0  0  0  0  0  0
  145.5376  137.0383  151.0545 H   0  0  0  0  0  0  0  0  0  0  0  0
  145.3541  136.1039  149.5775 H   0  0  0  0  0  0  0  0  0  0  0  0
  144.0134  135.1566  151.4224 H   0  0  0  0  0  0  0  0  0  0  0  0
  144.5515  132.8504  151.1903 H   0  0  0  0  0  0  0  0  0  0  0  0
  144.9755  133.6054  149.6757 H   0  0  0  0  0  0  0  0  0  0  0  0
  146.7429  132.0128  150.4914 H   0  0  0  0  0  0  0  0  0  0  0  0
  147.3679  133.6309  150.3060 H   0  0  0  0  0  0  0  0  0  0  0  0
  146.5036  132.3222  152.9405 H   0  0  0  0  0  0  0  0  0  0  0  0
  148.1410  132.6960  152.4376 H   0  0  0  0  0  0  0  0  0  0  0  0
  147.0838  133.6647  154.9430 H   0  0  0  0  0  0  0  0  0  0  0  0
  148.5945  134.2669  154.3085 H   0  0  0  0  0  0  0  0  0  0  0  0
  146.2603  136.1389  154.8757 H   0  0  0  0  0  0  0  0  0  0  0  0
  147.5180  135.8272  156.0468 H   0  0  0  0  0  0  0  0  0  0  0  0
  148.4566  136.6677  153.4039 H   0  0  0  0  0  0  0  0  0  0  0  0
  149.3506  138.5728  153.0407 H   0  0  0  0  0  0  0  0  0  0  0  0
  147.8596  140.4568  153.6277 H   0  0  0  0  0  0  0  0  0  0  0  0
  149.5069  141.0210  153.3918 H   0  0  0  0  0  0  0  0  0  0  0  0
  148.8609  140.8590  155.0197 H   0  0  0  0  0  0  0  0  0  0  0  0
  151.3150  136.8456  154.0161 H   0  0  0  0  0  0  0  0  0  0  0  0
  153.7062  137.5743  155.1043 H   0  0  0  0  0  0  0  0  0  0  0  0
  153.2745  140.2073  155.8546 H   0  0  0  0  0  0  0  0  0  0  0  0
  145.4914  135.8849  153.2974 H   0  0  0  0  0  0  0  0  0  0  0  0
  144.9226  134.2421  153.4483 H   0  0  0  0  0  0  0  0  0  0  0  0
  147.5453  134.9955  152.3908 H   0  0  0  0  0  0  0  0  0  0  0  0
  1  2  1  0  0  0  0
  1 20  1  0  0  0  0
  1 21  1  0  0  0  0
  1 22  1  0  0  0  0
  2 19  1  0  0  0  0
  2  3  1  0  0  0  0
  2 23  1  0  0  0  0
  3  4  1  0  0  0  0
  3 24  1  0  0  0  0
  3 25  1  0  0  0  0
  4  5  1  0  0  0  0
  4 26  1  0  0  0  0
  4 27  1  0  0  0  0
  5  6  1  0  0  0  0
  5 28  1  0  0  0  0
  5 29  1  0  0  0  0
  6  7  1  0  0  0  0
  6 19  1  0  0  0  0
  6 44  1  0  0  0  0
  7  8  1  0  0  0  0
  7 30  1  0  0  0  0
  7 31  1  0  0  0  0
  8  9  1  0  0  0  0
  8 32  1  0  0  0  0
  8 33  1  0  0  0  0
  9 10  1  0  0  0  0
  9 34  1  0  0  0  0
 10 11  2  0  0  0  0
 10 12  1  0  0  0  0
 12 13  1  0  0  0  0
 12 14  1  0  0  0  0
 12 35  1  0  0  0  0
 13 36  1  0  0  0  0
 13 37  1  0  0  0  0
 13 38  1  0  0  0  0
 14 18  1  0  0  0  0
 14 15  1  0  0  0  0
 15 16  2  0  0  0  0
 15 39  1  0  0  0  0
 16 17  1  0  0  0  0
 16 40  1  0  0  0  0
 17 18  2  0  0  0  0
 17 41  1  0  0  0  0
 19 42  1  0  0  0  0
 19 43  1  0  0  0  0
M  CHG  1   6   1
M  END
> <s_m_source_file>
AV-unprocessed.smi

> <i_m_source_file_index>
3338

> <i_lp_mmshare_version>
43012

> <i_f3d_flags>
0

> <s_epik_input>
W0NIM11bQ0BASF0xW0NIMl1bQ0gyXVtDSDJdTihbQ0gyXTEpW0NIMl1bQ0gyXVtOSF1DKD1PKVtDQEhdKFtDSDNdKW4yW2NIXVtjSF1bY0hdbjI=

> <s_epik_cmdline>
J2VwaWtfcHl0aG9uJywgJy1waCcsICc3LjAnLCAnLXRuJywgJzgnLCAnLW1hJywgJzIwMCcsICctbWV0YWxfYmluZGluZycsICctaW1hZScsICc8aW5maWxlLm1hZT4nLCAnLW9tYWUnLCAnPG91dGZpbGUubWFlPic=

> <r_lp_tautomer_probability>
1

> <r_epik_Ionization_Penalty>
0.00225707

> <r_epik_Ionization_Penalty_Charging>
0.00223709

> <r_epik_Ionization_Penalty_Neutral>
1.99775e-05

> <r_epik_State_Penalty>
0.00153978

> <r_epik_Charging_Adjusted_Penalty>
0.00377687

> <i_epik_Tot_Q>
1

> <i_epik_Tot_abs_Q>
1

> <r_epik_Metal_State_Penalty>
-0

> <b_epik_Metal_Only>
0

> <s_lp_Force_Field>
OPLS_2005

> <r_lp_Energy>
22.3922

> <b_lp_Chiralities_Consistent>
1

> <s_lp_Variant>
AV-unprocessed.smi:3338-6

> <Gold.Version>
5.8.1

> <Gold.Id.Protein>
6NUR|6NUR_protein|mol2

> <Gold.PLP.Fitness>
45.9514

> <Gold.PLP.PLP>
-33.7810

> <Gold.PLP.part.hbond>
-3.0000

> <Gold.PLP.part.metal>
0.0000

> <Gold.PLP.part.buried>
0.4696

> <Gold.PLP.part.nonpolar>
-31.0034

> <Gold.PLP.part.repulsive>
0.0538

> <Gold.PLP.ligand.clash>
0.0000

> <Gold.PLP.ligand.torsion>
0.7554

> <Gold.PLP.Chemscore.Hbond>
3.5200

> <Gold.PLP.Chemscore.CHOScore>
1.0000

> <Gold.PLP.Chemscore.Metal>
0.0000

> <Gold.Chemscore.Hbonds>
donor molecule, donor type, donor heavy atom, donor atom, acceptor molecule, acceptor atom, score
      L1  H     6    44       P1  7948  2.00
      L1  H     9    34       P1  7948  1.00
      P1  H  7989  7998       L1    18  0.75
      L1  C    15    39       P1  7949  0.65

> <Gold.PLP.Chemscore.Internal.Correction>
0.1212

> <Gold.Rescore>
     Score         DG    S(hbond)    S(metal)    S(lipo)     H(rot)  DE(clash)    DE(int)     intcor
     15.70     -16.58       1.97        0.00      76.98       1.76       0.03       0.85       ----

> <Gold.Chemscore.Fitness>
15.7004

> <Gold.Chemscore.DG>
-16.5751

> <Gold.Chemscore.ZeroCoef>
-5.4800

> <Gold.Chemscore.Hbond>
1.9718

> <Gold.Chemscore.Metal>
0.0000

> <Gold.Chemscore.Lipo>
76.9828

> <Gold.Chemscore.Internal_Hbond>
0.0000

> <Gold.Chemscore.DEClash>
0.0265

> <Gold.Chemscore.DEInternal>
0.8481

> <Gold.Chemscore.Rot>
1.7570

> <Gold.Chemscore.Internal.Correction>
   9.000000E+99

> <Gold.Chemscore.Hbonds>
donor molecule, donor type, donor heavy atom, donor atom, acceptor molecule, acceptor atom, score
      L1  H     6    44       P1  7948  0.97
      L1  H     9    34       P1  7948  1.00
      P1  H  7989  7998       L1    18  0.03

> <Gold.Chemscore.Hbond.Weighted>
-6.5860

> <Gold.Chemscore.Metal.Weighted>
-0.0000

> <Gold.Chemscore.Lipo.Weighted>
-9.0070

> <Gold.Chemscore.Internal_Hbond.Weighted>
0.0000

> <Gold.Chemscore.DEClash.Weighted>
0.0265

> <Gold.Chemscore.DEInternal.Weighted>
0.8481

> <Gold.Chemscore.Rot.Weighted>
4.4979

> <Gold.Chemscore.Internal.Correction.Weighted>
   9.000000E+99

> <Gold.Protein.RotatedTorsions>
[ 6907 6896 6895 6894 ] final  168.82 input  -60.11 | X-H torsion
[ 7974 7965 7964 7962 ] final  -95.88 input  175.53 | X-H torsion
[ 8008 7997 7996 7995 ] final   96.18 input   59.86 | X-H torsion
[ 10167 10162 10161 10158 ] final  -63.44 input  -65.29 | X-H torsion
[ 10718 10713 10712 10709 ] final  -46.50 input   66.30 | X-H torsion
[ 10763 10752 10751 10750 ] final  -93.88 input  -60.55 | X-H torsion
[ 11005 11000 10999 10996 ] final  -48.21 input  -57.11 | X-H torsion

> <Gold.Protein.ActiveResidues>
 VAL166  LYS551  ARG553  GLY616  TRP617  ASP618  TYR619  PRO620  LYS621  CYS622 
 ASP623  PHE694  ASN695  SER759  ASP760  ASP761  ALA762  ILE779  LEU786  VAL792 
 PHE793  MET794  SER795  GLU796  ALA797  LYS798  CYS799  TRP800  GLU811  SER814 

> <Gold.Protein.RotatedAtoms>
  151.8415  133.3424  159.3644 H   0  0  0  0  0  0  0  0  0  0  0  0  # atno 6907 bound_to 6896
  150.7233  134.5386  159.5745 H   0  0  0  0  0  0  0  0  0  0  0  0  # atno 6908 bound_to 6896
  152.2861  134.7775  160.0438 H   0  0  0  0  0  0  0  0  0  0  0  0  # atno 6909 bound_to 6896
  145.3542  140.9481  143.2537 H   0  0  0  0  0  0  0  0  0  0  0  0  # atno 7974 bound_to 7965
  156.0768  140.3276  155.7644 H   0  0  0  0  0  0  0  0  0  0  0  0  # atno 8008 bound_to 7997
  155.5217  140.0585  157.2923 H   0  0  0  0  0  0  0  0  0  0  0  0  # atno 8009 bound_to 7997
  154.4560  140.1943  156.0396 H   0  0  0  0  0  0  0  0  0  0  0  0  # atno 8010 bound_to 7997
  140.5871  143.2335  151.6220 H   0  0  0  0  0  0  0  0  0  0  0  0  # atno 10167 bound_to 10162
  156.2177  130.4164  149.9033 H   0  0  0  0  0  0  0  0  0  0  0  0  # atno 10718 bound_to 10713
  154.7002  135.5178  153.8516 H   0  0  0  0  0  0  0  0  0  0  0  0  # atno 10763 bound_to 10752
  153.0698  135.6597  154.0282 H   0  0  0  0  0  0  0  0  0  0  0  0  # atno 10764 bound_to 10752
  154.0142  135.2999  155.3368 H   0  0  0  0  0  0  0  0  0  0  0  0  # atno 10765 bound_to 10752
  141.0687  133.6686  156.3408 H   0  0  0  0  0  0  0  0  0  0  0  0  # atno 11005 bound_to 11000
  144.8694  139.5060  143.6775 LP  0  0  0  0  0  0  0  0  0  0  0  0  # atno 17320 bound_to 7965
  146.2955  139.7265  142.9130 LP  0  0  0  0  0  0  0  0  0  0  0  0  # atno 17321 bound_to 7965
  139.5204  144.3224  152.0899 LP  0  0  0  0  0  0  0  0  0  0  0  0  # atno 17342 bound_to 10162
  140.2382  144.4297  150.6271 LP  0  0  0  0  0  0  0  0  0  0  0  0  # atno 17343 bound_to 10162
  156.6690  130.8812  151.3559 LP  0  0  0  0  0  0  0  0  0  0  0  0  # atno 17370 bound_to 10713
  157.7071  130.9398  150.0967 LP  0  0  0  0  0  0  0  0  0  0  0  0  # atno 17371 bound_to 10713
  140.5719  134.5831  157.5459 LP  0  0  0  0  0  0  0  0  0  0  0  0  # atno 17394 bound_to 11000
  139.9501  134.7631  156.0468 LP  0  0  0  0  0  0  0  0  0  0  0  0  # atno 17395 bound_to 11000

$$$$
