AV-unprocessed.smi:1803|AV-procd|sdf|7286|dock5
  -GOLD-   22720 8543D 1   1.00000     0.00000
 Structure written by MMmdl.
 36 38  0  0  0  0  0  0  0  0  2 V2000
  146.4782  137.1392  154.0179 O   0  0  0  0  0  0  0  0  0  0  0  0
  145.6919  137.8926  153.4466 C   0  0  0  0  0  0  0  0  0  0  0  0
  145.9649  139.2079  153.3087 N   0  0  0  0  0  0  0  0  0  0  0  0
  147.0816  139.9932  153.7196 C   0  0  0  0  0  0  0  0  0  0  0  0
  148.2900  139.4961  154.0301 N   0  0  0  0  0  0  0  0  0  0  0  0
  149.1834  140.4893  154.4072 N   0  0  0  0  0  0  0  0  0  0  0  0
  148.6149  141.6975  154.3745 C   0  0  0  0  0  0  0  0  0  0  0  0
  146.9318  141.7379  153.8805 S   0  0  0  0  0  0  0  0  0  0  0  0
  144.5255  137.4679  152.9334 N   0  0  0  0  0  0  0  0  0  0  0  0
  144.0326  136.0948  152.9610 C   0  0  1  0  0  0  0  0  0  0  0  0
  142.5222  136.0073  153.1454 C   0  0  0  0  0  0  0  0  0  0  0  0
  142.2172  134.5948  152.6445 C   0  0  0  0  0  0  0  0  0  0  0  0
  143.1822  134.3330  151.5520 N   0  3  2  0  0  0  0  0  0  0  0  0
  143.6432  132.9259  151.4600 C   0  0  0  0  0  0  0  0  0  0  0  0
  144.6292  132.7502  150.2902 C   0  0  0  0  0  0  0  0  0  0  0  0
  145.7622  133.7979  150.2903 C   0  0  0  0  0  0  0  0  0  0  0  0
  145.6770  134.7539  151.4901 C   0  0  0  0  0  0  0  0  0  0  0  0
  144.2613  135.3585  151.6300 C   0  0  2  0  0  0  0  0  0  0  0  0
  145.2374  139.7358  152.8483 H   0  0  0  0  0  0  0  0  0  0  0  0
  149.1897  142.5708  154.6449 H   0  0  0  0  0  0  0  0  0  0  0  0
  143.9363  138.1546  152.4834 H   0  0  0  0  0  0  0  0  0  0  0  0
  144.5006  135.5397  153.7768 H   0  0  0  0  0  0  0  0  0  0  0  0
  142.2087  136.1670  154.1775 H   0  0  0  0  0  0  0  0  0  0  0  0
  142.0162  136.7436  152.5185 H   0  0  0  0  0  0  0  0  0  0  0  0
  142.3748  133.8849  153.4582 H   0  0  0  0  0  0  0  0  0  0  0  0
  141.1880  134.4854  152.3020 H   0  0  0  0  0  0  0  0  0  0  0  0
  144.1176  132.6317  152.3978 H   0  0  0  0  0  0  0  0  0  0  0  0
  142.7828  132.2697  151.3247 H   0  0  0  0  0  0  0  0  0  0  0  0
  145.0524  131.7456  150.3209 H   0  0  0  0  0  0  0  0  0  0  0  0
  144.0843  132.8163  149.3476 H   0  0  0  0  0  0  0  0  0  0  0  0
  146.7333  133.3017  150.2808 H   0  0  0  0  0  0  0  0  0  0  0  0
  145.7115  134.3784  149.3684 H   0  0  0  0  0  0  0  0  0  0  0  0
  145.9458  134.2143  152.3994 H   0  0  0  0  0  0  0  0  0  0  0  0
  146.4162  135.5480  151.3827 H   0  0  0  0  0  0  0  0  0  0  0  0
  144.0836  136.0447  150.8001 H   0  0  0  0  0  0  0  0  0  0  0  0
  142.6950  134.5252  150.6885 H   0  0  0  0  0  0  0  0  0  0  0  0
  1  2  2  0  0  0  0
  2  3  1  0  0  0  0
  2  9  1  0  0  0  0
  3  4  1  0  0  0  0
  3 19  1  0  0  0  0
  4  8  1  0  0  0  0
  4  5  2  0  0  0  0
  5  6  1  0  0  0  0
  6  7  2  0  0  0  0
  7  8  1  0  0  0  0
  7 20  1  0  0  0  0
  9 10  1  0  0  0  0
  9 21  1  0  0  0  0
 10 18  1  0  0  0  0
 10 11  1  0  0  0  0
 10 22  1  0  0  0  0
 11 12  1  0  0  0  0
 11 23  1  0  0  0  0
 11 24  1  0  0  0  0
 12 13  1  0  0  0  0
 12 25  1  0  0  0  0
 12 26  1  0  0  0  0
 13 18  1  0  0  0  0
 13 14  1  0  0  0  0
 13 36  1  0  0  0  0
 14 15  1  0  0  0  0
 14 27  1  0  0  0  0
 14 28  1  0  0  0  0
 15 16  1  0  0  0  0
 15 29  1  0  0  0  0
 15 30  1  0  0  0  0
 16 17  1  0  0  0  0
 16 31  1  0  0  0  0
 16 32  1  0  0  0  0
 17 18  1  0  0  0  0
 17 33  1  0  0  0  0
 17 34  1  0  0  0  0
 18 35  1  0  0  0  0
M  CHG  1  13   1
M  END
> <s_m_source_file>
AV-unprocessed.smi

> <i_m_source_file_index>
1803

> <i_lp_mmshare_version>
43012

> <i_f3d_flags>
0

> <s_epik_input>
czFbY0hdbm5jMVtOSF1DKD1PKVtOSF1bQ0BIXShbQ0gyXVtDSDJdMilbQ0BASF0oTjIzKVtDSDJdW0NIMl1bQ0gyXVtDSDJdMw==

> <s_epik_cmdline>
J2VwaWtfcHl0aG9uJywgJy1waCcsICc3LjAnLCAnLXRuJywgJzgnLCAnLW1hJywgJzIwMCcsICctbWV0YWxfYmluZGluZycsICctaW1hZScsICc8aW5maWxlLm1hZT4nLCAnLW9tYWUnLCAnPG91dGZpbGUubWFlPic=

> <r_lp_tautomer_probability>
1

> <r_epik_Ionization_Penalty>
0.00213286

> <r_epik_Ionization_Penalty_Charging>
0.00107044

> <r_epik_Ionization_Penalty_Neutral>
0.00106242

> <r_epik_State_Penalty>
-0

> <r_epik_Charging_Adjusted_Penalty>
0.00107044

> <i_epik_Tot_Q>
1

> <i_epik_Tot_abs_Q>
1

> <r_epik_Metal_State_Penalty>
0.292783

> <b_epik_Metal_Only>
0

> <s_lp_Force_Field>
OPLS_2005

> <r_lp_Energy>
41.2336

> <b_lp_Chiralities_Consistent>
1

> <s_lp_Variant>
AV-unprocessed.smi:1803-8

> <Gold.Version>
5.8.1

> <Gold.Id.Protein>
6NUR|6NUR_protein|mol2

> <Gold.PLP.Fitness>
40.3424

> <Gold.PLP.PLP>
-28.3273

> <Gold.PLP.part.hbond>
-2.6653

> <Gold.PLP.part.metal>
0.0000

> <Gold.PLP.part.buried>
-3.8085

> <Gold.PLP.part.nonpolar>
-21.5486

> <Gold.PLP.part.repulsive>
0.3728

> <Gold.PLP.ligand.clash>
0.0000

> <Gold.PLP.ligand.torsion>
0.3978

> <Gold.PLP.Chemscore.Hbond>
3.2675

> <Gold.PLP.Chemscore.CHOScore>
1.0000

> <Gold.PLP.Chemscore.Metal>
0.0000

> <Gold.Chemscore.Hbonds>
donor molecule, donor type, donor heavy atom, donor atom, acceptor molecule, acceptor atom, score
      L1  H     3    19       P1 10175  1.00
      L1  H     9    21       P1 10175  0.25
      L1  H    13    36       P1 10186  2.00
      L1  C     7    20       P1  8028  1.00

> <Gold.PLP.Chemscore.Internal.Correction>
0.0080

> <Gold.Rescore>
     Score         DG    S(hbond)    S(metal)    S(lipo)     H(rot)  DE(clash)    DE(int)     intcor
     13.44     -15.44       1.54        0.00      62.99       1.00       0.50       1.50       ----

> <Gold.Chemscore.Fitness>
13.4423

> <Gold.Chemscore.DG>
-15.4432

> <Gold.Chemscore.ZeroCoef>
-5.4800

> <Gold.Chemscore.Hbond>
1.5430

> <Gold.Chemscore.Metal>
0.0000

> <Gold.Chemscore.Lipo>
62.9865

> <Gold.Chemscore.Internal_Hbond>
0.0000

> <Gold.Chemscore.DEClash>
0.4993

> <Gold.Chemscore.DEInternal>
1.5015

> <Gold.Chemscore.Rot>
1.0000

> <Gold.Chemscore.Internal.Correction>
   9.000000E+99

> <Gold.Chemscore.Hbonds>
donor molecule, donor type, donor heavy atom, donor atom, acceptor molecule, acceptor atom, score
      L1  H     3    19       P1 10175  1.00
      L1  H     9    21       P1 10175  0.26
      L1  H    13    36       P1 10186  0.23

> <Gold.Chemscore.Hbond.Weighted>
-5.1537

> <Gold.Chemscore.Metal.Weighted>
-0.0000

> <Gold.Chemscore.Lipo.Weighted>
-7.3694

> <Gold.Chemscore.Internal_Hbond.Weighted>
0.0000

> <Gold.Chemscore.DEClash.Weighted>
0.4993

> <Gold.Chemscore.DEInternal.Weighted>
1.5015

> <Gold.Chemscore.Rot.Weighted>
2.5600

> <Gold.Chemscore.Internal.Correction.Weighted>
   9.000000E+99

> <Gold.Protein.RotatedTorsions>
[ 6907 6896 6895 6894 ] final -135.31 input  -60.11 | X-H torsion
[ 7974 7965 7964 7962 ] final  -99.56 input  175.53 | X-H torsion
[ 8008 7997 7996 7995 ] final  -18.17 input   59.86 | X-H torsion
[ 10167 10162 10161 10158 ] final   94.28 input  -65.29 | X-H torsion
[ 10718 10713 10712 10709 ] final    1.30 input   66.30 | X-H torsion
[ 10763 10752 10751 10750 ] final -152.77 input  -60.55 | X-H torsion
[ 11005 11000 10999 10996 ] final -140.32 input  -57.11 | X-H torsion

> <Gold.Protein.ActiveResidues>
 VAL166  LYS551  ARG553  GLY616  TRP617  ASP618  TYR619  PRO620  LYS621  CYS622 
 ASP623  PHE694  ASN695  SER759  ASP760  ASP761  ALA762  ILE779  LEU786  VAL792 
 PHE793  MET794  SER795  GLU796  ALA797  LYS798  CYS799  TRP800  GLU811  SER814 

> <Gold.Protein.RotatedAtoms>
  150.9963  133.6100  159.2700 H   0  0  0  0  0  0  0  0  0  0  0  0  # atno 6907 bound_to 6896
  151.3302  135.0839  159.9346 H   0  0  0  0  0  0  0  0  0  0  0  0  # atno 6908 bound_to 6896
  152.5261  133.9594  159.7764 H   0  0  0  0  0  0  0  0  0  0  0  0  # atno 6909 bound_to 6896
  145.3059  140.9389  143.2797 H   0  0  0  0  0  0  0  0  0  0  0  0  # atno 7974 bound_to 7965
  154.4925  140.2123  155.9517 H   0  0  0  0  0  0  0  0  0  0  0  0  # atno 8008 bound_to 7997
  156.1326  140.3194  155.8340 H   0  0  0  0  0  0  0  0  0  0  0  0  # atno 8009 bound_to 7997
  155.4269  140.0501  157.3012 H   0  0  0  0  0  0  0  0  0  0  0  0  # atno 8010 bound_to 7997
  139.8099  144.6778  150.9654 H   0  0  0  0  0  0  0  0  0  0  0  0  # atno 10167 bound_to 10162
  156.8462  130.5538  149.5673 H   0  0  0  0  0  0  0  0  0  0  0  0  # atno 10718 bound_to 10713
  154.7972  135.3228  154.7638 H   0  0  0  0  0  0  0  0  0  0  0  0  # atno 10763 bound_to 10752
  153.8314  135.6879  153.4818 H   0  0  0  0  0  0  0  0  0  0  0  0  # atno 10764 bound_to 10752
  153.1669  135.4638  154.9792 H   0  0  0  0  0  0  0  0  0  0  0  0  # atno 10765 bound_to 10752
  140.8434  134.2374  157.4798 H   0  0  0  0  0  0  0  0  0  0  0  0  # atno 11005 bound_to 11000
  144.9055  139.4594  143.6612 LP  0  0  0  0  0  0  0  0  0  0  0  0  # atno 17320 bound_to 7965
  146.3135  139.7834  142.9001 LP  0  0  0  0  0  0  0  0  0  0  0  0  # atno 17321 bound_to 7965
  140.7818  143.4196  151.0862 LP  0  0  0  0  0  0  0  0  0  0  0  0  # atno 17342 bound_to 10162
  139.7863  143.8282  152.3145 LP  0  0  0  0  0  0  0  0  0  0  0  0  # atno 17343 bound_to 10162
  156.0853  130.5853  150.9637 LP  0  0  0  0  0  0  0  0  0  0  0  0  # atno 17370 bound_to 10713
  157.6328  131.0919  150.8407 LP  0  0  0  0  0  0  0  0  0  0  0  0  # atno 17371 bound_to 10713
  139.8703  134.9647  156.4504 LP  0  0  0  0  0  0  0  0  0  0  0  0  # atno 17394 bound_to 11000
  140.8870  133.7876  155.9529 LP  0  0  0  0  0  0  0  0  0  0  0  0  # atno 17395 bound_to 11000

$$$$
