AV-unprocessed.smi:729|AV-procd|sdf|3519|dock2
  -GOLD-   22720 0513D 1   1.00000     0.00000
 Structure written by MMmdl.
 20 20  0  0  0  0  0  0  0  0  3 V2000
  152.6268  138.8550  159.0489 C   0  0  0  0  0  0  0  0  0  0  0  0
  152.0225  140.0480  158.3148 C   0  0  0  0  0  0  0  0  0  0  0  0
  151.9694  141.2565  158.9182 C   0  0  0  0  0  0  0  0  0  0  0  0
  151.4511  142.3726  158.2766 C   0  0  0  0  0  0  0  0  0  0  0  0
  151.3966  143.4922  158.8322 O   0  5  0  0  0  0  0  0  0  0  0  0
  151.0055  142.1712  156.9780 C   0  0  0  0  0  0  0  0  0  0  0  0
  151.0430  140.8967  156.2702 C   0  0  0  0  0  0  0  0  0  0  0  0
  150.6448  140.7930  155.1086 O   0  0  0  0  0  0  0  0  0  0  0  0
  151.5355  139.8489  156.9916 N   0  0  0  0  0  0  0  0  0  0  0  0
  151.6266  138.5178  156.3428 C   0  0  0  0  0  0  0  0  0  0  0  0
  152.3591  138.5437  154.9952 C   0  0  0  0  0  0  0  0  0  0  0  0
  153.0141  139.5738  154.7216 O   0  0  0  0  0  0  0  0  0  0  0  0
  152.2353  137.5456  154.2514 O   0  5  0  0  0  0  0  0  0  0  0  0
  153.1063  139.1773  159.9736 H   0  0  0  0  0  0  0  0  0  0  0  0
  153.3951  138.3535  158.4623 H   0  0  0  0  0  0  0  0  0  0  0  0
  151.8561  138.1360  159.3249 H   0  0  0  0  0  0  0  0  0  0  0  0
  152.3445  141.3560  159.9268 H   0  0  0  0  0  0  0  0  0  0  0  0
  150.5977  143.0144  156.4393 H   0  0  0  0  0  0  0  0  0  0  0  0
  152.1313  137.7738  156.9597 H   0  0  0  0  0  0  0  0  0  0  0  0
  150.6297  138.0984  156.2140 H   0  0  0  0  0  0  0  0  0  0  0  0
  1  2  1  0  0  0  0
  1 14  1  0  0  0  0
  1 15  1  0  0  0  0
  1 16  1  0  0  0  0
  2  9  1  0  0  0  0
  2  3  2  0  0  0  0
  3  4  1  0  0  0  0
  3 17  1  0  0  0  0
  4  5  1  0  0  0  0
  4  6  2  0  0  0  0
  6  7  1  0  0  0  0
  6 18  1  0  0  0  0
  7  8  2  0  0  0  0
  7  9  1  0  0  0  0
  9 10  1  0  0  0  0
 10 11  1  0  0  0  0
 10 19  1  0  0  0  0
 10 20  1  0  0  0  0
 11 12  2  0  0  0  0
 11 13  1  0  0  0  0
M  CHG  1   5  -1
M  CHG  1  13  -1
M  END
> <s_m_source_file>
AV-unprocessed.smi

> <i_m_source_file_index>
729

> <i_lp_mmshare_version>
43012

> <i_f3d_flags>
0

> <s_epik_input>
W0NIM11jMVtjSF1jKFtPSF0pW2NIXWMoPU8pbjFbQ0gyXUMoPU8pW09IXQ==

> <s_epik_cmdline>
J2VwaWtfcHl0aG9uJywgJy1waCcsICc3LjAnLCAnLXRuJywgJzgnLCAnLW1hJywgJzIwMCcsICctbWV0YWxfYmluZGluZycsICctaW1hZScsICc8aW5maWxlLm1hZT4nLCAnLW9tYWUnLCAnPG91dGZpbGUubWFlPic=

> <r_lp_tautomer_probability>
1

> <r_epik_Ionization_Penalty>
0.494568

> <r_epik_Ionization_Penalty_Charging>
0.494568

> <r_epik_Ionization_Penalty_Neutral>
1.61422e-13

> <r_epik_State_Penalty>
0.445538

> <r_epik_Charging_Adjusted_Penalty>
0.940106

> <i_epik_Tot_Q>
-2

> <i_epik_Tot_abs_Q>
2

> <r_epik_Metal_State_Penalty>
0.445538

> <b_epik_Metal_Only>
0

> <s_lp_Force_Field>
OPLS_2005

> <r_lp_Energy>
22.4438

> <b_lp_Chiralities_Consistent>
1

> <s_lp_Variant>
AV-unprocessed.smi:729-1

> <Gold.Version>
5.8.1

> <Gold.Id.Protein>
6NUR|6NUR_protein|mol2

> <Gold.PLP.Fitness>
36.7045

> <Gold.PLP.PLP>
-23.8824

> <Gold.PLP.part.hbond>
-4.0000

> <Gold.PLP.part.metal>
0.0000

> <Gold.PLP.part.buried>
-4.2776

> <Gold.PLP.part.nonpolar>
-15.8053

> <Gold.PLP.part.repulsive>
0.3097

> <Gold.PLP.ligand.clash>
0.0000

> <Gold.PLP.ligand.torsion>
0.2165

> <Gold.PLP.Chemscore.Hbond>
4.4160

> <Gold.PLP.Chemscore.CHOScore>
0.0000

> <Gold.PLP.Chemscore.Metal>
0.0000

> <Gold.Chemscore.Hbonds>
donor molecule, donor type, donor heavy atom, donor atom, acceptor molecule, acceptor atom, score
      P1  H  7989  7998       L1     8  0.85
      P1  H  7997  8010       L1    12  2.00
      P1  H 10752 10764       L1    13  1.54

> <Gold.PLP.Chemscore.Internal.Correction>
0.0071

> <Gold.Rescore>
     Score         DG    S(hbond)    S(metal)    S(lipo)     H(rot)  DE(clash)    DE(int)     intcor
     14.90     -15.36       2.67        0.00      41.19       1.51       0.07       0.39       ----

> <Gold.Chemscore.Fitness>
14.9008

> <Gold.Chemscore.DG>
-15.3588

> <Gold.Chemscore.ZeroCoef>
-5.4800

> <Gold.Chemscore.Hbond>
2.6687

> <Gold.Chemscore.Metal>
0.0000

> <Gold.Chemscore.Lipo>
41.1875

> <Gold.Chemscore.Internal_Hbond>
0.0000

> <Gold.Chemscore.DEClash>
0.0710

> <Gold.Chemscore.DEInternal>
0.3870

> <Gold.Chemscore.Rot>
1.5053

> <Gold.Chemscore.Internal.Correction>
   9.000000E+99

> <Gold.Chemscore.Hbonds>
donor molecule, donor type, donor heavy atom, donor atom, acceptor molecule, acceptor atom, score
      P1  H  7989  7998       L1     8  0.83
      P1  H  7997  8010       L1    12  0.98
      P1  H 10752 10764       L1    13  0.75

> <Gold.Chemscore.Hbond.Weighted>
-8.9133

> <Gold.Chemscore.Metal.Weighted>
-0.0000

> <Gold.Chemscore.Lipo.Weighted>
-4.8189

> <Gold.Chemscore.Internal_Hbond.Weighted>
0.0000

> <Gold.Chemscore.DEClash.Weighted>
0.0710

> <Gold.Chemscore.DEInternal.Weighted>
0.3870

> <Gold.Chemscore.Rot.Weighted>
3.8534

> <Gold.Chemscore.Internal.Correction.Weighted>
   9.000000E+99

> <Gold.Protein.RotatedTorsions>
[ 6907 6896 6895 6894 ] final  -21.21 input  -60.11 | X-H torsion
[ 7974 7965 7964 7962 ] final -167.63 input  175.53 | X-H torsion
[ 8008 7997 7996 7995 ] final  110.95 input   59.86 | X-H torsion
[ 10167 10162 10161 10158 ] final  110.75 input  -65.29 | X-H torsion
[ 10718 10713 10712 10709 ] final  -16.17 input   66.30 | X-H torsion
[ 10763 10752 10751 10750 ] final  -88.24 input  -60.55 | X-H torsion
[ 11005 11000 10999 10996 ] final   29.22 input  -57.11 | X-H torsion

> <Gold.Protein.ActiveResidues>
 VAL166  LYS551  ARG553  GLY616  TRP617  ASP618  TYR619  PRO620  LYS621  CYS622 
 ASP623  PHE694  ASN695  SER759  ASP760  ASP761  ALA762  ILE779  LEU786  VAL792 
 PHE793  MET794  SER795  GLU796  ALA797  LYS798  CYS799  TRP800  GLU811  SER814 

> <Gold.Protein.RotatedAtoms>
  151.2367  135.0574  159.9008 H   0  0  0  0  0  0  0  0  0  0  0  0  # atno 6907 bound_to 6896
  152.5398  134.0478  159.8106 H   0  0  0  0  0  0  0  0  0  0  0  0  # atno 6908 bound_to 6896
  151.0666  133.5452  159.2661 H   0  0  0  0  0  0  0  0  0  0  0  0  # atno 6909 bound_to 6896
  144.7219  140.2489  143.6281 H   0  0  0  0  0  0  0  0  0  0  0  0  # atno 7974 bound_to 7965
  156.2090  140.3028  155.9690 H   0  0  0  0  0  0  0  0  0  0  0  0  # atno 8008 bound_to 7997
  155.2771  140.0436  157.3029 H   0  0  0  0  0  0  0  0  0  0  0  0  # atno 8009 bound_to 7997
  154.5673  140.2338  155.8253 H   0  0  0  0  0  0  0  0  0  0  0  0  # atno 8010 bound_to 7997
  139.6664  144.7127  151.1769 H   0  0  0  0  0  0  0  0  0  0  0  0  # atno 10167 bound_to 10162
  156.5913  130.4800  149.6278 H   0  0  0  0  0  0  0  0  0  0  0  0  # atno 10718 bound_to 10713
  154.6424  135.5384  153.7804 H   0  0  0  0  0  0  0  0  0  0  0  0  # atno 10763 bound_to 10752
  153.0341  135.6462  154.1140 H   0  0  0  0  0  0  0  0  0  0  0  0  # atno 10764 bound_to 10752
  154.1064  135.2929  155.3220 H   0  0  0  0  0  0  0  0  0  0  0  0  # atno 10765 bound_to 10752
  140.3072  134.2690  155.7741 H   0  0  0  0  0  0  0  0  0  0  0  0  # atno 11005 bound_to 11000
  145.8247  139.2059  143.1917 LP  0  0  0  0  0  0  0  0  0  0  0  0  # atno 17320 bound_to 7965
  146.0483  140.8095  142.9794 LP  0  0  0  0  0  0  0  0  0  0  0  0  # atno 17321 bound_to 7965
  140.7601  143.5913  150.8794 LP  0  0  0  0  0  0  0  0  0  0  0  0  # atno 17342 bound_to 10162
  139.9575  143.6202  152.3012 LP  0  0  0  0  0  0  0  0  0  0  0  0  # atno 17343 bound_to 10162
  156.2547  130.6928  151.1677 LP  0  0  0  0  0  0  0  0  0  0  0  0  # atno 17370 bound_to 10713
  157.7303  131.0617  150.5734 LP  0  0  0  0  0  0  0  0  0  0  0  0  # atno 17371 bound_to 10713
  141.2116  133.7684  156.9854 LP  0  0  0  0  0  0  0  0  0  0  0  0  # atno 17394 bound_to 11000
  140.1057  134.9508  157.1990 LP  0  0  0  0  0  0  0  0  0  0  0  0  # atno 17395 bound_to 11000

$$$$
