AV-unprocessed.smi:2492|AV-procd|sdf|9811|dock9
  -GOLD-   2272013443D 1   1.00000     0.00000
 Structure written by MMmdl.
 33 34  0  0  0  0  0  0  0  0  1 V2000
  144.0843  132.8315  149.3906 C   0  0  0  0  0  0  0  0  0  0  0  0
  145.7181  132.0685  149.2103 S   0  0  0  0  0  0  0  0  0  0  0  0
  146.4611  132.5194  150.8045 C   0  0  2  0  0  0  0  0  0  0  0  0
  145.9404  131.6616  151.9548 C   0  0  0  0  0  0  0  0  0  0  0  0
  146.2611  132.4762  153.2087 C   0  0  0  0  0  0  0  0  0  0  0  0
  146.2155  133.9548  152.7774 C   0  0  1  0  0  0  0  0  0  0  0  0
  147.4089  134.6665  153.2314 N   0  0  0  0  0  0  0  0  0  0  0  0
  147.9118  134.6403  154.4743 C   0  0  0  0  0  0  0  0  0  0  0  0
  147.4127  134.0016  155.4011 O   0  0  0  0  0  0  0  0  0  0  0  0
  149.0176  135.3982  154.5658 N   0  0  0  0  0  0  0  0  0  0  0  0
  149.8446  135.5907  155.7014 C   0  0  0  0  0  0  0  0  0  0  0  0
  151.1039  136.0281  155.7020 N   0  0  0  0  0  0  0  0  0  0  0  0
  151.3773  136.0211  157.0355 C   0  0  0  0  0  0  0  0  0  0  0  0
  152.6974  136.4397  157.5867 C   0  0  0  0  0  0  0  0  0  0  0  0
  150.3915  135.6172  157.8290 N   0  0  0  0  0  0  0  0  0  0  0  0
  149.3518  135.3253  156.9335 O   0  0  0  0  0  0  0  0  0  0  0  0
  146.1343  133.9513  151.2397 C   0  0  0  0  0  0  0  0  0  0  0  0
  143.4961  132.6733  148.4867 H   0  0  0  0  0  0  0  0  0  0  0  0
  144.1812  133.9046  149.5560 H   0  0  0  0  0  0  0  0  0  0  0  0
  143.5462  132.3950  150.2321 H   0  0  0  0  0  0  0  0  0  0  0  0
  147.5434  132.3983  150.7385 H   0  0  0  0  0  0  0  0  0  0  0  0
  144.8597  131.5373  151.8690 H   0  0  0  0  0  0  0  0  0  0  0  0
  146.3895  130.6681  151.9748 H   0  0  0  0  0  0  0  0  0  0  0  0
  145.5647  132.2635  154.0204 H   0  0  0  0  0  0  0  0  0  0  0  0
  147.2580  132.2068  153.5616 H   0  0  0  0  0  0  0  0  0  0  0  0
  145.3094  134.4159  153.1750 H   0  0  0  0  0  0  0  0  0  0  0  0
  147.8900  135.2225  152.5397 H   0  0  0  0  0  0  0  0  0  0  0  0
  149.3088  135.8809  153.7288 H   0  0  0  0  0  0  0  0  0  0  0  0
  152.7158  136.3446  158.6731 H   0  0  0  0  0  0  0  0  0  0  0  0
  152.9002  137.4792  157.3281 H   0  0  0  0  0  0  0  0  0  0  0  0
  153.4920  135.8185  157.1727 H   0  0  0  0  0  0  0  0  0  0  0  0
  146.7949  134.6832  150.7728 H   0  0  0  0  0  0  0  0  0  0  0  0
  145.1168  134.2046  150.9384 H   0  0  0  0  0  0  0  0  0  0  0  0
  1  2  1  0  0  0  0
  1 18  1  0  0  0  0
  1 19  1  0  0  0  0
  1 20  1  0  0  0  0
  2  3  1  0  0  0  0
  3 17  1  0  0  0  0
  3  4  1  0  0  0  0
  3 21  1  0  0  0  0
  4  5  1  0  0  0  0
  4 22  1  0  0  0  0
  4 23  1  0  0  0  0
  5  6  1  0  0  0  0
  5 24  1  0  0  0  0
  5 25  1  0  0  0  0
  6  7  1  0  0  0  0
  6 17  1  0  0  0  0
  6 26  1  0  0  0  0
  7  8  1  0  0  0  0
  7 27  1  0  0  0  0
  8  9  2  0  0  0  0
  8 10  1  0  0  0  0
 10 11  1  0  0  0  0
 10 28  1  0  0  0  0
 11 16  1  0  0  0  0
 11 12  2  0  0  0  0
 12 13  1  0  0  0  0
 13 14  1  0  0  0  0
 13 15  2  0  0  0  0
 14 29  1  0  0  0  0
 14 30  1  0  0  0  0
 14 31  1  0  0  0  0
 15 16  1  0  0  0  0
 17 32  1  0  0  0  0
 17 33  1  0  0  0  0
M  END
> <s_m_source_file>
AV-unprocessed.smi

> <i_m_source_file_index>
2492

> <i_lp_mmshare_version>
43012

> <i_f3d_flags>
0

> <s_epik_input>
W0NIM11TW0NAQEhdMVtDSDJdW0NIMl1bQ0BIXShbQ0gyXTEpW05IXUMoPU8pW05IXWMybmMoW0NIM10pbm8y

> <s_epik_cmdline>
J2VwaWtfcHl0aG9uJywgJy1waCcsICc3LjAnLCAnLXRuJywgJzgnLCAnLW1hJywgJzIwMCcsICctbWV0YWxfYmluZGluZycsICctaW1hZScsICc8aW5maWxlLm1hZT4nLCAnLW9tYWUnLCAnPG91dGZpbGUubWFlPic=

> <r_lp_tautomer_probability>
1

> <r_epik_Ionization_Penalty>
3.56659e-05

> <r_epik_Ionization_Penalty_Charging>
0

> <r_epik_Ionization_Penalty_Neutral>
3.56659e-05

> <r_epik_State_Penalty>
-0

> <r_epik_Charging_Adjusted_Penalty>
0

> <i_epik_Tot_Q>
0

> <i_epik_Tot_abs_Q>
0

> <r_epik_Metal_State_Penalty>
0.0146047

> <b_epik_Metal_Only>
0

> <s_lp_Force_Field>
OPLS_2005

> <r_lp_Energy>
14.5779

> <b_lp_Chiralities_Consistent>
1

> <s_lp_Variant>
AV-unprocessed.smi:2492-1

> <Gold.Version>
5.8.1

> <Gold.Id.Protein>
6NUR|6NUR_protein|mol2

> <Gold.PLP.Fitness>
33.9794

> <Gold.PLP.PLP>
-24.3068

> <Gold.PLP.part.hbond>
-4.0000

> <Gold.PLP.part.metal>
0.0000

> <Gold.PLP.part.buried>
-1.9596

> <Gold.PLP.part.nonpolar>
-18.0654

> <Gold.PLP.part.repulsive>
0.1216

> <Gold.PLP.ligand.clash>
0.0000

> <Gold.PLP.ligand.torsion>
0.3743

> <Gold.PLP.Chemscore.Hbond>
3.4720

> <Gold.PLP.Chemscore.CHOScore>
0.0000

> <Gold.PLP.Chemscore.Metal>
0.0000

> <Gold.Chemscore.Hbonds>
donor molecule, donor type, donor heavy atom, donor atom, acceptor molecule, acceptor atom, score
      L1  H     7    27       P1  7948  1.00
      L1  H    10    28       P1  7948  0.94
      P1  H  6896  6907       L1    15  0.66
      P1  H 10752 10763       L1    12  0.57

> <Gold.PLP.Chemscore.Internal.Correction>
0.0053

> <Gold.Rescore>
     Score         DG    S(hbond)    S(metal)    S(lipo)     H(rot)  DE(clash)    DE(int)     intcor
     15.23     -18.35       2.88        0.00      55.71       1.28       0.04       3.08       ----

> <Gold.Chemscore.Fitness>
15.2275

> <Gold.Chemscore.DG>
-18.3461

> <Gold.Chemscore.ZeroCoef>
-5.4800

> <Gold.Chemscore.Hbond>
2.8829

> <Gold.Chemscore.Metal>
0.0000

> <Gold.Chemscore.Lipo>
55.7108

> <Gold.Chemscore.Internal_Hbond>
0.0000

> <Gold.Chemscore.DEClash>
0.0402

> <Gold.Chemscore.DEInternal>
3.0784

> <Gold.Chemscore.Rot>
1.2815

> <Gold.Chemscore.Internal.Correction>
   9.000000E+99

> <Gold.Chemscore.Hbonds>
donor molecule, donor type, donor heavy atom, donor atom, acceptor molecule, acceptor atom, score
      L1  H     7    27       P1  7948  0.97
      L1  H    10    28       P1  7948  0.63
      P1  H  6896  6907       L1    15  0.62
      P1  H 10752 10763       L1    12  0.41

> <Gold.Chemscore.Hbond.Weighted>
-9.6287

> <Gold.Chemscore.Metal.Weighted>
-0.0000

> <Gold.Chemscore.Lipo.Weighted>
-6.5182

> <Gold.Chemscore.Internal_Hbond.Weighted>
0.0000

> <Gold.Chemscore.DEClash.Weighted>
0.0402

> <Gold.Chemscore.DEInternal.Weighted>
3.0784

> <Gold.Chemscore.Rot.Weighted>
3.2808

> <Gold.Chemscore.Internal.Correction.Weighted>
   9.000000E+99

> <Gold.Protein.RotatedTorsions>
[ 6907 6896 6895 6894 ] final  -59.29 input  -60.11 | X-H torsion
[ 7974 7965 7964 7962 ] final   52.29 input  175.53 | X-H torsion
[ 8008 7997 7996 7995 ] final -142.07 input   59.86 | X-H torsion
[ 10167 10162 10161 10158 ] final -121.73 input  -65.29 | X-H torsion
[ 10718 10713 10712 10709 ] final  144.66 input   66.30 | X-H torsion
[ 10763 10752 10751 10750 ] final   55.60 input  -60.55 | X-H torsion
[ 11005 11000 10999 10996 ] final  127.87 input  -57.11 | X-H torsion

> <Gold.Protein.ActiveResidues>
 VAL166  LYS551  ARG553  GLY616  TRP617  ASP618  TYR619  PRO620  LYS621  CYS622 
 ASP623  PHE694  ASN695  SER759  ASP760  ASP761  ALA762  ILE779  LEU786  VAL792 
 PHE793  MET794  SER795  GLU796  ALA797  LYS798  CYS799  TRP800  GLU811  SER814 

> <Gold.Protein.RotatedAtoms>
  150.7941  134.6988  159.6537 H   0  0  0  0  0  0  0  0  0  0  0  0  # atno 6907 bound_to 6896
  152.4051  134.6217  160.0062 H   0  0  0  0  0  0  0  0  0  0  0  0  # atno 6908 bound_to 6896
  151.6476  133.3285  159.3180 H   0  0  0  0  0  0  0  0  0  0  0  0  # atno 6909 bound_to 6896
  145.9828  139.4259  143.0121 H   0  0  0  0  0  0  0  0  0  0  0  0  # atno 7974 bound_to 7965
  155.4882  140.0565  157.2957 H   0  0  0  0  0  0  0  0  0  0  0  0  # atno 8008 bound_to 7997
  154.4633  140.2007  156.0136 H   0  0  0  0  0  0  0  0  0  0  0  0  # atno 8009 bound_to 7997
  156.0930  140.3230  155.7845 H   0  0  0  0  0  0  0  0  0  0  0  0  # atno 8010 bound_to 7997
  140.0218  143.5336  152.2217 H   0  0  0  0  0  0  0  0  0  0  0  0  # atno 10167 bound_to 10162
  157.3545  131.0956  151.0970 H   0  0  0  0  0  0  0  0  0  0  0  0  # atno 10718 bound_to 10713
  152.9819  135.5705  154.5093 H   0  0  0  0  0  0  0  0  0  0  0  0  # atno 10763 bound_to 10752
  154.4599  135.2781  155.1722 H   0  0  0  0  0  0  0  0  0  0  0  0  # atno 10764 bound_to 10752
  154.3314  135.6248  153.5606 H   0  0  0  0  0  0  0  0  0  0  0  0  # atno 10765 bound_to 10752
  139.9530  134.9618  156.8918 H   0  0  0  0  0  0  0  0  0  0  0  0  # atno 11005 bound_to 11000
  145.7745  140.9882  143.1132 LP  0  0  0  0  0  0  0  0  0  0  0  0  # atno 17320 bound_to 7965
  144.6866  139.9488  143.7477 LP  0  0  0  0  0  0  0  0  0  0  0  0  # atno 17321 bound_to 7965
  139.6134  144.7614  151.2900 LP  0  0  0  0  0  0  0  0  0  0  0  0  # atno 17342 bound_to 10162
  140.7339  143.6781  150.8024 LP  0  0  0  0  0  0  0  0  0  0  0  0  # atno 17343 bound_to 10162
  157.2133  130.6448  149.5782 LP  0  0  0  0  0  0  0  0  0  0  0  0  # atno 17370 bound_to 10713
  155.9727  130.4653  150.6247 LP  0  0  0  0  0  0  0  0  0  0  0  0  # atno 17371 bound_to 10713
  140.5674  134.0476  155.7419 LP  0  0  0  0  0  0  0  0  0  0  0  0  # atno 17394 bound_to 11000
  141.1197  133.9482  157.2754 LP  0  0  0  0  0  0  0  0  0  0  0  0  # atno 17395 bound_to 11000

$$$$
