AV-unprocessed.smi:1196|AV-procd|sdf|5006|dock2
  -GOLD-   22720 4 13D 1   1.00000     0.00000
 Structure written by MMmdl.
 36 37  0  0  0  0  0  0  0  0  2 V2000
  150.0090  142.0090  158.3924 C   0  0  0  0  0  0  0  0  0  0  0  0
  150.7002  142.0994  157.0254 C   0  0  2  0  0  0  0  0  0  0  0  0
  151.6438  143.3191  156.9527 C   0  0  0  0  0  0  0  0  0  0  0  0
  151.8065  143.9793  158.2366 N   0  0  0  0  0  0  0  0  0  0  0  0
  152.4465  143.5124  159.3653 C   0  0  0  0  0  0  0  0  0  0  0  0
  152.3597  144.4896  160.3150 C   0  0  0  0  0  0  0  0  0  0  0  0
  151.6378  145.5294  159.6650 C   0  0  0  0  0  0  0  0  0  0  0  0
  151.3020  145.2183  158.4237 N   0  0  0  0  0  0  0  0  0  0  0  0
  149.6787  142.1660  155.9808 N   0  0  0  0  0  0  0  0  0  0  0  0
  149.6196  141.3833  154.8914 C   0  0  0  0  0  0  0  0  0  0  0  0
  150.4198  140.4762  154.6619 O   0  0  0  0  0  0  0  0  0  0  0  0
  148.4873  141.6737  153.9058 C   0  0  0  0  0  0  0  0  0  0  0  0
  147.1014  141.4661  154.5434 C   0  0  0  0  0  0  0  0  0  0  0  0
  146.5747  140.0268  154.3789 C   0  0  1  0  0  0  0  0  0  0  0  0
  146.1991  139.7583  153.0073 N   0  0  0  0  0  0  0  0  0  0  0  0
  146.8669  138.7164  152.5161 C   0  0  0  0  0  0  0  0  0  0  0  0
  146.6754  138.3065  151.3734 O   0  0  0  0  0  0  0  0  0  0  0  0
  147.7265  138.2399  153.4374 N   0  5  0  0  0  0  0  0  0  0  0  0
  147.6446  138.9539  154.5809 C   0  0  0  0  0  0  0  0  0  0  0  0
  148.2611  138.8355  155.6387 O   0  0  0  0  0  0  0  0  0  0  0  0
  150.7401  141.9228  159.1965 H   0  0  0  0  0  0  0  0  0  0  0  0
  149.3572  141.1364  158.4468 H   0  0  0  0  0  0  0  0  0  0  0  0
  149.4005  142.8925  158.5895 H   0  0  0  0  0  0  0  0  0  0  0  0
  151.2951  141.1920  156.9053 H   0  0  0  0  0  0  0  0  0  0  0  0
  152.6241  143.0244  156.5738 H   0  0  0  0  0  0  0  0  0  0  0  0
  151.2488  144.0540  156.2501 H   0  0  0  0  0  0  0  0  0  0  0  0
  152.9112  142.5378  159.3953 H   0  0  0  0  0  0  0  0  0  0  0  0
  152.7550  144.4672  161.3195 H   0  0  0  0  0  0  0  0  0  0  0  0
  151.3477  146.4935  160.0559 H   0  0  0  0  0  0  0  0  0  0  0  0
  148.9788  142.8872  156.0776 H   0  0  0  0  0  0  0  0  0  0  0  0
  148.5876  142.7038  153.5624 H   0  0  0  0  0  0  0  0  0  0  0  0
  148.5946  141.0397  153.0245 H   0  0  0  0  0  0  0  0  0  0  0  0
  147.1365  141.7316  155.6018 H   0  0  0  0  0  0  0  0  0  0  0  0
  146.3901  142.1540  154.0834 H   0  0  0  0  0  0  0  0  0  0  0  0
  145.7318  139.8338  155.0440 H   0  0  0  0  0  0  0  0  0  0  0  0
  145.4975  140.2838  152.5071 H   0  0  0  0  0  0  0  0  0  0  0  0
  1  2  1  0  0  0  0
  1 21  1  0  0  0  0
  1 22  1  0  0  0  0
  1 23  1  0  0  0  0
  2  3  1  0  0  0  0
  2  9  1  0  0  0  0
  2 24  1  0  0  0  0
  3  4  1  0  0  0  0
  3 25  1  0  0  0  0
  3 26  1  0  0  0  0
  4  8  1  0  0  0  0
  4  5  1  0  0  0  0
  5  6  2  0  0  0  0
  5 27  1  0  0  0  0
  6  7  1  0  0  0  0
  6 28  1  0  0  0  0
  7  8  2  0  0  0  0
  7 29  1  0  0  0  0
  9 10  1  0  0  0  0
  9 30  1  0  0  0  0
 10 11  2  0  0  0  0
 10 12  1  0  0  0  0
 12 13  1  0  0  0  0
 12 31  1  0  0  0  0
 12 32  1  0  0  0  0
 13 14  1  0  0  0  0
 13 33  1  0  0  0  0
 13 34  1  0  0  0  0
 14 19  1  0  0  0  0
 14 15  1  0  0  0  0
 14 35  1  0  0  0  0
 15 16  1  0  0  0  0
 15 36  1  0  0  0  0
 16 17  2  0  0  0  0
 16 18  1  0  0  0  0
 18 19  1  0  0  0  0
 19 20  2  0  0  0  0
M  CHG  1  18  -1
M  END
> <s_m_source_file>
AV-unprocessed.smi

> <i_m_source_file_index>
1196

> <i_lp_mmshare_version>
43012

> <i_f3d_flags>
0

> <s_epik_input>
bjFbY0hdW2NIXVtjSF1uMVtDSDJdW0NAQEhdKFtDSDNdKVtOSF1DKD1PKVtDSDJdW0NIMl1bQ0BASF0yW05IXUMoPU8pW05IXUMyPU8=

> <s_epik_cmdline>
J2VwaWtfcHl0aG9uJywgJy1waCcsICc3LjAnLCAnLXRuJywgJzgnLCAnLW1hJywgJzIwMCcsICctbWV0YWxfYmluZGluZycsICctaW1hZScsICc8aW5maWxlLm1hZT4nLCAnLW9tYWUnLCAnPG91dGZpbGUubWFlPic=

> <r_lp_tautomer_probability>
1

> <r_epik_Ionization_Penalty>
2.57056

> <r_epik_Ionization_Penalty_Charging>
2.57023

> <r_epik_Ionization_Penalty_Neutral>
0.000331301

> <r_epik_State_Penalty>
2.56828

> <r_epik_Charging_Adjusted_Penalty>
5.13851

> <i_epik_Tot_Q>
-1

> <i_epik_Tot_abs_Q>
1

> <r_epik_Metal_State_Penalty>
0.444883

> <b_epik_Metal_Only>
1

> <s_lp_Force_Field>
OPLS_2005

> <r_lp_Energy>
7.37265

> <b_lp_Chiralities_Consistent>
1

> <s_lp_Variant>
AV-unprocessed.smi:1196-11

> <Gold.Version>
5.8.1

> <Gold.Id.Protein>
6NUR|6NUR_protein|mol2

> <Gold.PLP.Fitness>
44.0776

> <Gold.PLP.PLP>
-36.1762

> <Gold.PLP.part.hbond>
-4.0000

> <Gold.PLP.part.metal>
0.0000

> <Gold.PLP.part.buried>
-4.7898

> <Gold.PLP.part.nonpolar>
-31.3053

> <Gold.PLP.part.repulsive>
3.0094

> <Gold.PLP.ligand.clash>
0.0000

> <Gold.PLP.ligand.torsion>
1.1836

> <Gold.PLP.Chemscore.Hbond>
3.3680

> <Gold.PLP.Chemscore.CHOScore>
0.0000

> <Gold.PLP.Chemscore.Metal>
0.0000

> <Gold.Chemscore.Hbonds>
donor molecule, donor type, donor heavy atom, donor atom, acceptor molecule, acceptor atom, score
      L1  H     9    30       P1  8028  0.72
      L1  H    15    36       P1 10175  0.80
      P1  H  7954  7966       L1    17  0.71
      P1  H  7989  7998       L1    11  1.00

> <Gold.PLP.Chemscore.Internal.Correction>
0.1646

> <Gold.Rescore>
     Score         DG    S(hbond)    S(metal)    S(lipo)     H(rot)  DE(clash)    DE(int)     intcor
     10.33     -17.08       3.07        0.00      74.79       2.89       2.92       3.83       ----

> <Gold.Chemscore.Fitness>
10.3273

> <Gold.Chemscore.DG>
-17.0766

> <Gold.Chemscore.ZeroCoef>
-5.4800

> <Gold.Chemscore.Hbond>
3.0709

> <Gold.Chemscore.Metal>
0.0000

> <Gold.Chemscore.Lipo>
74.7863

> <Gold.Chemscore.Internal_Hbond>
0.0000

> <Gold.Chemscore.DEClash>
2.9203

> <Gold.Chemscore.DEInternal>
3.8290

> <Gold.Chemscore.Rot>
2.8946

> <Gold.Chemscore.Internal.Correction>
   9.000000E+99

> <Gold.Chemscore.Hbonds>
donor molecule, donor type, donor heavy atom, donor atom, acceptor molecule, acceptor atom, score
      L1  H     9    30       P1  8028  0.72
      L1  H    15    36       P1 10175  0.59
      P1  H  7954  7966       L1    17  0.71
      P1  H  7989  7998       L1    11  0.83

> <Gold.Chemscore.Hbond.Weighted>
-10.2567

> <Gold.Chemscore.Metal.Weighted>
-0.0000

> <Gold.Chemscore.Lipo.Weighted>
-8.7500

> <Gold.Chemscore.Internal_Hbond.Weighted>
0.0000

> <Gold.Chemscore.DEClash.Weighted>
2.9203

> <Gold.Chemscore.DEInternal.Weighted>
3.8290

> <Gold.Chemscore.Rot.Weighted>
7.4101

> <Gold.Chemscore.Internal.Correction.Weighted>
   9.000000E+99

> <Gold.Protein.RotatedTorsions>
[ 6907 6896 6895 6894 ] final -130.30 input  -60.11 | X-H torsion
[ 7974 7965 7964 7962 ] final   66.25 input  175.53 | X-H torsion
[ 8008 7997 7996 7995 ] final   56.56 input   59.86 | X-H torsion
[ 10167 10162 10161 10158 ] final   43.02 input  -65.29 | X-H torsion
[ 10718 10713 10712 10709 ] final -145.35 input   66.30 | X-H torsion
[ 10763 10752 10751 10750 ] final   11.88 input  -60.55 | X-H torsion
[ 11005 11000 10999 10996 ] final  126.70 input  -57.11 | X-H torsion

> <Gold.Protein.ActiveResidues>
 VAL166  LYS551  ARG553  GLY616  TRP617  ASP618  TYR619  PRO620  LYS621  CYS622 
 ASP623  PHE694  ASN695  SER759  ASP760  ASP761  ALA762  ILE779  LEU786  VAL792 
 PHE793  MET794  SER795  GLU796  ALA797  LYS798  CYS799  TRP800  GLU811  SER814 

> <Gold.Protein.RotatedAtoms>
  150.9382  133.6687  159.2795 H   0  0  0  0  0  0  0  0  0  0  0  0  # atno 6907 bound_to 6896
  151.4085  135.0980  159.9587 H   0  0  0  0  0  0  0  0  0  0  0  0  # atno 6908 bound_to 6896
  152.5057  133.8861  159.7425 H   0  0  0  0  0  0  0  0  0  0  0  0  # atno 6909 bound_to 6896
  145.8288  139.3127  143.1000 H   0  0  0  0  0  0  0  0  0  0  0  0  # atno 7974 bound_to 7965
  155.5195  140.3479  155.4404 H   0  0  0  0  0  0  0  0  0  0  0  0  # atno 8008 bound_to 7997
  156.0794  140.1383  156.9758 H   0  0  0  0  0  0  0  0  0  0  0  0  # atno 8009 bound_to 7997
  154.4571  140.0949  156.6765 H   0  0  0  0  0  0  0  0  0  0  0  0  # atno 8010 bound_to 7997
  140.3486  144.2379  150.6148 H   0  0  0  0  0  0  0  0  0  0  0  0  # atno 10167 bound_to 10162
  156.3813  130.7839  151.2031 H   0  0  0  0  0  0  0  0  0  0  0  0  # atno 10718 bound_to 10713
  153.1880  135.6838  153.8390 H   0  0  0  0  0  0  0  0  0  0  0  0  # atno 10763 bound_to 10752
  153.7699  135.3197  155.3351 H   0  0  0  0  0  0  0  0  0  0  0  0  # atno 10764 bound_to 10752
  154.8100  135.4723  154.0589 H   0  0  0  0  0  0  0  0  0  0  0  0  # atno 10765 bound_to 10752
  139.9469  134.9628  156.8746 H   0  0  0  0  0  0  0  0  0  0  0  0  # atno 11005 bound_to 11000
  145.9594  140.8847  143.0218 LP  0  0  0  0  0  0  0  0  0  0  0  0  # atno 17320 bound_to 7965
  144.6741  140.1791  143.7407 LP  0  0  0  0  0  0  0  0  0  0  0  0  # atno 17321 bound_to 7965
  140.5241  143.2258  151.8343 LP  0  0  0  0  0  0  0  0  0  0  0  0  # atno 17342 bound_to 10162
  139.4829  144.4801  151.9317 LP  0  0  0  0  0  0  0  0  0  0  0  0  # atno 17343 bound_to 10162
  157.7492  131.0343  150.4311 LP  0  0  0  0  0  0  0  0  0  0  0  0  # atno 17370 bound_to 10713
  156.4556  130.4021  149.6608 LP  0  0  0  0  0  0  0  0  0  0  0  0  # atno 17371 bound_to 10713
  140.5812  134.0351  155.7464 LP  0  0  0  0  0  0  0  0  0  0  0  0  # atno 17394 bound_to 11000
  141.1122  133.9597  157.2888 LP  0  0  0  0  0  0  0  0  0  0  0  0  # atno 17395 bound_to 11000

$$$$
