#       Name:                AV-unprocessed.smi:3245
#       Creating user name   scv26
#       Creation time:       Fri Mar 27 18:28:45 2020


#       File generated by GOLD software.
#

@<TRIPOS>MOLECULE
AV-unprocessed.smi:3245
    41    42     1
SMALL
NO_CHARGES


@<TRIPOS>ATOM
      1 ****        -2.3682  -2.2694  -1.9063 C.3            1 S1                 0.0000
      2 ****        -1.7679  -1.3864  -0.8043 C.3            1 S1                 0.0000
      3 ****        -2.0946  -1.9590   0.5922 C.3            1 S1                 0.0000
      4 ****        -1.6204  -1.1153   1.6745 N.pl3          1 S1                 0.0000
      5 ****        -2.2226  -0.0030   2.2235 C.2            1 S1                 0.0000
      6 ****        -1.3881   0.4719   3.1943 C.2            1 S1                 0.0000
      7 ****        -0.2880  -0.4301   3.1669 C.2            1 S1                 0.0000
      8 ****        -0.4316  -1.3813   2.2581 N.2            1 S1                 0.0000
      9 ****        -0.3056  -1.2710  -1.0072 N.4            1 S1                 1.0000
     10 ****         0.2396   0.0902  -0.8319 C.3            1 S1                 0.0000
     11 ****         1.7737   0.0671  -0.7977 C.3            1 S1                 0.0000
     12 ****         2.3123   1.4128  -0.5872 N.am           1 S1                 0.0000
     13 ****         2.7018   2.2321  -1.5681 C.2            1 S1                 0.0000
     14 ****         2.6938   2.0165  -2.7801 O.2            1 S1                 0.0000
     15 ****         3.1560   3.5232  -0.9284 C.3            1 S1                 0.0000
     16 ****         2.9351   3.2653   0.4770 N.pl3          1 S1                -1.0000
     17 ****         2.4381   2.0142   0.6112 C.2            1 S1                 0.0000
     18 ****         2.1181   1.4569   1.6608 O.2            1 S1                 0.0000
     19 ****        -3.4508  -2.3461  -1.8011 H              1 S1                 0.0000
     20 ****        -1.9593  -3.2800  -1.8742 H              1 S1                 0.0000
     21 ****        -2.1634  -1.8580  -2.8954 H              1 S1                 0.0000
     22 ****        -2.2216  -0.3980  -0.8987 H              1 S1                 0.0000
     23 ****        -3.1734  -2.0719   0.7065 H              1 S1                 0.0000
     24 ****        -1.6666  -2.9564   0.7069 H              1 S1                 0.0000
     25 ****        -3.1797   0.3582   1.8772 H              1 S1                 0.0000
     26 ****        -1.5378   1.3346   3.8264 H              1 S1                 0.0000
     27 ****         0.6054  -0.4203   3.7737 H              1 S1                 0.0000
     28 ****         0.1529  -1.8922  -0.3557 H              1 S1                 0.0000
     29 ****        -0.1141   0.7223  -1.6474 H              1 S1                 0.0000
     30 ****        -0.1389   0.5253   0.0927 H              1 S1                 0.0000
     31 ****         2.1203  -0.5944  -0.0017 H              1 S1                 0.0000
     32 ****         2.1630  -0.3556  -1.7255 H              1 S1                 0.0000
     33 ****         4.2021   3.7110  -1.1729 H              1 S1                 0.0000
     34 ****         2.5649   4.3553  -1.3120 H              1 S1                 0.0000
     35 ****        -0.0854  -1.5693  -1.9465 H              1 S1                 0.0000
     36 ****         0.1987  -2.1293   2.0501 LP             1 S1                 0.0000
     37 ****         2.3665   1.1386  -3.1296 LP             1 S1                 0.0000
     38 ****         3.0147   2.7193  -3.4151 LP             1 S1                 0.0000
     39 ****         3.1188   3.9042   1.2241 LP             1 S1                 0.0000
     40 ****         1.7509   0.5270   1.6414 LP             1 S1                 0.0000
     41 ****         2.2253   1.9340   2.5331 LP             1 S1                 0.0000
@<TRIPOS>BOND
    1    1    2 1     
    2    1   19 1     
    3    1   20 1     
    4    1   21 1     
    5    2    3 1     
    6    2    9 1     
    7    2   22 1     
    8    3    4 1     
    9    3   23 1     
   10    3   24 1     
   11    4    8 1     
   12    4    5 1     
   13    5    6 2     
   14    5   25 1     
   15    6    7 1     
   16    6   26 1     
   17    7    8 2     
   18    7   27 1     
   19    9   10 1     
   20    9   28 1     
   21    9   35 1     
   22   10   11 1     
   23   10   29 1     
   24   10   30 1     
   25   11   12 1     
   26   11   31 1     
   27   11   32 1     
   28   12   17 am    
   29   12   13 am    
   30   13   14 2     
   31   13   15 1     
   32   15   16 1     
   33   15   33 1     
   34   15   34 1     
   35   16   17 1     
   36   17   18 2     
   37    8   36 1     
   38   14   37 1     
   39   14   38 1     
   40   16   39 1     
   41   18   40 1     
   42   18   41 1     
@<TRIPOS>SUBSTRUCTURE
      1 S1             1
@<TRIPOS>SET
LONE_PAIRS      STATIC     ATOMS    <user>   **** ""
6 36 37 38 39 40 41
DONOR_HYDROGENS      STATIC     ATOMS    <user>   **** ""
2 28 35
ATOM$BLUE        STATIC     ATOMS    COLORGROUP SYSTEM
6 36 37 38 39 40 41
ATOM$RED        STATIC     ATOMS    COLORGROUP SYSTEM
2 28 35
