AV-unprocessed.smi:499|AV-procd|sdf|2733|dock9
  -GOLD-   2262023183D 1   1.00000     0.00000
 Structure written by MMmdl.
 36 37  0  0  0  0  0  0  0  0  1 V2000
  146.3591  142.9586  154.1741 C   0  0  0  0  0  0  0  0  0  0  0  0
  146.9508  141.8230  155.0329 C   0  0  2  0  0  0  0  0  0  0  0  0
  146.3632  141.9352  156.3807 C   0  0  0  0  0  0  0  0  0  0  0  0
  145.8989  142.0238  157.4373 N   0  0  0  0  0  0  0  0  0  0  0  0
  148.3970  142.0121  155.1736 N   0  0  0  0  0  0  0  0  0  0  0  0
  149.2475  141.3406  155.9683 C   0  0  0  0  0  0  0  0  0  0  0  0
  148.9079  140.4101  156.6992 O   0  0  0  0  0  0  0  0  0  0  0  0
  150.7152  141.7861  155.9023 C   0  0  0  0  0  0  0  0  0  0  0  0
  151.3390  141.9256  157.2288 N   0  0  0  0  0  0  0  0  0  0  0  0
  151.1833  143.1623  157.8850 C   0  0  0  0  0  0  0  0  0  0  0  0
  151.6949  143.4145  159.1051 C   0  0  0  0  0  0  0  0  0  0  0  0
  151.5610  144.7804  159.7600 C   0  0  0  0  0  0  0  0  0  0  0  0
  152.1251  145.7090  158.9892 F   0  0  0  0  0  0  0  0  0  0  0  0
  150.2802  145.1072  159.9348 F   0  0  0  0  0  0  0  0  0  0  0  0
  152.1657  144.8052  160.9483 F   0  0  0  0  0  0  0  0  0  0  0  0
  152.4578  142.3449  159.7181 C   0  0  0  0  0  0  0  0  0  0  0  0
  152.6287  141.1609  159.0978 C   0  0  0  0  0  0  0  0  0  0  0  0
  152.0519  140.8968  157.7778 C   0  0  0  0  0  0  0  0  0  0  0  0
  152.2008  139.8193  157.2007 O   0  0  0  0  0  0  0  0  0  0  0  0
  146.5746  140.4669  154.4249 C   0  0  0  0  0  0  0  0  0  0  0  0
  147.5511  139.3147  154.3393 C   0  0  0  0  0  0  0  0  0  0  0  0
  147.0854  140.0086  153.0777 C   0  0  0  0  0  0  0  0  0  0  0  0
  145.2713  142.8919  154.1383 H   0  0  0  0  0  0  0  0  0  0  0  0
  146.7165  142.9260  153.1448 H   0  0  0  0  0  0  0  0  0  0  0  0
  146.6123  143.9379  154.5824 H   0  0  0  0  0  0  0  0  0  0  0  0
  148.7924  142.7515  154.6108 H   0  0  0  0  0  0  0  0  0  0  0  0
  151.2621  141.0627  155.2961 H   0  0  0  0  0  0  0  0  0  0  0  0
  150.7868  142.7280  155.3547 H   0  0  0  0  0  0  0  0  0  0  0  0
  150.6275  143.9010  157.3257 H   0  0  0  0  0  0  0  0  0  0  0  0
  152.8982  142.4934  160.6930 H   0  0  0  0  0  0  0  0  0  0  0  0
  153.2024  140.3862  159.5852 H   0  0  0  0  0  0  0  0  0  0  0  0
  145.5560  140.1634  154.6575 H   0  0  0  0  0  0  0  0  0  0  0  0
  148.5794  139.4805  154.6534 H   0  0  0  0  0  0  0  0  0  0  0  0
  147.1637  138.3170  154.5350 H   0  0  0  0  0  0  0  0  0  0  0  0
  146.3885  139.4728  152.4364 H   0  0  0  0  0  0  0  0  0  0  0  0
  147.8026  140.6385  152.5558 H   0  0  0  0  0  0  0  0  0  0  0  0
  1  2  1  0  0  0  0
  1 23  1  0  0  0  0
  1 24  1  0  0  0  0
  1 25  1  0  0  0  0
  2  3  1  0  0  0  0
  2  5  1  0  0  0  0
  2 20  1  0  0  0  0
  3  4  3  0  0  0  0
  5  6  1  0  0  0  0
  5 26  1  0  0  0  0
  6  7  2  0  0  0  0
  6  8  1  0  0  0  0
  8  9  1  0  0  0  0
  8 27  1  0  0  0  0
  8 28  1  0  0  0  0
  9 18  1  0  0  0  0
  9 10  1  0  0  0  0
 10 11  2  0  0  0  0
 10 29  1  0  0  0  0
 11 12  1  0  0  0  0
 11 16  1  0  0  0  0
 12 13  1  0  0  0  0
 12 14  1  0  0  0  0
 12 15  1  0  0  0  0
 16 17  2  0  0  0  0
 16 30  1  0  0  0  0
 17 18  1  0  0  0  0
 17 31  1  0  0  0  0
 18 19  2  0  0  0  0
 20 22  1  0  0  0  0
 20 21  1  0  0  0  0
 20 32  1  0  0  0  0
 21 22  1  0  0  0  0
 21 33  1  0  0  0  0
 21 34  1  0  0  0  0
 22 35  1  0  0  0  0
 22 36  1  0  0  0  0
M  END
> <s_m_source_file>
AV-unprocessed.smi

> <i_m_source_file_index>
499

> <i_lp_mmshare_version>
43012

> <i_f3d_flags>
0

> <s_epik_input>
W0NIMl0xW0NIMl1bQ0hdMVtDQF0oW0NIM10pKEMjTilbTkhdQyg9TylbQ0gyXW4yW2NIXWMoQyhGKShGKUYpW2NIXVtjSF1jMj1P

> <s_epik_cmdline>
J2VwaWtfcHl0aG9uJywgJy1waCcsICc3LjAnLCAnLXRuJywgJzgnLCAnLW1hJywgJzIwMCcsICctbWV0YWxfYmluZGluZycsICctaW1hZScsICc8aW5maWxlLm1hZT4nLCAnLW9tYWUnLCAnPG91dGZpbGUubWFlPic=

> <r_lp_tautomer_probability>
1

> <r_epik_Ionization_Penalty>
4.79953e-07

> <r_epik_Ionization_Penalty_Charging>
1.46911e-08

> <r_epik_Ionization_Penalty_Neutral>
4.65262e-07

> <r_epik_State_Penalty>
-0

> <r_epik_Charging_Adjusted_Penalty>
1.46911e-08

> <i_epik_Tot_Q>
0

> <i_epik_Tot_abs_Q>
0

> <r_epik_Metal_State_Penalty>
-0

> <b_epik_Metal_Only>
0

> <s_lp_Force_Field>
OPLS_2005

> <r_lp_Energy>
23.9412

> <b_lp_Chiralities_Consistent>
1

> <s_lp_Variant>
AV-unprocessed.smi:499-2

> <Gold.Version>
5.8.1

> <Gold.Id.Protein>
6NUR|6NUR_protein|mol2

> <Gold.PLP.Fitness>
49.2313

> <Gold.PLP.PLP>
-43.6564

> <Gold.PLP.part.hbond>
-2.0000

> <Gold.PLP.part.metal>
0.0000

> <Gold.PLP.part.buried>
-5.3094

> <Gold.PLP.part.nonpolar>
-35.7537

> <Gold.PLP.part.repulsive>
0.1955

> <Gold.PLP.ligand.clash>
0.0000

> <Gold.PLP.ligand.torsion>
1.5472

> <Gold.PLP.Chemscore.Hbond>
1.4671

> <Gold.PLP.Chemscore.CHOScore>
0.9039

> <Gold.PLP.Chemscore.Metal>
0.0000

> <Gold.Chemscore.Hbonds>
donor molecule, donor type, donor heavy atom, donor atom, acceptor molecule, acceptor atom, score
      L1  H     5    26       P1  8028  0.16
      P1  H  7997  8009       L1    19  0.37
      L1  C    10    29       P1  8028  1.00

> <Gold.PLP.Chemscore.Internal.Correction>
1.5565

> <Gold.Rescore>
     Score         DG    S(hbond)    S(metal)    S(lipo)     H(rot)  DE(clash)    DE(int)     intcor
     10.04     -15.99       1.53        0.00      87.74       1.90       2.08       3.87       ----

> <Gold.Chemscore.Fitness>
10.0351

> <Gold.Chemscore.DG>
-15.9875

> <Gold.Chemscore.ZeroCoef>
-5.4800

> <Gold.Chemscore.Hbond>
1.5311

> <Gold.Chemscore.Metal>
0.0000

> <Gold.Chemscore.Lipo>
87.7402

> <Gold.Chemscore.Internal_Hbond>
0.0000

> <Gold.Chemscore.DEClash>
2.0829

> <Gold.Chemscore.DEInternal>
3.8695

> <Gold.Chemscore.Rot>
1.9030

> <Gold.Chemscore.Internal.Correction>
   9.000000E+99

> <Gold.Chemscore.Hbonds>
donor molecule, donor type, donor heavy atom, donor atom, acceptor molecule, acceptor atom, score
      L1  H     5    26       P1  8028  0.15
      P1  H  7997  8009       L1    19  0.06

> <Gold.Chemscore.Hbond.Weighted>
-5.1137

> <Gold.Chemscore.Metal.Weighted>
-0.0000

> <Gold.Chemscore.Lipo.Weighted>
-10.2656

> <Gold.Chemscore.Internal_Hbond.Weighted>
0.0000

> <Gold.Chemscore.DEClash.Weighted>
2.0829

> <Gold.Chemscore.DEInternal.Weighted>
3.8695

> <Gold.Chemscore.Rot.Weighted>
4.8718

> <Gold.Chemscore.Internal.Correction.Weighted>
   9.000000E+99

> <Gold.Protein.RotatedTorsions>
[ 6907 6896 6895 6894 ] final   29.47 input  -60.11 | X-H torsion
[ 7974 7965 7964 7962 ] final -139.33 input  175.53 | X-H torsion
[ 8008 7997 7996 7995 ] final -178.40 input   59.86 | X-H torsion
[ 10167 10162 10161 10158 ] final  144.58 input  -65.29 | X-H torsion
[ 10718 10713 10712 10709 ] final -120.55 input   66.30 | X-H torsion
[ 10763 10752 10751 10750 ] final  120.73 input  -60.55 | X-H torsion
[ 11005 11000 10999 10996 ] final   57.67 input  -57.11 | X-H torsion

> <Gold.Protein.ActiveResidues>
 VAL166  LYS551  ARG553  GLY616  TRP617  ASP618  TYR619  PRO620  LYS621  CYS622 
 ASP623  PHE694  ASN695  SER759  ASP760  ASP761  ALA762  ILE779  LEU786  VAL792 
 PHE793  MET794  SER795  GLU796  ALA797  LYS798  CYS799  TRP800  GLU811  SER814 

> <Gold.Protein.RotatedAtoms>
  152.0319  134.9762  160.0572 H   0  0  0  0  0  0  0  0  0  0  0  0  # atno 6907 bound_to 6896
  152.1235  133.4362  159.4695 H   0  0  0  0  0  0  0  0  0  0  0  0  # atno 6908 bound_to 6896
  150.6851  134.2425  159.4521 H   0  0  0  0  0  0  0  0  0  0  0  0  # atno 6909 bound_to 6896
  144.8685  140.6330  143.5282 H   0  0  0  0  0  0  0  0  0  0  0  0  # atno 7974 bound_to 7965
  156.0183  140.1255  157.0383 H   0  0  0  0  0  0  0  0  0  0  0  0  # atno 8008 bound_to 7997
  154.4302  140.1074  156.5997 H   0  0  0  0  0  0  0  0  0  0  0  0  # atno 8009 bound_to 7997
  155.5981  140.3470  155.4588 H   0  0  0  0  0  0  0  0  0  0  0  0  # atno 8010 bound_to 7997
  139.4944  144.5962  151.6578 H   0  0  0  0  0  0  0  0  0  0  0  0  # atno 10167 bound_to 10162
  156.1267  130.6364  150.9554 H   0  0  0  0  0  0  0  0  0  0  0  0  # atno 10718 bound_to 10713
  153.6030  135.3444  155.2952 H   0  0  0  0  0  0  0  0  0  0  0  0  # atno 10763 bound_to 10752
  154.8632  135.4232  154.2392 H   0  0  0  0  0  0  0  0  0  0  0  0  # atno 10764 bound_to 10752
  153.3225  135.7039  153.7090 H   0  0  0  0  0  0  0  0  0  0  0  0  # atno 10765 bound_to 10752
  140.0435  134.5840  155.9352 H   0  0  0  0  0  0  0  0  0  0  0  0  # atno 11005 bound_to 11000
  145.4175  139.1569  143.4092 LP  0  0  0  0  0  0  0  0  0  0  0  0  # atno 17320 bound_to 7965
  146.2913  140.4283  142.8738 LP  0  0  0  0  0  0  0  0  0  0  0  0  # atno 17321 bound_to 7965
  140.5600  144.0284  150.6165 LP  0  0  0  0  0  0  0  0  0  0  0  0  # atno 17342 bound_to 10162
  140.3367  143.3044  152.0631 LP  0  0  0  0  0  0  0  0  0  0  0  0  # atno 17343 bound_to 10162
  157.6448  131.0905  150.8177 LP  0  0  0  0  0  0  0  0  0  0  0  0  # atno 17370 bound_to 10713
  156.8266  130.5002  149.5336 LP  0  0  0  0  0  0  0  0  0  0  0  0  # atno 17371 bound_to 10713
  141.1895  133.6565  156.5370 LP  0  0  0  0  0  0  0  0  0  0  0  0  # atno 17394 bound_to 11000
  140.4031  134.7338  157.4792 LP  0  0  0  0  0  0  0  0  0  0  0  0  # atno 17395 bound_to 11000

$$$$
