AV-unprocessed.smi:438|AV-procd|sdf|2567|dock5
  -GOLD-   2262022543D 1   1.00000     0.00000
 Structure written by MMmdl.
 48 49  0  0  0  0  0  0  0  0  1 V2000
  148.8842  133.0414  152.8669 C   0  0  0  0  0  0  0  0  0  0  0  0
  149.4651  133.5321  154.1811 C   0  0  0  0  0  0  0  0  0  0  0  0
  149.5974  134.9057  154.2734 N   0  0  0  0  0  0  0  0  0  0  0  0
  150.1071  135.4546  155.4402 C   0  0  0  0  0  0  0  0  0  0  0  0
  150.1414  137.2662  155.3117 S   0  0  0  0  0  0  0  0  0  0  0  0
  151.9219  137.5889  155.1545 C   0  0  0  0  0  0  0  0  0  0  0  0
  152.2904  139.0084  155.5753 C   0  0  0  0  0  0  0  0  0  0  0  0
  152.9719  139.7104  154.8290 O   0  0  0  0  0  0  0  0  0  0  0  0
  151.8376  139.4088  156.7762 N   0  0  0  0  0  0  0  0  0  0  0  0
  152.0836  140.6922  157.4400 C   0  0  2  0  0  0  0  0  0  0  0  0
  152.5372  140.5063  158.9049 C   0  0  0  0  0  0  0  0  0  0  0  0
  152.8822  141.8550  159.5530 C   0  0  0  0  0  0  0  0  0  0  0  0
  151.6969  142.8270  159.4610 C   0  0  0  0  0  0  0  0  0  0  0  0
  151.2490  143.0216  158.0034 C   0  0  0  0  0  0  0  0  0  0  0  0
  150.8923  141.6821  157.3268 C   0  0  1  0  0  0  0  0  0  0  0  0
  150.4484  141.9142  155.8710 C   0  0  0  0  0  0  0  0  0  0  0  0
  150.4920  134.7462  156.4605 N   0  0  0  0  0  0  0  0  0  0  0  0
  150.3961  133.3469  156.4213 C   0  0  0  0  0  0  0  0  0  0  0  0
  150.7667  132.6689  157.3788 O   0  0  0  0  0  0  0  0  0  0  0  0
  149.8424  132.7233  155.2005 C   0  0  0  0  0  0  0  0  0  0  0  0
  149.7036  131.2042  155.1564 C   0  0  0  0  0  0  0  0  0  0  0  0
  151.0661  130.4974  155.1178 C   0  0  0  0  0  0  0  0  0  0  0  0
  150.8792  129.1097  154.9453 O   0  0  0  0  0  0  0  0  0  0  0  0
  149.5561  132.3209  152.3996 H   0  0  0  0  0  0  0  0  0  0  0  0
  148.7308  133.8612  152.1638 H   0  0  0  0  0  0  0  0  0  0  0  0
  147.9211  132.5590  153.0340 H   0  0  0  0  0  0  0  0  0  0  0  0
  152.2307  137.4236  154.1216 H   0  0  0  0  0  0  0  0  0  0  0  0
  152.4708  136.8776  155.7730 H   0  0  0  0  0  0  0  0  0  0  0  0
  151.2854  138.7441  157.2987 H   0  0  0  0  0  0  0  0  0  0  0  0
  152.9229  141.1304  156.8981 H   0  0  0  0  0  0  0  0  0  0  0  0
  151.7542  140.0235  159.4901 H   0  0  0  0  0  0  0  0  0  0  0  0
  153.4053  139.8478  158.9475 H   0  0  0  0  0  0  0  0  0  0  0  0
  153.1622  141.7059  160.5961 H   0  0  0  0  0  0  0  0  0  0  0  0
  153.7516  142.2891  159.0574 H   0  0  0  0  0  0  0  0  0  0  0  0
  150.8633  142.4458  160.0522 H   0  0  0  0  0  0  0  0  0  0  0  0
  151.9707  143.7884  159.8964 H   0  0  0  0  0  0  0  0  0  0  0  0
  150.3901  143.6928  157.9754 H   0  0  0  0  0  0  0  0  0  0  0  0
  152.0442  143.5170  157.4447 H   0  0  0  0  0  0  0  0  0  0  0  0
  150.0401  141.2664  157.8657 H   0  0  0  0  0  0  0  0  0  0  0  0
  151.2664  142.3055  155.2655 H   0  0  0  0  0  0  0  0  0  0  0  0
  149.6276  142.6299  155.8226 H   0  0  0  0  0  0  0  0  0  0  0  0
  150.0985  140.9935  155.4044 H   0  0  0  0  0  0  0  0  0  0  0  0
  149.3011  135.4663  153.4873 H   0  0  0  0  0  0  0  0  0  0  0  0
  149.1163  130.9087  154.2872 H   0  0  0  0  0  0  0  0  0  0  0  0
  149.1277  130.8649  156.0188 H   0  0  0  0  0  0  0  0  0  0  0  0
  151.6750  130.8785  154.2973 H   0  0  0  0  0  0  0  0  0  0  0  0
  151.6194  130.6674  156.0418 H   0  0  0  0  0  0  0  0  0  0  0  0
  151.3460  128.6560  155.6302 H   0  0  0  0  0  0  0  0  0  0  0  0
  1 24  1  0  0  0  0
  1 25  1  0  0  0  0
  1 26  1  0  0  0  0
  1  2  1  0  0  0  0
  2 20  2  0  0  0  0
  2  3  1  0  0  0  0
  3  4  1  0  0  0  0
  3 43  1  0  0  0  0
  4  5  1  0  0  0  0
  4 17  2  0  0  0  0
  5  6  1  0  0  0  0
  6  7  1  0  0  0  0
  6 27  1  0  0  0  0
  6 28  1  0  0  0  0
  7  8  2  0  0  0  0
  7  9  1  0  0  0  0
  9 10  1  0  0  0  0
  9 29  1  0  0  0  0
 10 15  1  0  0  0  0
 10 11  1  0  0  0  0
 10 30  1  0  0  0  0
 11 12  1  0  0  0  0
 11 31  1  0  0  0  0
 11 32  1  0  0  0  0
 12 13  1  0  0  0  0
 12 33  1  0  0  0  0
 12 34  1  0  0  0  0
 13 14  1  0  0  0  0
 13 35  1  0  0  0  0
 13 36  1  0  0  0  0
 14 15  1  0  0  0  0
 14 37  1  0  0  0  0
 14 38  1  0  0  0  0
 15 16  1  0  0  0  0
 15 39  1  0  0  0  0
 16 40  1  0  0  0  0
 16 41  1  0  0  0  0
 16 42  1  0  0  0  0
 17 18  1  0  0  0  0
 18 19  2  0  0  0  0
 18 20  1  0  0  0  0
 20 21  1  0  0  0  0
 21 22  1  0  0  0  0
 21 44  1  0  0  0  0
 21 45  1  0  0  0  0
 22 23  1  0  0  0  0
 22 46  1  0  0  0  0
 22 47  1  0  0  0  0
 23 48  1  0  0  0  0
M  END
> <s_m_source_file>
AV-unprocessed.smi

> <i_m_source_file_index>
438

> <i_lp_mmshare_version>
43012

> <i_f3d_flags>
0

> <s_epik_input>
W09IXVtDSDJdW0NIMl1jMWMoW09IXSluYyhuYzFbQ0gzXSlTW0NIMl1DKD1PKVtOSF1bQ0BASF0yW0NIMl1bQ0gyXVtDSDJdW0NIMl1bQ0BIXTJbQ0gzXQ==

> <s_epik_cmdline>
J2VwaWtfcHl0aG9uJywgJy1waCcsICc3LjAnLCAnLXRuJywgJzgnLCAnLW1hJywgJzIwMCcsICctbWV0YWxfYmluZGluZycsICctaW1hZScsICc8aW5maWxlLm1hZT4nLCAnLW9tYWUnLCAnPG91dGZpbGUubWFlPic=

> <r_lp_tautomer_probability>
0.273662

> <r_epik_Ionization_Penalty>
0.0875285

> <r_epik_Ionization_Penalty_Charging>
0.0875254

> <r_epik_Ionization_Penalty_Neutral>
3.01536e-06

> <r_epik_State_Penalty>
0.985796

> <r_epik_Charging_Adjusted_Penalty>
1.07332

> <i_epik_Tot_Q>
0

> <i_epik_Tot_abs_Q>
0

> <r_epik_Metal_State_Penalty>
1.58101

> <b_epik_Metal_Only>
0

> <s_lp_Force_Field>
OPLS_2005

> <r_lp_Energy>
18.1285

> <b_lp_Chiralities_Consistent>
1

> <s_lp_Variant>
AV-unprocessed.smi:438-5

> <Gold.Version>
5.8.1

> <Gold.Id.Protein>
6NUR|6NUR_protein|mol2

> <Gold.PLP.Fitness>
51.4145

> <Gold.PLP.PLP>
-42.2260

> <Gold.PLP.part.hbond>
-3.9815

> <Gold.PLP.part.metal>
0.0000

> <Gold.PLP.part.buried>
-4.6063

> <Gold.PLP.part.nonpolar>
-33.8950

> <Gold.PLP.part.repulsive>
0.1683

> <Gold.PLP.ligand.clash>
0.0000

> <Gold.PLP.ligand.torsion>
0.5848

> <Gold.PLP.Chemscore.Hbond>
3.4282

> <Gold.PLP.Chemscore.CHOScore>
0.0000

> <Gold.PLP.Chemscore.Metal>
0.0000

> <Gold.Chemscore.Hbonds>
donor molecule, donor type, donor heavy atom, donor atom, acceptor molecule, acceptor atom, score
      L1  H     3    43       P1  7948  1.00
      P1  H  6896  6907       L1    19  0.93
      P1  H  7989  7998       L1     8  0.25
      P1  H  7997  8008       L1     8  1.00

> <Gold.PLP.Chemscore.Internal.Correction>
0.0735

> <Gold.Rescore>
     Score         DG    S(hbond)    S(metal)    S(lipo)     H(rot)  DE(clash)    DE(int)     intcor
     17.65     -18.27       2.74        0.00      93.67       2.86       0.03       0.59       ----

> <Gold.Chemscore.Fitness>
17.6456

> <Gold.Chemscore.DG>
-18.2720

> <Gold.Chemscore.ZeroCoef>
-5.4800

> <Gold.Chemscore.Hbond>
2.7441

> <Gold.Chemscore.Metal>
0.0000

> <Gold.Chemscore.Lipo>
93.6743

> <Gold.Chemscore.Internal_Hbond>
0.0000

> <Gold.Chemscore.DEClash>
0.0331

> <Gold.Chemscore.DEInternal>
0.5933

> <Gold.Chemscore.Rot>
2.8645

> <Gold.Chemscore.Internal.Correction>
   9.000000E+99

> <Gold.Chemscore.Hbonds>
donor molecule, donor type, donor heavy atom, donor atom, acceptor molecule, acceptor atom, score
      L1  H     3    43       P1  7948  0.30
      P1  H  6896  6907       L1    19  0.85
      P1  H  7989  7998       L1     8  0.20
      P1  H  7997  8008       L1     8  0.50

> <Gold.Chemscore.Hbond.Weighted>
-9.1652

> <Gold.Chemscore.Metal.Weighted>
-0.0000

> <Gold.Chemscore.Lipo.Weighted>
-10.9599

> <Gold.Chemscore.Internal_Hbond.Weighted>
0.0000

> <Gold.Chemscore.DEClash.Weighted>
0.0331

> <Gold.Chemscore.DEInternal.Weighted>
0.5933

> <Gold.Chemscore.Rot.Weighted>
7.3331

> <Gold.Chemscore.Internal.Correction.Weighted>
   9.000000E+99

> <Gold.Protein.RotatedTorsions>
[ 6907 6896 6895 6894 ] final -165.26 input  -60.11 | X-H torsion
[ 7974 7965 7964 7962 ] final  -27.25 input  175.53 | X-H torsion
[ 8008 7997 7996 7995 ] final  -14.49 input   59.86 | X-H torsion
[ 10167 10162 10161 10158 ] final   -4.23 input  -65.29 | X-H torsion
[ 10718 10713 10712 10709 ] final  -88.77 input   66.30 | X-H torsion
[ 10763 10752 10751 10750 ] final -102.48 input  -60.55 | X-H torsion
[ 11005 11000 10999 10996 ] final   -4.12 input  -57.11 | X-H torsion

> <Gold.Protein.ActiveResidues>
 VAL166  LYS551  ARG553  GLY616  TRP617  ASP618  TYR619  PRO620  LYS621  CYS622 
 ASP623  PHE694  ASN695  SER759  ASP760  ASP761  ALA762  ILE779  LEU786  VAL792 
 PHE793  MET794  SER795  GLU796  ALA797  LYS798  CYS799  TRP800  GLU811  SER814 

> <Gold.Protein.RotatedAtoms>
  151.4249  133.3687  159.2760 H   0  0  0  0  0  0  0  0  0  0  0  0  # atno 6907 bound_to 6896
  150.9267  134.8685  159.7535 H   0  0  0  0  0  0  0  0  0  0  0  0  # atno 6908 bound_to 6896
  152.5008  134.4191  159.9526 H   0  0  0  0  0  0  0  0  0  0  0  0  # atno 6909 bound_to 6896
  146.1371  140.5127  142.8668 H   0  0  0  0  0  0  0  0  0  0  0  0  # atno 7974 bound_to 7965
  154.5206  140.2221  155.8984 H   0  0  0  0  0  0  0  0  0  0  0  0  # atno 8008 bound_to 7997
  156.1657  140.3132  155.8850 H   0  0  0  0  0  0  0  0  0  0  0  0  # atno 8009 bound_to 7997
  155.3661  140.0464  157.3036 H   0  0  0  0  0  0  0  0  0  0  0  0  # atno 8010 bound_to 7997
  140.6920  143.6448  150.8403 H   0  0  0  0  0  0  0  0  0  0  0  0  # atno 10167 bound_to 10162
  155.9983  130.4848  150.5070 H   0  0  0  0  0  0  0  0  0  0  0  0  # atno 10718 bound_to 10713
  154.7737  135.4859  153.9701 H   0  0  0  0  0  0  0  0  0  0  0  0  # atno 10763 bound_to 10752
  153.1401  135.6771  153.9048 H   0  0  0  0  0  0  0  0  0  0  0  0  # atno 10764 bound_to 10752
  153.8725  135.3142  155.3421 H   0  0  0  0  0  0  0  0  0  0  0  0  # atno 10765 bound_to 10752
  140.6768  133.9188  155.8529 H   0  0  0  0  0  0  0  0  0  0  0  0  # atno 11005 bound_to 11000
  144.7751  140.5722  143.6643 LP  0  0  0  0  0  0  0  0  0  0  0  0  # atno 17320 bound_to 7965
  145.5132  139.1478  143.3593 LP  0  0  0  0  0  0  0  0  0  0  0  0  # atno 17321 bound_to 7965
  140.0161  143.5591  152.2819 LP  0  0  0  0  0  0  0  0  0  0  0  0  # atno 17342 bound_to 10162
  139.6332  144.7647  151.2492 LP  0  0  0  0  0  0  0  0  0  0  0  0  # atno 17343 bound_to 10162
  157.3047  131.0652  151.2043 LP  0  0  0  0  0  0  0  0  0  0  0  0  # atno 17370 bound_to 10713
  157.3010  130.6843  149.6164 LP  0  0  0  0  0  0  0  0  0  0  0  0  # atno 17371 bound_to 10713
  141.0349  134.0704  157.3971 LP  0  0  0  0  0  0  0  0  0  0  0  0  # atno 17394 bound_to 11000
  139.8964  135.0145  156.7050 LP  0  0  0  0  0  0  0  0  0  0  0  0  # atno 17395 bound_to 11000

$$$$
