AV-unprocessed.smi:2180|AV-procd|sdf|8859|dock8
  -GOLD-   2272012 53D 1   1.00000     0.00000
 Structure written by MMmdl.
 39 40  0  0  0  0  0  0  0  0  1 V2000
  151.0761  144.9658  159.9768 C   0  0  0  0  0  0  0  0  0  0  0  0
  151.8701  143.6930  160.0069 C   0  0  0  0  0  0  0  0  0  0  0  0
  152.7310  143.2155  161.0340 C   0  0  0  0  0  0  0  0  0  0  0  0
  153.1969  142.0223  160.5578 C   0  0  0  0  0  0  0  0  0  0  0  0
  154.1438  141.0479  161.1796 C   0  0  0  0  0  0  0  0  0  0  0  0
  152.6223  141.8358  159.3112 N   0  0  0  0  0  0  0  0  0  0  0  0
  152.7844  140.7339  158.3749 C   0  0  0  0  0  0  0  0  0  0  0  0
  151.4511  140.3586  157.7262 C   0  0  0  0  0  0  0  0  0  0  0  0
  151.0192  139.2101  157.8222 O   0  0  0  0  0  0  0  0  0  0  0  0
  150.8085  141.3407  157.0752 N   0  0  0  0  0  0  0  0  0  0  0  0
  149.5024  141.2289  156.4280 C   0  0  2  0  0  0  0  0  0  0  0  0
  148.4746  140.5634  157.3787 C   0  0  0  0  0  0  0  0  0  0  0  0
  147.2832  139.8552  156.7001 C   0  0  0  0  0  0  0  0  0  0  0  0
  146.4844  140.7123  155.6973 C   0  0  0  0  0  0  0  0  0  0  0  0
  147.2859  141.3637  154.5446 C   0  0  0  0  0  0  0  0  0  0  0  0
  148.5385  140.6827  154.2185 N   0  0  0  0  0  0  0  0  0  0  0  0
  149.6110  140.6009  155.0249 C   0  0  0  0  0  0  0  0  0  0  0  0
  150.6402  140.0282  154.6684 O   0  0  0  0  0  0  0  0  0  0  0  0
  151.8070  142.8614  158.9805 N   0  0  0  0  0  0  0  0  0  0  0  0
  151.3886  145.6431  160.7717 H   0  0  0  0  0  0  0  0  0  0  0  0
  150.0124  144.7663  160.1085 H   0  0  0  0  0  0  0  0  0  0  0  0
  151.2031  145.4888  159.0284 H   0  0  0  0  0  0  0  0  0  0  0  0
  152.9717  143.6805  161.9785 H   0  0  0  0  0  0  0  0  0  0  0  0
  154.2781  141.2612  162.2401 H   0  0  0  0  0  0  0  0  0  0  0  0
  155.1226  141.1016  160.7031 H   0  0  0  0  0  0  0  0  0  0  0  0
  153.7762  140.0257  161.0907 H   0  0  0  0  0  0  0  0  0  0  0  0
  153.5189  141.0134  157.6187 H   0  0  0  0  0  0  0  0  0  0  0  0
  153.1885  139.8663  158.8994 H   0  0  0  0  0  0  0  0  0  0  0  0
  151.2413  142.2528  157.0516 H   0  0  0  0  0  0  0  0  0  0  0  0
  149.1675  142.2522  156.2527 H   0  0  0  0  0  0  0  0  0  0  0  0
  148.9829  139.8239  157.9994 H   0  0  0  0  0  0  0  0  0  0  0  0
  148.0972  141.3167  158.0714 H   0  0  0  0  0  0  0  0  0  0  0  0
  147.6358  138.9521  156.2002 H   0  0  0  0  0  0  0  0  0  0  0  0
  146.6030  139.4998  157.4745 H   0  0  0  0  0  0  0  0  0  0  0  0
  145.7153  140.0740  155.2610 H   0  0  0  0  0  0  0  0  0  0  0  0
  145.9432  141.4921  156.2344 H   0  0  0  0  0  0  0  0  0  0  0  0
  146.6686  141.3961  153.6467 H   0  0  0  0  0  0  0  0  0  0  0  0
  147.4996  142.4065  154.7813 H   0  0  0  0  0  0  0  0  0  0  0  0
  148.6031  140.2577  153.3045 H   0  0  0  0  0  0  0  0  0  0  0  0
  1  2  1  0  0  0  0
  1 20  1  0  0  0  0
  1 21  1  0  0  0  0
  1 22  1  0  0  0  0
  2 19  2  0  0  0  0
  2  3  1  0  0  0  0
  3  4  2  0  0  0  0
  3 23  1  0  0  0  0
  4  5  1  0  0  0  0
  4  6  1  0  0  0  0
  5 24  1  0  0  0  0
  5 25  1  0  0  0  0
  5 26  1  0  0  0  0
  6  7  1  0  0  0  0
  6 19  1  0  0  0  0
  7  8  1  0  0  0  0
  7 27  1  0  0  0  0
  7 28  1  0  0  0  0
  8  9  2  0  0  0  0
  8 10  1  0  0  0  0
 10 11  1  0  0  0  0
 10 29  1  0  0  0  0
 11 17  1  0  0  0  0
 11 12  1  0  0  0  0
 11 30  1  0  0  0  0
 12 13  1  0  0  0  0
 12 31  1  0  0  0  0
 12 32  1  0  0  0  0
 13 14  1  0  0  0  0
 13 33  1  0  0  0  0
 13 34  1  0  0  0  0
 14 15  1  0  0  0  0
 14 35  1  0  0  0  0
 14 36  1  0  0  0  0
 15 16  1  0  0  0  0
 15 37  1  0  0  0  0
 15 38  1  0  0  0  0
 16 17  1  0  0  0  0
 16 39  1  0  0  0  0
 17 18  2  0  0  0  0
M  END
> <s_m_source_file>
AV-unprocessed.smi

> <i_m_source_file_index>
2180

> <i_lp_mmshare_version>
43012

> <i_f3d_flags>
0

> <s_epik_input>
W0NIM11jMVtjSF1jKFtDSDNdKW4objEpW0NIMl1DKD1PKVtOSF1bQ0BASF0yW0NIMl1bQ0gyXVtDSDJdW0NIMl1bTkhdQzI9Tw==

> <s_epik_cmdline>
J2VwaWtfcHl0aG9uJywgJy1waCcsICc3LjAnLCAnLXRuJywgJzgnLCAnLW1hJywgJzIwMCcsICctbWV0YWxfYmluZGluZycsICctaW1hZScsICc8aW5maWxlLm1hZT4nLCAnLW9tYWUnLCAnPG91dGZpbGUubWFlPic=

> <r_lp_tautomer_probability>
1

> <r_epik_Ionization_Penalty>
0.000287215

> <r_epik_Ionization_Penalty_Charging>
0

> <r_epik_Ionization_Penalty_Neutral>
0.000287215

> <r_epik_State_Penalty>
-0

> <r_epik_Charging_Adjusted_Penalty>
0

> <i_epik_Tot_Q>
0

> <i_epik_Tot_abs_Q>
0

> <r_epik_Metal_State_Penalty>
-0

> <b_epik_Metal_Only>
0

> <s_lp_Force_Field>
OPLS_2005

> <r_lp_Energy>
13.5369

> <b_lp_Chiralities_Consistent>
1

> <s_lp_Variant>
AV-unprocessed.smi:2180-1

> <Gold.Version>
5.8.1

> <Gold.Id.Protein>
6NUR|6NUR_protein|mol2

> <Gold.PLP.Fitness>
44.9292

> <Gold.PLP.PLP>
-39.8654

> <Gold.PLP.part.hbond>
-2.0000

> <Gold.PLP.part.metal>
0.0000

> <Gold.PLP.part.buried>
-5.7451

> <Gold.PLP.part.nonpolar>
-32.1198

> <Gold.PLP.part.repulsive>
0.3611

> <Gold.PLP.ligand.clash>
0.0000

> <Gold.PLP.ligand.torsion>
0.4948

> <Gold.PLP.Chemscore.Hbond>
2.0000

> <Gold.PLP.Chemscore.CHOScore>
0.0000

> <Gold.PLP.Chemscore.Metal>
0.0000

> <Gold.Chemscore.Hbonds>
donor molecule, donor type, donor heavy atom, donor atom, acceptor molecule, acceptor atom, score
      L1  H    16    39       P1  7957  0.13
      P1  H  7989  7998       L1    18  1.00

> <Gold.PLP.Chemscore.Internal.Correction>
0.0534

> <Gold.Rescore>
     Score         DG    S(hbond)    S(metal)    S(lipo)     H(rot)  DE(clash)    DE(int)     intcor
     14.05     -17.38       1.71        0.00      85.47       1.48       0.03       3.30       ----

> <Gold.Chemscore.Fitness>
14.0512

> <Gold.Chemscore.DG>
-17.3828

> <Gold.Chemscore.ZeroCoef>
-5.4800

> <Gold.Chemscore.Hbond>
1.7072

> <Gold.Chemscore.Metal>
0.0000

> <Gold.Chemscore.Lipo>
85.4682

> <Gold.Chemscore.Internal_Hbond>
0.0000

> <Gold.Chemscore.DEClash>
0.0324

> <Gold.Chemscore.DEInternal>
3.2992

> <Gold.Chemscore.Rot>
1.4840

> <Gold.Chemscore.Internal.Correction>
   9.000000E+99

> <Gold.Chemscore.Hbonds>
donor molecule, donor type, donor heavy atom, donor atom, acceptor molecule, acceptor atom, score
      L1  H    16    39       P1  7957  0.15
      P1  H  7989  7998       L1    18  0.93

> <Gold.Chemscore.Hbond.Weighted>
-5.7021

> <Gold.Chemscore.Metal.Weighted>
-0.0000

> <Gold.Chemscore.Lipo.Weighted>
-9.9998

> <Gold.Chemscore.Internal_Hbond.Weighted>
0.0000

> <Gold.Chemscore.DEClash.Weighted>
0.0324

> <Gold.Chemscore.DEInternal.Weighted>
3.2992

> <Gold.Chemscore.Rot.Weighted>
3.7991

> <Gold.Chemscore.Internal.Correction.Weighted>
   9.000000E+99

> <Gold.Protein.RotatedTorsions>
[ 6907 6896 6895 6894 ] final   46.76 input  -60.11 | X-H torsion
[ 7974 7965 7964 7962 ] final  120.55 input  175.53 | X-H torsion
[ 8008 7997 7996 7995 ] final   36.42 input   59.86 | X-H torsion
[ 10167 10162 10161 10158 ] final   91.70 input  -65.29 | X-H torsion
[ 10718 10713 10712 10709 ] final   94.37 input   66.30 | X-H torsion
[ 10763 10752 10751 10750 ] final -156.39 input  -60.55 | X-H torsion
[ 11005 11000 10999 10996 ] final   41.59 input  -57.11 | X-H torsion

> <Gold.Protein.ActiveResidues>
 VAL166  LYS551  ARG553  GLY616  TRP617  ASP618  TYR619  PRO620  LYS621  CYS622 
 ASP623  PHE694  ASN695  SER759  ASP760  ASP761  ALA762  ILE779  LEU786  VAL792 
 PHE793  MET794  SER795  GLU796  ALA797  LYS798  CYS799  TRP800  GLU811  SER814 

> <Gold.Protein.RotatedAtoms>
  152.2601  134.8042  160.0431 H   0  0  0  0  0  0  0  0  0  0  0  0  # atno 6907 bound_to 6896
  151.8692  133.3467  159.3737 H   0  0  0  0  0  0  0  0  0  0  0  0  # atno 6908 bound_to 6896
  150.7114  134.5057  159.5627 H   0  0  0  0  0  0  0  0  0  0  0  0  # atno 6909 bound_to 6896
  145.1298  139.3335  143.4671 H   0  0  0  0  0  0  0  0  0  0  0  0  # atno 7974 bound_to 7965
  155.1871  140.3305  155.4365 H   0  0  0  0  0  0  0  0  0  0  0  0  # atno 8008 bound_to 7997
  156.2456  140.1916  156.6916 H   0  0  0  0  0  0  0  0  0  0  0  0  # atno 8009 bound_to 7997
  154.6231  140.0592  156.9626 H   0  0  0  0  0  0  0  0  0  0  0  0  # atno 8010 bound_to 7997
  139.8349  144.6669  150.9354 H   0  0  0  0  0  0  0  0  0  0  0  0  # atno 10167 bound_to 10162
  157.6948  131.0510  150.4176 H   0  0  0  0  0  0  0  0  0  0  0  0  # atno 10718 bound_to 10713
  154.7716  135.3147  154.8177 H   0  0  0  0  0  0  0  0  0  0  0  0  # atno 10763 bound_to 10752
  153.8911  135.6825  153.4765 H   0  0  0  0  0  0  0  0  0  0  0  0  # atno 10764 bound_to 10752
  153.1331  135.4771  154.9315 H   0  0  0  0  0  0  0  0  0  0  0  0  # atno 10765 bound_to 10752
  140.1820  134.4092  155.8195 H   0  0  0  0  0  0  0  0  0  0  0  0  # atno 11005 bound_to 11000
  146.3515  140.1292  142.8597 LP  0  0  0  0  0  0  0  0  0  0  0  0  # atno 17320 bound_to 7965
  145.0648  140.9113  143.4917 LP  0  0  0  0  0  0  0  0  0  0  0  0  # atno 17321 bound_to 7965
  140.7803  143.3966  151.1219 LP  0  0  0  0  0  0  0  0  0  0  0  0  # atno 17342 bound_to 10162
  139.7617  143.8625  152.3101 LP  0  0  0  0  0  0  0  0  0  0  0  0  # atno 17343 bound_to 10162
  156.4554  130.4020  149.6609 LP  0  0  0  0  0  0  0  0  0  0  0  0  # atno 17370 bound_to 10713
  156.3744  130.7547  151.2533 LP  0  0  0  0  0  0  0  0  0  0  0  0  # atno 17371 bound_to 10713
  141.2223  133.7005  156.7947 LP  0  0  0  0  0  0  0  0  0  0  0  0  # atno 17394 bound_to 11000
  140.2257  134.8724  157.3424 LP  0  0  0  0  0  0  0  0  0  0  0  0  # atno 17395 bound_to 11000

$$$$
