AV-unprocessed.smi:629|AV-procd|sdf|3116|dock4
  -GOLD-   22720 0 43D 1   1.00000     0.00000
 Structure written by MMmdl.
 31 32  0  0  0  0  0  0  0  0  1 V2000
  146.7827  138.7301  152.2321 C   0  0  0  0  0  0  0  0  0  0  0  0
  147.6255  139.8452  152.6340 N   0  0  0  0  0  0  0  0  0  0  0  0
  147.6006  140.4112  153.8502 C   0  0  0  0  0  0  0  0  0  0  0  0
  146.8604  140.0303  154.7571 O   0  0  0  0  0  0  0  0  0  0  0  0
  148.5627  141.5778  154.0868 C   0  0  0  0  0  0  0  0  0  0  0  0
  149.6393  141.1953  155.0523 C   0  0  0  0  0  0  0  0  0  0  0  0
  150.4306  140.1527  154.8254 N   0  0  0  0  0  0  0  0  0  0  0  0
  151.2858  140.1466  155.9364 O   0  0  0  0  0  0  0  0  0  0  0  0
  150.8870  141.1804  156.7155 C   0  0  0  0  0  0  0  0  0  0  0  0
  151.6450  141.4761  157.9672 C   0  0  0  0  0  0  0  0  0  0  0  0
  151.2094  142.7950  158.6319 C   0  0  1  0  0  0  0  0  0  0  0  0
  151.9047  143.0437  159.9468 C   0  0  0  0  0  0  0  0  0  0  0  0
  152.4935  144.2361  160.0035 C   0  0  0  0  0  0  0  0  0  0  0  0
  152.3145  145.0255  158.7373 C   0  0  0  0  0  0  0  0  0  0  0  0
  151.5767  144.0486  157.7953 C   0  0  0  0  0  0  0  0  0  0  0  0
  149.8728  141.8765  156.2085 N   0  0  0  0  0  0  0  0  0  0  0  0
  146.9589  138.4909  151.1836 H   0  0  0  0  0  0  0  0  0  0  0  0
  145.7268  138.9760  152.3528 H   0  0  0  0  0  0  0  0  0  0  0  0
  147.0047  137.8431  152.8266 H   0  0  0  0  0  0  0  0  0  0  0  0
  148.2622  140.2163  151.9432 H   0  0  0  0  0  0  0  0  0  0  0  0
  149.0151  141.8822  153.1418 H   0  0  0  0  0  0  0  0  0  0  0  0
  148.0098  142.4388  154.4649 H   0  0  0  0  0  0  0  0  0  0  0  0
  151.5476  140.6383  158.6594 H   0  0  0  0  0  0  0  0  0  0  0  0
  152.7010  141.5321  157.6999 H   0  0  0  0  0  0  0  0  0  0  0  0
  150.1319  142.7898  158.8036 H   0  0  0  0  0  0  0  0  0  0  0  0
  151.8956  142.3183  160.7472 H   0  0  0  0  0  0  0  0  0  0  0  0
  153.0345  144.6244  160.8539 H   0  0  0  0  0  0  0  0  0  0  0  0
  151.7217  145.9182  158.9383 H   0  0  0  0  0  0  0  0  0  0  0  0
  153.2797  145.3301  158.3319 H   0  0  0  0  0  0  0  0  0  0  0  0
  152.2330  143.7830  156.9656 H   0  0  0  0  0  0  0  0  0  0  0  0
  150.6886  144.5102  157.3620 H   0  0  0  0  0  0  0  0  0  0  0  0
  1  2  1  0  0  0  0
  1 17  1  0  0  0  0
  1 18  1  0  0  0  0
  1 19  1  0  0  0  0
  2  3  1  0  0  0  0
  2 20  1  0  0  0  0
  3  4  2  0  0  0  0
  3  5  1  0  0  0  0
  5  6  1  0  0  0  0
  5 21  1  0  0  0  0
  5 22  1  0  0  0  0
  6 16  1  0  0  0  0
  6  7  2  0  0  0  0
  7  8  1  0  0  0  0
  8  9  1  0  0  0  0
  9 10  1  0  0  0  0
  9 16  2  0  0  0  0
 10 11  1  0  0  0  0
 10 23  1  0  0  0  0
 10 24  1  0  0  0  0
 11 15  1  0  0  0  0
 11 12  1  0  0  0  0
 11 25  1  0  0  0  0
 12 13  2  0  0  0  0
 12 26  1  0  0  0  0
 13 14  1  0  0  0  0
 13 27  1  0  0  0  0
 14 15  1  0  0  0  0
 14 28  1  0  0  0  0
 14 29  1  0  0  0  0
 15 30  1  0  0  0  0
 15 31  1  0  0  0  0
M  END
> <s_m_source_file>
AV-unprocessed.smi

> <i_m_source_file_index>
629

> <i_lp_mmshare_version>
43012

> <i_f3d_flags>
0

> <s_epik_input>
W0NIM11bTkhdQyg9TylbQ0gyXWMxbm9jKG4xKVtDSDJdW0NAQEhdMltDSF09W0NIXVtDSDJdW0NIMl0y

> <s_epik_cmdline>
J2VwaWtfcHl0aG9uJywgJy1waCcsICc3LjAnLCAnLXRuJywgJzgnLCAnLW1hJywgJzIwMCcsICctbWV0YWxfYmluZGluZycsICctaW1hZScsICc8aW5maWxlLm1hZT4nLCAnLW9tYWUnLCAnPG91dGZpbGUubWFlPic=

> <r_lp_tautomer_probability>
1

> <r_epik_Ionization_Penalty>
1.02915e-07

> <r_epik_Ionization_Penalty_Charging>
0

> <r_epik_Ionization_Penalty_Neutral>
1.02915e-07

> <r_epik_State_Penalty>
-0

> <r_epik_Charging_Adjusted_Penalty>
0

> <i_epik_Tot_Q>
0

> <i_epik_Tot_abs_Q>
0

> <r_epik_Metal_State_Penalty>
-0

> <b_epik_Metal_Only>
0

> <s_lp_Force_Field>
OPLS_2005

> <r_lp_Energy>
15.6904

> <b_lp_Chiralities_Consistent>
1

> <s_lp_Variant>
AV-unprocessed.smi:629-2

> <Gold.Version>
5.8.1

> <Gold.Id.Protein>
6NUR|6NUR_protein|mol2

> <Gold.PLP.Fitness>
42.2927

> <Gold.PLP.PLP>
-36.5808

> <Gold.PLP.part.hbond>
-1.7682

> <Gold.PLP.part.metal>
0.0000

> <Gold.PLP.part.buried>
-4.4055

> <Gold.PLP.part.nonpolar>
-31.4949

> <Gold.PLP.part.repulsive>
0.7344

> <Gold.PLP.ligand.clash>
0.0000

> <Gold.PLP.ligand.torsion>
0.1433

> <Gold.PLP.Chemscore.Hbond>
1.9920

> <Gold.PLP.Chemscore.CHOScore>
0.0000

> <Gold.PLP.Chemscore.Metal>
0.0000

> <Gold.Chemscore.Hbonds>
donor molecule, donor type, donor heavy atom, donor atom, acceptor molecule, acceptor atom, score
      L1  H     2    20       P1  7957  0.98
      P1  H  7989  7998       L1     7  1.00

> <Gold.PLP.Chemscore.Internal.Correction>
0.0225

> <Gold.Rescore>
     Score         DG    S(hbond)    S(metal)    S(lipo)     H(rot)  DE(clash)    DE(int)     intcor
     13.85     -14.03       1.02        0.00      85.24       1.89       0.09       0.09       ----

> <Gold.Chemscore.Fitness>
13.8542

> <Gold.Chemscore.DG>
-14.0316

> <Gold.Chemscore.ZeroCoef>
-5.4800

> <Gold.Chemscore.Hbond>
1.0214

> <Gold.Chemscore.Metal>
0.0000

> <Gold.Chemscore.Lipo>
85.2374

> <Gold.Chemscore.Internal_Hbond>
0.0000

> <Gold.Chemscore.DEClash>
0.0853

> <Gold.Chemscore.DEInternal>
0.0921

> <Gold.Chemscore.Rot>
1.8877

> <Gold.Chemscore.Internal.Correction>
   9.000000E+99

> <Gold.Chemscore.Hbonds>
donor molecule, donor type, donor heavy atom, donor atom, acceptor molecule, acceptor atom, score
      L1  H     2    20       P1  7957  0.87
      P1  H  7989  7998       L1     7  0.08

> <Gold.Chemscore.Hbond.Weighted>
-3.4114

> <Gold.Chemscore.Metal.Weighted>
-0.0000

> <Gold.Chemscore.Lipo.Weighted>
-9.9728

> <Gold.Chemscore.Internal_Hbond.Weighted>
0.0000

> <Gold.Chemscore.DEClash.Weighted>
0.0853

> <Gold.Chemscore.DEInternal.Weighted>
0.0921

> <Gold.Chemscore.Rot.Weighted>
4.8325

> <Gold.Chemscore.Internal.Correction.Weighted>
   9.000000E+99

> <Gold.Protein.RotatedTorsions>
[ 6907 6896 6895 6894 ] final  -21.13 input  -60.11 | X-H torsion
[ 7974 7965 7964 7962 ] final -166.29 input  175.53 | X-H torsion
[ 8008 7997 7996 7995 ] final   70.61 input   59.86 | X-H torsion
[ 10167 10162 10161 10158 ] final  167.35 input  -65.29 | X-H torsion
[ 10718 10713 10712 10709 ] final   27.18 input   66.30 | X-H torsion
[ 10763 10752 10751 10750 ] final -179.35 input  -60.55 | X-H torsion
[ 11005 11000 10999 10996 ] final   43.96 input  -57.11 | X-H torsion

> <Gold.Protein.ActiveResidues>
 VAL166  LYS551  ARG553  GLY616  TRP617  ASP618  TYR619  PRO620  LYS621  CYS622 
 ASP623  PHE694  ASN695  SER759  ASP760  ASP761  ALA762  ILE779  LEU786  VAL792 
 PHE793  MET794  SER795  GLU796  ALA797  LYS798  CYS799  TRP800  GLU811  SER814 

> <Gold.Protein.RotatedAtoms>
  151.2379  135.0578  159.9013 H   0  0  0  0  0  0  0  0  0  0  0  0  # atno 6907 bound_to 6896
  152.5397  134.0466  159.8101 H   0  0  0  0  0  0  0  0  0  0  0  0  # atno 6908 bound_to 6896
  151.0655  133.5460  159.2662 H   0  0  0  0  0  0  0  0  0  0  0  0  # atno 6909 bound_to 6896
  144.7249  140.2688  143.6254 H   0  0  0  0  0  0  0  0  0  0  0  0  # atno 7974 bound_to 7965
  155.7414  140.3490  155.5106 H   0  0  0  0  0  0  0  0  0  0  0  0  # atno 8008 bound_to 7997
  155.9091  140.1047  157.1314 H   0  0  0  0  0  0  0  0  0  0  0  0  # atno 8009 bound_to 7997
  154.4053  140.1271  156.4521 H   0  0  0  0  0  0  0  0  0  0  0  0  # atno 8010 bound_to 7997
  139.4943  144.3931  151.9494 H   0  0  0  0  0  0  0  0  0  0  0  0  # atno 10167 bound_to 10162
  157.2168  130.6960  149.6252 H   0  0  0  0  0  0  0  0  0  0  0  0  # atno 10718 bound_to 10713
  154.5362  135.2803  155.1136 H   0  0  0  0  0  0  0  0  0  0  0  0  # atno 10763 bound_to 10752
  154.2637  135.6317  153.5288 H   0  0  0  0  0  0  0  0  0  0  0  0  # atno 10764 bound_to 10752
  152.9968  135.5611  154.5889 H   0  0  0  0  0  0  0  0  0  0  0  0  # atno 10765 bound_to 10752
  140.1596  134.4358  155.8327 H   0  0  0  0  0  0  0  0  0  0  0  0  # atno 11005 bound_to 11000
  145.8063  139.1985  143.2019 LP  0  0  0  0  0  0  0  0  0  0  0  0  # atno 17320 bound_to 7965
  146.0634  140.7946  142.9723 LP  0  0  0  0  0  0  0  0  0  0  0  0  # atno 17321 bound_to 7965
  140.3369  144.3250  150.5975 LP  0  0  0  0  0  0  0  0  0  0  0  0  # atno 17342 bound_to 10162
  140.5598  143.2193  151.7784 LP  0  0  0  0  0  0  0  0  0  0  0  0  # atno 17343 bound_to 10162
  155.9685  130.4533  150.5806 LP  0  0  0  0  0  0  0  0  0  0  0  0  # atno 17370 bound_to 10713
  157.3616  131.0751  151.1631 LP  0  0  0  0  0  0  0  0  0  0  0  0  # atno 17371 bound_to 10713
  141.2208  133.6907  156.7569 LP  0  0  0  0  0  0  0  0  0  0  0  0  # atno 17394 bound_to 11000
  140.2506  134.8543  157.3664 LP  0  0  0  0  0  0  0  0  0  0  0  0  # atno 17395 bound_to 11000

$$$$
