AV-unprocessed.smi:481|AV-procd|sdf|2680|dock4
  -GOLD-   2262023103D 1   1.00000     0.00000
 Structure written by MMmdl.
 43 45  0  0  0  0  0  0  0  0  1 V2000
  150.4353  136.7041  155.1005 C   0  0  0  0  0  0  0  0  0  0  0  0
  151.2396  135.6697  155.6395 O   0  0  0  0  0  0  0  0  0  0  0  0
  151.4363  135.8078  157.0362 C   0  0  0  0  0  0  0  0  0  0  0  0
  150.1805  135.3152  157.7650 C   0  0  0  0  0  0  0  0  0  0  0  0
  150.1167  135.8258  159.1299 N   0  0  0  0  0  0  0  0  0  0  0  0
  150.1967  137.1174  159.5392 C   0  0  0  0  0  0  0  0  0  0  0  0
  150.3686  138.1333  158.5997 N   0  0  0  0  0  0  0  0  0  0  0  0
  150.4490  139.3971  158.9769 N   0  0  0  0  0  0  0  0  0  0  0  0
  151.2101  140.1511  158.2678 C   0  0  0  0  0  0  0  0  0  0  0  0
  151.4018  141.5788  158.5652 C   0  0  0  0  0  0  0  0  0  0  0  0
  150.3590  142.5226  158.4059 C   0  0  0  0  0  0  0  0  0  0  0  0
  150.5782  143.8825  158.7002 C   0  0  0  0  0  0  0  0  0  0  0  0
  151.8389  144.3117  159.1556 C   0  0  0  0  0  0  0  0  0  0  0  0
  152.8812  143.3796  159.3166 C   0  0  0  0  0  0  0  0  0  0  0  0
  152.6632  142.0193  159.0227 C   0  0  0  0  0  0  0  0  0  0  0  0
  150.1039  137.2905  160.8634 N   0  0  0  0  0  0  0  0  0  0  0  0
  149.9607  135.9933  161.3339 C   0  0  0  0  0  0  0  0  0  0  0  0
  149.9743  135.1008  160.3120 C   0  0  0  0  0  0  0  0  0  0  0  0
  149.8586  133.6539  160.5271 C   0  0  0  0  0  0  0  0  0  0  0  0
  149.8887  132.8293  159.6160 O   0  0  0  0  0  0  0  0  0  0  0  0
  149.7204  133.3226  161.8343 N   0  0  0  0  0  0  0  0  0  0  0  0
  149.6906  134.1690  162.9098 C   0  0  0  0  0  0  0  0  0  0  0  0
  149.5542  133.7091  164.0431 O   0  0  0  0  0  0  0  0  0  0  0  0
  149.8175  135.5144  162.6655 N   0  0  0  0  0  0  0  0  0  0  0  0
  149.8090  136.5034  163.7453 C   0  0  0  0  0  0  0  0  0  0  0  0
  149.6317  132.3379  162.0388 H   0  0  0  0  0  0  0  0  0  0  0  0
  150.3153  136.5540  154.0276 H   0  0  0  0  0  0  0  0  0  0  0  0
  150.8936  137.6819  155.2542 H   0  0  0  0  0  0  0  0  0  0  0  0
  149.4426  136.7076  155.5524 H   0  0  0  0  0  0  0  0  0  0  0  0
  152.3067  135.2298  157.3507 H   0  0  0  0  0  0  0  0  0  0  0  0
  151.6266  136.8536  157.2844 H   0  0  0  0  0  0  0  0  0  0  0  0
  149.2864  135.6228  157.2219 H   0  0  0  0  0  0  0  0  0  0  0  0
  150.1502  134.2266  157.7870 H   0  0  0  0  0  0  0  0  0  0  0  0
  150.4390  137.8805  157.6245 H   0  0  0  0  0  0  0  0  0  0  0  0
  151.7435  139.7380  157.4090 H   0  0  0  0  0  0  0  0  0  0  0  0
  149.3829  142.2167  158.0577 H   0  0  0  0  0  0  0  0  0  0  0  0
  149.7776  144.5966  158.5757 H   0  0  0  0  0  0  0  0  0  0  0  0
  152.0064  145.3548  159.3808 H   0  0  0  0  0  0  0  0  0  0  0  0
  153.8493  143.7077  159.6655 H   0  0  0  0  0  0  0  0  0  0  0  0
  153.4743  141.3167  159.1517 H   0  0  0  0  0  0  0  0  0  0  0  0
  149.6830  136.0748  164.7400 H   0  0  0  0  0  0  0  0  0  0  0  0
  148.9972  137.2149  163.5913 H   0  0  0  0  0  0  0  0  0  0  0  0
  150.7465  137.0604  163.7458 H   0  0  0  0  0  0  0  0  0  0  0  0
  1  2  1  0  0  0  0
  1 27  1  0  0  0  0
  1 28  1  0  0  0  0
  1 29  1  0  0  0  0
  2  3  1  0  0  0  0
  3  4  1  0  0  0  0
  3 30  1  0  0  0  0
  3 31  1  0  0  0  0
  4  5  1  0  0  0  0
  4 32  1  0  0  0  0
  4 33  1  0  0  0  0
  5 18  1  0  0  0  0
  5  6  1  0  0  0  0
  6  7  1  0  0  0  0
  6 16  2  0  0  0  0
  7  8  1  0  0  0  0
  7 34  1  0  0  0  0
  8  9  2  0  0  0  0
  9 10  1  0  0  0  0
  9 35  1  0  0  0  0
 10 15  1  0  0  0  0
 10 11  2  0  0  0  0
 11 12  1  0  0  0  0
 11 36  1  0  0  0  0
 12 13  2  0  0  0  0
 12 37  1  0  0  0  0
 13 14  1  0  0  0  0
 13 38  1  0  0  0  0
 14 15  2  0  0  0  0
 14 39  1  0  0  0  0
 15 40  1  0  0  0  0
 16 17  1  0  0  0  0
 17 24  1  0  0  0  0
 17 18  2  0  0  0  0
 18 19  1  0  0  0  0
 19 20  2  0  0  0  0
 19 21  1  0  0  0  0
 21 26  1  0  0  0  0
 21 22  1  0  0  0  0
 22 23  2  0  0  0  0
 22 24  1  0  0  0  0
 24 25  1  0  0  0  0
 25 41  1  0  0  0  0
 25 42  1  0  0  0  0
 25 43  1  0  0  0  0
M  END
> <s_m_source_file>
AV-unprocessed.smi

> <i_m_source_file_index>
481

> <i_lp_mmshare_version>
43012

> <i_f3d_flags>
0

> <s_epik_input>
W0NIM11uMWMoPU8pW25IXWMoPU8pYyhjMTIpbihbQ0gyXVtDSDJdT1tDSDNdKWMobjIpW05IXS9OPVtDSF0vYzNbY0hdW2NIXVtjSF1bY0hdW2NIXTM=

> <s_epik_cmdline>
J2VwaWtfcHl0aG9uJywgJy1waCcsICc3LjAnLCAnLXRuJywgJzgnLCAnLW1hJywgJzIwMCcsICctbWV0YWxfYmluZGluZycsICctaW1hZScsICc8aW5maWxlLm1hZT4nLCAnLW9tYWUnLCAnPG91dGZpbGUubWFlPic=

> <r_epik_Ionization_Penalty>
0.000595515

> <r_epik_Ionization_Penalty_Charging>
0.000305988

> <r_epik_Ionization_Penalty_Neutral>
0.000289528

> <r_epik_State_Penalty>
0.000184189

> <r_epik_Charging_Adjusted_Penalty>
0.000490177

> <i_epik_Tot_Q>
0

> <i_epik_Tot_abs_Q>
0

> <r_epik_Metal_State_Penalty>
0.173754

> <b_epik_Metal_Only>
0

> <s_epik_Chemistry_Notes>
This compound has an imine and may undergo hydrolysis.

> <s_lp_Force_Field>
OPLS_2005

> <r_lp_Energy>
32.4826

> <b_lp_Chiralities_Consistent>
1

> <s_lp_Variant>
AV-unprocessed.smi:481-1

> <Gold.Version>
5.8.1

> <Gold.Id.Protein>
6NUR|6NUR_protein|mol2

> <Gold.PLP.Fitness>
46.3249

> <Gold.PLP.PLP>
-43.7165

> <Gold.PLP.part.hbond>
-3.5204

> <Gold.PLP.part.metal>
0.0000

> <Gold.PLP.part.buried>
-5.1934

> <Gold.PLP.part.nonpolar>
-36.3529

> <Gold.PLP.part.repulsive>
0.2640

> <Gold.PLP.ligand.clash>
0.0421

> <Gold.PLP.ligand.torsion>
0.9644

> <Gold.PLP.Chemscore.Hbond>
1.5139

> <Gold.PLP.Chemscore.CHOScore>
0.0000

> <Gold.PLP.Chemscore.Metal>
0.0000

> <Gold.Chemscore.Hbonds>
donor molecule, donor type, donor heavy atom, donor atom, acceptor molecule, acceptor atom, score
      P1  H  6896  6908       L1    20  0.04
      P1  H  6931  6943       L1    16  0.22
      P1  H 10752 10764       L1     2  1.00

> <Gold.PLP.Chemscore.Internal.Correction>
0.0376

> <Gold.Rescore>
     Score         DG    S(hbond)    S(metal)    S(lipo)     H(rot)  DE(clash)    DE(int)     intcor
     14.70     -15.92       1.24        0.00      87.44       1.54       0.35       0.87       ----

> <Gold.Chemscore.Fitness>
14.6979

> <Gold.Chemscore.DG>
-15.9196

> <Gold.Chemscore.ZeroCoef>
-5.4800

> <Gold.Chemscore.Hbond>
1.2434

> <Gold.Chemscore.Metal>
0.0000

> <Gold.Chemscore.Lipo>
87.4405

> <Gold.Chemscore.Internal_Hbond>
0.0000

> <Gold.Chemscore.DEClash>
0.3521

> <Gold.Chemscore.DEInternal>
0.8696

> <Gold.Chemscore.Rot>
1.5406

> <Gold.Chemscore.Internal.Correction>
   9.000000E+99

> <Gold.Chemscore.Hbonds>
donor molecule, donor type, donor heavy atom, donor atom, acceptor molecule, acceptor atom, score
      P1  H  6931  6943       L1    16  0.11
      P1  H 10752 10764       L1     2  0.60

> <Gold.Chemscore.Hbond.Weighted>
-4.1531

> <Gold.Chemscore.Metal.Weighted>
-0.0000

> <Gold.Chemscore.Lipo.Weighted>
-10.2305

> <Gold.Chemscore.Internal_Hbond.Weighted>
0.0000

> <Gold.Chemscore.DEClash.Weighted>
0.3521

> <Gold.Chemscore.DEInternal.Weighted>
0.8696

> <Gold.Chemscore.Rot.Weighted>
3.9440

> <Gold.Chemscore.Internal.Correction.Weighted>
   9.000000E+99

> <Gold.Protein.RotatedTorsions>
[ 6907 6896 6895 6894 ] final   94.07 input  -60.11 | X-H torsion
[ 7974 7965 7964 7962 ] final -121.25 input  175.53 | X-H torsion
[ 8008 7997 7996 7995 ] final  149.90 input   59.86 | X-H torsion
[ 10167 10162 10161 10158 ] final  142.11 input  -65.29 | X-H torsion
[ 10718 10713 10712 10709 ] final  -53.77 input   66.30 | X-H torsion
[ 10763 10752 10751 10750 ] final  -51.78 input  -60.55 | X-H torsion
[ 11005 11000 10999 10996 ] final  134.04 input  -57.11 | X-H torsion

> <Gold.Protein.ActiveResidues>
 VAL166  LYS551  ARG553  GLY616  TRP617  ASP618  TYR619  PRO620  LYS621  CYS622 
 ASP623  PHE694  ASN695  SER759  ASP760  ASP761  ALA762  ILE779  LEU786  VAL792 
 PHE793  MET794  SER795  GLU796  ALA797  LYS798  CYS799  TRP800  GLU811  SER814 

> <Gold.Protein.RotatedAtoms>
  152.5451  134.1250  159.8414 H   0  0  0  0  0  0  0  0  0  0  0  0  # atno 6907 bound_to 6896
  151.1301  133.5035  159.2607 H   0  0  0  0  0  0  0  0  0  0  0  0  # atno 6908 bound_to 6896
  151.1684  135.0316  159.8795 H   0  0  0  0  0  0  0  0  0  0  0  0  # atno 6909 bound_to 6896
  145.0424  140.8155  143.4258 H   0  0  0  0  0  0  0  0  0  0  0  0  # atno 7974 bound_to 7965
  156.2737  140.2089  156.5932 H   0  0  0  0  0  0  0  0  0  0  0  0  # atno 8008 bound_to 7997
  154.6965  140.0525  157.0439 H   0  0  0  0  0  0  0  0  0  0  0  0  # atno 8009 bound_to 7997
  155.0793  140.3185  155.4609 H   0  0  0  0  0  0  0  0  0  0  0  0  # atno 8010 bound_to 7997
  139.5003  144.6128  151.6232 H   0  0  0  0  0  0  0  0  0  0  0  0  # atno 10167 bound_to 10162
  156.1507  130.4151  149.9949 H   0  0  0  0  0  0  0  0  0  0  0  0  # atno 10718 bound_to 10713
  154.1322  135.6518  153.4924 H   0  0  0  0  0  0  0  0  0  0  0  0  # atno 10763 bound_to 10752
  153.0192  135.5295  154.6990 H   0  0  0  0  0  0  0  0  0  0  0  0  # atno 10764 bound_to 10752
  154.6228  135.2966  155.0277 H   0  0  0  0  0  0  0  0  0  0  0  0  # atno 10765 bound_to 10752
  139.9889  134.9522  156.9810 H   0  0  0  0  0  0  0  0  0  0  0  0  # atno 11005 bound_to 11000
  145.1630  139.2447  143.5381 LP  0  0  0  0  0  0  0  0  0  0  0  0  # atno 17320 bound_to 7965
  146.3510  140.1362  142.8596 LP  0  0  0  0  0  0  0  0  0  0  0  0  # atno 17321 bound_to 7965
  140.5808  143.9949  150.6267 LP  0  0  0  0  0  0  0  0  0  0  0  0  # atno 17342 bound_to 10162
  140.3098  143.3206  152.0890 LP  0  0  0  0  0  0  0  0  0  0  0  0  # atno 17343 bound_to 10162
  156.7808  130.9220  151.3646 LP  0  0  0  0  0  0  0  0  0  0  0  0  # atno 17370 bound_to 10713
  157.6654  130.9003  149.9922 LP  0  0  0  0  0  0  0  0  0  0  0  0  # atno 17371 bound_to 10713
  140.4947  134.1158  155.7239 LP  0  0  0  0  0  0  0  0  0  0  0  0  # atno 17394 bound_to 11000
  141.1549  133.8901  157.2003 LP  0  0  0  0  0  0  0  0  0  0  0  0  # atno 17395 bound_to 11000

$$$$
