AV-unprocessed.smi:3240|AV-procd|sdf|12383|dock7
  -GOLD-   2272018243D 1   1.00000     0.00000
 Structure written by MMmdl.
 43 44  0  0  0  0  0  0  0  0  1 V2000
  151.4819  145.5868  160.0088 C   0  0  0  0  0  0  0  0  0  0  0  0
  152.1824  144.3154  160.3916 C   0  0  0  0  0  0  0  0  0  0  0  0
  152.1585  143.6489  161.6497 C   0  0  0  0  0  0  0  0  0  0  0  0
  152.8857  142.5438  161.6604 N   0  0  0  0  0  0  0  0  0  0  0  0
  153.4050  142.4685  160.4161 N   0  0  0  0  0  0  0  0  0  0  0  0
  154.2775  141.3614  160.0575 C   0  0  0  0  0  0  0  0  0  0  0  0
  153.5798  139.9786  160.1066 C   0  0  2  0  0  0  0  0  0  0  0  0
  154.5689  138.8334  160.3753 C   0  0  0  0  0  0  0  0  0  0  0  0
  152.8146  139.6810  158.8910 N   0  0  0  0  0  0  0  0  0  0  0  0
  152.0876  140.8088  158.3033 C   0  0  0  0  0  0  0  0  0  0  0  0
  151.4616  140.4557  156.9352 C   0  0  0  0  0  0  0  0  0  0  0  0
  152.5099  139.9894  156.1044 O   0  0  0  0  0  0  0  0  0  0  0  0
  150.4569  139.2931  157.1158 C   0  0  0  0  0  0  0  0  0  0  0  0
  149.7091  138.9327  155.8195 C   0  0  0  0  0  0  0  0  0  0  0  0
  149.0091  140.1606  155.2214 C   0  0  0  0  0  0  0  0  0  0  0  0
  150.0115  141.2971  154.9793 C   0  0  0  0  0  0  0  0  0  0  0  0
  150.7622  141.6693  156.2705 C   0  0  0  0  0  0  0  0  0  0  0  0
  152.9897  143.5213  159.6280 C   0  0  0  0  0  0  0  0  0  0  0  0
  151.6049  146.3583  160.7691 H   0  0  0  0  0  0  0  0  0  0  0  0
  150.4110  145.4310  159.8780 H   0  0  0  0  0  0  0  0  0  0  0  0
  151.8645  145.9954  159.0732 H   0  0  0  0  0  0  0  0  0  0  0  0
  151.6354  143.9339  162.5505 H   0  0  0  0  0  0  0  0  0  0  0  0
  154.6560  141.5368  159.0491 H   0  0  0  0  0  0  0  0  0  0  0  0
  155.1553  141.3901  160.7022 H   0  0  0  0  0  0  0  0  0  0  0  0
  152.8870  139.9989  160.9486 H   0  0  0  0  0  0  0  0  0  0  0  0
  155.1582  139.0268  161.2720 H   0  0  0  0  0  0  0  0  0  0  0  0
  155.2620  138.6946  159.5448 H   0  0  0  0  0  0  0  0  0  0  0  0
  154.0429  137.8899  160.5255 H   0  0  0  0  0  0  0  0  0  0  0  0
  152.1629  138.9247  159.0758 H   0  0  0  0  0  0  0  0  0  0  0  0
  151.3064  141.1443  158.9867 H   0  0  0  0  0  0  0  0  0  0  0  0
  152.7608  141.6543  158.1676 H   0  0  0  0  0  0  0  0  0  0  0  0
  152.4441  140.4251  155.2686 H   0  0  0  0  0  0  0  0  0  0  0  0
  150.9663  138.4095  157.5028 H   0  0  0  0  0  0  0  0  0  0  0  0
  149.7211  139.5701  157.8723 H   0  0  0  0  0  0  0  0  0  0  0  0
  150.4065  138.5170  155.0913 H   0  0  0  0  0  0  0  0  0  0  0  0
  148.9760  138.1511  156.0215 H   0  0  0  0  0  0  0  0  0  0  0  0
  148.5173  139.8914  154.2862 H   0  0  0  0  0  0  0  0  0  0  0  0
  148.2245  140.5015  155.8982 H   0  0  0  0  0  0  0  0  0  0  0  0
  150.7246  140.9989  154.2099 H   0  0  0  0  0  0  0  0  0  0  0  0
  149.4906  142.1725  154.5905 H   0  0  0  0  0  0  0  0  0  0  0  0
  150.0508  142.1015  156.9751 H   0  0  0  0  0  0  0  0  0  0  0  0
  151.4832  142.4567  156.0481 H   0  0  0  0  0  0  0  0  0  0  0  0
  153.3039  143.6195  158.5997 H   0  0  0  0  0  0  0  0  0  0  0  0
  1  2  1  0  0  0  0
  1 19  1  0  0  0  0
  1 20  1  0  0  0  0
  1 21  1  0  0  0  0
  2 18  2  0  0  0  0
  2  3  1  0  0  0  0
  3  4  2  0  0  0  0
  3 22  1  0  0  0  0
  4  5  1  0  0  0  0
  5  6  1  0  0  0  0
  5 18  1  0  0  0  0
  6  7  1  0  0  0  0
  6 23  1  0  0  0  0
  6 24  1  0  0  0  0
  7  8  1  0  0  0  0
  7  9  1  0  0  0  0
  7 25  1  0  0  0  0
  8 26  1  0  0  0  0
  8 27  1  0  0  0  0
  8 28  1  0  0  0  0
  9 10  1  0  0  0  0
  9 29  1  0  0  0  0
 10 11  1  0  0  0  0
 10 30  1  0  0  0  0
 10 31  1  0  0  0  0
 11 17  1  0  0  0  0
 11 12  1  0  0  0  0
 11 13  1  0  0  0  0
 12 32  1  0  0  0  0
 13 14  1  0  0  0  0
 13 33  1  0  0  0  0
 13 34  1  0  0  0  0
 14 15  1  0  0  0  0
 14 35  1  0  0  0  0
 14 36  1  0  0  0  0
 15 16  1  0  0  0  0
 15 37  1  0  0  0  0
 15 38  1  0  0  0  0
 16 17  1  0  0  0  0
 16 39  1  0  0  0  0
 16 40  1  0  0  0  0
 17 41  1  0  0  0  0
 17 42  1  0  0  0  0
 18 43  1  0  0  0  0
M  END
> <s_m_source_file>
AV-unprocessed.smi

> <i_m_source_file_index>
3240

> <i_lp_mmshare_version>
43012

> <i_f3d_flags>
0

> <s_epik_input>
W0NIM11jMVtjSF1ubihbY0hdMSlbQ0gyXVtDQEhdKFtDSDNdKVtOSF1bQ0gyXUMyKFtPSF0pW0NIMl1bQ0gyXVtDSDJdW0NIMl1bQ0gyXTI=

> <s_epik_cmdline>
J2VwaWtfcHl0aG9uJywgJy1waCcsICc3LjAnLCAnLXRuJywgJzgnLCAnLW1hJywgJzIwMCcsICctbWV0YWxfYmluZGluZycsICctaW1hZScsICc8aW5maWxlLm1hZT4nLCAnLW9tYWUnLCAnPG91dGZpbGUubWFlPic=

> <r_lp_tautomer_probability>
1

> <r_epik_Ionization_Penalty>
2.35969

> <r_epik_Ionization_Penalty_Charging>
0

> <r_epik_Ionization_Penalty_Neutral>
2.35969

> <r_epik_State_Penalty>
2.51455

> <r_epik_Charging_Adjusted_Penalty>
2.51455

> <i_epik_Tot_Q>
0

> <i_epik_Tot_abs_Q>
0

> <r_epik_Metal_State_Penalty>
2.51446

> <b_epik_Metal_Only>
0

> <s_lp_Force_Field>
OPLS_2005

> <r_lp_Energy>
22.0798

> <b_lp_Chiralities_Consistent>
1

> <s_lp_Variant>
AV-unprocessed.smi:3240-3

> <Gold.Version>
5.8.1

> <Gold.Id.Protein>
6NUR|6NUR_protein|mol2

> <Gold.PLP.Fitness>
42.1289

> <Gold.PLP.PLP>
-39.9884

> <Gold.PLP.part.hbond>
-1.0000

> <Gold.PLP.part.metal>
0.0000

> <Gold.PLP.part.buried>
-4.6439

> <Gold.PLP.part.nonpolar>
-33.9498

> <Gold.PLP.part.repulsive>
0.0540

> <Gold.PLP.ligand.clash>
0.0000

> <Gold.PLP.ligand.torsion>
0.4695

> <Gold.PLP.Chemscore.Hbond>
1.0000

> <Gold.PLP.Chemscore.CHOScore>
0.0000

> <Gold.PLP.Chemscore.Metal>
0.0000

> <Gold.Chemscore.Hbonds>
donor molecule, donor type, donor heavy atom, donor atom, acceptor molecule, acceptor atom, score
      P1  H  7997  8010       L1    12  1.00

> <Gold.PLP.Chemscore.Internal.Correction>
0.0795

> <Gold.Rescore>
     Score         DG    S(hbond)    S(metal)    S(lipo)     H(rot)  DE(clash)    DE(int)     intcor
     15.73     -16.28       1.00        0.00     108.60       2.04       0.02       0.53       ----

> <Gold.Chemscore.Fitness>
15.7269

> <Gold.Chemscore.DG>
-16.2759

> <Gold.Chemscore.ZeroCoef>
-5.4800

> <Gold.Chemscore.Hbond>
0.9951

> <Gold.Chemscore.Metal>
0.0000

> <Gold.Chemscore.Lipo>
108.6040

> <Gold.Chemscore.Internal_Hbond>
0.0000

> <Gold.Chemscore.DEClash>
0.0208

> <Gold.Chemscore.DEInternal>
0.5281

> <Gold.Chemscore.Rot>
2.0447

> <Gold.Chemscore.Internal.Correction>
   9.000000E+99

> <Gold.Chemscore.Hbonds>
donor molecule, donor type, donor heavy atom, donor atom, acceptor molecule, acceptor atom, score
      P1  H  7997  8010       L1    12  0.25

> <Gold.Chemscore.Hbond.Weighted>
-3.3236

> <Gold.Chemscore.Metal.Weighted>
-0.0000

> <Gold.Chemscore.Lipo.Weighted>
-12.7067

> <Gold.Chemscore.Internal_Hbond.Weighted>
0.0000

> <Gold.Chemscore.DEClash.Weighted>
0.0208

> <Gold.Chemscore.DEInternal.Weighted>
0.5281

> <Gold.Chemscore.Rot.Weighted>
5.2344

> <Gold.Chemscore.Internal.Correction.Weighted>
   9.000000E+99

> <Gold.Protein.RotatedTorsions>
[ 6907 6896 6895 6894 ] final  147.40 input  -60.11 | X-H torsion
[ 7974 7965 7964 7962 ] final  179.76 input  175.53 | X-H torsion
[ 8008 7997 7996 7995 ] final   72.65 input   59.86 | X-H torsion
[ 10167 10162 10161 10158 ] final -116.42 input  -65.29 | X-H torsion
[ 10718 10713 10712 10709 ] final -174.18 input   66.30 | X-H torsion
[ 10763 10752 10751 10750 ] final   60.69 input  -60.55 | X-H torsion
[ 11005 11000 10999 10996 ] final   66.43 input  -57.11 | X-H torsion

> <Gold.Protein.ActiveResidues>
 VAL166  LYS551  ARG553  GLY616  TRP617  ASP618  TYR619  PRO620  LYS621  CYS622 
 ASP623  PHE694  ASN695  SER759  ASP760  ASP761  ALA762  ILE779  LEU786  VAL792 
 PHE793  MET794  SER795  GLU796  ALA797  LYS798  CYS799  TRP800  GLU811  SER814 

> <Gold.Protein.RotatedAtoms>
  152.1552  133.4547  159.4833 H   0  0  0  0  0  0  0  0  0  0  0  0  # atno 6907 bound_to 6896
  150.6900  134.2140  159.4379 H   0  0  0  0  0  0  0  0  0  0  0  0  # atno 6908 bound_to 6896
  152.0039  134.9913  160.0616 H   0  0  0  0  0  0  0  0  0  0  0  0  # atno 6909 bound_to 6896
  144.7143  140.0596  143.6433 H   0  0  0  0  0  0  0  0  0  0  0  0  # atno 7974 bound_to 7965
  155.7719  140.3484  155.5252 H   0  0  0  0  0  0  0  0  0  0  0  0  # atno 8008 bound_to 7997
  155.8813  140.1002  157.1504 H   0  0  0  0  0  0  0  0  0  0  0  0  # atno 8009 bound_to 7997
  154.4025  140.1322  156.4187 H   0  0  0  0  0  0  0  0  0  0  0  0  # atno 8010 bound_to 7997
  140.0794  143.4802  152.1935 H   0  0  0  0  0  0  0  0  0  0  0  0  # atno 10167 bound_to 10162
  156.7813  130.9484  151.3120 H   0  0  0  0  0  0  0  0  0  0  0  0  # atno 10718 bound_to 10713
  152.9928  135.5527  154.5913 H   0  0  0  0  0  0  0  0  0  0  0  0  # atno 10763 bound_to 10752
  154.5274  135.2811  155.1212 H   0  0  0  0  0  0  0  0  0  0  0  0  # atno 10764 bound_to 10752
  154.2540  135.6393  153.5303 H   0  0  0  0  0  0  0  0  0  0  0  0  # atno 10765 bound_to 10752
  139.9832  134.6710  156.0224 H   0  0  0  0  0  0  0  0  0  0  0  0  # atno 11005 bound_to 11000
  145.9875  139.2989  143.1005 LP  0  0  0  0  0  0  0  0  0  0  0  0  # atno 17320 bound_to 7965
  145.8941  140.9285  143.0537 LP  0  0  0  0  0  0  0  0  0  0  0  0  # atno 17321 bound_to 7965
  139.5789  144.7501  151.3693 LP  0  0  0  0  0  0  0  0  0  0  0  0  # atno 17342 bound_to 10162
  140.7086  143.7450  150.7525 LP  0  0  0  0  0  0  0  0  0  0  0  0  # atno 17343 bound_to 10162
  157.6645  130.8995  149.9901 LP  0  0  0  0  0  0  0  0  0  0  0  0  # atno 17370 bound_to 10713
  156.1216  130.3646  149.9878 LP  0  0  0  0  0  0  0  0  0  0  0  0  # atno 17371 bound_to 10713
  141.1501  133.6550  156.3987 LP  0  0  0  0  0  0  0  0  0  0  0  0  # atno 17394 bound_to 11000
  140.5054  134.6446  157.5264 LP  0  0  0  0  0  0  0  0  0  0  0  0  # atno 17395 bound_to 11000

$$$$
