AV-unprocessed.smi:2714|AV-procd|sdf|10481|dock2
  -GOLD-   2272014523D 1   1.00000     0.00000
 Structure written by MMmdl.
 46 47  0  0  0  0  0  0  0  0  1 V2000
  144.7988  133.6855  162.0968 C   0  0  0  0  0  0  0  0  0  0  0  0
  146.2783  133.7822  162.4843 C   0  0  0  0  0  0  0  0  0  0  0  0
  147.1305  134.4505  161.3896 C   0  0  0  0  0  0  0  0  0  0  0  0
  146.7909  135.9366  161.1383 C   0  0  1  0  0  0  0  0  0  0  0  0
  146.6287  136.6962  162.4662 C   0  0  0  0  0  0  0  0  0  0  0  0
  147.8476  136.6296  160.2657 C   0  0  0  0  0  0  0  0  0  0  0  0
  149.0071  136.7345  160.6659 O   0  0  0  0  0  0  0  0  0  0  0  0
  147.4276  137.0987  159.0803 N   0  0  0  0  0  0  0  0  0  0  0  0
  148.2354  137.8438  158.1203 C   0  0  0  0  0  0  0  0  0  0  0  0
  147.4041  138.3575  156.9524 C   0  0  0  0  0  0  0  0  0  0  0  0
  146.0033  138.1861  156.9718 C   0  0  0  0  0  0  0  0  0  0  0  0
  145.2342  138.6838  155.9043 C   0  0  0  0  0  0  0  0  0  0  0  0
  145.8996  139.3403  154.8532 C   0  0  0  0  0  0  0  0  0  0  0  0
  147.2371  139.5121  154.8193 N   0  0  0  0  0  0  0  0  0  0  0  0
  147.9825  139.0336  155.8456 C   0  0  0  0  0  0  0  0  0  0  0  0
  149.3748  139.2068  155.7669 N   0  0  0  0  0  0  0  0  0  0  0  0
  149.8572  140.5758  155.9072 C   0  0  0  0  0  0  0  0  0  0  0  0
  151.3939  140.5832  155.9711 C   0  0  0  0  0  0  0  0  0  0  0  0
  151.9205  139.9418  154.8126 O   0  0  0  0  0  0  0  0  0  0  0  0
  151.5054  138.5818  154.7182 C   0  0  0  0  0  0  0  0  0  0  0  0
  149.9706  138.5105  154.6344 C   0  0  0  0  0  0  0  0  0  0  0  0
  144.2194  133.2122  162.8897 H   0  0  0  0  0  0  0  0  0  0  0  0
  144.6663  133.0948  161.1900 H   0  0  0  0  0  0  0  0  0  0  0  0
  144.3734  134.6736  161.9190 H   0  0  0  0  0  0  0  0  0  0  0  0
  146.3609  134.3379  163.4187 H   0  0  0  0  0  0  0  0  0  0  0  0
  146.6617  132.7813  162.6855 H   0  0  0  0  0  0  0  0  0  0  0  0
  148.1803  134.3766  161.6764 H   0  0  0  0  0  0  0  0  0  0  0  0
  147.0372  133.8858  160.4603 H   0  0  0  0  0  0  0  0  0  0  0  0
  145.8325  135.9802  160.6183 H   0  0  0  0  0  0  0  0  0  0  0  0
  146.4099  137.7514  162.2972 H   0  0  0  0  0  0  0  0  0  0  0  0
  147.5313  136.6367  163.0758 H   0  0  0  0  0  0  0  0  0  0  0  0
  145.8076  136.2840  163.0530 H   0  0  0  0  0  0  0  0  0  0  0  0
  146.4574  136.9582  158.8387 H   0  0  0  0  0  0  0  0  0  0  0  0
  148.7622  138.6766  158.5877 H   0  0  0  0  0  0  0  0  0  0  0  0
  149.0128  137.1755  157.7488 H   0  0  0  0  0  0  0  0  0  0  0  0
  145.5195  137.6835  157.7967 H   0  0  0  0  0  0  0  0  0  0  0  0
  144.1605  138.5681  155.8933 H   0  0  0  0  0  0  0  0  0  0  0  0
  145.3439  139.7377  154.0169 H   0  0  0  0  0  0  0  0  0  0  0  0
  149.5222  141.1784  155.0617 H   0  0  0  0  0  0  0  0  0  0  0  0
  149.4414  141.0221  156.8114 H   0  0  0  0  0  0  0  0  0  0  0  0
  151.7639  141.6076  156.0105 H   0  0  0  0  0  0  0  0  0  0  0  0
  151.7499  140.0807  156.8715 H   0  0  0  0  0  0  0  0  0  0  0  0
  151.9505  138.1358  153.8288 H   0  0  0  0  0  0  0  0  0  0  0  0
  151.8758  138.0179  155.5753 H   0  0  0  0  0  0  0  0  0  0  0  0
  149.6457  137.4696  154.6180 H   0  0  0  0  0  0  0  0  0  0  0  0
  149.6259  138.9696  153.7068 H   0  0  0  0  0  0  0  0  0  0  0  0
  1  2  1  0  0  0  0
  1 22  1  0  0  0  0
  1 23  1  0  0  0  0
  1 24  1  0  0  0  0
  2  3  1  0  0  0  0
  2 25  1  0  0  0  0
  2 26  1  0  0  0  0
  3  4  1  0  0  0  0
  3 27  1  0  0  0  0
  3 28  1  0  0  0  0
  4  5  1  0  0  0  0
  4  6  1  0  0  0  0
  4 29  1  0  0  0  0
  5 30  1  0  0  0  0
  5 31  1  0  0  0  0
  5 32  1  0  0  0  0
  6  7  2  0  0  0  0
  6  8  1  0  0  0  0
  8  9  1  0  0  0  0
  8 33  1  0  0  0  0
  9 10  1  0  0  0  0
  9 34  1  0  0  0  0
  9 35  1  0  0  0  0
 10 15  1  0  0  0  0
 10 11  2  0  0  0  0
 11 12  1  0  0  0  0
 11 36  1  0  0  0  0
 12 13  2  0  0  0  0
 12 37  1  0  0  0  0
 13 14  1  0  0  0  0
 13 38  1  0  0  0  0
 14 15  2  0  0  0  0
 15 16  1  0  0  0  0
 16 21  1  0  0  0  0
 16 17  1  0  0  0  0
 17 18  1  0  0  0  0
 17 39  1  0  0  0  0
 17 40  1  0  0  0  0
 18 19  1  0  0  0  0
 18 41  1  0  0  0  0
 18 42  1  0  0  0  0
 19 20  1  0  0  0  0
 20 21  1  0  0  0  0
 20 43  1  0  0  0  0
 20 44  1  0  0  0  0
 21 45  1  0  0  0  0
 21 46  1  0  0  0  0
M  END
> <s_m_source_file>
AV-unprocessed.smi

> <i_m_source_file_index>
2714

> <i_lp_mmshare_version>
43012

> <i_f3d_flags>
0

> <s_epik_input>
W0NIM11bQ0gyXVtDSDJdW0NASF0oW0NIM10pQyg9TylbTkhdW0NIMl1jMVtjSF1bY0hdW2NIXW5jMU4yW0NIMl1bQ0gyXU9bQ0gyXVtDSDJdMg==

> <s_epik_cmdline>
J2VwaWtfcHl0aG9uJywgJy1waCcsICc3LjAnLCAnLXRuJywgJzgnLCAnLW1hJywgJzIwMCcsICctbWV0YWxfYmluZGluZycsICctaW1hZScsICc8aW5maWxlLm1hZT4nLCAnLW9tYWUnLCAnPG91dGZpbGUubWFlPic=

> <r_lp_tautomer_probability>
1

> <r_epik_Ionization_Penalty>
0.00517355

> <r_epik_Ionization_Penalty_Charging>
0

> <r_epik_Ionization_Penalty_Neutral>
0.00517355

> <r_epik_State_Penalty>
0.00376978

> <r_epik_Charging_Adjusted_Penalty>
0.00376978

> <i_epik_Tot_Q>
0

> <i_epik_Tot_abs_Q>
0

> <r_epik_Metal_State_Penalty>
-0

> <b_epik_Metal_Only>
0

> <s_lp_Force_Field>
OPLS_2005

> <r_lp_Energy>
17.5243

> <b_lp_Chiralities_Consistent>
1

> <s_lp_Variant>
AV-unprocessed.smi:2714-2

> <Gold.Version>
5.8.1

> <Gold.Id.Protein>
6NUR|6NUR_protein|mol2

> <Gold.PLP.Fitness>
36.9573

> <Gold.PLP.PLP>
-28.9381

> <Gold.PLP.part.hbond>
-1.8308

> <Gold.PLP.part.metal>
0.0000

> <Gold.PLP.part.buried>
-4.1665

> <Gold.PLP.part.nonpolar>
-23.7896

> <Gold.PLP.part.repulsive>
0.2971

> <Gold.PLP.ligand.clash>
0.0000

> <Gold.PLP.ligand.torsion>
0.2458

> <Gold.PLP.Chemscore.Hbond>
1.7280

> <Gold.PLP.Chemscore.CHOScore>
1.0000

> <Gold.PLP.Chemscore.Metal>
0.0000

> <Gold.Chemscore.Hbonds>
donor molecule, donor type, donor heavy atom, donor atom, acceptor molecule, acceptor atom, score
      P1  H  6931  6943       L1     7  0.85
      P1  H  7989  7998       L1    19  0.91
      L1  C    13    38       P1 10175  1.00

> <Gold.PLP.Chemscore.Internal.Correction>
0.3268

> <Gold.Rescore>
     Score         DG    S(hbond)    S(metal)    S(lipo)     H(rot)  DE(clash)    DE(int)     intcor
     14.27     -14.81       1.78        0.00      66.56       1.72       0.05       0.49       ----

> <Gold.Chemscore.Fitness>
14.2715

> <Gold.Chemscore.DG>
-14.8054

> <Gold.Chemscore.ZeroCoef>
-5.4800

> <Gold.Chemscore.Hbond>
1.7781

> <Gold.Chemscore.Metal>
0.0000

> <Gold.Chemscore.Lipo>
66.5624

> <Gold.Chemscore.Internal_Hbond>
0.0000

> <Gold.Chemscore.DEClash>
0.0456

> <Gold.Chemscore.DEInternal>
0.4883

> <Gold.Chemscore.Rot>
1.7192

> <Gold.Chemscore.Internal.Correction>
   9.000000E+99

> <Gold.Chemscore.Hbonds>
donor molecule, donor type, donor heavy atom, donor atom, acceptor molecule, acceptor atom, score
      P1  H  6931  6943       L1     7  0.54
      P1  H  7989  7998       L1    19  0.60

> <Gold.Chemscore.Hbond.Weighted>
-5.9388

> <Gold.Chemscore.Metal.Weighted>
-0.0000

> <Gold.Chemscore.Lipo.Weighted>
-7.7878

> <Gold.Chemscore.Internal_Hbond.Weighted>
0.0000

> <Gold.Chemscore.DEClash.Weighted>
0.0456

> <Gold.Chemscore.DEInternal.Weighted>
0.4883

> <Gold.Chemscore.Rot.Weighted>
4.4011

> <Gold.Chemscore.Internal.Correction.Weighted>
   9.000000E+99

> <Gold.Protein.RotatedTorsions>
[ 6907 6896 6895 6894 ] final   66.41 input  -60.11 | X-H torsion
[ 7974 7965 7964 7962 ] final  161.18 input  175.53 | X-H torsion
[ 8008 7997 7996 7995 ] final -133.41 input   59.86 | X-H torsion
[ 10167 10162 10161 10158 ] final -153.97 input  -65.29 | X-H torsion
[ 10718 10713 10712 10709 ] final   83.44 input   66.30 | X-H torsion
[ 10763 10752 10751 10750 ] final  -61.45 input  -60.55 | X-H torsion
[ 11005 11000 10999 10996 ] final -152.57 input  -57.11 | X-H torsion

> <Gold.Protein.ActiveResidues>
 VAL166  LYS551  ARG553  GLY616  TRP617  ASP618  TYR619  PRO620  LYS621  CYS622 
 ASP623  PHE694  ASN695  SER759  ASP760  ASP761  ALA762  ILE779  LEU786  VAL792 
 PHE793  MET794  SER795  GLU796  ALA797  LYS798  CYS799  TRP800  GLU811  SER814 

> <Gold.Protein.RotatedAtoms>
  152.4479  134.5456  159.9851 H   0  0  0  0  0  0  0  0  0  0  0  0  # atno 6907 bound_to 6896
  151.5536  133.3408  159.2965 H   0  0  0  0  0  0  0  0  0  0  0  0  # atno 6908 bound_to 6896
  150.8400  134.7720  159.6988 H   0  0  0  0  0  0  0  0  0  0  0  0  # atno 6909 bound_to 6896
  144.7698  139.7862  143.6301 H   0  0  0  0  0  0  0  0  0  0  0  0  # atno 7974 bound_to 7965
  155.3450  140.0474  157.3045 H   0  0  0  0  0  0  0  0  0  0  0  0  # atno 8008 bound_to 7997
  154.5257  140.2240  155.8858 H   0  0  0  0  0  0  0  0  0  0  0  0  # atno 8009 bound_to 7997
  156.1737  140.3090  155.9026 H   0  0  0  0  0  0  0  0  0  0  0  0  # atno 8010 bound_to 7997
  139.7052  143.9198  152.2445 H   0  0  0  0  0  0  0  0  0  0  0  0  # atno 10167 bound_to 10162
  157.6879  131.0091  150.2524 H   0  0  0  0  0  0  0  0  0  0  0  0  # atno 10718 bound_to 10713
  154.2848  135.6265  153.5361 H   0  0  0  0  0  0  0  0  0  0  0  0  # atno 10763 bound_to 10752
  152.9860  135.5641  154.5455 H   0  0  0  0  0  0  0  0  0  0  0  0  # atno 10764 bound_to 10752
  154.5053  135.2874  155.1363 H   0  0  0  0  0  0  0  0  0  0  0  0  # atno 10765 bound_to 10752
  140.7174  134.3765  157.5189 H   0  0  0  0  0  0  0  0  0  0  0  0  # atno 11005 bound_to 11000
  146.1836  139.5041  142.9850 LP  0  0  0  0  0  0  0  0  0  0  0  0  # atno 17320 bound_to 7965
  145.6357  141.0295  143.1839 LP  0  0  0  0  0  0  0  0  0  0  0  0  # atno 17321 bound_to 7965
  139.9052  144.6889  150.8622 LP  0  0  0  0  0  0  0  0  0  0  0  0  # atno 17342 bound_to 10162
  140.7720  143.3484  151.2064 LP  0  0  0  0  0  0  0  0  0  0  0  0  # atno 17343 bound_to 10162
  156.3118  130.3773  149.7654 LP  0  0  0  0  0  0  0  0  0  0  0  0  # atno 17370 bound_to 10713
  156.5252  130.8233  151.3218 LP  0  0  0  0  0  0  0  0  0  0  0  0  # atno 17371 bound_to 10713
  139.8856  134.8932  156.2631 LP  0  0  0  0  0  0  0  0  0  0  0  0  # atno 17394 bound_to 11000
  141.0033  133.7139  156.0994 LP  0  0  0  0  0  0  0  0  0  0  0  0  # atno 17395 bound_to 11000

$$$$
