AV-unprocessed.smi:1378|AV-procd|sdf|5596|dock3
  -GOLD-   22720 5203D 1   1.00000     0.00000
 Structure written by MMmdl.
 46 48  0  0  0  0  0  0  0  0  1 V2000
  151.9048  145.9627  160.1518 C   0  0  0  0  0  0  0  0  0  0  0  0
  151.2563  144.7150  159.9831 O   0  0  0  0  0  0  0  0  0  0  0  0
  151.0653  144.3798  158.6181 C   0  0  0  0  0  0  0  0  0  0  0  0
  150.4945  142.9592  158.5130 C   0  0  0  0  0  0  0  0  0  0  0  0
  151.5302  141.9459  158.6447 N   0  0  0  0  0  0  0  0  0  0  0  0
  151.8786  140.9908  157.7488 C   0  0  0  0  0  0  0  0  0  0  0  0
  151.0905  140.8525  156.1771 S   0  0  0  0  0  0  0  0  0  0  0  0
  149.4082  140.4696  156.7551 C   0  0  0  0  0  0  0  0  0  0  0  0
  148.3578  140.5935  155.6507 C   0  0  0  0  0  0  0  0  0  0  0  0
  148.5194  140.0147  154.5770 O   0  0  0  0  0  0  0  0  0  0  0  0
  147.2737  141.3278  155.9437 N   0  0  0  0  0  0  0  0  0  0  0  0
  146.0967  141.4847  155.0961 C   0  0  0  0  0  0  0  0  0  0  0  0
  146.4651  142.1240  153.7443 C   0  0  0  0  0  0  0  0  0  0  0  0
  145.9293  143.5549  153.7993 C   0  0  0  0  0  0  0  0  0  0  0  0
  144.6929  143.4552  154.6874 C   0  0  0  0  0  0  0  0  0  0  0  0
  145.0780  142.4332  155.7579 C   0  0  0  0  0  0  0  0  0  0  0  0
  152.8783  140.1892  158.1161 N   0  0  0  0  0  0  0  0  0  0  0  0
  153.2111  140.6721  159.3665 C   0  0  0  0  0  0  0  0  0  0  0  0
  154.2070  140.2533  160.2775 C   0  0  0  0  0  0  0  0  0  0  0  0
  154.3677  140.9149  161.5125 C   0  0  0  0  0  0  0  0  0  0  0  0
  153.5365  142.0012  161.8543 C   0  0  0  0  0  0  0  0  0  0  0  0
  152.5380  142.4343  160.9611 C   0  0  0  0  0  0  0  0  0  0  0  0
  152.3838  141.7722  159.7286 C   0  0  0  0  0  0  0  0  0  0  0  0
  152.0318  146.1676  161.2148 H   0  0  0  0  0  0  0  0  0  0  0  0
  151.3168  146.7738  159.7207 H   0  0  0  0  0  0  0  0  0  0  0  0
  152.8924  145.9603  159.6887 H   0  0  0  0  0  0  0  0  0  0  0  0
  150.3834  145.0917  158.1501 H   0  0  0  0  0  0  0  0  0  0  0  0
  152.0144  144.4371  158.0835 H   0  0  0  0  0  0  0  0  0  0  0  0
  149.7305  142.7958  159.2734 H   0  0  0  0  0  0  0  0  0  0  0  0
  149.9969  142.8263  157.5521 H   0  0  0  0  0  0  0  0  0  0  0  0
  149.3902  139.4657  157.1810 H   0  0  0  0  0  0  0  0  0  0  0  0
  149.1554  141.1566  157.5632 H   0  0  0  0  0  0  0  0  0  0  0  0
  147.2379  141.7694  156.8512 H   0  0  0  0  0  0  0  0  0  0  0  0
  145.6262  140.5149  154.9240 H   0  0  0  0  0  0  0  0  0  0  0  0
  147.5334  142.0936  153.5261 H   0  0  0  0  0  0  0  0  0  0  0  0
  145.9603  141.5826  152.9432 H   0  0  0  0  0  0  0  0  0  0  0  0
  146.6676  144.2063  154.2687 H   0  0  0  0  0  0  0  0  0  0  0  0
  145.7064  143.9590  152.8115 H   0  0  0  0  0  0  0  0  0  0  0  0
  144.3999  144.4165  155.1109 H   0  0  0  0  0  0  0  0  0  0  0  0
  143.8525  143.0776  154.1037 H   0  0  0  0  0  0  0  0  0  0  0  0
  144.2092  141.8999  156.1451 H   0  0  0  0  0  0  0  0  0  0  0  0
  145.5305  142.9595  156.5999 H   0  0  0  0  0  0  0  0  0  0  0  0
  154.8492  139.4226  160.0252 H   0  0  0  0  0  0  0  0  0  0  0  0
  155.1319  140.5865  162.2016 H   0  0  0  0  0  0  0  0  0  0  0  0
  153.6657  142.5014  162.8028 H   0  0  0  0  0  0  0  0  0  0  0  0
  151.8986  143.2653  161.2197 H   0  0  0  0  0  0  0  0  0  0  0  0
  1  2  1  0  0  0  0
  1 24  1  0  0  0  0
  1 25  1  0  0  0  0
  1 26  1  0  0  0  0
  2  3  1  0  0  0  0
  3  4  1  0  0  0  0
  3 27  1  0  0  0  0
  3 28  1  0  0  0  0
  4  5  1  0  0  0  0
  4 29  1  0  0  0  0
  4 30  1  0  0  0  0
  5 23  1  0  0  0  0
  5  6  1  0  0  0  0
  6  7  1  0  0  0  0
  6 17  2  0  0  0  0
  7  8  1  0  0  0  0
  8  9  1  0  0  0  0
  8 31  1  0  0  0  0
  8 32  1  0  0  0  0
  9 10  2  0  0  0  0
  9 11  1  0  0  0  0
 11 12  1  0  0  0  0
 11 33  1  0  0  0  0
 12 16  1  0  0  0  0
 12 13  1  0  0  0  0
 12 34  1  0  0  0  0
 13 14  1  0  0  0  0
 13 35  1  0  0  0  0
 13 36  1  0  0  0  0
 14 15  1  0  0  0  0
 14 37  1  0  0  0  0
 14 38  1  0  0  0  0
 15 16  1  0  0  0  0
 15 39  1  0  0  0  0
 15 40  1  0  0  0  0
 16 41  1  0  0  0  0
 16 42  1  0  0  0  0
 17 18  1  0  0  0  0
 18 23  2  0  0  0  0
 18 19  1  0  0  0  0
 19 20  2  0  0  0  0
 19 43  1  0  0  0  0
 20 21  1  0  0  0  0
 20 44  1  0  0  0  0
 21 22  2  0  0  0  0
 21 45  1  0  0  0  0
 22 23  1  0  0  0  0
 22 46  1  0  0  0  0
M  END
> <s_m_source_file>
AV-unprocessed.smi

> <i_m_source_file_index>
1378

> <i_lp_mmshare_version>
43012

> <i_f3d_flags>
0

> <s_epik_input>
W2NIXTFbY0hdW2NIXVtjSF1jKGMxMiluKFtDSDJdW0NIMl1PW0NIM10pYyhuMilTW0NIMl1DKD1PKVtOSF1bQ0hdM1tDSDJdW0NIMl1bQ0gyXVtDSDJdMw==

> <s_epik_cmdline>
J2VwaWtfcHl0aG9uJywgJy1waCcsICc3LjAnLCAnLXRuJywgJzgnLCAnLW1hJywgJzIwMCcsICctbWV0YWxfYmluZGluZycsICctaW1hZScsICc8aW5maWxlLm1hZT4nLCAnLW9tYWUnLCAnPG91dGZpbGUubWFlPic=

> <r_epik_Ionization_Penalty>
0.0369383

> <r_epik_Ionization_Penalty_Charging>
0

> <r_epik_Ionization_Penalty_Neutral>
0.0369383

> <r_epik_State_Penalty>
0.0308874

> <r_epik_Charging_Adjusted_Penalty>
0.0308874

> <i_epik_Tot_Q>
0

> <i_epik_Tot_abs_Q>
0

> <r_epik_Metal_State_Penalty>
0.0290628

> <b_epik_Metal_Only>
0

> <s_lp_Force_Field>
OPLS_2005

> <r_lp_Energy>
18.5214

> <b_lp_Chiralities_Consistent>
1

> <s_lp_Variant>
AV-unprocessed.smi:1378-1

> <Gold.Version>
5.8.1

> <Gold.Id.Protein>
6NUR|6NUR_protein|mol2

> <Gold.PLP.Fitness>
49.9738

> <Gold.PLP.PLP>
-47.3462

> <Gold.PLP.part.hbond>
-1.0000

> <Gold.PLP.part.metal>
0.0000

> <Gold.PLP.part.buried>
-6.2710

> <Gold.PLP.part.nonpolar>
-40.8479

> <Gold.PLP.part.repulsive>
0.1992

> <Gold.PLP.ligand.clash>
0.0000

> <Gold.PLP.ligand.torsion>
0.2396

> <Gold.PLP.Chemscore.Hbond>
0.9920

> <Gold.PLP.Chemscore.CHOScore>
0.0000

> <Gold.PLP.Chemscore.Metal>
0.0000

> <Gold.Chemscore.Hbonds>
donor molecule, donor type, donor heavy atom, donor atom, acceptor molecule, acceptor atom, score
      P1  H  7997  8008       L1    17  0.99

> <Gold.PLP.Chemscore.Internal.Correction>
0.1309

> <Gold.Rescore>
     Score         DG    S(hbond)    S(metal)    S(lipo)     H(rot)  DE(clash)    DE(int)     intcor
     15.84     -17.47       0.78        0.00     123.41       1.98       0.06       1.57       ----

> <Gold.Chemscore.Fitness>
15.8362

> <Gold.Chemscore.DG>
-17.4652

> <Gold.Chemscore.ZeroCoef>
-5.4800

> <Gold.Chemscore.Hbond>
0.7825

> <Gold.Chemscore.Metal>
0.0000

> <Gold.Chemscore.Lipo>
123.4057

> <Gold.Chemscore.Internal_Hbond>
0.0000

> <Gold.Chemscore.DEClash>
0.0598

> <Gold.Chemscore.DEInternal>
1.5692

> <Gold.Chemscore.Rot>
1.9792

> <Gold.Chemscore.Internal.Correction>
   9.000000E+99

> <Gold.Chemscore.Hbonds>
donor molecule, donor type, donor heavy atom, donor atom, acceptor molecule, acceptor atom, score
      P1  H  7997  8008       L1    17  0.66

> <Gold.Chemscore.Hbond.Weighted>
-2.6136

> <Gold.Chemscore.Metal.Weighted>
-0.0000

> <Gold.Chemscore.Lipo.Weighted>
-14.4385

> <Gold.Chemscore.Internal_Hbond.Weighted>
0.0000

> <Gold.Chemscore.DEClash.Weighted>
0.0598

> <Gold.Chemscore.DEInternal.Weighted>
1.5692

> <Gold.Chemscore.Rot.Weighted>
5.0669

> <Gold.Chemscore.Internal.Correction.Weighted>
   9.000000E+99

> <Gold.Protein.RotatedTorsions>
[ 6907 6896 6895 6894 ] final   79.15 input  -60.11 | X-H torsion
[ 7974 7965 7964 7962 ] final  -51.96 input  175.53 | X-H torsion
[ 8008 7997 7996 7995 ] final  -77.02 input   59.86 | X-H torsion
[ 10167 10162 10161 10158 ] final -138.38 input  -65.29 | X-H torsion
[ 10718 10713 10712 10709 ] final  153.02 input   66.30 | X-H torsion
[ 10763 10752 10751 10750 ] final -136.75 input  -60.55 | X-H torsion
[ 11005 11000 10999 10996 ] final -144.51 input  -57.11 | X-H torsion

> <Gold.Protein.ActiveResidues>
 VAL166  LYS551  ARG553  GLY616  TRP617  ASP618  TYR619  PRO620  LYS621  CYS622 
 ASP623  PHE694  ASN695  SER759  ASP760  ASP761  ALA762  ILE779  LEU786  VAL792 
 PHE793  MET794  SER795  GLU796  ALA797  LYS798  CYS799  TRP800  GLU811  SER814 

> <Gold.Protein.RotatedAtoms>
  152.5187  134.3555  159.9265 H   0  0  0  0  0  0  0  0  0  0  0  0  # atno 6907 bound_to 6896
  151.3506  133.3920  159.2687 H   0  0  0  0  0  0  0  0  0  0  0  0  # atno 6908 bound_to 6896
  150.9730  134.9118  159.7857 H   0  0  0  0  0  0  0  0  0  0  0  0  # atno 6909 bound_to 6896
  145.9132  140.7897  142.9685 H   0  0  0  0  0  0  0  0  0  0  0  0  # atno 7974 bound_to 7965
  154.5558  140.0717  156.8740 H   0  0  0  0  0  0  0  0  0  0  0  0  # atno 8008 bound_to 7997
  155.2906  140.3378  155.4234 H   0  0  0  0  0  0  0  0  0  0  0  0  # atno 8009 bound_to 7997
  156.2000  140.1718  156.7904 H   0  0  0  0  0  0  0  0  0  0  0  0  # atno 8010 bound_to 7997
  139.8484  143.7230  152.2659 H   0  0  0  0  0  0  0  0  0  0  0  0  # atno 10167 bound_to 10162
  157.2502  131.0777  151.1735 H   0  0  0  0  0  0  0  0  0  0  0  0  # atno 10718 bound_to 10713
  154.8677  135.3663  154.5112 H   0  0  0  0  0  0  0  0  0  0  0  0  # atno 10763 bound_to 10752
  153.5747  135.7020  153.5494 H   0  0  0  0  0  0  0  0  0  0  0  0  # atno 10764 bound_to 10752
  153.3510  135.4072  155.1609 H   0  0  0  0  0  0  0  0  0  0  0  0  # atno 10765 bound_to 10752
  140.8017  134.2849  157.4976 H   0  0  0  0  0  0  0  0  0  0  0  0  # atno 11005 bound_to 11000
  144.6745  140.1858  143.7401 LP  0  0  0  0  0  0  0  0  0  0  0  0  # atno 17320 bound_to 7965
  145.8645  139.2240  143.1697 LP  0  0  0  0  0  0  0  0  0  0  0  0  # atno 17321 bound_to 7965
  139.7489  144.7539  151.0536 LP  0  0  0  0  0  0  0  0  0  0  0  0  # atno 17342 bound_to 10162
  140.7790  143.4883  150.9927 LP  0  0  0  0  0  0  0  0  0  0  0  0  # atno 17343 bound_to 10162
  157.3286  130.6973  149.6311 LP  0  0  0  0  0  0  0  0  0  0  0  0  # atno 17370 bound_to 10713
  155.9666  130.4314  150.4918 LP  0  0  0  0  0  0  0  0  0  0  0  0  # atno 17371 bound_to 10713
  139.8721  134.9433  156.3850 LP  0  0  0  0  0  0  0  0  0  0  0  0  # atno 17394 bound_to 11000
  140.9288  133.7594  155.9998 LP  0  0  0  0  0  0  0  0  0  0  0  0  # atno 17395 bound_to 11000

$$$$
