#       Name:                AV-unprocessed.smi:170
#       Creating user name   scv26
#       Creation time:       Thu Mar 26 19:17:33 2020


#       File generated by GOLD software.
#

@<TRIPOS>MOLECULE
AV-unprocessed.smi:170
    67    71     1
SMALL
NO_CHARGES


@<TRIPOS>ATOM
      1 ****        -3.1639   1.4730   2.1275 O.3            1 S1                 0.0000
      2 ****        -3.7251   0.3922   1.4059 C.3            1 S1                 0.0000
      3 ****        -3.1409  -0.9309   1.9405 C.3            1 S1                 0.0000
      4 ****        -1.6943  -0.9842   1.8232 N.pl3          1 S1                 0.0000
      5 ****        -0.7752  -0.8306   2.8371 C.2            1 S1                 0.0000
      6 ****         0.4755  -0.9142   2.4718 N.2            1 S1                 0.0000
      7 ****         0.4104  -1.1442   1.1035 C.ar           1 S1                 0.0000
      8 ****         1.3844  -1.3226   0.0863 C.ar           1 S1                 0.0000
      9 ****         2.7110  -1.3022   0.3575 N.3            1 S1                 0.0000
     10 ****         3.1681  -2.6438   0.7041 C.3            1 S1                 0.0000
     11 ****         4.6257  -2.6081   1.1793 C.3            1 S1                 0.0000
     12 ****         5.4242  -2.0242   0.1600 O.3            1 S1                 0.0000
     13 ****         5.0480  -0.6769  -0.0988 C.3            1 S1                 0.0000
     14 ****         3.5837  -0.5995  -0.5943 C.3            1 S1                 0.0000
     15 ****         3.1455   0.8738  -0.8091 C.3            1 S1                 0.0000
     16 ****         3.9726   1.6289  -1.8478 C.3            1 S1                 0.0000
     17 ****         3.4440   2.9515  -2.4236 C.3            1 S1                 0.0000
     18 ****         4.0856   2.5723  -3.7611 C.3            1 S1                 0.0000
     19 ****         4.0395   1.1149  -3.2939 C.3            1 S1                 0.0000
     20 ****         0.9448  -1.5448  -1.1814 N.ar           1 S1                 0.0000
     21 ****        -0.3664  -1.5712  -1.4388 C.ar           1 S1                 0.0000
     22 ****        -1.3872  -1.4090  -0.5937 N.ar           1 S1                 0.0000
     23 ****        -0.9463  -1.1971   0.6796 C.ar           1 S1                 0.0000
     24 ****        -5.2587   0.4498   1.5343 C.3            1 S1                 0.0000
     25 ****        -5.8918   1.7218   0.9660 C.3            1 S1                 0.0000
     26 ****        -7.2972   1.2567   0.6630 C.3            1 S1                 0.0000
     27 ****        -7.0492  -0.1564   0.1461 C.3            1 S1                 0.0000
     28 ****        -5.8635  -0.6098   0.7950 O.3            1 S1                 0.0000
     29 ****        -3.4067   1.3854   3.0363 H              1 S1                 0.0000
     30 ****        -3.4489   0.5096   0.3572 H              1 S1                 0.0000
     31 ****        -3.4128  -1.0740   2.9873 H              1 S1                 0.0000
     32 ****        -3.5547  -1.7782   1.3927 H              1 S1                 0.0000
     33 ****        -1.0630  -0.6472   3.8621 H              1 S1                 0.0000
     34 ****         2.5384  -3.0665   1.4886 H              1 S1                 0.0000
     35 ****         3.0784  -3.2954  -0.1666 H              1 S1                 0.0000
     36 ****         4.7226  -2.0452   2.1092 H              1 S1                 0.0000
     37 ****         4.9824  -3.6189   1.3766 H              1 S1                 0.0000
     38 ****         5.1877  -0.0754   0.8011 H              1 S1                 0.0000
     39 ****         5.7313  -0.2850  -0.8514 H              1 S1                 0.0000
     40 ****         3.5278  -1.1253  -1.5487 H              1 S1                 0.0000
     41 ****         2.1002   0.9136  -1.1137 H              1 S1                 0.0000
     42 ****         3.1873   1.4020   0.1441 H              1 S1                 0.0000
     43 ****         4.9895   1.7999  -1.4897 H              1 S1                 0.0000
     44 ****         2.3546   2.9888  -2.4766 H              1 S1                 0.0000
     45 ****         3.8537   3.8481  -1.9575 H              1 S1                 0.0000
     46 ****         3.4771   2.7909  -4.6389 H              1 S1                 0.0000
     47 ****         5.1034   2.9516  -3.8656 H              1 S1                 0.0000
     48 ****         4.9287   0.5294  -3.5290 H              1 S1                 0.0000
     49 ****         3.1271   0.6023  -3.6035 H              1 S1                 0.0000
     50 ****        -0.6360  -1.7469  -2.4698 H              1 S1                 0.0000
     51 ****        -5.5569   0.3362   2.5780 H              1 S1                 0.0000
     52 ****        -5.8611   2.5606   1.6619 H              1 S1                 0.0000
     53 ****        -5.3926   2.0235   0.0438 H              1 S1                 0.0000
     54 ****        -7.8867   1.2256   1.5804 H              1 S1                 0.0000
     55 ****        -7.8155   1.8902  -0.0574 H              1 S1                 0.0000
     56 ****        -7.8904  -0.8224   0.3406 H              1 S1                 0.0000
     57 ****        -6.8694  -0.1428  -0.9298 H              1 S1                 0.0000
     58 ****        -3.5141   2.3374   1.7667 LP             1 S1                 0.0000
     59 ****        -2.1678   1.4550   2.0413 LP             1 S1                 0.0000
     60 ****         1.2912  -0.8318   3.0444 LP             1 S1                 0.0000
     61 ****         2.8060  -0.7058   1.1545 LP             1 S1                 0.0000
     62 ****         5.3179  -2.5570  -0.6796 LP             1 S1                 0.0000
     63 ****         6.3817  -2.0434   0.4480 LP             1 S1                 0.0000
     64 ****         1.6026  -1.6884  -1.9208 LP             1 S1                 0.0000
     65 ****        -2.3506  -1.4390  -0.8599 LP             1 S1                 0.0000
     66 ****        -6.0954  -1.3556   1.4196 LP             1 S1                 0.0000
     67 ****        -5.2179  -0.9402   0.1065 LP             1 S1                 0.0000
@<TRIPOS>BOND
    1    1    2 1     
    2    1   29 1     
    3    2    3 1     
    4    2   24 1     
    5    2   30 1     
    6    3    4 1     
    7    3   31 1     
    8    3   32 1     
    9    4   23 1     
   10    4    5 1     
   11    5    6 2     
   12    5   33 1     
   13    6    7 1     
   14    7   23 ar    
   15    7    8 ar    
   16    8    9 1     
   17    8   20 ar    
   18    9   14 1     
   19    9   10 1     
   20   10   11 1     
   21   10   34 1     
   22   10   35 1     
   23   11   12 1     
   24   11   36 1     
   25   11   37 1     
   26   12   13 1     
   27   13   14 1     
   28   13   38 1     
   29   13   39 1     
   30   14   15 1     
   31   14   40 1     
   32   15   16 1     
   33   15   41 1     
   34   15   42 1     
   35   16   19 1     
   36   16   17 1     
   37   16   43 1     
   38   17   18 1     
   39   17   44 1     
   40   17   45 1     
   41   18   19 1     
   42   18   46 1     
   43   18   47 1     
   44   19   48 1     
   45   19   49 1     
   46   20   21 ar    
   47   21   22 ar    
   48   21   50 1     
   49   22   23 ar    
   50   24   28 1     
   51   24   25 1     
   52   24   51 1     
   53   25   26 1     
   54   25   52 1     
   55   25   53 1     
   56   26   27 1     
   57   26   54 1     
   58   26   55 1     
   59   27   28 1     
   60   27   56 1     
   61   27   57 1     
   62    1   58 1     
   63    1   59 1     
   64    6   60 1     
   65    9   61 1     
   66   12   62 1     
   67   12   63 1     
   68   20   64 1     
   69   22   65 1     
   70   28   66 1     
   71   28   67 1     
@<TRIPOS>SUBSTRUCTURE
      1 S1             1
@<TRIPOS>SET
LONE_PAIRS      STATIC     ATOMS    <user>   **** ""
10 58 59 60 61 62 63 64 65 66 67
DONOR_HYDROGENS      STATIC     ATOMS    <user>   **** ""
1 29
ATOM$BLUE        STATIC     ATOMS    COLORGROUP SYSTEM
10 58 59 60 61 62 63 64 65 66 67
ATOM$RED        STATIC     ATOMS    COLORGROUP SYSTEM
1 29
