AV-unprocessed.smi:1745|AV-procd|sdf|7030|dock8
  -GOLD-   22720 8253D 1   1.00000     0.00000
 Structure written by MMmdl.
 47 49  0  0  0  0  0  0  0  0  1 V2000
  149.3014  132.4748  154.8716 C   0  0  0  0  0  0  0  0  0  0  0  0
  148.1780  133.4083  154.3982 C   0  0  1  0  0  0  0  0  0  0  0  0
  148.7208  134.7549  154.2254 N   0  0  0  0  0  0  0  0  0  0  0  0
  149.1245  135.5747  155.2069 C   0  0  0  0  0  0  0  0  0  0  0  0
  149.0817  135.2823  156.4014 O   0  0  0  0  0  0  0  0  0  0  0  0
  149.5857  136.7332  154.7052 N   0  0  0  0  0  0  0  0  0  0  0  0
  150.1322  137.8474  155.3982 C   0  0  0  0  0  0  0  0  0  0  0  0
  150.5034  138.9754  154.6395 C   0  0  0  0  0  0  0  0  0  0  0  0
  151.0393  140.0996  155.2947 C   0  0  0  0  0  0  0  0  0  0  0  0
  151.1798  140.0616  156.7006 C   0  0  0  0  0  0  0  0  0  0  0  0
  151.7130  141.1431  157.4147 N   0  0  0  0  0  0  0  0  0  0  0  0
  151.0481  142.4081  157.1298 C   0  0  0  0  0  0  0  0  0  0  0  0
  151.7690  143.5571  157.8562 C   0  0  0  0  0  0  0  0  0  0  0  0
  151.8309  143.2758  159.2518 O   0  0  0  0  0  0  0  0  0  0  0  0
  152.5511  142.0767  159.5239 C   0  0  0  0  0  0  0  0  0  0  0  0
  151.8497  140.8887  158.8432 C   0  0  0  0  0  0  0  0  0  0  0  0
  150.8119  138.9916  157.4379 N   0  0  0  0  0  0  0  0  0  0  0  0
  150.2988  137.9157  156.8031 C   0  0  0  0  0  0  0  0  0  0  0  0
  147.5417  132.9202  153.0821 C   0  0  2  0  0  0  0  0  0  0  0  0
  146.4886  133.8574  152.4889 C   0  0  0  0  0  0  0  0  0  0  0  0
  145.6251  132.9332  151.6451 C   0  0  0  0  0  0  0  0  0  0  0  0
  145.9790  131.5298  152.1460 C   0  0  0  0  0  0  0  0  0  0  0  0
  146.7913  131.7347  153.2936 O   0  0  0  0  0  0  0  0  0  0  0  0
  148.9277  131.4645  155.0402 H   0  0  0  0  0  0  0  0  0  0  0  0
  149.7328  132.8243  155.8101 H   0  0  0  0  0  0  0  0  0  0  0  0
  150.1048  132.4136  154.1369 H   0  0  0  0  0  0  0  0  0  0  0  0
  147.4060  133.4108  155.1698 H   0  0  0  0  0  0  0  0  0  0  0  0
  148.7947  135.0884  153.2755 H   0  0  0  0  0  0  0  0  0  0  0  0
  149.6122  136.7972  153.6982 H   0  0  0  0  0  0  0  0  0  0  0  0
  150.3858  138.9801  153.5657 H   0  0  0  0  0  0  0  0  0  0  0  0
  151.3364  140.9686  154.7258 H   0  0  0  0  0  0  0  0  0  0  0  0
  151.0438  142.5895  156.0542 H   0  0  0  0  0  0  0  0  0  0  0  0
  150.0078  142.3618  157.4546 H   0  0  0  0  0  0  0  0  0  0  0  0
  152.7752  143.6988  157.4583 H   0  0  0  0  0  0  0  0  0  0  0  0
  151.2320  144.4935  157.7056 H   0  0  0  0  0  0  0  0  0  0  0  0
  153.5813  142.1720  159.1766 H   0  0  0  0  0  0  0  0  0  0  0  0
  152.5910  141.9223  160.6023 H   0  0  0  0  0  0  0  0  0  0  0  0
  150.8662  140.7370  159.2897 H   0  0  0  0  0  0  0  0  0  0  0  0
  152.4222  139.9741  159.0019 H   0  0  0  0  0  0  0  0  0  0  0  0
  150.0051  137.1091  157.4562 H   0  0  0  0  0  0  0  0  0  0  0  0
  148.3153  132.7186  152.3382 H   0  0  0  0  0  0  0  0  0  0  0  0
  145.8846  134.2955  153.2849 H   0  0  0  0  0  0  0  0  0  0  0  0
  146.9263  134.6727  151.9118 H   0  0  0  0  0  0  0  0  0  0  0  0
  144.5663  133.1572  151.7784 H   0  0  0  0  0  0  0  0  0  0  0  0
  145.8579  133.0301  150.5840 H   0  0  0  0  0  0  0  0  0  0  0  0
  145.0972  130.9383  152.3932 H   0  0  0  0  0  0  0  0  0  0  0  0
  146.5524  130.9875  151.3927 H   0  0  0  0  0  0  0  0  0  0  0  0
  1  2  1  0  0  0  0
  1 24  1  0  0  0  0
  1 25  1  0  0  0  0
  1 26  1  0  0  0  0
  2  3  1  0  0  0  0
  2 19  1  0  0  0  0
  2 27  1  0  0  0  0
  3  4  1  0  0  0  0
  3 28  1  0  0  0  0
  4  5  2  0  0  0  0
  4  6  1  0  0  0  0
  6  7  1  0  0  0  0
  6 29  1  0  0  0  0
  7 18  1  0  0  0  0
  7  8  2  0  0  0  0
  8  9  1  0  0  0  0
  8 30  1  0  0  0  0
  9 10  2  0  0  0  0
  9 31  1  0  0  0  0
 10 11  1  0  0  0  0
 10 17  1  0  0  0  0
 11 16  1  0  0  0  0
 11 12  1  0  0  0  0
 12 13  1  0  0  0  0
 12 32  1  0  0  0  0
 12 33  1  0  0  0  0
 13 14  1  0  0  0  0
 13 34  1  0  0  0  0
 13 35  1  0  0  0  0
 14 15  1  0  0  0  0
 15 16  1  0  0  0  0
 15 36  1  0  0  0  0
 15 37  1  0  0  0  0
 16 38  1  0  0  0  0
 16 39  1  0  0  0  0
 17 18  2  0  0  0  0
 18 40  1  0  0  0  0
 19 23  1  0  0  0  0
 19 20  1  0  0  0  0
 19 41  1  0  0  0  0
 20 21  1  0  0  0  0
 20 42  1  0  0  0  0
 20 43  1  0  0  0  0
 21 22  1  0  0  0  0
 21 44  1  0  0  0  0
 21 45  1  0  0  0  0
 22 23  1  0  0  0  0
 22 46  1  0  0  0  0
 22 47  1  0  0  0  0
M  END
> <s_m_source_file>
AV-unprocessed.smi

> <i_m_source_file_index>
1745

> <i_lp_mmshare_version>
43012

> <i_f3d_flags>
0

> <s_epik_input>
TzFbQ0gyXVtDSDJdW0NIMl1bQ0BIXTFbQ0BIXShbQ0gzXSlbTkhdQyg9TylbTkhdYzJbY0hdW2NIXWMobltjSF0yKU4zW0NIMl1bQ0gyXU9bQ0gyXVtDSDJdMw==

> <s_epik_cmdline>
J2VwaWtfcHl0aG9uJywgJy1waCcsICc3LjAnLCAnLXRuJywgJzgnLCAnLW1hJywgJzIwMCcsICctbWV0YWxfYmluZGluZycsICctaW1hZScsICc8aW5maWxlLm1hZT4nLCAnLW9tYWUnLCAnPG91dGZpbGUubWFlPic=

> <r_lp_tautomer_probability>
1

> <r_epik_Ionization_Penalty>
0.00206005

> <r_epik_Ionization_Penalty_Charging>
0

> <r_epik_Ionization_Penalty_Neutral>
0.00206005

> <r_epik_State_Penalty>
0.00138459

> <r_epik_Charging_Adjusted_Penalty>
0.00138459

> <i_epik_Tot_Q>
0

> <i_epik_Tot_abs_Q>
0

> <r_epik_Metal_State_Penalty>
-0

> <b_epik_Metal_Only>
0

> <s_lp_Force_Field>
OPLS_2005

> <r_lp_Energy>
36.4473

> <b_lp_Chiralities_Consistent>
1

> <s_lp_Variant>
AV-unprocessed.smi:1745-2

> <Gold.Version>
5.8.1

> <Gold.Id.Protein>
6NUR|6NUR_protein|mol2

> <Gold.PLP.Fitness>
42.3476

> <Gold.PLP.PLP>
-36.7251

> <Gold.PLP.part.hbond>
-2.0000

> <Gold.PLP.part.metal>
0.0000

> <Gold.PLP.part.buried>
-3.6702

> <Gold.PLP.part.nonpolar>
-31.7449

> <Gold.PLP.part.repulsive>
0.1628

> <Gold.PLP.ligand.clash>
0.0000

> <Gold.PLP.ligand.torsion>
0.2442

> <Gold.PLP.Chemscore.Hbond>
1.9920

> <Gold.PLP.Chemscore.CHOScore>
0.0000

> <Gold.PLP.Chemscore.Metal>
0.0000

> <Gold.Chemscore.Hbonds>
donor molecule, donor type, donor heavy atom, donor atom, acceptor molecule, acceptor atom, score
      L1  H     3    28       P1  7948  1.00
      L1  H     6    29       P1  7948  1.00

> <Gold.PLP.Chemscore.Internal.Correction>
0.1348

> <Gold.Rescore>
     Score         DG    S(hbond)    S(metal)    S(lipo)     H(rot)  DE(clash)    DE(int)     intcor
     17.20     -18.66       1.80        0.00      91.77       1.40       0.11       1.35       ----

> <Gold.Chemscore.Fitness>
17.2007

> <Gold.Chemscore.DG>
-18.6567

> <Gold.Chemscore.ZeroCoef>
-5.4800

> <Gold.Chemscore.Hbond>
1.7997

> <Gold.Chemscore.Metal>
0.0000

> <Gold.Chemscore.Lipo>
91.7668

> <Gold.Chemscore.Internal_Hbond>
0.0000

> <Gold.Chemscore.DEClash>
0.1081

> <Gold.Chemscore.DEInternal>
1.3479

> <Gold.Chemscore.Rot>
1.3950

> <Gold.Chemscore.Internal.Correction>
   9.000000E+99

> <Gold.Chemscore.Hbonds>
donor molecule, donor type, donor heavy atom, donor atom, acceptor molecule, acceptor atom, score
      L1  H     3    28       P1  7948  0.55
      L1  H     6    29       P1  7948  0.69

> <Gold.Chemscore.Hbond.Weighted>
-6.0112

> <Gold.Chemscore.Metal.Weighted>
-0.0000

> <Gold.Chemscore.Lipo.Weighted>
-10.7367

> <Gold.Chemscore.Internal_Hbond.Weighted>
0.0000

> <Gold.Chemscore.DEClash.Weighted>
0.1081

> <Gold.Chemscore.DEInternal.Weighted>
1.3479

> <Gold.Chemscore.Rot.Weighted>
3.5712

> <Gold.Chemscore.Internal.Correction.Weighted>
   9.000000E+99

> <Gold.Protein.RotatedTorsions>
[ 6907 6896 6895 6894 ] final  -34.47 input  -60.11 | X-H torsion
[ 7974 7965 7964 7962 ] final  129.58 input  175.53 | X-H torsion
[ 8008 7997 7996 7995 ] final   20.58 input   59.86 | X-H torsion
[ 10167 10162 10161 10158 ] final   78.39 input  -65.29 | X-H torsion
[ 10718 10713 10712 10709 ] final  -12.50 input   66.30 | X-H torsion
[ 10763 10752 10751 10750 ] final -161.78 input  -60.55 | X-H torsion
[ 11005 11000 10999 10996 ] final   98.90 input  -57.11 | X-H torsion

> <Gold.Protein.ActiveResidues>
 VAL166  LYS551  ARG553  GLY616  TRP617  ASP618  TYR619  PRO620  LYS621  CYS622 
 ASP623  PHE694  ASN695  SER759  ASP760  ASP761  ALA762  ILE779  LEU786  VAL792 
 PHE793  MET794  SER795  GLU796  ALA797  LYS798  CYS799  TRP800  GLU811  SER814 

> <Gold.Protein.RotatedAtoms>
  151.0522  134.9681  159.8217 H   0  0  0  0  0  0  0  0  0  0  0  0  # atno 6907 bound_to 6896
  152.5382  134.2523  159.8913 H   0  0  0  0  0  0  0  0  0  0  0  0  # atno 6908 bound_to 6896
  151.2539  133.4293  159.2646 H   0  0  0  0  0  0  0  0  0  0  0  0  # atno 6909 bound_to 6896
  145.0271  139.4079  143.5168 H   0  0  0  0  0  0  0  0  0  0  0  0  # atno 7974 bound_to 7965
  154.9377  140.3049  155.5136 H   0  0  0  0  0  0  0  0  0  0  0  0  # atno 8008 bound_to 7997
  156.2998  140.2342  156.4380 H   0  0  0  0  0  0  0  0  0  0  0  0  # atno 8009 bound_to 7997
  154.8176  140.0425  157.1376 H   0  0  0  0  0  0  0  0  0  0  0  0  # atno 8010 bound_to 7997
  139.9715  144.5891  150.7981 H   0  0  0  0  0  0  0  0  0  0  0  0  # atno 10167 bound_to 10162
  156.6438  130.4935  149.6086 H   0  0  0  0  0  0  0  0  0  0  0  0  # atno 10718 bound_to 10713
  154.7273  135.3039  154.8949 H   0  0  0  0  0  0  0  0  0  0  0  0  # atno 10763 bound_to 10752
  153.9802  135.6731  153.4754 H   0  0  0  0  0  0  0  0  0  0  0  0  # atno 10764 bound_to 10752
  153.0887  135.4971  154.8567 H   0  0  0  0  0  0  0  0  0  0  0  0  # atno 10765 bound_to 10752
  139.8771  134.9070  156.4525 H   0  0  0  0  0  0  0  0  0  0  0  0  # atno 11005 bound_to 11000
  146.3493  139.9801  142.8696 LP  0  0  0  0  0  0  0  0  0  0  0  0  # atno 17320 bound_to 7965
  145.1819  140.9771  143.4261 LP  0  0  0  0  0  0  0  0  0  0  0  0  # atno 17321 bound_to 7965
  140.7520  143.2983  151.3147 LP  0  0  0  0  0  0  0  0  0  0  0  0  # atno 17342 bound_to 10162
  139.6478  144.0419  152.2603 LP  0  0  0  0  0  0  0  0  0  0  0  0  # atno 17343 bound_to 10162
  156.2138  130.6695  151.1297 LP  0  0  0  0  0  0  0  0  0  0  0  0  # atno 17370 bound_to 10713
  157.7163  131.0708  150.6315 LP  0  0  0  0  0  0  0  0  0  0  0  0  # atno 17371 bound_to 10713
  140.8922  133.7840  155.9584 LP  0  0  0  0  0  0  0  0  0  0  0  0  # atno 17394 bound_to 11000
  140.8741  134.2690  157.5176 LP  0  0  0  0  0  0  0  0  0  0  0  0  # atno 17395 bound_to 11000

$$$$
