AV-unprocessed.smi:2925|AV-procd|sdf|11223|dock7
  -GOLD-   2272016113D 1   1.00000     0.00000
 Structure written by MMmdl.
 44 45  0  0  0  0  0  0  0  0  1 V2000
  148.9649  135.7122  158.1940 C   0  0  0  0  0  0  0  0  0  0  0  0
  148.4112  135.4442  156.7867 C   0  0  0  0  0  0  0  0  0  0  0  0
  149.4962  135.3974  155.6918 C   0  0  1  0  0  0  0  0  0  0  0  0
  148.8737  135.1146  154.3980 N   0  0  0  0  0  0  0  0  0  0  0  0
  148.0184  134.1146  154.1415 C   0  0  0  0  0  0  0  0  0  0  0  0
  147.6444  133.2961  154.9825 O   0  0  0  0  0  0  0  0  0  0  0  0
  147.6144  134.1334  152.8592 N   0  0  0  0  0  0  0  0  0  0  0  0
  146.7097  133.2385  152.2676 C   0  0  0  0  0  0  0  0  0  0  0  0
  145.7562  133.7224  151.4290 C   0  0  0  0  0  0  0  0  0  0  0  0
  145.6198  135.2099  151.1448 C   0  0  0  0  0  0  0  0  0  0  0  0
  144.8301  132.7975  150.8087 C   0  0  0  0  0  0  0  0  0  0  0  0
  144.9365  131.4868  151.0650 C   0  0  0  0  0  0  0  0  0  0  0  0
  145.9347  130.9798  151.9095 N   0  0  0  0  0  0  0  0  0  0  0  0
  145.9799  129.5294  152.1124 C   0  0  0  0  0  0  0  0  0  0  0  0
  146.8619  131.7827  152.5063 C   0  0  0  0  0  0  0  0  0  0  0  0
  147.7727  131.3006  153.1839 O   0  0  0  0  0  0  0  0  0  0  0  0
  150.2983  136.7145  155.6192 C   0  0  2  0  0  0  0  0  0  0  0  0
  149.5388  137.9038  155.0255 C   0  0  0  0  0  0  0  0  0  0  0  0
  150.6703  138.7838  154.5487 C   0  0  0  0  0  0  0  0  0  0  0  0
  151.6630  137.7534  154.0202 C   0  0  0  0  0  0  0  0  0  0  0  0
  151.4368  136.5641  154.7733 O   0  0  0  0  0  0  0  0  0  0  0  0
  148.1546  135.7916  158.9190 H   0  0  0  0  0  0  0  0  0  0  0  0
  149.5287  136.6450  158.2226 H   0  0  0  0  0  0  0  0  0  0  0  0
  149.6253  134.9109  158.5266 H   0  0  0  0  0  0  0  0  0  0  0  0
  147.8496  134.5091  156.7920 H   0  0  0  0  0  0  0  0  0  0  0  0
  147.6907  136.2271  156.5476 H   0  0  0  0  0  0  0  0  0  0  0  0
  150.1901  134.5957  155.9513 H   0  0  0  0  0  0  0  0  0  0  0  0
  149.1157  135.7340  153.6385 H   0  0  0  0  0  0  0  0  0  0  0  0
  147.8912  134.9215  152.2929 H   0  0  0  0  0  0  0  0  0  0  0  0
  144.7873  135.4080  150.4692 H   0  0  0  0  0  0  0  0  0  0  0  0
  146.5278  135.5956  150.6807 H   0  0  0  0  0  0  0  0  0  0  0  0
  145.4411  135.7614  152.0684 H   0  0  0  0  0  0  0  0  0  0  0  0
  144.0528  133.1563  150.1501 H   0  0  0  0  0  0  0  0  0  0  0  0
  144.2738  130.7502  150.6345 H   0  0  0  0  0  0  0  0  0  0  0  0
  145.9699  129.2874  153.1762 H   0  0  0  0  0  0  0  0  0  0  0  0
  146.8891  129.1124  151.6771 H   0  0  0  0  0  0  0  0  0  0  0  0
  145.1326  129.0144  151.6585 H   0  0  0  0  0  0  0  0  0  0  0  0
  150.6592  136.9884  156.6122 H   0  0  0  0  0  0  0  0  0  0  0  0
  148.9308  137.5880  154.1764 H   0  0  0  0  0  0  0  0  0  0  0  0
  148.8882  138.3989  155.7471 H   0  0  0  0  0  0  0  0  0  0  0  0
  150.3639  139.5083  153.7937 H   0  0  0  0  0  0  0  0  0  0  0  0
  151.1023  139.3266  155.3905 H   0  0  0  0  0  0  0  0  0  0  0  0
  151.4668  137.5383  152.9693 H   0  0  0  0  0  0  0  0  0  0  0  0
  152.6959  138.0906  154.1096 H   0  0  0  0  0  0  0  0  0  0  0  0
  1  2  1  0  0  0  0
  1 22  1  0  0  0  0
  1 23  1  0  0  0  0
  1 24  1  0  0  0  0
  2  3  1  0  0  0  0
  2 25  1  0  0  0  0
  2 26  1  0  0  0  0
  3  4  1  0  0  0  0
  3 17  1  0  0  0  0
  3 27  1  0  0  0  0
  4  5  1  0  0  0  0
  4 28  1  0  0  0  0
  5  6  2  0  0  0  0
  5  7  1  0  0  0  0
  7  8  1  0  0  0  0
  7 29  1  0  0  0  0
  8 15  1  0  0  0  0
  8  9  2  0  0  0  0
  9 10  1  0  0  0  0
  9 11  1  0  0  0  0
 10 30  1  0  0  0  0
 10 31  1  0  0  0  0
 10 32  1  0  0  0  0
 11 12  2  0  0  0  0
 11 33  1  0  0  0  0
 12 13  1  0  0  0  0
 12 34  1  0  0  0  0
 13 14  1  0  0  0  0
 13 15  1  0  0  0  0
 14 35  1  0  0  0  0
 14 36  1  0  0  0  0
 14 37  1  0  0  0  0
 15 16  2  0  0  0  0
 17 21  1  0  0  0  0
 17 18  1  0  0  0  0
 17 38  1  0  0  0  0
 18 19  1  0  0  0  0
 18 39  1  0  0  0  0
 18 40  1  0  0  0  0
 19 20  1  0  0  0  0
 19 41  1  0  0  0  0
 19 42  1  0  0  0  0
 20 21  1  0  0  0  0
 20 43  1  0  0  0  0
 20 44  1  0  0  0  0
M  END
> <s_m_source_file>
AV-unprocessed.smi

> <i_m_source_file_index>
2925

> <i_lp_mmshare_version>
43012

> <i_f3d_flags>
0

> <s_epik_input>
TzFbQ0gyXVtDSDJdW0NIMl1bQ0BIXTFbQ0BIXShbQ0gyXVtDSDNdKVtOSF1DKD1PKVtOSF1jMmMoW0NIM10pW2NIXVtjSF1uKFtDSDNdKWMyPU8=

> <s_epik_cmdline>
J2VwaWtfcHl0aG9uJywgJy1waCcsICc3LjAnLCAnLXRuJywgJzgnLCAnLW1hJywgJzIwMCcsICctbWV0YWxfYmluZGluZycsICctaW1hZScsICc8aW5maWxlLm1hZT4nLCAnLW9tYWUnLCAnPG91dGZpbGUubWFlPic=

> <r_lp_tautomer_probability>
1

> <r_epik_Ionization_Penalty>
2.58789e-05

> <r_epik_Ionization_Penalty_Charging>
6.72534e-06

> <r_epik_Ionization_Penalty_Neutral>
1.91535e-05

> <r_epik_State_Penalty>
-0

> <r_epik_Charging_Adjusted_Penalty>
6.72534e-06

> <i_epik_Tot_Q>
0

> <i_epik_Tot_abs_Q>
0

> <r_epik_Metal_State_Penalty>
-0

> <b_epik_Metal_Only>
0

> <s_lp_Force_Field>
OPLS_2005

> <r_lp_Energy>
34.616

> <b_lp_Chiralities_Consistent>
1

> <s_lp_Variant>
AV-unprocessed.smi:2925-2

> <Gold.Version>
5.8.1

> <Gold.Id.Protein>
6NUR|6NUR_protein|mol2

> <Gold.PLP.Fitness>
42.2095

> <Gold.PLP.PLP>
-33.7131

> <Gold.PLP.part.hbond>
-3.0000

> <Gold.PLP.part.metal>
0.0000

> <Gold.PLP.part.buried>
-5.3857

> <Gold.PLP.part.nonpolar>
-25.5158

> <Gold.PLP.part.repulsive>
0.2625

> <Gold.PLP.ligand.clash>
0.0000

> <Gold.PLP.ligand.torsion>
0.5407

> <Gold.PLP.Chemscore.Hbond>
3.0000

> <Gold.PLP.Chemscore.CHOScore>
0.0000

> <Gold.PLP.Chemscore.Metal>
0.0000

> <Gold.Chemscore.Hbonds>
donor molecule, donor type, donor heavy atom, donor atom, acceptor molecule, acceptor atom, score
      L1  H     4    28       P1  7948  1.00
      L1  H     7    29       P1  7948  1.00
      P1  H 10752 10765       L1    21  0.98

> <Gold.PLP.Chemscore.Internal.Correction>
0.5779

> <Gold.Rescore>
     Score         DG    S(hbond)    S(metal)    S(lipo)     H(rot)  DE(clash)    DE(int)     intcor
     15.34     -18.66       2.52        0.00      70.54       1.36       0.24       3.07       ----

> <Gold.Chemscore.Fitness>
15.3448

> <Gold.Chemscore.DG>
-18.6584

> <Gold.Chemscore.ZeroCoef>
-5.4800

> <Gold.Chemscore.Hbond>
2.5155

> <Gold.Chemscore.Metal>
0.0000

> <Gold.Chemscore.Lipo>
70.5369

> <Gold.Chemscore.Internal_Hbond>
0.0000

> <Gold.Chemscore.DEClash>
0.2402

> <Gold.Chemscore.DEInternal>
3.0734

> <Gold.Chemscore.Rot>
1.3579

> <Gold.Chemscore.Internal.Correction>
   9.000000E+99

> <Gold.Chemscore.Hbonds>
donor molecule, donor type, donor heavy atom, donor atom, acceptor molecule, acceptor atom, score
      L1  H     4    28       P1  7948  0.74
      L1  H     7    29       P1  7948  0.77
      P1  H 10752 10765       L1    21  0.65

> <Gold.Chemscore.Hbond.Weighted>
-8.4019

> <Gold.Chemscore.Metal.Weighted>
-0.0000

> <Gold.Chemscore.Lipo.Weighted>
-8.2528

> <Gold.Chemscore.Internal_Hbond.Weighted>
0.0000

> <Gold.Chemscore.DEClash.Weighted>
0.2402

> <Gold.Chemscore.DEInternal.Weighted>
3.0734

> <Gold.Chemscore.Rot.Weighted>
3.4763

> <Gold.Chemscore.Internal.Correction.Weighted>
   9.000000E+99

> <Gold.Protein.RotatedTorsions>
[ 6907 6896 6895 6894 ] final  154.69 input  -60.11 | X-H torsion
[ 7974 7965 7964 7962 ] final -159.00 input  175.53 | X-H torsion
[ 8008 7997 7996 7995 ] final   27.21 input   59.86 | X-H torsion
[ 10167 10162 10161 10158 ] final -120.40 input  -65.29 | X-H torsion
[ 10718 10713 10712 10709 ] final  138.00 input   66.30 | X-H torsion
[ 10763 10752 10751 10750 ] final -164.55 input  -60.55 | X-H torsion
[ 11005 11000 10999 10996 ] final   42.36 input  -57.11 | X-H torsion

> <Gold.Protein.ActiveResidues>
 VAL166  LYS551  ARG553  GLY616  TRP617  ASP618  TYR619  PRO620  LYS621  CYS622 
 ASP623  PHE694  ASN695  SER759  ASP760  ASP761  ALA762  ILE779  LEU786  VAL792 
 PHE793  MET794  SER795  GLU796  ALA797  LYS798  CYS799  TRP800  GLU811  SER814 

> <Gold.Protein.RotatedAtoms>
  152.0548  133.4035  159.4392 H   0  0  0  0  0  0  0  0  0  0  0  0  # atno 6907 bound_to 6896
  150.6868  134.3267  159.4818 H   0  0  0  0  0  0  0  0  0  0  0  0  # atno 6908 bound_to 6896
  152.1081  134.9294  160.0618 H   0  0  0  0  0  0  0  0  0  0  0  0  # atno 6909 bound_to 6896
  144.7483  140.3748  143.6068 H   0  0  0  0  0  0  0  0  0  0  0  0  # atno 7974 bound_to 7965
  155.0393  140.3167  155.4730 H   0  0  0  0  0  0  0  0  0  0  0  0  # atno 8008 bound_to 7997
  156.2858  140.2166  156.5459 H   0  0  0  0  0  0  0  0  0  0  0  0  # atno 8009 bound_to 7997
  154.7304  140.0482  157.0708 H   0  0  0  0  0  0  0  0  0  0  0  0  # atno 8010 bound_to 7997
  140.0362  143.5198  152.2152 H   0  0  0  0  0  0  0  0  0  0  0  0  # atno 10167 bound_to 10162
  157.4300  131.1047  151.0260 H   0  0  0  0  0  0  0  0  0  0  0  0  # atno 10718 bound_to 10713
  154.7017  135.2989  154.9330 H   0  0  0  0  0  0  0  0  0  0  0  0  # atno 10763 bound_to 10752
  154.0260  135.6676  153.4780 H   0  0  0  0  0  0  0  0  0  0  0  0  # atno 10764 bound_to 10752
  153.0686  135.5073  154.8165 H   0  0  0  0  0  0  0  0  0  0  0  0  # atno 10765 bound_to 10752
  140.1746  134.4179  155.8236 H   0  0  0  0  0  0  0  0  0  0  0  0  # atno 11005 bound_to 11000
  145.7040  139.1668  143.2577 LP  0  0  0  0  0  0  0  0  0  0  0  0  # atno 17320 bound_to 7965
  146.1395  140.7077  142.9374 LP  0  0  0  0  0  0  0  0  0  0  0  0  # atno 17321 bound_to 7965
  139.6043  144.7592  151.3098 LP  0  0  0  0  0  0  0  0  0  0  0  0  # atno 17342 bound_to 10162
  140.7280  143.6947  150.7893 LP  0  0  0  0  0  0  0  0  0  0  0  0  # atno 17343 bound_to 10162
  157.1160  130.6041  149.5493 LP  0  0  0  0  0  0  0  0  0  0  0  0  # atno 17370 bound_to 10713
  155.9910  130.4963  150.7280 LP  0  0  0  0  0  0  0  0  0  0  0  0  # atno 17371 bound_to 10713
  141.2219  133.6972  156.7824 LP  0  0  0  0  0  0  0  0  0  0  0  0  # atno 17394 bound_to 11000
  140.2337  134.8666  157.3503 LP  0  0  0  0  0  0  0  0  0  0  0  0  # atno 17395 bound_to 11000

$$$$
