AV-unprocessed.smi:72|AV-procd|sdf|676|dock10
  -GOLD-   2262016583D 1   1.00000     0.00000
 Structure written by MMmdl.
 29 30  0  0  0  0  0  0  0  0  1 V2000
  147.3965  142.7623  154.1133 N   0  0  0  0  0  0  0  0  0  0  0  0
  148.2566  141.8344  154.3387 C   0  0  0  0  0  0  0  0  0  0  0  0
  148.2125  140.5399  153.8002 N   0  0  0  0  0  0  0  0  0  0  0  0
  149.1596  139.7063  154.1016 C   0  0  0  0  0  0  0  0  0  0  0  0
  150.2758  140.0749  154.9640 N   0  0  0  0  0  0  0  0  0  0  0  0
  151.3870  139.1056  155.3344 C   0  0  1  0  0  0  0  0  0  0  0  0
  151.5419  139.0646  156.7245 O   0  0  0  0  0  0  0  0  0  0  0  0
  150.8587  137.9319  157.2539 C   0  0  2  0  0  0  0  0  0  0  0  0
  151.3399  137.6038  158.6778 C   0  0  0  0  0  0  0  0  0  0  0  0
  150.4729  136.6611  159.2712 O   0  0  0  0  0  0  0  0  0  0  0  0
  151.1441  136.8677  156.1903 C   0  0  2  0  0  0  0  0  0  0  0  0
  152.4350  136.3112  156.3809 O   0  0  0  0  0  0  0  0  0  0  0  0
  151.0346  137.6676  154.8922 C   0  0  2  0  0  0  0  0  0  0  0  0
  151.8825  137.1671  153.8752 O   0  0  0  0  0  0  0  0  0  0  0  0
  150.3107  141.3668  155.5455 C   0  0  0  0  0  0  0  0  0  0  0  0
  151.2045  141.7196  156.3150 O   0  0  0  0  0  0  0  0  0  0  0  0
  149.3010  142.1943  155.1999 N   0  0  0  0  0  0  0  0  0  0  0  0
  152.2903  139.5140  154.8773 H   0  0  0  0  0  0  0  0  0  0  0  0
  149.7840  138.1239  157.2602 H   0  0  0  0  0  0  0  0  0  0  0  0
  150.4166  136.0560  156.2237 H   0  0  0  0  0  0  0  0  0  0  0  0
  150.0013  137.6384  154.5429 H   0  0  0  0  0  0  0  0  0  0  0  0
  147.6418  143.6034  154.6146 H   0  0  0  0  0  0  0  0  0  0  0  0
  149.1692  138.6833  153.7257 H   0  0  0  0  0  0  0  0  0  0  0  0
  152.3345  137.1581  158.6442 H   0  0  0  0  0  0  0  0  0  0  0  0
  151.4031  138.4995  159.2964 H   0  0  0  0  0  0  0  0  0  0  0  0
  149.5859  136.8749  159.0247 H   0  0  0  0  0  0  0  0  0  0  0  0
  152.7236  136.5273  157.2547 H   0  0  0  0  0  0  0  0  0  0  0  0
  151.3486  136.9340  153.1303 H   0  0  0  0  0  0  0  0  0  0  0  0
  149.3060  143.1238  155.5937 H   0  0  0  0  0  0  0  0  0  0  0  0
  1  2  2  0  0  0  0
  1 22  1  0  0  0  0
  2 17  1  0  0  0  0
  2  3  1  0  0  0  0
  3  4  2  0  0  0  0
  4  5  1  0  0  0  0
  4 23  1  0  0  0  0
  5  6  1  0  0  0  0
  5 15  1  0  0  0  0
  6 18  1  0  0  0  0
  6 13  1  0  0  0  0
  6  7  1  0  0  0  0
  7  8  1  0  0  0  0
  8 19  1  0  0  0  0
  8  9  1  0  0  0  0
  8 11  1  0  0  0  0
  9 10  1  0  0  0  0
  9 24  1  0  0  0  0
  9 25  1  0  0  0  0
 10 26  1  0  0  0  0
 11 20  1  0  0  0  0
 11 12  1  0  0  0  0
 11 13  1  0  0  0  0
 12 27  1  0  0  0  0
 13 21  1  0  0  0  0
 13 14  1  0  0  0  0
 14 28  1  0  0  0  0
 15 16  2  0  0  0  0
 15 17  1  0  0  0  0
 17 29  1  0  0  0  0
M  END
> <s_m_source_file>
AV-unprocessed.smi

> <i_m_source_file_index>
72

> <i_lp_mmshare_version>
43012

> <i_f3d_flags>
0

> <s_epik_input>
W05IMl1jMW5bY0hdbihjKD1PKW4xKVtDQEBIXTJPW0NASF0oW0NIMl1bT0hdKVtDQEBIXShbT0hdKVtDQEhdMltPSF0=

> <s_epik_cmdline>
J2VwaWtfcHl0aG9uJywgJy1waCcsICc3LjAnLCAnLXRuJywgJzgnLCAnLW1hJywgJzIwMCcsICctbWV0YWxfYmluZGluZycsICctaW1hZScsICc8aW5maWxlLm1hZT4nLCAnLW9tYWUnLCAnPG91dGZpbGUubWFlPic=

> <r_lp_tautomer_probability>
7.17554e-07

> <r_epik_Ionization_Penalty>
0.0066451

> <r_epik_Ionization_Penalty_Charging>
0.00663793

> <r_epik_Ionization_Penalty_Neutral>
7.17052e-06

> <r_epik_State_Penalty>
0.419231

> <r_epik_Charging_Adjusted_Penalty>
0.425868

> <i_epik_Tot_Q>
0

> <i_epik_Tot_abs_Q>
0

> <r_epik_Metal_State_Penalty>
1.44144

> <b_epik_Metal_Only>
0

> <s_epik_Chemistry_Notes>
This compound contains an acetal/aminal-like group ( X-CH(R)-Y where X, Y are N, S, or O) that may be acid/base labile, releasing an aldehyde.

> <s_lp_Force_Field>
OPLS_2005

> <r_lp_Energy>
42.8821

> <b_lp_Chiralities_Consistent>
1

> <s_lp_Variant>
AV-unprocessed.smi:72-14

> <Gold.Version>
5.8.1

> <Gold.Id.Protein>
6NUR|6NUR_protein|mol2

> <Gold.PLP.Fitness>
42.8907

> <Gold.PLP.PLP>
-26.7310

> <Gold.PLP.part.hbond>
-6.3634

> <Gold.PLP.part.metal>
0.0000

> <Gold.PLP.part.buried>
-2.1413

> <Gold.PLP.part.nonpolar>
-17.7524

> <Gold.PLP.part.repulsive>
0.7962

> <Gold.PLP.ligand.clash>
0.0000

> <Gold.PLP.ligand.torsion>
0.2951

> <Gold.PLP.Chemscore.Hbond>
5.5760

> <Gold.PLP.Chemscore.CHOScore>
0.0000

> <Gold.PLP.Chemscore.Metal>
0.0000

> <Gold.Chemscore.Hbonds>
donor molecule, donor type, donor heavy atom, donor atom, acceptor molecule, acceptor atom, score
      L1  H     1    22       P1  8028  1.00
      L1  H    14    28       P1  7949  0.98
      L1  H    17    29       P1  8028  1.00
      P1  H  6896  6909       L1    10  1.00
      P1  H 10752 10763       L1    12  0.67
      P1  H 10752 10765       L1    14  0.93

> <Gold.PLP.Chemscore.Internal.Correction>
0.0219

> <Gold.Rescore>
     Score         DG    S(hbond)    S(metal)    S(lipo)     H(rot)  DE(clash)    DE(int)     intcor
      8.87     -10.78       4.05        0.00      18.56       4.06       0.20       1.71       ----

> <Gold.Chemscore.Fitness>
8.8699

> <Gold.Chemscore.DG>
-10.7779

> <Gold.Chemscore.ZeroCoef>
-5.4800

> <Gold.Chemscore.Hbond>
4.0480

> <Gold.Chemscore.Metal>
0.0000

> <Gold.Chemscore.Lipo>
18.5586

> <Gold.Chemscore.Internal_Hbond>
0.0000

> <Gold.Chemscore.DEClash>
0.1958

> <Gold.Chemscore.DEInternal>
1.7122

> <Gold.Chemscore.Rot>
4.0600

> <Gold.Chemscore.Internal.Correction>
   9.000000E+99

> <Gold.Chemscore.Hbonds>
donor molecule, donor type, donor heavy atom, donor atom, acceptor molecule, acceptor atom, score
      L1  H     1    22       P1  8028  0.25
      L1  H    14    28       P1  7949  0.73
      L1  H    17    29       P1  8028  0.97
      P1  H  6896  6909       L1    10  0.92
      P1  H 10752 10763       L1    12  0.58
      P1  H 10752 10765       L1    14  0.23

> <Gold.Chemscore.Hbond.Weighted>
-13.5202

> <Gold.Chemscore.Metal.Weighted>
-0.0000

> <Gold.Chemscore.Lipo.Weighted>
-2.1714

> <Gold.Chemscore.Internal_Hbond.Weighted>
0.0000

> <Gold.Chemscore.DEClash.Weighted>
0.1958

> <Gold.Chemscore.DEInternal.Weighted>
1.7122

> <Gold.Chemscore.Rot.Weighted>
10.3936

> <Gold.Chemscore.Internal.Correction.Weighted>
   9.000000E+99

> <Gold.Protein.RotatedTorsions>
[ 6907 6896 6895 6894 ] final  101.03 input  -60.11 | X-H torsion
[ 7974 7965 7964 7962 ] final   41.54 input  175.53 | X-H torsion
[ 8008 7997 7996 7995 ] final   72.54 input   59.86 | X-H torsion
[ 10167 10162 10161 10158 ] final  132.62 input  -65.29 | X-H torsion
[ 10718 10713 10712 10709 ] final -156.65 input   66.30 | X-H torsion
[ 10763 10752 10751 10750 ] final  130.71 input  -60.55 | X-H torsion
[ 11005 11000 10999 10996 ] final  -14.85 input  -57.11 | X-H torsion

> <Gold.Protein.ActiveResidues>
 VAL166  LYS551  ARG553  GLY616  TRP617  ASP618  TYR619  PRO620  LYS621  CYS622 
 ASP623  PHE694  ASN695  SER759  ASP760  ASP761  ALA762  ILE779  LEU786  VAL792 
 PHE793  MET794  SER795  GLU796  ALA797  LYS798  CYS799  TRP800  GLU811  SER814 

> <Gold.Protein.RotatedAtoms>
  152.5359  134.0187  159.7971 H   0  0  0  0  0  0  0  0  0  0  0  0  # atno 6907 bound_to 6896
  151.0377  133.5726  159.2661 H   0  0  0  0  0  0  0  0  0  0  0  0  # atno 6908 bound_to 6896
  151.2707  135.0691  159.9187 H   0  0  0  0  0  0  0  0  0  0  0  0  # atno 6909 bound_to 6896
  146.0815  139.5404  142.9534 H   0  0  0  0  0  0  0  0  0  0  0  0  # atno 7974 bound_to 7965
  155.7703  140.3484  155.5243 H   0  0  0  0  0  0  0  0  0  0  0  0  # atno 8008 bound_to 7997
  155.8828  140.1005  157.1494 H   0  0  0  0  0  0  0  0  0  0  0  0  # atno 8009 bound_to 7997
  154.4026  140.1319  156.4205 H   0  0  0  0  0  0  0  0  0  0  0  0  # atno 8010 bound_to 7997
  139.5332  144.6653  151.4878 H   0  0  0  0  0  0  0  0  0  0  0  0  # atno 10167 bound_to 10162
  156.5294  130.8514  151.2711 H   0  0  0  0  0  0  0  0  0  0  0  0  # atno 10718 bound_to 10713
  153.7625  135.3194  155.3339 H   0  0  0  0  0  0  0  0  0  0  0  0  # atno 10763 bound_to 10752
  154.8225  135.4593  154.0824 H   0  0  0  0  0  0  0  0  0  0  0  0  # atno 10764 bound_to 10752
  153.2059  135.6929  153.8257 H   0  0  0  0  0  0  0  0  0  0  0  0  # atno 10765 bound_to 10752
  140.7906  133.8291  155.9376 H   0  0  0  0  0  0  0  0  0  0  0  0  # atno 11005 bound_to 11000
  145.6208  141.0323  143.1916 LP  0  0  0  0  0  0  0  0  0  0  0  0  # atno 17320 bound_to 7965
  144.7297  139.7765  143.7352 LP  0  0  0  0  0  0  0  0  0  0  0  0  # atno 17321 bound_to 7965
  140.6523  143.8672  150.6798 LP  0  0  0  0  0  0  0  0  0  0  0  0  # atno 17342 bound_to 10162
  140.2040  143.3936  152.1769 LP  0  0  0  0  0  0  0  0  0  0  0  0  # atno 17343 bound_to 10162
  157.7424  130.9890  150.2515 LP  0  0  0  0  0  0  0  0  0  0  0  0  # atno 17370 bound_to 10713
  156.3074  130.3767  149.7693 LP  0  0  0  0  0  0  0  0  0  0  0  0  # atno 17371 bound_to 10713
  140.9393  134.1922  157.4809 LP  0  0  0  0  0  0  0  0  0  0  0  0  # atno 17394 bound_to 11000
  139.8731  134.9865  156.5327 LP  0  0  0  0  0  0  0  0  0  0  0  0  # atno 17395 bound_to 11000

$$$$
