AV-unprocessed.smi:3002|AV-procd|sdf|11434|dock4
  -GOLD-   2272016363D 1   1.00000     0.00000
 Structure written by MMmdl.
 34 35  0  0  0  0  0  0  0  0  1 V2000
  152.7825  138.6246  156.8234 C   0  0  0  0  0  0  0  0  0  0  0  0
  151.8864  138.5036  155.5742 C   0  0  1  0  0  0  0  0  0  0  0  0
  151.0094  137.2421  155.6003 C   0  0  0  0  0  0  0  0  0  0  0  0
  151.1640  136.3527  154.7627 O   0  0  0  0  0  0  0  0  0  0  0  0
  150.0861  137.1782  156.5727 N   0  0  0  0  0  0  0  0  0  0  0  0
  149.1577  136.0711  156.7761 C   0  0  0  0  0  0  0  0  0  0  0  0
  148.8930  135.7893  158.2691 C   0  0  2  0  0  0  0  0  0  0  0  0
  147.6636  134.8900  158.5185 C   0  0  0  0  0  0  0  0  0  0  0  0
  147.3292  134.9237  160.0127 C   0  0  0  0  0  0  0  0  0  0  0  0
  147.7319  136.6213  160.5673 S   0  0  0  0  0  0  0  0  0  0  0  0
  146.5039  137.4299  160.5982 O   0  0  0  0  0  0  0  0  0  0  0  0
  148.6198  136.5469  161.7374 O   0  0  0  0  0  0  0  0  0  0  0  0
  148.7056  137.0804  159.0825 C   0  0  0  0  0  0  0  0  0  0  0  0
  151.0607  139.6875  155.3687 N   0  0  0  0  0  0  0  0  0  0  0  0
  150.1742  139.9580  154.4079 C   0  0  0  0  0  0  0  0  0  0  0  0
  149.5607  141.1241  154.5525 N   0  0  0  0  0  0  0  0  0  0  0  0
  150.1478  141.5481  155.7109 C   0  0  0  0  0  0  0  0  0  0  0  0
  151.0449  140.7212  156.2472 N   0  0  0  0  0  0  0  0  0  0  0  0
  153.4282  137.7522  156.9289 H   0  0  0  0  0  0  0  0  0  0  0  0
  152.2000  138.7163  157.7411 H   0  0  0  0  0  0  0  0  0  0  0  0
  153.4274  139.5010  156.7543 H   0  0  0  0  0  0  0  0  0  0  0  0
  152.5502  138.4244  154.7114 H   0  0  0  0  0  0  0  0  0  0  0  0
  150.0248  137.9496  157.2210 H   0  0  0  0  0  0  0  0  0  0  0  0
  148.2194  136.2786  156.2586 H   0  0  0  0  0  0  0  0  0  0  0  0
  149.5812  135.1868  156.2991 H   0  0  0  0  0  0  0  0  0  0  0  0
  149.7590  135.2732  158.6866 H   0  0  0  0  0  0  0  0  0  0  0  0
  146.8137  135.2807  157.9575 H   0  0  0  0  0  0  0  0  0  0  0  0
  147.8296  133.8682  158.1757 H   0  0  0  0  0  0  0  0  0  0  0  0
  146.2855  134.6922  160.2260 H   0  0  0  0  0  0  0  0  0  0  0  0
  147.9620  134.2292  160.5658 H   0  0  0  0  0  0  0  0  0  0  0  0
  149.6516  137.5334  159.3795 H   0  0  0  0  0  0  0  0  0  0  0  0
  148.1293  137.8190  158.5248 H   0  0  0  0  0  0  0  0  0  0  0  0
  149.9708  139.2863  153.5868 H   0  0  0  0  0  0  0  0  0  0  0  0
  149.9019  142.4914  156.1761 H   0  0  0  0  0  0  0  0  0  0  0  0
  1  2  1  0  0  0  0
  1 19  1  0  0  0  0
  1 20  1  0  0  0  0
  1 21  1  0  0  0  0
  2  3  1  0  0  0  0
  2 14  1  0  0  0  0
  2 22  1  0  0  0  0
  3  4  2  0  0  0  0
  3  5  1  0  0  0  0
  5  6  1  0  0  0  0
  5 23  1  0  0  0  0
  6  7  1  0  0  0  0
  6 24  1  0  0  0  0
  6 25  1  0  0  0  0
  7 13  1  0  0  0  0
  7  8  1  0  0  0  0
  7 26  1  0  0  0  0
  8  9  1  0  0  0  0
  8 27  1  0  0  0  0
  8 28  1  0  0  0  0
  9 10  1  0  0  0  0
  9 29  1  0  0  0  0
  9 30  1  0  0  0  0
 10 11  2  0  0  0  0
 10 12  2  0  0  0  0
 10 13  1  0  0  0  0
 13 31  1  0  0  0  0
 13 32  1  0  0  0  0
 14 18  1  0  0  0  0
 14 15  1  0  0  0  0
 15 16  2  0  0  0  0
 15 33  1  0  0  0  0
 16 17  1  0  0  0  0
 17 18  2  0  0  0  0
 17 34  1  0  0  0  0
M  END
> <s_m_source_file>
AV-unprocessed.smi

> <i_m_source_file_index>
3002

> <i_lp_mmshare_version>
43012

> <i_f3d_flags>
0

> <s_epik_input>
bjFbY0hdbltjSF1uMVtDQEhdKFtDSDNdKUMoPU8pW05IXVtDSDJdW0NAQEhdKFtDSDJdMilbQ0gyXVtDSDJdUzIoPU8pPU8=

> <s_epik_cmdline>
J2VwaWtfcHl0aG9uJywgJy1waCcsICc3LjAnLCAnLXRuJywgJzgnLCAnLW1hJywgJzIwMCcsICctbWV0YWxfYmluZGluZycsICctaW1hZScsICc8aW5maWxlLm1hZT4nLCAnLW9tYWUnLCAnPG91dGZpbGUubWFlPic=

> <r_lp_tautomer_probability>
1

> <r_epik_Ionization_Penalty>
1.1748e-05

> <r_epik_Ionization_Penalty_Charging>
0

> <r_epik_Ionization_Penalty_Neutral>
1.1748e-05

> <r_epik_State_Penalty>
-0

> <r_epik_Charging_Adjusted_Penalty>
0

> <i_epik_Tot_Q>
0

> <i_epik_Tot_abs_Q>
0

> <r_epik_Metal_State_Penalty>
-0

> <b_epik_Metal_Only>
0

> <s_lp_Force_Field>
OPLS_2005

> <r_lp_Energy>
11.4636

> <b_lp_Chiralities_Consistent>
1

> <s_lp_Variant>
AV-unprocessed.smi:3002-2

> <Gold.Version>
5.8.1

> <Gold.Id.Protein>
6NUR|6NUR_protein|mol2

> <Gold.PLP.Fitness>
35.3398

> <Gold.PLP.PLP>
-21.3007

> <Gold.PLP.part.hbond>
-4.0029

> <Gold.PLP.part.metal>
0.0000

> <Gold.PLP.part.buried>
0.4140

> <Gold.PLP.part.nonpolar>
-18.0302

> <Gold.PLP.part.repulsive>
0.3463

> <Gold.PLP.ligand.clash>
0.0000

> <Gold.PLP.ligand.torsion>
0.3489

> <Gold.PLP.Chemscore.Hbond>
3.0000

> <Gold.PLP.Chemscore.CHOScore>
1.8780

> <Gold.PLP.Chemscore.Metal>
0.0000

> <Gold.Chemscore.Hbonds>
donor molecule, donor type, donor heavy atom, donor atom, acceptor molecule, acceptor atom, score
      P1  H  6931  6943       L1    12  1.00
      P1  H  6934  6947       L1    11  1.00
      P1  H 10752 10764       L1     4  1.00
      L1  C    15    33       P1  7957  0.83
      L1  C    17    34       P1  8028  1.00

> <Gold.PLP.Chemscore.Internal.Correction>
0.1029

> <Gold.Rescore>
     Score         DG    S(hbond)    S(metal)    S(lipo)     H(rot)  DE(clash)    DE(int)     intcor
      8.25     -10.00       2.29        0.00      25.77       2.39       1.45       0.31       ----

> <Gold.Chemscore.Fitness>
8.2509

> <Gold.Chemscore.DG>
-10.0045

> <Gold.Chemscore.ZeroCoef>
-5.4800

> <Gold.Chemscore.Hbond>
2.2873

> <Gold.Chemscore.Metal>
0.0000

> <Gold.Chemscore.Lipo>
25.7695

> <Gold.Chemscore.Internal_Hbond>
0.0000

> <Gold.Chemscore.DEClash>
1.4480

> <Gold.Chemscore.DEInternal>
0.3057

> <Gold.Chemscore.Rot>
2.3946

> <Gold.Chemscore.Internal.Correction>
   9.000000E+99

> <Gold.Chemscore.Hbonds>
donor molecule, donor type, donor heavy atom, donor atom, acceptor molecule, acceptor atom, score
      P1  H  6931  6943       L1    12  0.30
      P1  H  6934  6947       L1    11  0.30
      P1  H 10752 10764       L1     4  0.97

> <Gold.Chemscore.Hbond.Weighted>
-7.6396

> <Gold.Chemscore.Metal.Weighted>
-0.0000

> <Gold.Chemscore.Lipo.Weighted>
-3.0150

> <Gold.Chemscore.Internal_Hbond.Weighted>
0.0000

> <Gold.Chemscore.DEClash.Weighted>
1.4480

> <Gold.Chemscore.DEInternal.Weighted>
0.3057

> <Gold.Chemscore.Rot.Weighted>
6.1301

> <Gold.Chemscore.Internal.Correction.Weighted>
   9.000000E+99

> <Gold.Protein.RotatedTorsions>
[ 6907 6896 6895 6894 ] final   13.59 input  -60.11 | X-H torsion
[ 7974 7965 7964 7962 ] final  -14.00 input  175.53 | X-H torsion
[ 8008 7997 7996 7995 ] final  148.91 input   59.86 | X-H torsion
[ 10167 10162 10161 10158 ] final   87.02 input  -65.29 | X-H torsion
[ 10718 10713 10712 10709 ] final  -14.60 input   66.30 | X-H torsion
[ 10763 10752 10751 10750 ] final  -68.42 input  -60.55 | X-H torsion
[ 11005 11000 10999 10996 ] final   35.49 input  -57.11 | X-H torsion

> <Gold.Protein.ActiveResidues>
 VAL166  LYS551  ARG553  GLY616  TRP617  ASP618  TYR619  PRO620  LYS621  CYS622 
 ASP623  PHE694  ASN695  SER759  ASP760  ASP761  ALA762  ILE779  LEU786  VAL792 
 PHE793  MET794  SER795  GLU796  ALA797  LYS798  CYS799  TRP800  GLU811  SER814 

> <Gold.Protein.RotatedAtoms>
  151.7888  135.0741  160.0383 H   0  0  0  0  0  0  0  0  0  0  0  0  # atno 6907 bound_to 6896
  152.3171  133.5810  159.5728 H   0  0  0  0  0  0  0  0  0  0  0  0  # atno 6908 bound_to 6896
  150.7350  133.9982  159.3671 H   0  0  0  0  0  0  0  0  0  0  0  0  # atno 6909 bound_to 6896
  146.2092  140.3285  142.8397 H   0  0  0  0  0  0  0  0  0  0  0  0  # atno 7974 bound_to 7965
  156.2774  140.2116  156.5773 H   0  0  0  0  0  0  0  0  0  0  0  0  # atno 8008 bound_to 7997
  154.7087  140.0514  157.0552 H   0  0  0  0  0  0  0  0  0  0  0  0  # atno 8009 bound_to 7997
  155.0635  140.3169  155.4656 H   0  0  0  0  0  0  0  0  0  0  0  0  # atno 8010 bound_to 7997
  139.8816  144.6437  150.8837 H   0  0  0  0  0  0  0  0  0  0  0  0  # atno 10167 bound_to 10162
  156.6136  130.4856  149.6192 H   0  0  0  0  0  0  0  0  0  0  0  0  # atno 10718 bound_to 10713
  154.3888  135.6057  153.5831 H   0  0  0  0  0  0  0  0  0  0  0  0  # atno 10763 bound_to 10752
  152.9787  135.5878  154.4323 H   0  0  0  0  0  0  0  0  0  0  0  0  # atno 10764 bound_to 10752
  154.4104  135.2844  155.2018 H   0  0  0  0  0  0  0  0  0  0  0  0  # atno 10765 bound_to 10752
  140.2421  134.3402  155.7921 H   0  0  0  0  0  0  0  0  0  0  0  0  # atno 11005 bound_to 11000
  144.8869  140.7474  143.5951 LP  0  0  0  0  0  0  0  0  0  0  0  0  # atno 17320 bound_to 7965
  145.3206  139.1789  143.4590 LP  0  0  0  0  0  0  0  0  0  0  0  0  # atno 17321 bound_to 7965
  140.7743  143.3581  151.1881 LP  0  0  0  0  0  0  0  0  0  0  0  0  # atno 17342 bound_to 10162
  139.7191  143.9253  152.2978 LP  0  0  0  0  0  0  0  0  0  0  0  0  # atno 17343 bound_to 10162
  156.2369  130.6828  151.1518 LP  0  0  0  0  0  0  0  0  0  0  0  0  # atno 17370 bound_to 10713
  157.7247  131.0658  150.5983 LP  0  0  0  0  0  0  0  0  0  0  0  0  # atno 17371 bound_to 10713
  141.2209  133.7305  156.8902 LP  0  0  0  0  0  0  0  0  0  0  0  0  # atno 17394 bound_to 11000
  140.1642  134.9144  157.2753 LP  0  0  0  0  0  0  0  0  0  0  0  0  # atno 17395 bound_to 11000

$$$$
