AV-unprocessed.smi:1641|AV-procd|sdf|6559|dock7
  -GOLD-   22720 7243D 1   1.00000     0.00000
 Structure written by MMmdl.
 42 43  0  0  0  0  0  0  0  0  2 V2000
  153.5706  137.4936  157.0778 C   0  0  0  0  0  0  0  0  0  0  0  0
  152.6831  138.1826  156.0986 C   0  0  0  0  0  0  0  0  0  0  0  0
  152.9131  139.4273  155.6629 N   0  0  0  0  0  0  0  0  0  0  0  0
  151.9508  139.8545  154.7584 N   0  0  0  0  0  0  0  0  0  0  0  0
  151.0193  138.9162  154.5399 C   0  0  0  0  0  0  0  0  0  0  0  0
  149.9167  139.0885  153.6616 N   0  0  0  0  0  0  0  0  0  0  0  0
  148.6386  138.7150  153.8476 C   0  0  0  0  0  0  0  0  0  0  0  0
  148.1978  138.1538  154.8510 O   0  0  0  0  0  0  0  0  0  0  0  0
  147.8792  139.0295  152.7880 N   0  0  0  0  0  0  0  0  0  0  0  0
  146.4499  138.7600  152.6806 C   0  0  0  0  0  0  0  0  0  0  0  0
  146.1354  137.8319  151.4909 C   0  0  0  0  0  0  0  0  0  0  0  0
  146.2744  136.3960  151.8390 N   0  3  1  0  0  0  0  0  0  0  0  0
  145.7818  136.0961  153.2044 C   0  0  0  0  0  0  0  0  0  0  0  0
  146.0004  134.6095  153.5449 C   0  0  1  0  0  0  0  0  0  0  0  0
  145.4328  134.2392  154.9194 C   0  0  0  0  0  0  0  0  0  0  0  0
  145.3469  133.8087  152.5670 O   0  0  0  0  0  0  0  0  0  0  0  0
  145.8638  134.0143  151.2572 C   0  0  1  0  0  0  0  0  0  0  0  0
  145.1572  133.0405  150.3081 C   0  0  0  0  0  0  0  0  0  0  0  0
  145.6425  135.4842  150.8533 C   0  0  0  0  0  0  0  0  0  0  0  0
  151.2447  137.4206  155.4308 S   0  0  0  0  0  0  0  0  0  0  0  0
  154.5709  137.9271  157.0583 H   0  0  0  0  0  0  0  0  0  0  0  0
  153.6463  136.4337  156.8345 H   0  0  0  0  0  0  0  0  0  0  0  0
  153.1633  137.5948  158.0839 H   0  0  0  0  0  0  0  0  0  0  0  0
  150.1288  139.5470  152.7877 H   0  0  0  0  0  0  0  0  0  0  0  0
  148.3180  139.4940  152.0060 H   0  0  0  0  0  0  0  0  0  0  0  0
  146.0984  138.3373  153.6221 H   0  0  0  0  0  0  0  0  0  0  0  0
  145.9335  139.7121  152.5557 H   0  0  0  0  0  0  0  0  0  0  0  0
  145.1092  138.0252  151.1743 H   0  0  0  0  0  0  0  0  0  0  0  0
  146.7698  138.0608  150.6331 H   0  0  0  0  0  0  0  0  0  0  0  0
  146.3063  136.7187  153.9305 H   0  0  0  0  0  0  0  0  0  0  0  0
  144.7222  136.3480  153.2714 H   0  0  0  0  0  0  0  0  0  0  0  0
  147.0683  134.3834  153.5388 H   0  0  0  0  0  0  0  0  0  0  0  0
  145.9106  134.8164  155.7112 H   0  0  0  0  0  0  0  0  0  0  0  0
  145.5960  133.1830  155.1350 H   0  0  0  0  0  0  0  0  0  0  0  0
  144.3598  134.4271  154.9681 H   0  0  0  0  0  0  0  0  0  0  0  0
  146.9318  133.7885  151.2528 H   0  0  0  0  0  0  0  0  0  0  0  0
  145.5227  133.1515  149.2870 H   0  0  0  0  0  0  0  0  0  0  0  0
  144.0800  133.2096  150.2987 H   0  0  0  0  0  0  0  0  0  0  0  0
  145.3289  132.0075  150.6118 H   0  0  0  0  0  0  0  0  0  0  0  0
  144.5745  135.7001  150.7906 H   0  0  0  0  0  0  0  0  0  0  0  0
  146.0596  135.6498  149.8605 H   0  0  0  0  0  0  0  0  0  0  0  0
  147.2636  136.1918  151.8431 H   0  0  0  0  0  0  0  0  0  0  0  0
  1  2  1  0  0  0  0
  1 21  1  0  0  0  0
  1 22  1  0  0  0  0
  1 23  1  0  0  0  0
  2 20  1  0  0  0  0
  2  3  2  0  0  0  0
  3  4  1  0  0  0  0
  4  5  2  0  0  0  0
  5  6  1  0  0  0  0
  5 20  1  0  0  0  0
  6  7  1  0  0  0  0
  6 24  1  0  0  0  0
  7  8  2  0  0  0  0
  7  9  1  0  0  0  0
  9 10  1  0  0  0  0
  9 25  1  0  0  0  0
 10 11  1  0  0  0  0
 10 26  1  0  0  0  0
 10 27  1  0  0  0  0
 11 12  1  0  0  0  0
 11 28  1  0  0  0  0
 11 29  1  0  0  0  0
 12 19  1  0  0  0  0
 12 13  1  0  0  0  0
 12 42  1  0  0  0  0
 13 14  1  0  0  0  0
 13 30  1  0  0  0  0
 13 31  1  0  0  0  0
 14 15  1  0  0  0  0
 14 16  1  0  0  0  0
 14 32  1  0  0  0  0
 15 33  1  0  0  0  0
 15 34  1  0  0  0  0
 15 35  1  0  0  0  0
 16 17  1  0  0  0  0
 17 18  1  0  0  0  0
 17 19  1  0  0  0  0
 17 36  1  0  0  0  0
 18 37  1  0  0  0  0
 18 38  1  0  0  0  0
 18 39  1  0  0  0  0
 19 40  1  0  0  0  0
 19 41  1  0  0  0  0
M  CHG  1  12   1
M  END
> <s_m_source_file>
AV-unprocessed.smi

> <i_m_source_file_index>
1641

> <i_lp_mmshare_version>
43012

> <i_f3d_flags>
0

> <s_epik_input>
W0NIM11jMW5uYyhzMSlbTkhdQyg9TylbTkhdW0NIMl1bQ0gyXU4yW0NIMl1bQ0BASF0oW0NIM10pT1tDQEBIXShbQ0gzXSlbQ0gyXTI=

> <s_epik_cmdline>
J2VwaWtfcHl0aG9uJywgJy1waCcsICc3LjAnLCAnLXRuJywgJzgnLCAnLW1hJywgJzIwMCcsICctbWV0YWxfYmluZGluZycsICctaW1hZScsICc8aW5maWxlLm1hZT4nLCAnLW9tYWUnLCAnPG91dGZpbGUubWFlPic=

> <r_lp_tautomer_probability>
1

> <r_epik_Ionization_Penalty>
0.700114

> <r_epik_Ionization_Penalty_Charging>
0.695697

> <r_epik_Ionization_Penalty_Neutral>
0.00441638

> <r_epik_State_Penalty>
0.717972

> <r_epik_Charging_Adjusted_Penalty>
1.41367

> <i_epik_Tot_Q>
1

> <i_epik_Tot_abs_Q>
1

> <r_epik_Metal_State_Penalty>
1.06958

> <b_epik_Metal_Only>
0

> <s_lp_Force_Field>
OPLS_2005

> <r_lp_Energy>
12.6792

> <b_lp_Chiralities_Consistent>
1

> <s_lp_Variant>
AV-unprocessed.smi:1641-4

> <Gold.Version>
5.8.1

> <Gold.Id.Protein>
6NUR|6NUR_protein|mol2

> <Gold.PLP.Fitness>
46.0816

> <Gold.PLP.PLP>
-29.6286

> <Gold.PLP.part.hbond>
-5.8664

> <Gold.PLP.part.metal>
0.0000

> <Gold.PLP.part.buried>
-1.3194

> <Gold.PLP.part.nonpolar>
-22.7867

> <Gold.PLP.part.repulsive>
0.4906

> <Gold.PLP.ligand.clash>
0.0000

> <Gold.PLP.ligand.torsion>
0.6351

> <Gold.PLP.Chemscore.Hbond>
5.9040

> <Gold.PLP.Chemscore.CHOScore>
0.0000

> <Gold.PLP.Chemscore.Metal>
0.0000

> <Gold.Chemscore.Hbonds>
donor molecule, donor type, donor heavy atom, donor atom, acceptor molecule, acceptor atom, score
      L1  H     6    24       P1  7957  0.99
      L1  H     9    25       P1  7957  1.00
      L1  H    12    42       P1  7948  2.00
      P1  H  7989  7998       L1     4  0.91
      P1  H  7997  8009       L1     3  1.00

> <Gold.PLP.Chemscore.Internal.Correction>
0.0111

> <Gold.Rescore>
     Score         DG    S(hbond)    S(metal)    S(lipo)     H(rot)  DE(clash)    DE(int)     intcor
     21.19     -22.19       4.20        0.00      58.69       1.64       0.51       0.49       ----

> <Gold.Chemscore.Fitness>
21.1902

> <Gold.Chemscore.DG>
-22.1945

> <Gold.Chemscore.ZeroCoef>
-5.4800

> <Gold.Chemscore.Hbond>
4.2024

> <Gold.Chemscore.Metal>
0.0000

> <Gold.Chemscore.Lipo>
58.6866

> <Gold.Chemscore.Internal_Hbond>
0.0000

> <Gold.Chemscore.DEClash>
0.5115

> <Gold.Chemscore.DEInternal>
0.4928

> <Gold.Chemscore.Rot>
1.6358

> <Gold.Chemscore.Internal.Correction>
   9.000000E+99

> <Gold.Chemscore.Hbonds>
donor molecule, donor type, donor heavy atom, donor atom, acceptor molecule, acceptor atom, score
      L1  H     6    24       P1  7957  0.90
      L1  H     9    25       P1  7957  0.97
      L1  H    12    42       P1  7948  1.00
      P1  H  7989  7998       L1     4  0.26
      P1  H  7997  8009       L1     3  0.97

> <Gold.Chemscore.Hbond.Weighted>
-14.0360

> <Gold.Chemscore.Metal.Weighted>
-0.0000

> <Gold.Chemscore.Lipo.Weighted>
-6.8663

> <Gold.Chemscore.Internal_Hbond.Weighted>
0.0000

> <Gold.Chemscore.DEClash.Weighted>
0.5115

> <Gold.Chemscore.DEInternal.Weighted>
0.4928

> <Gold.Chemscore.Rot.Weighted>
4.1878

> <Gold.Chemscore.Internal.Correction.Weighted>
   9.000000E+99

> <Gold.Protein.RotatedTorsions>
[ 6907 6896 6895 6894 ] final -178.99 input  -60.11 | X-H torsion
[ 7974 7965 7964 7962 ] final  -90.47 input  175.53 | X-H torsion
[ 8008 7997 7996 7995 ] final -145.88 input   59.86 | X-H torsion
[ 10167 10162 10161 10158 ] final -158.56 input  -65.29 | X-H torsion
[ 10718 10713 10712 10709 ] final  -77.96 input   66.30 | X-H torsion
[ 10763 10752 10751 10750 ] final   56.06 input  -60.55 | X-H torsion
[ 11005 11000 10999 10996 ] final -121.18 input  -57.11 | X-H torsion

> <Gold.Protein.ActiveResidues>
 VAL166  LYS551  ARG553  GLY616  TRP617  ASP618  TYR619  PRO620  LYS621  CYS622 
 ASP623  PHE694  ASN695  SER759  ASP760  ASP761  ALA762  ILE779  LEU786  VAL792 
 PHE793  MET794  SER795  GLU796  ALA797  LYS798  CYS799  TRP800  GLU811  SER814 

> <Gold.Protein.RotatedAtoms>
  151.6461  133.3323  159.3141 H   0  0  0  0  0  0  0  0  0  0  0  0  # atno 6907 bound_to 6896
  150.7983  134.7063  159.6588 H   0  0  0  0  0  0  0  0  0  0  0  0  # atno 6908 bound_to 6896
  152.4073  134.6189  160.0097 H   0  0  0  0  0  0  0  0  0  0  0  0  # atno 6909 bound_to 6896
  145.4260  140.9553  143.2154 H   0  0  0  0  0  0  0  0  0  0  0  0  # atno 7974 bound_to 7965
  155.5503  140.0616  157.2851 H   0  0  0  0  0  0  0  0  0  0  0  0  # atno 8008 bound_to 7997
  154.4423  140.1903  156.0725 H   0  0  0  0  0  0  0  0  0  0  0  0  # atno 8009 bound_to 7997
  156.0521  140.3283  155.7366 H   0  0  0  0  0  0  0  0  0  0  0  0  # atno 8010 bound_to 7997
  139.6682  143.9791  152.2268 H   0  0  0  0  0  0  0  0  0  0  0  0  # atno 10167 bound_to 10162
  156.0130  130.4505  150.3425 H   0  0  0  0  0  0  0  0  0  0  0  0  # atno 10718 bound_to 10713
  152.9826  135.5689  154.5168 H   0  0  0  0  0  0  0  0  0  0  0  0  # atno 10763 bound_to 10752
  154.4663  135.2783  155.1678 H   0  0  0  0  0  0  0  0  0  0  0  0  # atno 10764 bound_to 10752
  154.3245  135.6262  153.5576 H   0  0  0  0  0  0  0  0  0  0  0  0  # atno 10765 bound_to 10752
  141.0089  134.0293  157.3440 H   0  0  0  0  0  0  0  0  0  0  0  0  # atno 11005 bound_to 11000
  144.8214  139.5785  143.6985 LP  0  0  0  0  0  0  0  0  0  0  0  0  # atno 17320 bound_to 7965
  146.2632  139.6458  142.9347 LP  0  0  0  0  0  0  0  0  0  0  0  0  # atno 17321 bound_to 7965
  139.9548  144.6596  150.8136 LP  0  0  0  0  0  0  0  0  0  0  0  0  # atno 17342 bound_to 10162
  140.7608  143.3159  151.2735 LP  0  0  0  0  0  0  0  0  0  0  0  0  # atno 17343 bound_to 10162
  157.1520  131.0323  151.2881 LP  0  0  0  0  0  0  0  0  0  0  0  0  # atno 17370 bound_to 10713
  157.4384  130.7530  149.7048 LP  0  0  0  0  0  0  0  0  0  0  0  0  # atno 17371 bound_to 10713
  139.9079  135.0184  156.7565 LP  0  0  0  0  0  0  0  0  0  0  0  0  # atno 17394 bound_to 11000
  140.6766  133.9512  155.7886 LP  0  0  0  0  0  0  0  0  0  0  0  0  # atno 17395 bound_to 11000

$$$$
