AV-unprocessed.smi:1021|AV-procd|sdf|4455|dock7
  -GOLD-   22720 2423D 1   1.00000     0.00000
 Structure written by MMmdl.
 42 44  0  0  0  0  0  0  0  0  1 V2000
  151.3670  136.9927  154.3755 O   0  0  0  0  0  0  0  0  0  0  0  0
  150.6235  138.1296  154.7592 C   0  0  0  0  0  0  0  0  0  0  0  0
  151.4905  139.0878  155.5883 C   0  0  0  0  0  0  0  0  0  0  0  0
  151.4395  138.8025  157.0992 C   0  0  0  0  0  0  0  0  0  0  0  0
  151.6760  140.0333  157.9249 C   0  0  0  0  0  0  0  0  0  0  0  0
  151.6497  141.2492  157.3776 N   0  0  0  0  0  0  0  0  0  0  0  0
  151.9333  142.0735  158.4481 C   0  0  0  0  0  0  0  0  0  0  0  0
  152.0572  143.4798  158.5165 C   0  0  0  0  0  0  0  0  0  0  0  0
  152.3607  144.1112  159.7406 C   0  0  0  0  0  0  0  0  0  0  0  0
  152.5444  143.3471  160.9110 C   0  0  0  0  0  0  0  0  0  0  0  0
  152.4250  141.9448  160.8644 C   0  0  0  0  0  0  0  0  0  0  0  0
  152.1208  141.3188  159.6403 C   0  0  0  0  0  0  0  0  0  0  0  0
  151.9372  139.9927  159.2577 N   0  0  0  0  0  0  0  0  0  0  0  0
  152.0128  138.8326  160.1384 C   0  0  0  0  0  0  0  0  0  0  0  0
  153.4592  138.4098  160.4633 C   0  0  1  0  0  0  0  0  0  0  0  0
  154.3723  139.2506  159.7841 O   0  0  0  0  0  0  0  0  0  0  0  0
  153.7015  138.3854  161.9646 C   0  0  0  0  0  0  0  0  0  0  0  0
  153.0105  137.4574  162.7733 C   0  0  0  0  0  0  0  0  0  0  0  0
  153.2230  137.4324  164.1656 C   0  0  0  0  0  0  0  0  0  0  0  0
  154.1259  138.3364  164.7575 C   0  0  0  0  0  0  0  0  0  0  0  0
  154.3304  138.3113  166.0956 F   0  0  0  0  0  0  0  0  0  0  0  0
  154.8146  139.2675  163.9567 C   0  0  0  0  0  0  0  0  0  0  0  0
  154.6016  139.2938  162.5647 C   0  0  0  0  0  0  0  0  0  0  0  0
  151.0502  136.6942  153.5366 H   0  0  0  0  0  0  0  0  0  0  0  0
  150.2333  138.6279  153.8711 H   0  0  0  0  0  0  0  0  0  0  0  0
  149.7662  137.7992  155.3459 H   0  0  0  0  0  0  0  0  0  0  0  0
  152.5210  139.0019  155.2438 H   0  0  0  0  0  0  0  0  0  0  0  0
  151.1948  140.1194  155.3929 H   0  0  0  0  0  0  0  0  0  0  0  0
  150.4635  138.3954  157.3660 H   0  0  0  0  0  0  0  0  0  0  0  0
  152.1620  138.0288  157.3523 H   0  0  0  0  0  0  0  0  0  0  0  0
  151.9200  144.0735  157.6250 H   0  0  0  0  0  0  0  0  0  0  0  0
  152.4540  145.1865  159.7811 H   0  0  0  0  0  0  0  0  0  0  0  0
  152.7781  143.8375  161.8446 H   0  0  0  0  0  0  0  0  0  0  0  0
  152.5697  141.3578  161.7589 H   0  0  0  0  0  0  0  0  0  0  0  0
  151.4807  139.0651  161.0612 H   0  0  0  0  0  0  0  0  0  0  0  0
  151.4618  138.0087  159.6847 H   0  0  0  0  0  0  0  0  0  0  0  0
  153.6280  137.4027  160.0846 H   0  0  0  0  0  0  0  0  0  0  0  0
  154.6705  139.9164  160.3847 H   0  0  0  0  0  0  0  0  0  0  0  0
  152.3134  136.7619  162.3291 H   0  0  0  0  0  0  0  0  0  0  0  0
  152.6923  136.7203  164.7800 H   0  0  0  0  0  0  0  0  0  0  0  0
  155.5055  139.9628  164.4101 H   0  0  0  0  0  0  0  0  0  0  0  0
  155.1310  140.0157  161.9601 H   0  0  0  0  0  0  0  0  0  0  0  0
  1  2  1  0  0  0  0
  1 24  1  0  0  0  0
  2  3  1  0  0  0  0
  2 25  1  0  0  0  0
  2 26  1  0  0  0  0
  3  4  1  0  0  0  0
  3 27  1  0  0  0  0
  3 28  1  0  0  0  0
  4  5  1  0  0  0  0
  4 29  1  0  0  0  0
  4 30  1  0  0  0  0
  5 13  1  0  0  0  0
  5  6  2  0  0  0  0
  6  7  1  0  0  0  0
  7 12  2  0  0  0  0
  7  8  1  0  0  0  0
  8  9  2  0  0  0  0
  8 31  1  0  0  0  0
  9 10  1  0  0  0  0
  9 32  1  0  0  0  0
 10 11  2  0  0  0  0
 10 33  1  0  0  0  0
 11 12  1  0  0  0  0
 11 34  1  0  0  0  0
 12 13  1  0  0  0  0
 13 14  1  0  0  0  0
 14 15  1  0  0  0  0
 14 35  1  0  0  0  0
 14 36  1  0  0  0  0
 15 16  1  0  0  0  0
 15 17  1  0  0  0  0
 15 37  1  0  0  0  0
 16 38  1  0  0  0  0
 17 23  1  0  0  0  0
 17 18  2  0  0  0  0
 18 19  1  0  0  0  0
 18 39  1  0  0  0  0
 19 20  2  0  0  0  0
 19 40  1  0  0  0  0
 20 21  1  0  0  0  0
 20 22  1  0  0  0  0
 22 23  2  0  0  0  0
 22 41  1  0  0  0  0
 23 42  1  0  0  0  0
M  END
> <s_m_source_file>
AV-unprocessed.smi

> <i_m_source_file_index>
1021

> <i_lp_mmshare_version>
43012

> <i_f3d_flags>
0

> <s_epik_input>
W09IXVtDSDJdW0NIMl1bQ0gyXWMobjEpbihjKGMxMilbY0hdW2NIXVtjSF1bY0hdMilbQ0gyXVtDQEhdKFtPSF0pYzNbY0hdW2NIXWMoRilbY0hdW2NIXTM=

> <s_epik_cmdline>
J2VwaWtfcHl0aG9uJywgJy1waCcsICc3LjAnLCAnLXRuJywgJzgnLCAnLW1hJywgJzIwMCcsICctbWV0YWxfYmluZGluZycsICctaW1hZScsICc8aW5maWxlLm1hZT4nLCAnLW9tYWUnLCAnPG91dGZpbGUubWFlPic=

> <r_epik_Ionization_Penalty>
0.182562

> <r_epik_Ionization_Penalty_Charging>
0

> <r_epik_Ionization_Penalty_Neutral>
0.182562

> <r_epik_State_Penalty>
0.172086

> <r_epik_Charging_Adjusted_Penalty>
0.172086

> <i_epik_Tot_Q>
0

> <i_epik_Tot_abs_Q>
0

> <r_epik_Metal_State_Penalty>
0.000199649

> <b_epik_Metal_Only>
0

> <s_lp_Force_Field>
OPLS_2005

> <r_lp_Energy>
11.397

> <b_lp_Chiralities_Consistent>
1

> <s_lp_Variant>
AV-unprocessed.smi:1021-2

> <Gold.Version>
5.8.1

> <Gold.Id.Protein>
6NUR|6NUR_protein|mol2

> <Gold.PLP.Fitness>
54.8122

> <Gold.PLP.PLP>
-48.9736

> <Gold.PLP.part.hbond>
-3.0000

> <Gold.PLP.part.metal>
0.0000

> <Gold.PLP.part.buried>
-4.9273

> <Gold.PLP.part.nonpolar>
-41.2952

> <Gold.PLP.part.repulsive>
0.0088

> <Gold.PLP.ligand.clash>
0.0000

> <Gold.PLP.ligand.torsion>
1.6156

> <Gold.PLP.Chemscore.Hbond>
3.0000

> <Gold.PLP.Chemscore.CHOScore>
0.0000

> <Gold.PLP.Chemscore.Metal>
0.0000

> <Gold.Chemscore.Hbonds>
donor molecule, donor type, donor heavy atom, donor atom, acceptor molecule, acceptor atom, score
      L1  H     1    24       P1  7949  0.67
      P1  H 10752 10763       L1     1  0.56

> <Gold.PLP.Chemscore.Internal.Correction>
0.0697

> <Gold.Rescore>
     Score         DG    S(hbond)    S(metal)    S(lipo)     H(rot)  DE(clash)    DE(int)     intcor
     17.74     -19.32       2.02        0.00     128.05       3.07       0.00       1.59       ----

> <Gold.Chemscore.Fitness>
17.7385

> <Gold.Chemscore.DG>
-19.3236

> <Gold.Chemscore.ZeroCoef>
-5.4800

> <Gold.Chemscore.Hbond>
2.0153

> <Gold.Chemscore.Metal>
0.0000

> <Gold.Chemscore.Lipo>
128.0530

> <Gold.Chemscore.Internal_Hbond>
0.0000

> <Gold.Chemscore.DEClash>
0.0000

> <Gold.Chemscore.DEInternal>
1.5851

> <Gold.Chemscore.Rot>
3.0741

> <Gold.Chemscore.Internal.Correction>
   9.000000E+99

> <Gold.Chemscore.Hbonds>
donor molecule, donor type, donor heavy atom, donor atom, acceptor molecule, acceptor atom, score
      L1  H     1    24       P1  7949  0.23
      P1  H 10752 10763       L1     1  0.04

> <Gold.Chemscore.Hbond.Weighted>
-6.7312

> <Gold.Chemscore.Metal.Weighted>
-0.0000

> <Gold.Chemscore.Lipo.Weighted>
-14.9822

> <Gold.Chemscore.Internal_Hbond.Weighted>
0.0000

> <Gold.Chemscore.DEClash.Weighted>
0.0000

> <Gold.Chemscore.DEInternal.Weighted>
1.5851

> <Gold.Chemscore.Rot.Weighted>
7.8698

> <Gold.Chemscore.Internal.Correction.Weighted>
   9.000000E+99

> <Gold.Protein.RotatedTorsions>
[ 6907 6896 6895 6894 ] final -178.20 input  -60.11 | X-H torsion
[ 7974 7965 7964 7962 ] final -177.44 input  175.53 | X-H torsion
[ 8008 7997 7996 7995 ] final -120.31 input   59.86 | X-H torsion
[ 10167 10162 10161 10158 ] final  127.99 input  -65.29 | X-H torsion
[ 10718 10713 10712 10709 ] final   85.75 input   66.30 | X-H torsion
[ 10763 10752 10751 10750 ] final   44.16 input  -60.55 | X-H torsion
[ 11005 11000 10999 10996 ] final   19.05 input  -57.11 | X-H torsion

> <Gold.Protein.ActiveResidues>
 VAL166  LYS551  ARG553  GLY616  TRP617  ASP618  TYR619  PRO620  LYS621  CYS622 
 ASP623  PHE694  ASN695  SER759  ASP760  ASP761  ALA762  ILE779  LEU786  VAL792 
 PHE793  MET794  SER795  GLU796  ALA797  LYS798  CYS799  TRP800  GLU811  SER814 

> <Gold.Protein.RotatedAtoms>
  151.6334  133.3330  159.3113 H   0  0  0  0  0  0  0  0  0  0  0  0  # atno 6907 bound_to 6896
  150.8045  134.7164  159.6643 H   0  0  0  0  0  0  0  0  0  0  0  0  # atno 6908 bound_to 6896
  152.4139  134.6080  160.0069 H   0  0  0  0  0  0  0  0  0  0  0  0  # atno 6909 bound_to 6896
  144.7128  140.1019  143.6416 H   0  0  0  0  0  0  0  0  0  0  0  0  # atno 7974 bound_to 7965
  155.1297  140.0400  157.2771 H   0  0  0  0  0  0  0  0  0  0  0  0  # atno 8008 bound_to 7997
  154.6552  140.2578  155.7143 H   0  0  0  0  0  0  0  0  0  0  0  0  # atno 8009 bound_to 7997
  156.2595  140.2828  156.1002 H   0  0  0  0  0  0  0  0  0  0  0  0  # atno 8010 bound_to 7997
  139.5550  144.6842  151.4210 H   0  0  0  0  0  0  0  0  0  0  0  0  # atno 10167 bound_to 10162
  157.6919  131.0187  150.2869 H   0  0  0  0  0  0  0  0  0  0  0  0  # atno 10718 bound_to 10713
  152.9846  135.6079  154.3229 H   0  0  0  0  0  0  0  0  0  0  0  0  # atno 10763 bound_to 10752
  154.2938  135.2774  155.2644 H   0  0  0  0  0  0  0  0  0  0  0  0  # atno 10764 bound_to 10752
  154.4928  135.5887  153.6528 H   0  0  0  0  0  0  0  0  0  0  0  0  # atno 10765 bound_to 10752
  140.4180  134.1548  155.7671 H   0  0  0  0  0  0  0  0  0  0  0  0  # atno 11005 bound_to 11000
  145.9530  139.2747  143.1201 LP  0  0  0  0  0  0  0  0  0  0  0  0  # atno 17320 bound_to 7965
  145.9302  140.9053  143.0360 LP  0  0  0  0  0  0  0  0  0  0  0  0  # atno 17321 bound_to 7965
  140.6821  143.8058  150.7135 LP  0  0  0  0  0  0  0  0  0  0  0  0  # atno 17342 bound_to 10162
  140.1515  143.4354  152.2128 LP  0  0  0  0  0  0  0  0  0  0  0  0  # atno 17343 bound_to 10162
  156.3406  130.3815  149.7412 LP  0  0  0  0  0  0  0  0  0  0  0  0  # atno 17370 bound_to 10713
  156.4922  130.8090  151.3099 LP  0  0  0  0  0  0  0  0  0  0  0  0  # atno 17371 bound_to 10713
  141.1795  133.8443  157.1307 LP  0  0  0  0  0  0  0  0  0  0  0  0  # atno 17394 bound_to 11000
  140.0220  134.9941  157.0611 LP  0  0  0  0  0  0  0  0  0  0  0  0  # atno 17395 bound_to 11000

$$$$
