AV-unprocessed.smi:1381|AV-procd|sdf|5618|dock9
  -GOLD-   22720 5233D 1   1.00000     0.00000
 Structure written by MMmdl.
 42 43  0  0  0  0  0  0  0  0  3 V2000
  153.3287  142.0588  161.0985 C   0  0  0  0  0  0  0  0  0  0  0  0
  153.0813  141.2982  159.8410 C   0  0  0  0  0  0  0  0  0  0  0  0
  152.1219  141.3893  158.8726 C   0  0  0  0  0  0  0  0  0  0  0  0
  152.4855  140.3613  157.9623 C   0  0  0  0  0  0  0  0  0  0  0  0
  151.7173  140.1292  156.7909 N   0  0  0  0  0  0  0  0  0  0  0  0
  152.1209  139.6620  155.5952 C   0  0  0  0  0  0  0  0  0  0  0  0
  153.3047  139.3538  155.4117 O   0  0  0  0  0  0  0  0  0  0  0  0
  151.0975  139.5917  154.7003 N   0  5  0  0  0  0  0  0  0  0  0  0
  150.1010  138.5243  154.6623 C   0  0  0  0  0  0  0  0  0  0  0  0
  150.8106  137.1575  154.6068 C   0  0  0  0  0  0  0  0  0  0  0  0
  149.8531  136.0368  154.4105 N   0  3  1  0  0  0  0  0  0  0  0  0
  150.5092  134.7083  154.4185 C   0  0  0  0  0  0  0  0  0  0  0  0
  149.4919  133.6043  154.0789 C   0  0  1  0  0  0  0  0  0  0  0  0
  150.1124  132.2054  154.1641 C   0  0  0  0  0  0  0  0  0  0  0  0
  148.4041  133.6580  154.9987 O   0  0  0  0  0  0  0  0  0  0  0  0
  147.7188  134.9097  155.0461 C   0  0  2  0  0  0  0  0  0  0  0  0
  146.8773  135.1644  153.7829 C   0  0  0  0  0  0  0  0  0  0  0  0
  148.7101  136.0460  155.3614 C   0  0  0  0  0  0  0  0  0  0  0  0
  153.5705  139.7029  158.3421 N   0  0  0  0  0  0  0  0  0  0  0  0
  153.9577  140.2998  159.5477 O   0  0  0  0  0  0  0  0  0  0  0  0
  152.5596  142.8157  161.2539 H   0  0  0  0  0  0  0  0  0  0  0  0
  154.2951  142.5615  161.0617 H   0  0  0  0  0  0  0  0  0  0  0  0
  153.3254  141.3915  161.9606 H   0  0  0  0  0  0  0  0  0  0  0  0
  151.2939  142.0806  158.8242 H   0  0  0  0  0  0  0  0  0  0  0  0
  150.7356  140.3511  156.8637 H   0  0  0  0  0  0  0  0  0  0  0  0
  149.4473  138.5468  155.5351 H   0  0  0  0  0  0  0  0  0  0  0  0
  149.4446  138.6173  153.7960 H   0  0  0  0  0  0  0  0  0  0  0  0
  151.5183  137.1823  153.7762 H   0  0  0  0  0  0  0  0  0  0  0  0
  151.4068  136.9873  155.5051 H   0  0  0  0  0  0  0  0  0  0  0  0
  151.3183  134.6923  153.6866 H   0  0  0  0  0  0  0  0  0  0  0  0
  150.9570  134.5297  155.3975 H   0  0  0  0  0  0  0  0  0  0  0  0
  149.1221  133.7478  153.0634 H   0  0  0  0  0  0  0  0  0  0  0  0
  150.9501  132.1043  153.4737 H   0  0  0  0  0  0  0  0  0  0  0  0
  149.3799  131.4383  153.9113 H   0  0  0  0  0  0  0  0  0  0  0  0
  150.4797  131.9960  155.1692 H   0  0  0  0  0  0  0  0  0  0  0  0
  147.0200  134.8389  155.8804 H   0  0  0  0  0  0  0  0  0  0  0  0
  146.2616  136.0560  153.9039 H   0  0  0  0  0  0  0  0  0  0  0  0
  146.2082  134.3268  153.5856 H   0  0  0  0  0  0  0  0  0  0  0  0
  147.4939  135.3166  152.8975 H   0  0  0  0  0  0  0  0  0  0  0  0
  149.0920  135.9262  156.3766 H   0  0  0  0  0  0  0  0  0  0  0  0
  148.1919  137.0052  155.3350 H   0  0  0  0  0  0  0  0  0  0  0  0
  149.4725  136.1581  153.4826 H   0  0  0  0  0  0  0  0  0  0  0  0
  1  2  1  0  0  0  0
  1 21  1  0  0  0  0
  1 22  1  0  0  0  0
  1 23  1  0  0  0  0
  2 20  1  0  0  0  0
  2  3  2  0  0  0  0
  3  4  1  0  0  0  0
  3 24  1  0  0  0  0
  4  5  1  0  0  0  0
  4 19  2  0  0  0  0
  5  6  1  0  0  0  0
  5 25  1  0  0  0  0
  6  7  2  0  0  0  0
  6  8  1  0  0  0  0
  8  9  1  0  0  0  0
  9 10  1  0  0  0  0
  9 26  1  0  0  0  0
  9 27  1  0  0  0  0
 10 11  1  0  0  0  0
 10 28  1  0  0  0  0
 10 29  1  0  0  0  0
 11 18  1  0  0  0  0
 11 12  1  0  0  0  0
 11 42  1  0  0  0  0
 12 13  1  0  0  0  0
 12 30  1  0  0  0  0
 12 31  1  0  0  0  0
 13 14  1  0  0  0  0
 13 15  1  0  0  0  0
 13 32  1  0  0  0  0
 14 33  1  0  0  0  0
 14 34  1  0  0  0  0
 14 35  1  0  0  0  0
 15 16  1  0  0  0  0
 16 17  1  0  0  0  0
 16 18  1  0  0  0  0
 16 36  1  0  0  0  0
 17 37  1  0  0  0  0
 17 38  1  0  0  0  0
 17 39  1  0  0  0  0
 18 40  1  0  0  0  0
 18 41  1  0  0  0  0
 19 20  1  0  0  0  0
M  CHG  1   8  -1
M  CHG  1  11   1
M  END
> <s_m_source_file>
AV-unprocessed.smi

> <i_m_source_file_index>
1381

> <i_lp_mmshare_version>
43012

> <i_f3d_flags>
0

> <s_epik_input>
W0NIM11jMVtjSF1jKG5vMSlbTkhdQyg9TylbTkhdW0NIMl1bQ0gyXU4yW0NIMl1bQ0BASF0oW0NIM10pT1tDQEBIXShbQ0gzXSlbQ0gyXTI=

> <s_epik_cmdline>
J2VwaWtfcHl0aG9uJywgJy1waCcsICc3LjAnLCAnLXRuJywgJzgnLCAnLW1hJywgJzIwMCcsICctbWV0YWxfYmluZGluZycsICctaW1hZScsICc8aW5maWxlLm1hZT4nLCAnLW9tYWUnLCAnPG91dGZpbGUubWFlPic=

> <r_epik_Ionization_Penalty>
6.8073

> <r_epik_Ionization_Penalty_Charging>
6.80729

> <r_epik_Ionization_Penalty_Neutral>
5.65391e-06

> <r_epik_State_Penalty>
7.47323

> <r_epik_Charging_Adjusted_Penalty>
14.2805

> <i_epik_Tot_Q>
0

> <i_epik_Tot_abs_Q>
2

> <r_epik_Metal_State_Penalty>
3.40035

> <b_epik_Metal_Only>
1

> <s_lp_Force_Field>
OPLS_2005

> <r_lp_Energy>
14.8512

> <b_lp_Chiralities_Consistent>
1

> <s_lp_Variant>
AV-unprocessed.smi:1381-17

> <Gold.Version>
5.8.1

> <Gold.Id.Protein>
6NUR|6NUR_protein|mol2

> <Gold.PLP.Fitness>
44.7392

> <Gold.PLP.PLP>
-33.0825

> <Gold.PLP.part.hbond>
-4.0000

> <Gold.PLP.part.metal>
0.0000

> <Gold.PLP.part.buried>
-4.1535

> <Gold.PLP.part.nonpolar>
-25.3428

> <Gold.PLP.part.repulsive>
0.2667

> <Gold.PLP.ligand.clash>
0.0000

> <Gold.PLP.ligand.torsion>
0.9727

> <Gold.PLP.Chemscore.Hbond>
4.5200

> <Gold.PLP.Chemscore.CHOScore>
0.0000

> <Gold.PLP.Chemscore.Metal>
0.0000

> <Gold.Chemscore.Hbonds>
donor molecule, donor type, donor heavy atom, donor atom, acceptor molecule, acceptor atom, score
      L1  H    11    42       P1  7948  2.00
      P1  H  7989  7998       L1     8  1.00
      P1  H  7997  8008       L1    19  0.98
      P1  H  7997  8009       L1     7  0.66

> <Gold.PLP.Chemscore.Internal.Correction>
0.0421

> <Gold.Rescore>
     Score         DG    S(hbond)    S(metal)    S(lipo)     H(rot)  DE(clash)    DE(int)     intcor
     15.77     -18.24       2.75        0.00      65.15       1.58       0.31       2.16       ----

> <Gold.Chemscore.Fitness>
15.7705

> <Gold.Chemscore.DG>
-18.2403

> <Gold.Chemscore.ZeroCoef>
-5.4800

> <Gold.Chemscore.Hbond>
2.7488

> <Gold.Chemscore.Metal>
0.0000

> <Gold.Chemscore.Lipo>
65.1474

> <Gold.Chemscore.Internal_Hbond>
0.0000

> <Gold.Chemscore.DEClash>
0.3059

> <Gold.Chemscore.DEInternal>
2.1639

> <Gold.Chemscore.Rot>
1.5792

> <Gold.Chemscore.Internal.Correction>
   9.000000E+99

> <Gold.Chemscore.Hbonds>
donor molecule, donor type, donor heavy atom, donor atom, acceptor molecule, acceptor atom, score
      L1  H    11    42       P1  7948  0.55
      P1  H  7989  7998       L1     8  0.26
      P1  H  7997  8008       L1    19  0.32
      P1  H  7997  8009       L1     7  0.66

> <Gold.Chemscore.Hbond.Weighted>
-9.1809

> <Gold.Chemscore.Metal.Weighted>
-0.0000

> <Gold.Chemscore.Lipo.Weighted>
-7.6222

> <Gold.Chemscore.Internal_Hbond.Weighted>
0.0000

> <Gold.Chemscore.DEClash.Weighted>
0.3059

> <Gold.Chemscore.DEInternal.Weighted>
2.1639

> <Gold.Chemscore.Rot.Weighted>
4.0428

> <Gold.Chemscore.Internal.Correction.Weighted>
   9.000000E+99

> <Gold.Protein.RotatedTorsions>
[ 6907 6896 6895 6894 ] final  -25.20 input  -60.11 | X-H torsion
[ 7974 7965 7964 7962 ] final  -34.77 input  175.53 | X-H torsion
[ 8008 7997 7996 7995 ] final -110.36 input   59.86 | X-H torsion
[ 10167 10162 10161 10158 ] final -173.11 input  -65.29 | X-H torsion
[ 10718 10713 10712 10709 ] final   57.86 input   66.30 | X-H torsion
[ 10763 10752 10751 10750 ] final   20.96 input  -60.55 | X-H torsion
[ 11005 11000 10999 10996 ] final  143.43 input  -57.11 | X-H torsion

> <Gold.Protein.ActiveResidues>
 VAL166  LYS551  ARG553  GLY616  TRP617  ASP618  TYR619  PRO620  LYS621  CYS622 
 ASP623  PHE694  ASN695  SER759  ASP760  ASP761  ALA762  ILE779  LEU786  VAL792 
 PHE793  MET794  SER795  GLU796  ALA797  LYS798  CYS799  TRP800  GLU811  SER814 

> <Gold.Protein.RotatedAtoms>
  151.1785  135.0350  159.8782 H   0  0  0  0  0  0  0  0  0  0  0  0  # atno 6907 bound_to 6896
  152.5446  134.1089  159.8360 H   0  0  0  0  0  0  0  0  0  0  0  0  # atno 6908 bound_to 6896
  151.1204  133.5062  159.2634 H   0  0  0  0  0  0  0  0  0  0  0  0  # atno 6909 bound_to 6896
  146.0802  140.6079  142.8912 H   0  0  0  0  0  0  0  0  0  0  0  0  # atno 7974 bound_to 7965
  154.9733  140.0397  157.2244 H   0  0  0  0  0  0  0  0  0  0  0  0  # atno 8008 bound_to 7997
  154.7781  140.2814  155.6063 H   0  0  0  0  0  0  0  0  0  0  0  0  # atno 8009 bound_to 7997
  156.2932  140.2597  156.2599 H   0  0  0  0  0  0  0  0  0  0  0  0  # atno 8010 bound_to 7997
  139.5706  144.1650  152.1379 H   0  0  0  0  0  0  0  0  0  0  0  0  # atno 10167 bound_to 10162
  157.5549  130.8792  149.9020 H   0  0  0  0  0  0  0  0  0  0  0  0  # atno 10718 bound_to 10713
  153.1034  135.6678  153.9631 H   0  0  0  0  0  0  0  0  0  0  0  0  # atno 10763 bound_to 10752
  153.9195  135.3016  155.3449 H   0  0  0  0  0  0  0  0  0  0  0  0  # atno 10764 bound_to 10752
  154.7455  135.5059  153.9272 H   0  0  0  0  0  0  0  0  0  0  0  0  # atno 10765 bound_to 10752
  140.0553  134.9234  157.1090 H   0  0  0  0  0  0  0  0  0  0  0  0  # atno 11005 bound_to 11000
  144.7288  140.4608  143.6953 LP  0  0  0  0  0  0  0  0  0  0  0  0  # atno 17320 bound_to 7965
  145.6232  139.1527  143.3010 LP  0  0  0  0  0  0  0  0  0  0  0  0  # atno 17321 bound_to 7965
  140.1182  144.5397  150.6880 LP  0  0  0  0  0  0  0  0  0  0  0  0  # atno 17342 bound_to 10162
  140.6991  143.2423  151.4917 LP  0  0  0  0  0  0  0  0  0  0  0  0  # atno 17343 bound_to 10162
  156.0609  130.3700  150.0984 LP  0  0  0  0  0  0  0  0  0  0  0  0  # atno 17370 bound_to 10713
  156.9154  130.9665  151.3557 LP  0  0  0  0  0  0  0  0  0  0  0  0  # atno 17371 bound_to 10713
  140.3853  134.2243  155.7168 LP  0  0  0  0  0  0  0  0  0  0  0  0  # atno 17394 bound_to 11000
  141.1949  133.8117  157.0737 LP  0  0  0  0  0  0  0  0  0  0  0  0  # atno 17395 bound_to 11000

$$$$
