AV-unprocessed.smi:2826|AV-procd|sdf|10894|dock8
  -GOLD-   2272015343D 1   1.00000     0.00000
 Structure written by MMmdl.
 50 51  0  0  0  0  0  0  0  0  1 V2000
  146.8977  128.7463  152.6862 C   0  0  0  0  0  0  0  0  0  0  0  0
  147.8453  129.1327  153.6754 O   0  0  0  0  0  0  0  0  0  0  0  0
  148.1925  130.4651  153.7642 C   0  0  0  0  0  0  0  0  0  0  0  0
  149.2177  130.8369  154.6548 C   0  0  0  0  0  0  0  0  0  0  0  0
  149.5771  132.1942  154.7489 C   0  0  0  0  0  0  0  0  0  0  0  0
  148.9061  133.1429  153.9406 C   0  0  0  0  0  0  0  0  0  0  0  0
  149.1866  134.5375  153.9840 N   0  0  0  0  0  0  0  0  0  0  0  0
  149.7296  135.2453  154.9891 C   0  0  0  0  0  0  0  0  0  0  0  0
  150.1026  134.7795  156.0658 O   0  0  0  0  0  0  0  0  0  0  0  0
  149.8420  136.5414  154.6653 N   0  0  0  0  0  0  0  0  0  0  0  0
  150.4102  137.5747  155.5263 C   0  0  2  0  0  0  0  0  0  0  0  0
  150.7827  138.8079  154.6916 C   0  0  0  0  0  0  0  0  0  0  0  0
  151.5123  139.8454  155.5587 C   0  0  0  0  0  0  0  0  0  0  0  0
  152.6587  139.2543  156.1610 O   0  0  0  0  0  0  0  0  0  0  0  0
  152.3422  138.1860  157.0505 C   0  0  2  0  0  0  0  0  0  0  0  0
  153.6411  137.7058  157.7244 C   0  0  0  0  0  0  0  0  0  0  0  0
  153.4385  136.9275  159.0428 C   0  0  0  0  0  0  0  0  0  0  0  0
  152.7947  137.8285  160.1078 C   0  0  0  0  0  0  0  0  0  0  0  0
  154.7469  136.3211  159.5783 C   0  0  0  0  0  0  0  0  0  0  0  0
  151.6626  137.0560  156.2535 C   0  0  0  0  0  0  0  0  0  0  0  0
  147.8784  132.6709  153.0887 C   0  0  0  0  0  0  0  0  0  0  0  0
  147.0892  133.6163  152.2000 C   0  0  0  0  0  0  0  0  0  0  0  0
  147.5328  131.3677  152.9979 N   0  0  0  0  0  0  0  0  0  0  0  0
  146.7362  127.6698  152.7426 H   0  0  0  0  0  0  0  0  0  0  0  0
  147.2543  128.9746  151.6809 H   0  0  0  0  0  0  0  0  0  0  0  0
  145.9347  129.2338  152.8443 H   0  0  0  0  0  0  0  0  0  0  0  0
  149.7168  130.0945  155.2598 H   0  0  0  0  0  0  0  0  0  0  0  0
  150.3471  132.4819  155.4479 H   0  0  0  0  0  0  0  0  0  0  0  0
  149.0203  135.0403  153.1246 H   0  0  0  0  0  0  0  0  0  0  0  0
  149.5151  136.8359  153.7568 H   0  0  0  0  0  0  0  0  0  0  0  0
  149.6665  137.8756  156.2671 H   0  0  0  0  0  0  0  0  0  0  0  0
  151.4304  138.5153  153.8637 H   0  0  0  0  0  0  0  0  0  0  0  0
  149.8898  139.2516  154.2496 H   0  0  0  0  0  0  0  0  0  0  0  0
  151.8323  140.6876  154.9450 H   0  0  0  0  0  0  0  0  0  0  0  0
  150.8499  140.2464  156.3275 H   0  0  0  0  0  0  0  0  0  0  0  0
  151.6476  138.5427  157.8117 H   0  0  0  0  0  0  0  0  0  0  0  0
  154.2023  137.0832  157.0261 H   0  0  0  0  0  0  0  0  0  0  0  0
  154.2687  138.5769  157.9172 H   0  0  0  0  0  0  0  0  0  0  0  0
  152.7427  136.1090  158.8550 H   0  0  0  0  0  0  0  0  0  0  0  0
  153.4370  138.6752  160.3518 H   0  0  0  0  0  0  0  0  0  0  0  0
  152.6066  137.2765  161.0292 H   0  0  0  0  0  0  0  0  0  0  0  0
  151.8386  138.2241  159.7638 H   0  0  0  0  0  0  0  0  0  0  0  0
  155.5033  137.0899  159.7382 H   0  0  0  0  0  0  0  0  0  0  0  0
  155.1603  135.5818  158.8931 H   0  0  0  0  0  0  0  0  0  0  0  0
  154.5824  135.8157  160.5303 H   0  0  0  0  0  0  0  0  0  0  0  0
  151.3966  136.2369  156.9229 H   0  0  0  0  0  0  0  0  0  0  0  0
  152.3677  136.6484  155.5273 H   0  0  0  0  0  0  0  0  0  0  0  0
  147.7602  134.1654  151.5388 H   0  0  0  0  0  0  0  0  0  0  0  0
  146.5377  134.3345  152.8068 H   0  0  0  0  0  0  0  0  0  0  0  0
  146.3719  133.0778  151.5787 H   0  0  0  0  0  0  0  0  0  0  0  0
  1  2  1  0  0  0  0
  1 24  1  0  0  0  0
  1 25  1  0  0  0  0
  1 26  1  0  0  0  0
  2  3  1  0  0  0  0
  3 23  1  0  0  0  0
  3  4  2  0  0  0  0
  4  5  1  0  0  0  0
  4 27  1  0  0  0  0
  5  6  2  0  0  0  0
  5 28  1  0  0  0  0
  6  7  1  0  0  0  0
  6 21  1  0  0  0  0
  7  8  1  0  0  0  0
  7 29  1  0  0  0  0
  8  9  2  0  0  0  0
  8 10  1  0  0  0  0
 10 11  1  0  0  0  0
 10 30  1  0  0  0  0
 11 20  1  0  0  0  0
 11 12  1  0  0  0  0
 11 31  1  0  0  0  0
 12 13  1  0  0  0  0
 12 32  1  0  0  0  0
 12 33  1  0  0  0  0
 13 14  1  0  0  0  0
 13 34  1  0  0  0  0
 13 35  1  0  0  0  0
 14 15  1  0  0  0  0
 15 16  1  0  0  0  0
 15 20  1  0  0  0  0
 15 36  1  0  0  0  0
 16 17  1  0  0  0  0
 16 37  1  0  0  0  0
 16 38  1  0  0  0  0
 17 18  1  0  0  0  0
 17 19  1  0  0  0  0
 17 39  1  0  0  0  0
 18 40  1  0  0  0  0
 18 41  1  0  0  0  0
 18 42  1  0  0  0  0
 19 43  1  0  0  0  0
 19 44  1  0  0  0  0
 19 45  1  0  0  0  0
 20 46  1  0  0  0  0
 20 47  1  0  0  0  0
 21 22  1  0  0  0  0
 21 23  2  0  0  0  0
 22 48  1  0  0  0  0
 22 49  1  0  0  0  0
 22 50  1  0  0  0  0
M  END
> <s_m_source_file>
AV-unprocessed.smi

> <i_m_source_file_index>
2826

> <i_lp_mmshare_version>
43012

> <i_f3d_flags>
0

> <s_epik_input>
W0NIM11PYzFbY0hdW2NIXWMoYyhuMSlbQ0gzXSlbTkhdQyg9TylbTkhdW0NAQEhdMltDSDJdW0NIMl1PW0NASF0oW0NIMl0yKVtDSDJdW0NIXShbQ0gzXSlbQ0gzXQ==

> <s_epik_cmdline>
J2VwaWtfcHl0aG9uJywgJy1waCcsICc3LjAnLCAnLXRuJywgJzgnLCAnLW1hJywgJzIwMCcsICctbWV0YWxfYmluZGluZycsICctaW1hZScsICc8aW5maWxlLm1hZT4nLCAnLW9tYWUnLCAnPG91dGZpbGUubWFlPic=

> <r_lp_tautomer_probability>
1

> <r_epik_Ionization_Penalty>
0.000249977

> <r_epik_Ionization_Penalty_Charging>
0

> <r_epik_Ionization_Penalty_Neutral>
0.000249977

> <r_epik_State_Penalty>
-0

> <r_epik_Charging_Adjusted_Penalty>
0

> <i_epik_Tot_Q>
0

> <i_epik_Tot_abs_Q>
0

> <r_epik_Metal_State_Penalty>
-0

> <b_epik_Metal_Only>
0

> <s_lp_Force_Field>
OPLS_2005

> <r_lp_Energy>
13.3689

> <b_lp_Chiralities_Consistent>
1

> <s_lp_Variant>
AV-unprocessed.smi:2826-3

> <Gold.Version>
5.8.1

> <Gold.Id.Protein>
6NUR|6NUR_protein|mol2

> <Gold.PLP.Fitness>
41.0276

> <Gold.PLP.PLP>
-33.9468

> <Gold.PLP.part.hbond>
-3.0000

> <Gold.PLP.part.metal>
0.0000

> <Gold.PLP.part.buried>
-3.8880

> <Gold.PLP.part.nonpolar>
-27.7610

> <Gold.PLP.part.repulsive>
0.8124

> <Gold.PLP.ligand.clash>
0.0000

> <Gold.PLP.ligand.torsion>
0.6312

> <Gold.PLP.Chemscore.Hbond>
2.7736

> <Gold.PLP.Chemscore.CHOScore>
0.0000

> <Gold.PLP.Chemscore.Metal>
0.0000

> <Gold.Chemscore.Hbonds>
donor molecule, donor type, donor heavy atom, donor atom, acceptor molecule, acceptor atom, score
      L1  H     7    29       P1  7948  0.90
      L1  H    10    30       P1  7948  0.89
      P1  H  7997  8010       L1    14  1.00

> <Gold.PLP.Chemscore.Internal.Correction>
0.0223

> <Gold.Rescore>
     Score         DG    S(hbond)    S(metal)    S(lipo)     H(rot)  DE(clash)    DE(int)     intcor
     14.60     -17.78       2.04        0.00      79.78       1.51       0.03       3.16       ----

> <Gold.Chemscore.Fitness>
14.5956

> <Gold.Chemscore.DG>
-17.7832

> <Gold.Chemscore.ZeroCoef>
-5.4800

> <Gold.Chemscore.Hbond>
2.0429

> <Gold.Chemscore.Metal>
0.0000

> <Gold.Chemscore.Lipo>
79.7829

> <Gold.Chemscore.Internal_Hbond>
0.0000

> <Gold.Chemscore.DEClash>
0.0318

> <Gold.Chemscore.DEInternal>
3.1558

> <Gold.Chemscore.Rot>
1.5057

> <Gold.Chemscore.Internal.Correction>
   9.000000E+99

> <Gold.Chemscore.Hbonds>
donor molecule, donor type, donor heavy atom, donor atom, acceptor molecule, acceptor atom, score
      L1  H     7    29       P1  7948  0.18
      L1  H    10    30       P1  7948  0.71
      P1  H  7997  8010       L1    14  0.97

> <Gold.Chemscore.Hbond.Weighted>
-6.8232

> <Gold.Chemscore.Metal.Weighted>
-0.0000

> <Gold.Chemscore.Lipo.Weighted>
-9.3346

> <Gold.Chemscore.Internal_Hbond.Weighted>
0.0000

> <Gold.Chemscore.DEClash.Weighted>
0.0318

> <Gold.Chemscore.DEInternal.Weighted>
3.1558

> <Gold.Chemscore.Rot.Weighted>
3.8547

> <Gold.Chemscore.Internal.Correction.Weighted>
   9.000000E+99

> <Gold.Protein.RotatedTorsions>
[ 6907 6896 6895 6894 ] final   45.60 input  -60.11 | X-H torsion
[ 7974 7965 7964 7962 ] final  -32.50 input  175.53 | X-H torsion
[ 8008 7997 7996 7995 ] final   80.71 input   59.86 | X-H torsion
[ 10167 10162 10161 10158 ] final  -44.49 input  -65.29 | X-H torsion
[ 10718 10713 10712 10709 ] final   -9.83 input   66.30 | X-H torsion
[ 10763 10752 10751 10750 ] final -132.96 input  -60.55 | X-H torsion
[ 11005 11000 10999 10996 ] final   78.75 input  -57.11 | X-H torsion

> <Gold.Protein.ActiveResidues>
 VAL166  LYS551  ARG553  GLY616  TRP617  ASP618  TYR619  PRO620  LYS621  CYS622 
 ASP623  PHE694  ASN695  SER759  ASP760  ASP761  ALA762  ILE779  LEU786  VAL792 
 PHE793  MET794  SER795  GLU796  ALA797  LYS798  CYS799  TRP800  GLU811  SER814 

> <Gold.Protein.RotatedAtoms>
  152.2465  134.8176  160.0452 H   0  0  0  0  0  0  0  0  0  0  0  0  # atno 6907 bound_to 6896
  151.8872  133.3503  159.3794 H   0  0  0  0  0  0  0  0  0  0  0  0  # atno 6908 bound_to 6896
  150.7070  134.4886  159.5549 H   0  0  0  0  0  0  0  0  0  0  0  0  # atno 6909 bound_to 6896
  146.0985  140.5800  142.8832 H   0  0  0  0  0  0  0  0  0  0  0  0  # atno 7974 bound_to 7965
  155.8873  140.3441  155.5930 H   0  0  0  0  0  0  0  0  0  0  0  0  # atno 8008 bound_to 7997
  155.7652  140.0838  157.2155 H   0  0  0  0  0  0  0  0  0  0  0  0  # atno 8009 bound_to 7997
  154.4030  140.1528  156.2865 H   0  0  0  0  0  0  0  0  0  0  0  0  # atno 8010 bound_to 7997
  140.6895  143.2927  151.3503 H   0  0  0  0  0  0  0  0  0  0  0  0  # atno 10167 bound_to 10162
  156.6823  130.5040  149.5967 H   0  0  0  0  0  0  0  0  0  0  0  0  # atno 10718 bound_to 10713
  154.8738  135.3781  154.4495 H   0  0  0  0  0  0  0  0  0  0  0  0  # atno 10763 bound_to 10752
  153.5172  135.7029  153.5755 H   0  0  0  0  0  0  0  0  0  0  0  0  # atno 10764 bound_to 10752
  153.4018  135.3946  155.1958 H   0  0  0  0  0  0  0  0  0  0  0  0  # atno 10765 bound_to 10752
  139.9200  134.7788  156.1690 H   0  0  0  0  0  0  0  0  0  0  0  0  # atno 11005 bound_to 11000
  144.7414  140.4951  143.6867 LP  0  0  0  0  0  0  0  0  0  0  0  0  # atno 17320 bound_to 7965
  145.5902  139.1495  143.3187 LP  0  0  0  0  0  0  0  0  0  0  0  0  # atno 17321 bound_to 7965
  139.6283  144.0770  152.2454 LP  0  0  0  0  0  0  0  0  0  0  0  0  # atno 17342 bound_to 10162
  140.0236  144.6134  150.7546 LP  0  0  0  0  0  0  0  0  0  0  0  0  # atno 17343 bound_to 10162
  156.1858  130.6528  151.1005 LP  0  0  0  0  0  0  0  0  0  0  0  0  # atno 17370 bound_to 10713
  157.7039  131.0764  150.6731 LP  0  0  0  0  0  0  0  0  0  0  0  0  # atno 17371 bound_to 10713
  141.0712  133.6796  156.2144 LP  0  0  0  0  0  0  0  0  0  0  0  0  # atno 17394 bound_to 11000
  140.6504  134.5073  157.5577 LP  0  0  0  0  0  0  0  0  0  0  0  0  # atno 17395 bound_to 11000

$$$$
