AV-unprocessed.smi:224|AV-procd|sdf|1718|dock4
  -GOLD-   2262020193D 1   1.00000     0.00000
 Structure written by MMmdl.
 56 59  0  0  0  0  0  0  0  0  2 V2000
  144.7850  132.6557  149.2510 C   0  0  0  0  0  0  0  0  0  0  0  0
  144.4549  133.7190  150.3091 C   0  0  1  0  0  0  0  0  0  0  0  0
  143.9339  134.8521  149.6473 O   0  0  0  0  0  0  0  0  0  0  0  0
  143.4141  133.2391  151.3424 C   0  0  0  0  0  0  0  0  0  0  0  0
  143.7670  133.6171  152.7416 N   0  3  1  0  0  0  0  0  0  0  0  0
  145.2449  133.6226  152.9420 C   0  0  0  0  0  0  0  0  0  0  0  0
  145.6383  133.9801  154.3843 C   0  0  0  0  0  0  0  0  0  0  0  0
  145.0116  135.2275  154.8045 N   0  0  0  0  0  0  0  0  0  0  0  0
  145.6440  136.4094  154.5740 C   0  0  0  0  0  0  0  0  0  0  0  0
  145.2522  137.1948  153.5352 N   0  0  0  0  0  0  0  0  0  0  0  0
  145.8601  138.3606  153.2987 C   0  0  0  0  0  0  0  0  0  0  0  0
  146.8714  138.9223  153.9617 N   0  0  0  0  0  0  0  0  0  0  0  0
  147.2819  138.1356  154.9968 C   0  0  0  0  0  0  0  0  0  0  0  0
  146.7268  136.8790  155.3721 C   0  0  0  0  0  0  0  0  0  0  0  0
  147.4119  136.3720  156.4703 N   0  0  0  0  0  0  0  0  0  0  0  0
  148.3140  137.2781  156.7321 C   0  0  0  0  0  0  0  0  0  0  0  0
  148.3130  138.3669  155.8904 N   0  0  0  0  0  0  0  0  0  0  0  0
  149.2139  139.5082  155.9453 C   0  0  0  0  0  0  0  0  0  0  0  0
  150.3727  139.4215  154.9246 C   0  0  1  0  0  0  0  0  0  0  0  0
  150.0835  140.2738  153.8294 O   0  0  0  0  0  0  0  0  0  0  0  0
  151.7361  139.8066  155.4905 C   0  0  0  0  0  0  0  0  0  0  0  0
  152.6936  138.9498  154.6746 C   0  0  0  0  0  0  0  0  0  0  0  0
  151.9954  137.7208  154.5669 O   0  0  0  0  0  0  0  0  0  0  0  0
  150.6097  137.9970  154.3842 C   0  0  0  0  0  0  0  0  0  0  0  0
  143.5614  135.2205  154.6644 C   0  0  0  0  0  0  0  0  0  0  0  0
  143.1224  134.8837  153.2206 C   0  0  2  0  0  0  0  0  0  0  0  0
  141.5809  134.8241  153.1934 C   0  0  0  0  0  0  0  0  0  0  0  0
  145.2321  131.7712  149.7054 H   0  0  0  0  0  0  0  0  0  0  0  0
  145.4960  133.0390  148.5182 H   0  0  0  0  0  0  0  0  0  0  0  0
  143.8916  132.3371  148.7128 H   0  0  0  0  0  0  0  0  0  0  0  0
  145.3732  134.0402  150.7983 H   0  0  0  0  0  0  0  0  0  0  0  0
  142.9950  134.7637  149.5821 H   0  0  0  0  0  0  0  0  0  0  0  0
  142.4265  133.6380  151.1042 H   0  0  0  0  0  0  0  0  0  0  0  0
  143.3286  132.1617  151.2279 H   0  0  0  0  0  0  0  0  0  0  0  0
  145.6690  132.6482  152.7061 H   0  0  0  0  0  0  0  0  0  0  0  0
  145.6963  134.3319  152.2472 H   0  0  0  0  0  0  0  0  0  0  0  0
  145.3076  133.1904  155.0598 H   0  0  0  0  0  0  0  0  0  0  0  0
  146.7230  134.0317  154.4893 H   0  0  0  0  0  0  0  0  0  0  0  0
  145.4830  138.9238  152.4577 H   0  0  0  0  0  0  0  0  0  0  0  0
  149.0174  137.1721  157.5455 H   0  0  0  0  0  0  0  0  0  0  0  0
  148.6299  140.4135  155.7754 H   0  0  0  0  0  0  0  0  0  0  0  0
  149.6086  139.5860  156.9593 H   0  0  0  0  0  0  0  0  0  0  0  0
  149.1478  140.3989  153.7870 H   0  0  0  0  0  0  0  0  0  0  0  0
  151.9536  140.8741  155.4341 H   0  0  0  0  0  0  0  0  0  0  0  0
  151.8091  139.5075  156.5366 H   0  0  0  0  0  0  0  0  0  0  0  0
  152.8523  139.3731  153.6817 H   0  0  0  0  0  0  0  0  0  0  0  0
  153.6630  138.8220  155.1566 H   0  0  0  0  0  0  0  0  0  0  0  0
  150.0289  137.2481  154.9236 H   0  0  0  0  0  0  0  0  0  0  0  0
  150.3522  137.9088  153.3273 H   0  0  0  0  0  0  0  0  0  0  0  0
  143.1619  134.4771  155.3556 H   0  0  0  0  0  0  0  0  0  0  0  0
  143.1260  136.1722  154.9654 H   0  0  0  0  0  0  0  0  0  0  0  0
  143.4493  135.6949  152.5676 H   0  0  0  0  0  0  0  0  0  0  0  0
  141.1516  135.6832  153.7104 H   0  0  0  0  0  0  0  0  0  0  0  0
  141.2089  133.9265  153.6890 H   0  0  0  0  0  0  0  0  0  0  0  0
  141.1725  134.8510  152.1845 H   0  0  0  0  0  0  0  0  0  0  0  0
  143.3994  132.8869  153.3345 H   0  0  0  0  0  0  0  0  0  0  0  0
  1  2  1  0  0  0  0
  1 28  1  0  0  0  0
  1 29  1  0  0  0  0
  1 30  1  0  0  0  0
  2  3  1  0  0  0  0
  2  4  1  0  0  0  0
  2 31  1  0  0  0  0
  3 32  1  0  0  0  0
  4  5  1  0  0  0  0
  4 33  1  0  0  0  0
  4 34  1  0  0  0  0
  5 26  1  0  0  0  0
  5  6  1  0  0  0  0
  5 56  1  0  0  0  0
  6  7  1  0  0  0  0
  6 35  1  0  0  0  0
  6 36  1  0  0  0  0
  7  8  1  0  0  0  0
  7 37  1  0  0  0  0
  7 38  1  0  0  0  0
  8  9  1  0  0  0  0
  8 25  1  0  0  0  0
  9 14  1  0  0  0  0
  9 10  2  0  0  0  0
 10 11  1  0  0  0  0
 11 12  2  0  0  0  0
 11 39  1  0  0  0  0
 12 13  1  0  0  0  0
 13 17  1  0  0  0  0
 13 14  2  0  0  0  0
 14 15  1  0  0  0  0
 15 16  2  0  0  0  0
 16 17  1  0  0  0  0
 16 40  1  0  0  0  0
 17 18  1  0  0  0  0
 18 19  1  0  0  0  0
 18 41  1  0  0  0  0
 18 42  1  0  0  0  0
 19 24  1  0  0  0  0
 19 20  1  0  0  0  0
 19 21  1  0  0  0  0
 20 43  1  0  0  0  0
 21 22  1  0  0  0  0
 21 44  1  0  0  0  0
 21 45  1  0  0  0  0
 22 23  1  0  0  0  0
 22 46  1  0  0  0  0
 22 47  1  0  0  0  0
 23 24  1  0  0  0  0
 24 48  1  0  0  0  0
 24 49  1  0  0  0  0
 25 26  1  0  0  0  0
 25 50  1  0  0  0  0
 25 51  1  0  0  0  0
 26 27  1  0  0  0  0
 26 52  1  0  0  0  0
 27 53  1  0  0  0  0
 27 54  1  0  0  0  0
 27 55  1  0  0  0  0
M  CHG  1   5   1
M  END
> <s_m_source_file>
AV-unprocessed.smi

> <i_m_source_file_index>
224

> <i_lp_mmshare_version>
43012

> <i_f3d_flags>
0

> <s_epik_input>
W0NIM11bQ0BIXShbT0hdKVtDSDJdTjFbQ0gyXVtDSDJdTihbQ0gyXVtDQEhdMVtDSDNdKWMobltjSF1uMiljKGMyMyluW2NIXW4zW0NIMl1bQ0BAXTQoW09IXSlbQ0gyXVtDSDJdT1tDSDJdNA==

> <s_epik_cmdline>
J2VwaWtfcHl0aG9uJywgJy1waCcsICc3LjAnLCAnLXRuJywgJzgnLCAnLW1hJywgJzIwMCcsICctbWV0YWxfYmluZGluZycsICctaW1hZScsICc8aW5maWxlLm1hZT4nLCAnLW9tYWUnLCAnPG91dGZpbGUubWFlPic=

> <r_lp_tautomer_probability>
1

> <r_epik_Ionization_Penalty>
0.00516958

> <r_epik_Ionization_Penalty_Charging>
0.00509693

> <r_epik_Ionization_Penalty_Neutral>
7.26542e-05

> <r_epik_State_Penalty>
-0

> <r_epik_Charging_Adjusted_Penalty>
0.00509693

> <i_epik_Tot_Q>
1

> <i_epik_Tot_abs_Q>
1

> <r_epik_Metal_State_Penalty>
-0

> <b_epik_Metal_Only>
0

> <s_lp_Force_Field>
OPLS_2005

> <r_lp_Energy>
49.0033

> <b_lp_Chiralities_Consistent>
1

> <s_lp_Variant>
AV-unprocessed.smi:224-12

> <Gold.Version>
5.8.1

> <Gold.Id.Protein>
6NUR|6NUR_protein|mol2

> <Gold.PLP.Fitness>
48.8631

> <Gold.PLP.PLP>
-37.0353

> <Gold.PLP.part.hbond>
-5.9135

> <Gold.PLP.part.metal>
0.0000

> <Gold.PLP.part.buried>
-5.0547

> <Gold.PLP.part.nonpolar>
-25.9676

> <Gold.PLP.part.repulsive>
0.4695

> <Gold.PLP.ligand.clash>
0.0000

> <Gold.PLP.ligand.torsion>
2.7211

> <Gold.PLP.Chemscore.Hbond>
4.6960

> <Gold.PLP.Chemscore.CHOScore>
0.8916

> <Gold.PLP.Chemscore.Metal>
0.0000

> <Gold.Chemscore.Hbonds>
donor molecule, donor type, donor heavy atom, donor atom, acceptor molecule, acceptor atom, score
      L1  H     3    32       P1 10186  1.00
      L1  H     5    56       P1 10957  2.00
      P1  H  7989  7998       L1    20  0.77
      P1  H 10752 10764       L1    23  0.32
      L1  C    11    39       P1 10175  0.95

> <Gold.PLP.Chemscore.Internal.Correction>
0.5071

> <Gold.Rescore>
     Score         DG    S(hbond)    S(metal)    S(lipo)     H(rot)  DE(clash)    DE(int)     intcor
     14.26     -17.46       3.45        0.00      77.50       3.36       0.53       2.66       ----

> <Gold.Chemscore.Fitness>
14.2627

> <Gold.Chemscore.DG>
-17.4600

> <Gold.Chemscore.ZeroCoef>
-5.4800

> <Gold.Chemscore.Hbond>
3.4481

> <Gold.Chemscore.Metal>
0.0000

> <Gold.Chemscore.Lipo>
77.5029

> <Gold.Chemscore.Internal_Hbond>
0.0000

> <Gold.Chemscore.DEClash>
0.5343

> <Gold.Chemscore.DEInternal>
2.6630

> <Gold.Chemscore.Rot>
3.3611

> <Gold.Chemscore.Internal.Correction>
   9.000000E+99

> <Gold.Chemscore.Hbonds>
donor molecule, donor type, donor heavy atom, donor atom, acceptor molecule, acceptor atom, score
      L1  H     3    32       P1 10186  0.85
      L1  H     5    56       P1 10957  0.64
      P1  H  7989  7998       L1    20  0.26
      P1  H 10752 10764       L1    23  0.32

> <Gold.Chemscore.Hbond.Weighted>
-11.5167

> <Gold.Chemscore.Metal.Weighted>
-0.0000

> <Gold.Chemscore.Lipo.Weighted>
-9.0678

> <Gold.Chemscore.Internal_Hbond.Weighted>
0.0000

> <Gold.Chemscore.DEClash.Weighted>
0.5343

> <Gold.Chemscore.DEInternal.Weighted>
2.6630

> <Gold.Chemscore.Rot.Weighted>
8.6045

> <Gold.Chemscore.Internal.Correction.Weighted>
   9.000000E+99

> <Gold.Protein.RotatedTorsions>
[ 6907 6896 6895 6894 ] final  150.02 input  -60.11 | X-H torsion
[ 7974 7965 7964 7962 ] final  -90.71 input  175.53 | X-H torsion
[ 8008 7997 7996 7995 ] final  165.00 input   59.86 | X-H torsion
[ 10167 10162 10161 10158 ] final   94.60 input  -65.29 | X-H torsion
[ 10718 10713 10712 10709 ] final -120.55 input   66.30 | X-H torsion
[ 10763 10752 10751 10750 ] final  -73.28 input  -60.55 | X-H torsion
[ 11005 11000 10999 10996 ] final -174.78 input  -57.11 | X-H torsion

> <Gold.Protein.ActiveResidues>
 VAL166  LYS551  ARG553  GLY616  TRP617  ASP618  TYR619  PRO620  LYS621  CYS622 
 ASP623  PHE694  ASN695  SER759  ASP760  ASP761  ALA762  ILE779  LEU786  VAL792 
 PHE793  MET794  SER795  GLU796  ALA797  LYS798  CYS799  TRP800  GLU811  SER814 

> <Gold.Protein.RotatedAtoms>
  152.1201  133.4348  159.4671 H   0  0  0  0  0  0  0  0  0  0  0  0  # atno 6907 bound_to 6896
  150.6871  134.2545  159.4533 H   0  0  0  0  0  0  0  0  0  0  0  0  # atno 6908 bound_to 6896
  152.0421  134.9705  160.0624 H   0  0  0  0  0  0  0  0  0  0  0  0  # atno 6909 bound_to 6896
  145.4228  140.9552  143.2171 H   0  0  0  0  0  0  0  0  0  0  0  0  # atno 7974 bound_to 7965
  156.1836  140.1682  156.8228 H   0  0  0  0  0  0  0  0  0  0  0  0  # atno 8008 bound_to 7997
  154.5388  140.0741  156.8506 H   0  0  0  0  0  0  0  0  0  0  0  0  # atno 8009 bound_to 7997
  155.3257  140.3376  155.4242 H   0  0  0  0  0  0  0  0  0  0  0  0  # atno 8010 bound_to 7997
  139.8068  144.6790  150.9692 H   0  0  0  0  0  0  0  0  0  0  0  0  # atno 10167 bound_to 10162
  156.1267  130.6364  150.9554 H   0  0  0  0  0  0  0  0  0  0  0  0  # atno 10718 bound_to 10713
  154.4573  135.5902  153.6232 H   0  0  0  0  0  0  0  0  0  0  0  0  # atno 10763 bound_to 10752
  152.9819  135.6035  154.3530 H   0  0  0  0  0  0  0  0  0  0  0  0  # atno 10764 bound_to 10752
  154.3398  135.2842  155.2407 H   0  0  0  0  0  0  0  0  0  0  0  0  # atno 10765 bound_to 10752
  140.4707  134.6168  157.4881 H   0  0  0  0  0  0  0  0  0  0  0  0  # atno 11005 bound_to 11000
  144.8234  139.5752  143.6976 LP  0  0  0  0  0  0  0  0  0  0  0  0  # atno 17320 bound_to 7965
  146.2648  139.6493  142.9337 LP  0  0  0  0  0  0  0  0  0  0  0  0  # atno 17321 bound_to 7965
  140.7819  143.4225  151.0819 LP  0  0  0  0  0  0  0  0  0  0  0  0  # atno 17342 bound_to 10162
  139.7894  143.8240  152.3149 LP  0  0  0  0  0  0  0  0  0  0  0  0  # atno 17343 bound_to 10162
  157.6448  131.0905  150.8176 LP  0  0  0  0  0  0  0  0  0  0  0  0  # atno 17370 bound_to 10713
  156.8266  130.5002  149.5336 LP  0  0  0  0  0  0  0  0  0  0  0  0  # atno 17371 bound_to 10713
  139.9887  134.7020  155.9728 LP  0  0  0  0  0  0  0  0  0  0  0  0  # atno 17394 bound_to 11000
  141.1578  133.6541  156.4219 LP  0  0  0  0  0  0  0  0  0  0  0  0  # atno 17395 bound_to 11000

$$$$
