AV-unprocessed.smi:837|AV-procd|sdf|3897|dock4
  -GOLD-   22720 1353D 1   1.00000     0.00000
 Structure written by MMmdl.
 50 52  0  0  0  0  0  0  0  0  2 V2000
  145.8645  133.9623  159.0561 C   0  0  0  0  0  0  0  0  0  0  0  0
  146.0914  134.5767  160.4534 C   0  0  1  0  0  0  0  0  0  0  0  0
  146.9858  133.6590  161.3150 C   0  0  0  0  0  0  0  0  0  0  0  0
  147.1470  134.2018  162.7434 C   0  0  0  0  0  0  0  0  0  0  0  0
  147.6987  135.6343  162.7417 C   0  0  0  0  0  0  0  0  0  0  0  0
  146.8213  136.5675  161.8883 C   0  0  0  0  0  0  0  0  0  0  0  0
  146.6096  136.0499  160.4427 C   0  0  2  0  0  0  0  0  0  0  0  0
  145.6861  136.9264  159.7432 N   0  0  0  0  0  0  0  0  0  0  0  0
  146.2404  137.5527  158.6985 C   0  0  0  0  0  0  0  0  0  0  0  0
  145.6645  138.3563  157.9660 O   0  0  0  0  0  0  0  0  0  0  0  0
  147.5201  137.1534  158.5970 N   0  0  0  0  0  0  0  0  0  0  0  0
  148.4575  137.6477  157.5805 C   0  0  0  0  0  0  0  0  0  0  0  0
  149.6920  138.3253  158.1901 C   0  0  0  0  0  0  0  0  0  0  0  0
  150.1973  137.8994  159.2294 O   0  0  0  0  0  0  0  0  0  0  0  0
  150.1680  139.3883  157.5249 N   0  0  0  0  0  0  0  0  0  0  0  0
  151.3104  140.1989  157.9376 C   0  0  0  0  0  0  0  0  0  0  0  0
  151.5412  141.4302  157.0366 C   0  0  0  0  0  0  0  0  0  0  0  0
  151.4694  142.7538  157.7792 C   0  0  0  0  0  0  0  0  0  0  0  0
  152.4451  143.0918  158.7437 C   0  0  0  0  0  0  0  0  0  0  0  0
  152.3476  144.3227  159.4249 C   0  0  0  0  0  0  0  0  0  0  0  0
  151.2791  145.1911  159.1230 C   0  0  0  0  0  0  0  0  0  0  0  0
  150.3665  144.8358  158.1921 N   0  3  0  0  0  0  0  0  0  0  0  0
  150.4231  143.6650  157.5197 C   0  0  0  0  0  0  0  0  0  0  0  0
  147.8410  136.2830  159.5643 C   0  0  0  0  0  0  0  0  0  0  0  0
  148.9368  135.7498  159.7393 O   0  0  0  0  0  0  0  0  0  0  0  0
  146.7979  133.8572  158.5029 H   0  0  0  0  0  0  0  0  0  0  0  0
  145.1852  134.5670  158.4554 H   0  0  0  0  0  0  0  0  0  0  0  0
  145.4229  132.9689  159.1373 H   0  0  0  0  0  0  0  0  0  0  0  0
  145.1116  134.5952  160.9336 H   0  0  0  0  0  0  0  0  0  0  0  0
  146.5525  132.6593  161.3609 H   0  0  0  0  0  0  0  0  0  0  0  0
  147.9666  133.5403  160.8540 H   0  0  0  0  0  0  0  0  0  0  0  0
  146.1814  134.1842  163.2505 H   0  0  0  0  0  0  0  0  0  0  0  0
  147.8077  133.5502  163.3156 H   0  0  0  0  0  0  0  0  0  0  0  0
  147.7489  136.0102  163.7638 H   0  0  0  0  0  0  0  0  0  0  0  0
  148.7234  135.6338  162.3703 H   0  0  0  0  0  0  0  0  0  0  0  0
  145.8514  136.6797  162.3751 H   0  0  0  0  0  0  0  0  0  0  0  0
  147.2639  137.5650  161.8761 H   0  0  0  0  0  0  0  0  0  0  0  0
  144.7282  137.0511  160.0369 H   0  0  0  0  0  0  0  0  0  0  0  0
  148.7928  136.8318  156.9382 H   0  0  0  0  0  0  0  0  0  0  0  0
  147.9421  138.3501  156.9225 H   0  0  0  0  0  0  0  0  0  0  0  0
  149.6995  139.6609  156.6728 H   0  0  0  0  0  0  0  0  0  0  0  0
  151.1964  140.5047  158.9788 H   0  0  0  0  0  0  0  0  0  0  0  0
  152.1901  139.5559  157.9009 H   0  0  0  0  0  0  0  0  0  0  0  0
  152.5133  141.3527  156.5482 H   0  0  0  0  0  0  0  0  0  0  0  0
  150.8057  141.4368  156.2315 H   0  0  0  0  0  0  0  0  0  0  0  0
  153.2553  142.4127  158.9674 H   0  0  0  0  0  0  0  0  0  0  0  0
  153.0814  144.5936  160.1700 H   0  0  0  0  0  0  0  0  0  0  0  0
  151.1277  146.1510  159.5950 H   0  0  0  0  0  0  0  0  0  0  0  0
  149.6342  143.4936  156.8018 H   0  0  0  0  0  0  0  0  0  0  0  0
  149.6014  145.4794  157.9883 H   0  0  0  0  0  0  0  0  0  0  0  0
  1  2  1  0  0  0  0
  1 26  1  0  0  0  0
  1 27  1  0  0  0  0
  1 28  1  0  0  0  0
  2  7  1  0  0  0  0
  2  3  1  0  0  0  0
  2 29  1  0  0  0  0
  3  4  1  0  0  0  0
  3 30  1  0  0  0  0
  3 31  1  0  0  0  0
  4  5  1  0  0  0  0
  4 32  1  0  0  0  0
  4 33  1  0  0  0  0
  5  6  1  0  0  0  0
  5 34  1  0  0  0  0
  5 35  1  0  0  0  0
  6  7  1  0  0  0  0
  6 36  1  0  0  0  0
  6 37  1  0  0  0  0
  7 24  1  0  0  0  0
  7  8  1  0  0  0  0
  8  9  1  0  0  0  0
  8 38  1  0  0  0  0
  9 10  2  0  0  0  0
  9 11  1  0  0  0  0
 11 12  1  0  0  0  0
 11 24  1  0  0  0  0
 12 13  1  0  0  0  0
 12 39  1  0  0  0  0
 12 40  1  0  0  0  0
 13 14  2  0  0  0  0
 13 15  1  0  0  0  0
 15 16  1  0  0  0  0
 15 41  1  0  0  0  0
 16 17  1  0  0  0  0
 16 42  1  0  0  0  0
 16 43  1  0  0  0  0
 17 18  1  0  0  0  0
 17 44  1  0  0  0  0
 17 45  1  0  0  0  0
 18 23  1  0  0  0  0
 18 19  2  0  0  0  0
 19 20  1  0  0  0  0
 19 46  1  0  0  0  0
 20 21  2  0  0  0  0
 20 47  1  0  0  0  0
 21 22  1  0  0  0  0
 21 48  1  0  0  0  0
 22 23  2  0  0  0  0
 22 50  1  0  0  0  0
 23 49  1  0  0  0  0
 24 25  2  0  0  0  0
M  CHG  1  22   1
M  END
> <s_m_source_file>
AV-unprocessed.smi

> <i_m_source_file_index>
837

> <i_lp_mmshare_version>
43012

> <i_f3d_flags>
0

> <s_epik_input>
W0NIMl0xW0NIMl1bQ0gyXVtDSDJdW0NAQEhdKFtDSDNdKVtDQEBdMTJbTkhdQyg9TylOKEMyPU8pW0NIMl1DKD1PKVtOSF1bQ0gyXVtDSDJdYzNbY0hdW2NIXVtjSF1uW2NIXTM=

> <s_epik_cmdline>
J2VwaWtfcHl0aG9uJywgJy1waCcsICc3LjAnLCAnLXRuJywgJzgnLCAnLW1hJywgJzIwMCcsICctbWV0YWxfYmluZGluZycsICctaW1hZScsICc8aW5maWxlLm1hZT4nLCAnLW9tYWUnLCAnPG91dGZpbGUubWFlPic=

> <r_lp_tautomer_probability>
1

> <r_epik_Ionization_Penalty>
2.28139

> <r_epik_Ionization_Penalty_Charging>
2.28135

> <r_epik_Ionization_Penalty_Neutral>
4.65525e-05

> <r_epik_State_Penalty>
2.43066

> <r_epik_Charging_Adjusted_Penalty>
4.71201

> <i_epik_Tot_Q>
1

> <i_epik_Tot_abs_Q>
1

> <r_epik_Metal_State_Penalty>
2.4646

> <b_epik_Metal_Only>
0

> <s_lp_Force_Field>
OPLS_2005

> <r_lp_Energy>
25.3405

> <b_lp_Chiralities_Consistent>
1

> <s_lp_Variant>
AV-unprocessed.smi:837-6

> <Gold.Version>
5.8.1

> <Gold.Id.Protein>
6NUR|6NUR_protein|mol2

> <Gold.PLP.Fitness>
46.2292

> <Gold.PLP.PLP>
-38.7690

> <Gold.PLP.part.hbond>
-3.9335

> <Gold.PLP.part.metal>
0.0000

> <Gold.PLP.part.buried>
-3.3540

> <Gold.PLP.part.nonpolar>
-33.3722

> <Gold.PLP.part.repulsive>
0.3062

> <Gold.PLP.ligand.clash>
0.0000

> <Gold.PLP.ligand.torsion>
0.7743

> <Gold.PLP.Chemscore.Hbond>
2.9913

> <Gold.PLP.Chemscore.CHOScore>
0.0000

> <Gold.PLP.Chemscore.Metal>
0.0000

> <Gold.Chemscore.Hbonds>
donor molecule, donor type, donor heavy atom, donor atom, acceptor molecule, acceptor atom, score
      L1  H    22    50       P1  8029  2.00
      P1  H  6896  6907       L1    25  0.88

> <Gold.PLP.Chemscore.Internal.Correction>
0.0350

> <Gold.Rescore>
     Score         DG    S(hbond)    S(metal)    S(lipo)     H(rot)  DE(clash)    DE(int)     intcor
     15.59     -19.52       1.83        0.00     110.66       1.96       0.28       3.66       ----

> <Gold.Chemscore.Fitness>
15.5856

> <Gold.Chemscore.DG>
-19.5206

> <Gold.Chemscore.ZeroCoef>
-5.4800

> <Gold.Chemscore.Hbond>
1.8327

> <Gold.Chemscore.Metal>
0.0000

> <Gold.Chemscore.Lipo>
110.6575

> <Gold.Chemscore.Internal_Hbond>
0.0000

> <Gold.Chemscore.DEClash>
0.2790

> <Gold.Chemscore.DEInternal>
3.6559

> <Gold.Chemscore.Rot>
1.9638

> <Gold.Chemscore.Internal.Correction>
   9.000000E+99

> <Gold.Chemscore.Hbonds>
donor molecule, donor type, donor heavy atom, donor atom, acceptor molecule, acceptor atom, score
      L1  H    22    50       P1  8029  0.25
      P1  H  6896  6907       L1    25  0.84

> <Gold.Chemscore.Hbond.Weighted>
-6.1211

> <Gold.Chemscore.Metal.Weighted>
-0.0000

> <Gold.Chemscore.Lipo.Weighted>
-12.9469

> <Gold.Chemscore.Internal_Hbond.Weighted>
0.0000

> <Gold.Chemscore.DEClash.Weighted>
0.2790

> <Gold.Chemscore.DEInternal.Weighted>
3.6559

> <Gold.Chemscore.Rot.Weighted>
5.0274

> <Gold.Chemscore.Internal.Correction.Weighted>
   9.000000E+99

> <Gold.Protein.RotatedTorsions>
[ 6907 6896 6895 6894 ] final  -66.68 input  -60.11 | X-H torsion
[ 7974 7965 7964 7962 ] final  143.62 input  175.53 | X-H torsion
[ 8008 7997 7996 7995 ] final  120.98 input   59.86 | X-H torsion
[ 10167 10162 10161 10158 ] final  101.46 input  -65.29 | X-H torsion
[ 10718 10713 10712 10709 ] final  146.92 input   66.30 | X-H torsion
[ 10763 10752 10751 10750 ] final   41.88 input  -60.55 | X-H torsion
[ 11005 11000 10999 10996 ] final  105.01 input  -57.11 | X-H torsion

> <Gold.Protein.ActiveResidues>
 VAL166  LYS551  ARG553  GLY616  TRP617  ASP618  TYR619  PRO620  LYS621  CYS622 
 ASP623  PHE694  ASN695  SER759  ASP760  ASP761  ALA762  ILE779  LEU786  VAL792 
 PHE793  MET794  SER795  GLU796  ALA797  LYS798  CYS799  TRP800  GLU811  SER814 

> <Gold.Protein.RotatedAtoms>
  150.7452  134.5987  159.6025 H   0  0  0  0  0  0  0  0  0  0  0  0  # atno 6907 bound_to 6896
  152.3355  134.7201  160.0287 H   0  0  0  0  0  0  0  0  0  0  0  0  # atno 6908 bound_to 6896
  151.7671  133.3302  159.3470 H   0  0  0  0  0  0  0  0  0  0  0  0  # atno 6909 bound_to 6896
  144.8905  139.5565  143.5800 H   0  0  0  0  0  0  0  0  0  0  0  0  # atno 7974 bound_to 7965
  156.2667  140.2818  156.1236 H   0  0  0  0  0  0  0  0  0  0  0  0  # atno 8008 bound_to 7997
  155.1129  140.0391  157.2746 H   0  0  0  0  0  0  0  0  0  0  0  0  # atno 8009 bound_to 7997
  154.6728  140.2591  155.6995 H   0  0  0  0  0  0  0  0  0  0  0  0  # atno 8010 bound_to 7997
  139.7436  144.7004  151.0539 H   0  0  0  0  0  0  0  0  0  0  0  0  # atno 10167 bound_to 10162
  157.3273  131.0914  151.1191 H   0  0  0  0  0  0  0  0  0  0  0  0  # atno 10718 bound_to 10713
  152.9897  135.6148  154.2859 H   0  0  0  0  0  0  0  0  0  0  0  0  # atno 10763 bound_to 10752
  154.2586  135.2783  155.2789 H   0  0  0  0  0  0  0  0  0  0  0  0  # atno 10764 bound_to 10752
  154.5225  135.5810  153.6750 H   0  0  0  0  0  0  0  0  0  0  0  0  # atno 10765 bound_to 10752
  139.8797  134.9320  156.5448 H   0  0  0  0  0  0  0  0  0  0  0  0  # atno 11005 bound_to 11000
  146.3051  139.7553  142.9062 LP  0  0  0  0  0  0  0  0  0  0  0  0  # atno 17320 bound_to 7965
  145.3791  141.0355  143.3188 LP  0  0  0  0  0  0  0  0  0  0  0  0  # atno 17321 bound_to 7965
  140.7789  143.4895  150.9912 LP  0  0  0  0  0  0  0  0  0  0  0  0  # atno 17342 bound_to 10162
  139.8583  143.7348  152.3175 LP  0  0  0  0  0  0  0  0  0  0  0  0  # atno 17343 bound_to 10162
  157.2453  130.6589  149.5907 LP  0  0  0  0  0  0  0  0  0  0  0  0  # atno 17370 bound_to 10713
  155.9692  130.4555  150.5891 LP  0  0  0  0  0  0  0  0  0  0  0  0  # atno 17371 bound_to 10713
  140.8284  133.8299  155.8960 LP  0  0  0  0  0  0  0  0  0  0  0  0  # atno 17394 bound_to 11000
  140.9352  134.1971  157.4836 LP  0  0  0  0  0  0  0  0  0  0  0  0  # atno 17395 bound_to 11000

$$$$
