AV-unprocessed.smi:2070|AV-procd|sdf|8439|dock1
  -GOLD-   2272011133D 1   1.00000     0.00000
 Structure written by MMmdl.
 40 41  0  0  0  0  0  0  0  0  1 V2000
  153.3692  138.4399  154.3866 C   0  0  0  0  0  0  0  0  0  0  0  0
  151.9110  138.1267  154.5099 C   0  0  0  0  0  0  0  0  0  0  0  0
  150.8675  139.0097  154.3867 C   0  0  0  0  0  0  0  0  0  0  0  0
  149.3254  138.2277  154.5999 S   0  0  0  0  0  0  0  0  0  0  0  0
  150.1681  136.7058  154.8628 C   0  0  0  0  0  0  0  0  0  0  0  0
  149.4606  135.4099  155.1010 C   0  0  0  0  0  0  0  0  0  0  0  0
  147.9393  135.5590  155.2981 C   0  0  0  0  0  0  0  0  0  0  0  0
  147.2203  135.7043  154.0367 N   0  0  0  0  0  0  0  0  0  0  0  0
  145.9011  135.9263  153.9154 C   0  0  0  0  0  0  0  0  0  0  0  0
  145.1758  136.1054  154.8950 O   0  0  0  0  0  0  0  0  0  0  0  0
  145.4448  135.9446  152.6373 N   0  0  0  0  0  0  0  0  0  0  0  0
  146.2207  135.6069  151.4317 C   0  0  0  0  0  0  0  0  0  0  0  0
  145.8031  134.2041  150.9557 C   0  0  0  0  0  0  0  0  0  0  0  0
  144.2815  134.1383  150.6857 C   0  0  0  0  0  0  0  0  0  0  0  0
  143.8441  132.7085  150.3406 C   0  0  0  0  0  0  0  0  0  0  0  0
  142.5437  132.5083  150.1114 N   0  0  0  0  0  0  0  0  0  0  0  0
  144.6650  131.7952  150.2813 O   0  0  0  0  0  0  0  0  0  0  0  0
  143.4839  134.6894  151.8916 C   0  0  0  0  0  0  0  0  0  0  0  0
  144.0157  136.0679  152.3261 C   0  0  0  0  0  0  0  0  0  0  0  0
  151.4967  136.8179  154.7724 N   0  0  0  0  0  0  0  0  0  0  0  0
  153.6783  138.4660  153.3415 H   0  0  0  0  0  0  0  0  0  0  0  0
  153.9832  137.6958  154.8951 H   0  0  0  0  0  0  0  0  0  0  0  0
  153.6028  139.4105  154.8247 H   0  0  0  0  0  0  0  0  0  0  0  0
  150.9124  140.0693  154.1829 H   0  0  0  0  0  0  0  0  0  0  0  0
  149.6606  134.7470  154.2582 H   0  0  0  0  0  0  0  0  0  0  0  0
  149.9001  134.9300  155.9758 H   0  0  0  0  0  0  0  0  0  0  0  0
  147.5438  134.7157  155.8666 H   0  0  0  0  0  0  0  0  0  0  0  0
  147.7378  136.4515  155.8910 H   0  0  0  0  0  0  0  0  0  0  0  0
  147.7554  135.5759  153.1902 H   0  0  0  0  0  0  0  0  0  0  0  0
  146.0107  136.3415  150.6529 H   0  0  0  0  0  0  0  0  0  0  0  0
  147.3007  135.6431  151.5744 H   0  0  0  0  0  0  0  0  0  0  0  0
  146.3559  133.9417  150.0528 H   0  0  0  0  0  0  0  0  0  0  0  0
  146.0860  133.4735  151.7145 H   0  0  0  0  0  0  0  0  0  0  0  0
  144.0701  134.7801  149.8285 H   0  0  0  0  0  0  0  0  0  0  0  0
  142.2082  131.5850  149.8788 H   0  0  0  0  0  0  0  0  0  0  0  0
  141.9003  133.2843  150.1702 H   0  0  0  0  0  0  0  0  0  0  0  0
  142.4262  134.7678  151.6369 H   0  0  0  0  0  0  0  0  0  0  0  0
  143.5476  134.0011  152.7365 H   0  0  0  0  0  0  0  0  0  0  0  0
  143.4325  136.4449  153.1673 H   0  0  0  0  0  0  0  0  0  0  0  0
  143.8785  136.7945  151.5240 H   0  0  0  0  0  0  0  0  0  0  0  0
  1  2  1  0  0  0  0
  1 21  1  0  0  0  0
  1 22  1  0  0  0  0
  1 23  1  0  0  0  0
  2 20  1  0  0  0  0
  2  3  2  0  0  0  0
  3  4  1  0  0  0  0
  3 24  1  0  0  0  0
  4  5  1  0  0  0  0
  5  6  1  0  0  0  0
  5 20  2  0  0  0  0
  6  7  1  0  0  0  0
  6 25  1  0  0  0  0
  6 26  1  0  0  0  0
  7  8  1  0  0  0  0
  7 27  1  0  0  0  0
  7 28  1  0  0  0  0
  8  9  1  0  0  0  0
  8 29  1  0  0  0  0
  9 10  2  0  0  0  0
  9 11  1  0  0  0  0
 11 19  1  0  0  0  0
 11 12  1  0  0  0  0
 12 13  1  0  0  0  0
 12 30  1  0  0  0  0
 12 31  1  0  0  0  0
 13 14  1  0  0  0  0
 13 32  1  0  0  0  0
 13 33  1  0  0  0  0
 14 15  1  0  0  0  0
 14 18  1  0  0  0  0
 14 34  1  0  0  0  0
 15 16  1  0  0  0  0
 15 17  2  0  0  0  0
 16 35  1  0  0  0  0
 16 36  1  0  0  0  0
 18 19  1  0  0  0  0
 18 37  1  0  0  0  0
 18 38  1  0  0  0  0
 19 39  1  0  0  0  0
 19 40  1  0  0  0  0
M  END
> <s_m_source_file>
AV-unprocessed.smi

> <i_m_source_file_index>
2070

> <i_lp_mmshare_version>
43012

> <i_f3d_flags>
0

> <s_epik_input>
W0NIM11jMVtjSF1zYyhuMSlbQ0gyXVtDSDJdW05IXUMoPU8pTjJbQ0gyXVtDSDJdW0NIXShDKD1PKVtOSDJdKVtDSDJdW0NIMl0y

> <s_epik_cmdline>
J2VwaWtfcHl0aG9uJywgJy1waCcsICc3LjAnLCAnLXRuJywgJzgnLCAnLW1hJywgJzIwMCcsICctbWV0YWxfYmluZGluZycsICctaW1hZScsICc8aW5maWxlLm1hZT4nLCAnLW9tYWUnLCAnPG91dGZpbGUubWFlPic=

> <r_epik_Ionization_Penalty>
0.00203811

> <r_epik_Ionization_Penalty_Charging>
0

> <r_epik_Ionization_Penalty_Neutral>
0.00203811

> <r_epik_State_Penalty>
0.00135523

> <r_epik_Charging_Adjusted_Penalty>
0.00135523

> <i_epik_Tot_Q>
0

> <i_epik_Tot_abs_Q>
0

> <r_epik_Metal_State_Penalty>
-0

> <b_epik_Metal_Only>
0

> <s_lp_Force_Field>
OPLS_2005

> <r_lp_Energy>
19.595

> <b_lp_Chiralities_Consistent>
1

> <s_lp_Variant>
AV-unprocessed.smi:2070-1

> <Gold.Version>
5.8.1

> <Gold.Id.Protein>
6NUR|6NUR_protein|mol2

> <Gold.PLP.Fitness>
43.5249

> <Gold.PLP.PLP>
-31.9603

> <Gold.PLP.part.hbond>
-4.0000

> <Gold.PLP.part.metal>
0.0000

> <Gold.PLP.part.buried>
-3.6022

> <Gold.PLP.part.nonpolar>
-25.4363

> <Gold.PLP.part.repulsive>
0.3841

> <Gold.PLP.ligand.clash>
0.0000

> <Gold.PLP.ligand.torsion>
0.1958

> <Gold.PLP.Chemscore.Hbond>
3.9600

> <Gold.PLP.Chemscore.CHOScore>
0.0000

> <Gold.PLP.Chemscore.Metal>
0.0000

> <Gold.Chemscore.Hbonds>
donor molecule, donor type, donor heavy atom, donor atom, acceptor molecule, acceptor atom, score
      L1  H     8    29       P1  7948  1.00
      L1  H    16    35       P1 10952  1.00
      L1  H    16    36       P1 10186  1.00
      P1  H 10752 10763       L1    20  1.00

> <Gold.PLP.Chemscore.Internal.Correction>
0.0763

> <Gold.Rescore>
     Score         DG    S(hbond)    S(metal)    S(lipo)     H(rot)  DE(clash)    DE(int)     intcor
     19.80     -21.27       3.73        0.00      71.26       1.95       1.30       0.17       ----

> <Gold.Chemscore.Fitness>
19.7996

> <Gold.Chemscore.DG>
-21.2736

> <Gold.Chemscore.ZeroCoef>
-5.4800

> <Gold.Chemscore.Hbond>
3.7264

> <Gold.Chemscore.Metal>
0.0000

> <Gold.Chemscore.Lipo>
71.2613

> <Gold.Chemscore.Internal_Hbond>
0.0000

> <Gold.Chemscore.DEClash>
1.2998

> <Gold.Chemscore.DEInternal>
0.1742

> <Gold.Chemscore.Rot>
1.9492

> <Gold.Chemscore.Internal.Correction>
   9.000000E+99

> <Gold.Chemscore.Hbonds>
donor molecule, donor type, donor heavy atom, donor atom, acceptor molecule, acceptor atom, score
      L1  H     8    29       P1  7948  0.96
      L1  H    16    35       P1 10952  0.92
      L1  H    16    36       P1 10186  0.94
      P1  H 10752 10763       L1    20  0.78

> <Gold.Chemscore.Hbond.Weighted>
-12.4460

> <Gold.Chemscore.Metal.Weighted>
-0.0000

> <Gold.Chemscore.Lipo.Weighted>
-8.3376

> <Gold.Chemscore.Internal_Hbond.Weighted>
0.0000

> <Gold.Chemscore.DEClash.Weighted>
1.2998

> <Gold.Chemscore.DEInternal.Weighted>
0.1742

> <Gold.Chemscore.Rot.Weighted>
4.9900

> <Gold.Chemscore.Internal.Correction.Weighted>
   9.000000E+99

> <Gold.Protein.RotatedTorsions>
[ 6907 6896 6895 6894 ] final  -49.96 input  -60.11 | X-H torsion
[ 7974 7965 7964 7962 ] final -156.24 input  175.53 | X-H torsion
[ 8008 7997 7996 7995 ] final  153.62 input   59.86 | X-H torsion
[ 10167 10162 10161 10158 ] final  135.70 input  -65.29 | X-H torsion
[ 10718 10713 10712 10709 ] final  104.09 input   66.30 | X-H torsion
[ 10763 10752 10751 10750 ] final   61.15 input  -60.55 | X-H torsion
[ 11005 11000 10999 10996 ] final   69.83 input  -57.11 | X-H torsion

> <Gold.Protein.ActiveResidues>
 VAL166  LYS551  ARG553  GLY616  TRP617  ASP618  TYR619  PRO620  LYS621  CYS622 
 ASP623  PHE694  ASN695  SER759  ASP760  ASP761  ALA762  ILE779  LEU786  VAL792 
 PHE793  MET794  SER795  GLU796  ALA797  LYS798  CYS799  TRP800  GLU811  SER814 

> <Gold.Protein.RotatedAtoms>
  150.8753  134.8135  159.7185 H   0  0  0  0  0  0  0  0  0  0  0  0  # atno 6907 bound_to 6896
  152.4742  134.4881  159.9696 H   0  0  0  0  0  0  0  0  0  0  0  0  # atno 6908 bound_to 6896
  151.4963  133.3475  159.2897 H   0  0  0  0  0  0  0  0  0  0  0  0  # atno 6909 bound_to 6896
  144.7602  140.4137  143.5982 H   0  0  0  0  0  0  0  0  0  0  0  0  # atno 7974 bound_to 7965
  156.2572  140.1988  156.6519 H   0  0  0  0  0  0  0  0  0  0  0  0  # atno 8008 bound_to 7997
  154.6530  140.0569  157.0002 H   0  0  0  0  0  0  0  0  0  0  0  0  # atno 8009 bound_to 7997
  155.1389  140.3241  155.4459 H   0  0  0  0  0  0  0  0  0  0  0  0  # atno 8010 bound_to 7997
  139.5207  144.6503  151.5320 H   0  0  0  0  0  0  0  0  0  0  0  0  # atno 10167 bound_to 10162
  157.6752  131.0795  150.5653 H   0  0  0  0  0  0  0  0  0  0  0  0  # atno 10718 bound_to 10713
  152.9942  135.5511  154.5987 H   0  0  0  0  0  0  0  0  0  0  0  0  # atno 10763 bound_to 10752
  154.5333  135.2815  155.1162 H   0  0  0  0  0  0  0  0  0  0  0  0  # atno 10764 bound_to 10752
  154.2469  135.6406  153.5279 H   0  0  0  0  0  0  0  0  0  0  0  0  # atno 10765 bound_to 10752
  139.9632  134.7026  156.0602 H   0  0  0  0  0  0  0  0  0  0  0  0  # atno 11005 bound_to 11000
  145.6644  139.1587  143.2790 LP  0  0  0  0  0  0  0  0  0  0  0  0  # atno 17320 bound_to 7965
  146.1657  140.6721  142.9256 LP  0  0  0  0  0  0  0  0  0  0  0  0  # atno 17321 bound_to 7965
  140.6305  143.9084  150.6602 LP  0  0  0  0  0  0  0  0  0  0  0  0  # atno 17342 bound_to 10162
  140.2387  143.3680  152.1505 LP  0  0  0  0  0  0  0  0  0  0  0  0  # atno 17343 bound_to 10162
  156.5955  130.4340  149.5918 LP  0  0  0  0  0  0  0  0  0  0  0  0  # atno 17370 bound_to 10713
  156.2548  130.6928  151.1678 LP  0  0  0  0  0  0  0  0  0  0  0  0  # atno 17371 bound_to 10713
  141.1310  133.6586  156.3465 LP  0  0  0  0  0  0  0  0  0  0  0  0  # atno 17394 bound_to 11000
  140.5454  134.6079  157.5392 LP  0  0  0  0  0  0  0  0  0  0  0  0  # atno 17395 bound_to 11000

$$$$
