AV-unprocessed.smi:1749|AV-procd|sdf|7048|dock8
  -GOLD-   22720 8263D 1   1.00000     0.00000
 Structure written by MMmdl.
 31 32  0  0  0  0  0  0  0  0  2 V2000
  151.7101  145.2733  159.4297 C   0  0  0  0  0  0  0  0  0  0  0  0
  152.0067  143.8946  160.0365 C   0  0  2  0  0  0  0  0  0  0  0  0
  152.2412  143.9865  161.5565 C   0  0  0  0  0  0  0  0  0  0  0  0
  152.5440  142.6085  162.1660 C   0  0  0  0  0  0  0  0  0  0  0  0
  153.7430  141.9410  161.4711 C   0  0  0  0  0  0  0  0  0  0  0  0
  153.5439  141.8410  159.9444 C   0  0  1  0  0  0  0  0  0  0  0  0
  152.4887  140.8865  159.6112 N   0  0  0  0  0  0  0  0  0  0  0  0
  152.6207  139.7446  158.9088 C   0  0  0  0  0  0  0  0  0  0  0  0
  153.7279  139.4401  158.4671 O   0  0  0  0  0  0  0  0  0  0  0  0
  151.5092  138.9833  158.7280 N   0  5  0  0  0  0  0  0  0  0  0  0
  151.5290  137.8303  158.0331 C   0  0  0  0  0  0  0  0  0  0  0  0
  152.6584  137.3211  157.5143 N   0  0  0  0  0  0  0  0  0  0  0  0
  152.4598  136.1191  156.8490 N   0  0  0  0  0  0  0  0  0  0  0  0
  151.1775  135.7565  156.8729 C   0  0  0  0  0  0  0  0  0  0  0  0
  150.0962  136.8498  157.7107 S   0  0  0  0  0  0  0  0  0  0  0  0
  153.2108  143.2213  159.3435 C   0  0  0  0  0  0  0  0  0  0  0  0
  152.5513  145.9544  159.5619 H   0  0  0  0  0  0  0  0  0  0  0  0
  150.8362  145.7279  159.8969 H   0  0  0  0  0  0  0  0  0  0  0  0
  151.5087  145.1957  158.3609 H   0  0  0  0  0  0  0  0  0  0  0  0
  151.1259  143.2725  159.8704 H   0  0  0  0  0  0  0  0  0  0  0  0
  153.0717  144.6637  161.7613 H   0  0  0  0  0  0  0  0  0  0  0  0
  151.3655  144.4162  162.0440 H   0  0  0  0  0  0  0  0  0  0  0  0
  152.7447  142.7110  163.2327 H   0  0  0  0  0  0  0  0  0  0  0  0
  151.6649  141.9683  162.0800 H   0  0  0  0  0  0  0  0  0  0  0  0
  154.6422  142.5232  161.6758 H   0  0  0  0  0  0  0  0  0  0  0  0
  153.9202  140.9535  161.8988 H   0  0  0  0  0  0  0  0  0  0  0  0
  154.4742  141.4953  159.4904 H   0  0  0  0  0  0  0  0  0  0  0  0
  151.5671  141.1015  159.9623 H   0  0  0  0  0  0  0  0  0  0  0  0
  150.8659  134.8411  156.3920 H   0  0  0  0  0  0  0  0  0  0  0  0
  153.0199  143.1217  158.2739 H   0  0  0  0  0  0  0  0  0  0  0  0
  154.0851  143.8673  159.4350 H   0  0  0  0  0  0  0  0  0  0  0  0
  1  2  1  0  0  0  0
  1 17  1  0  0  0  0
  1 18  1  0  0  0  0
  1 19  1  0  0  0  0
  2 16  1  0  0  0  0
  2  3  1  0  0  0  0
  2 20  1  0  0  0  0
  3  4  1  0  0  0  0
  3 21  1  0  0  0  0
  3 22  1  0  0  0  0
  4  5  1  0  0  0  0
  4 23  1  0  0  0  0
  4 24  1  0  0  0  0
  5  6  1  0  0  0  0
  5 25  1  0  0  0  0
  5 26  1  0  0  0  0
  6  7  1  0  0  0  0
  6 16  1  0  0  0  0
  6 27  1  0  0  0  0
  7  8  1  0  0  0  0
  7 28  1  0  0  0  0
  8  9  2  0  0  0  0
  8 10  1  0  0  0  0
 10 11  1  0  0  0  0
 11 15  1  0  0  0  0
 11 12  2  0  0  0  0
 12 13  1  0  0  0  0
 13 14  2  0  0  0  0
 14 15  1  0  0  0  0
 14 29  1  0  0  0  0
 16 30  1  0  0  0  0
 16 31  1  0  0  0  0
M  CHG  1  10  -1
M  END
> <s_m_source_file>
AV-unprocessed.smi

> <i_m_source_file_index>
1749

> <i_lp_mmshare_version>
43012

> <i_f3d_flags>
0

> <s_epik_input>
W0NIM11bQ0BASF0xW0NIMl1bQ0gyXVtDSDJdW0NASF0oW0NIMl0xKVtOSF1DKD1PKVtOSF1jMm5uW2NIXXMy

> <s_epik_cmdline>
J2VwaWtfcHl0aG9uJywgJy1waCcsICc3LjAnLCAnLXRuJywgJzgnLCAnLW1hJywgJzIwMCcsICctbWV0YWxfYmluZGluZycsICctaW1hZScsICc8aW5maWxlLm1hZT4nLCAnLW9tYWUnLCAnPG91dGZpbGUubWFlPic=

> <r_lp_tautomer_probability>
1

> <r_epik_Ionization_Penalty>
4.55442

> <r_epik_Ionization_Penalty_Charging>
4.5081

> <r_epik_Ionization_Penalty_Neutral>
0.0463156

> <r_epik_State_Penalty>
4.50781

> <r_epik_Charging_Adjusted_Penalty>
9.01591

> <i_epik_Tot_Q>
-1

> <i_epik_Tot_abs_Q>
1

> <r_epik_Metal_State_Penalty>
0.823335

> <b_epik_Metal_Only>
1

> <s_lp_Force_Field>
OPLS_2005

> <r_lp_Energy>
7.79414

> <b_lp_Chiralities_Consistent>
1

> <s_lp_Variant>
AV-unprocessed.smi:1749-5

> <Gold.Version>
5.8.1

> <Gold.Id.Protein>
6NUR|6NUR_protein|mol2

> <Gold.PLP.Fitness>
41.2353

> <Gold.PLP.PLP>
-35.2405

> <Gold.PLP.part.hbond>
-2.0000

> <Gold.PLP.part.metal>
0.0000

> <Gold.PLP.part.buried>
-4.7897

> <Gold.PLP.part.nonpolar>
-29.0913

> <Gold.PLP.part.repulsive>
0.1340

> <Gold.PLP.ligand.clash>
0.0000

> <Gold.PLP.ligand.torsion>
0.0058

> <Gold.PLP.Chemscore.Hbond>
2.0000

> <Gold.PLP.Chemscore.CHOScore>
0.0000

> <Gold.PLP.Chemscore.Metal>
0.0000

> <Gold.Chemscore.Hbonds>
donor molecule, donor type, donor heavy atom, donor atom, acceptor molecule, acceptor atom, score
      P1  H  7997  8010       L1     9  1.00
      P1  H 10752 10764       L1    13  0.90

> <Gold.PLP.Chemscore.Internal.Correction>
0.0063

> <Gold.Rescore>
     Score         DG    S(hbond)    S(metal)    S(lipo)     H(rot)  DE(clash)    DE(int)     intcor
     17.71     -19.56       1.99        0.00      85.46       1.00       0.00       1.86       ----

> <Gold.Chemscore.Fitness>
17.7056

> <Gold.Chemscore.DG>
-19.5640

> <Gold.Chemscore.ZeroCoef>
-5.4800

> <Gold.Chemscore.Hbond>
1.9895

> <Gold.Chemscore.Metal>
0.0000

> <Gold.Chemscore.Lipo>
85.4609

> <Gold.Chemscore.Internal_Hbond>
0.0000

> <Gold.Chemscore.DEClash>
0.0000

> <Gold.Chemscore.DEInternal>
1.8584

> <Gold.Chemscore.Rot>
1.0000

> <Gold.Chemscore.Internal.Correction>
   9.000000E+99

> <Gold.Chemscore.Hbonds>
donor molecule, donor type, donor heavy atom, donor atom, acceptor molecule, acceptor atom, score
      P1  H  7997  8010       L1     9  1.00
      P1  H 10752 10764       L1    13  0.37

> <Gold.Chemscore.Hbond.Weighted>
-6.6450

> <Gold.Chemscore.Metal.Weighted>
-0.0000

> <Gold.Chemscore.Lipo.Weighted>
-9.9989

> <Gold.Chemscore.Internal_Hbond.Weighted>
0.0000

> <Gold.Chemscore.DEClash.Weighted>
0.0000

> <Gold.Chemscore.DEInternal.Weighted>
1.8584

> <Gold.Chemscore.Rot.Weighted>
2.5600

> <Gold.Chemscore.Internal.Correction.Weighted>
   9.000000E+99

> <Gold.Protein.RotatedTorsions>
[ 6907 6896 6895 6894 ] final  -56.58 input  -60.11 | X-H torsion
[ 7974 7965 7964 7962 ] final   29.56 input  175.53 | X-H torsion
[ 8008 7997 7996 7995 ] final   29.99 input   59.86 | X-H torsion
[ 10167 10162 10161 10158 ] final   74.68 input  -65.29 | X-H torsion
[ 10718 10713 10712 10709 ] final   37.57 input   66.30 | X-H torsion
[ 10763 10752 10751 10750 ] final  -35.29 input  -60.55 | X-H torsion
[ 11005 11000 10999 10996 ] final  -62.96 input  -57.11 | X-H torsion

> <Gold.Protein.ActiveResidues>
 VAL166  LYS551  ARG553  GLY616  TRP617  ASP618  TYR619  PRO620  LYS621  CYS622 
 ASP623  PHE694  ASN695  SER759  ASP760  ASP761  ALA762  ILE779  LEU786  VAL792 
 PHE793  MET794  SER795  GLU796  ALA797  LYS798  CYS799  TRP800  GLU811  SER814 

> <Gold.Protein.RotatedAtoms>
  150.8156  134.7335  159.6726 H   0  0  0  0  0  0  0  0  0  0  0  0  # atno 6907 bound_to 6896
  152.4274  134.5838  159.9965 H   0  0  0  0  0  0  0  0  0  0  0  0  # atno 6908 bound_to 6896
  151.6036  133.3316  159.3088 H   0  0  0  0  0  0  0  0  0  0  0  0  # atno 6909 bound_to 6896
  146.1664  139.6906  142.8998 H   0  0  0  0  0  0  0  0  0  0  0  0  # atno 7974 bound_to 7965
  155.0833  140.3212  155.4595 H   0  0  0  0  0  0  0  0  0  0  0  0  # atno 8008 bound_to 7997
  156.2761  140.2091  156.5906 H   0  0  0  0  0  0  0  0  0  0  0  0  # atno 8009 bound_to 7997
  154.6961  140.0511  157.0399 H   0  0  0  0  0  0  0  0  0  0  0  0  # atno 8010 bound_to 7997
  140.0111  144.5613  150.7657 H   0  0  0  0  0  0  0  0  0  0  0  0  # atno 10167 bound_to 10162
  157.3485  130.7586  149.6962 H   0  0  0  0  0  0  0  0  0  0  0  0  # atno 10718 bound_to 10713
  153.8607  135.6840  153.4783 H   0  0  0  0  0  0  0  0  0  0  0  0  # atno 10763 bound_to 10752
  153.1343  135.4684  154.9396 H   0  0  0  0  0  0  0  0  0  0  0  0  # atno 10764 bound_to 10752
  154.7760  135.3253  154.8041 H   0  0  0  0  0  0  0  0  0  0  0  0  # atno 10765 bound_to 10752
  141.1377  133.6646  156.5607 H   0  0  0  0  0  0  0  0  0  0  0  0  # atno 11005 bound_to 11000
  145.4455  141.0425  143.2833 LP  0  0  0  0  0  0  0  0  0  0  0  0  # atno 17320 bound_to 7965
  144.8099  139.5982  143.7034 LP  0  0  0  0  0  0  0  0  0  0  0  0  # atno 17321 bound_to 7965
  140.7381  143.2773  151.3702 LP  0  0  0  0  0  0  0  0  0  0  0  0  # atno 17342 bound_to 10162
  139.6204  144.0918  152.2386 LP  0  0  0  0  0  0  0  0  0  0  0  0  # atno 17343 bound_to 10162
  155.9718  130.4147  150.4146 LP  0  0  0  0  0  0  0  0  0  0  0  0  # atno 17370 bound_to 10713
  157.2205  131.0481  151.2549 LP  0  0  0  0  0  0  0  0  0  0  0  0  # atno 17371 bound_to 10713
  140.3990  134.7373  157.4768 LP  0  0  0  0  0  0  0  0  0  0  0  0  # atno 17394 bound_to 11000
  140.0510  134.6131  155.8862 LP  0  0  0  0  0  0  0  0  0  0  0  0  # atno 17395 bound_to 11000

$$$$
