AV-unprocessed.smi:2273|AV-procd|sdf|9166|dock10
  -GOLD-   2272012383D 1   1.00000     0.00000
 Structure written by MMmdl.
 53 54  0  0  0  0  0  0  0  0  1 V2000
  148.2393  135.1703  161.7124 C   0  0  0  0  0  0  0  0  0  0  0  0
  148.9955  135.4016  160.3972 C   0  0  0  0  0  0  0  0  0  0  0  0
  148.2125  135.0981  159.0901 C   0  0  0  0  0  0  0  0  0  0  0  0
  147.6836  133.6387  159.1135 C   0  0  0  0  0  0  0  0  0  0  0  0
  148.7632  132.5551  159.2609 C   0  0  0  0  0  0  0  0  0  0  0  0
  149.0652  135.3862  157.8168 C   0  0  2  0  0  0  0  0  0  0  0  0
  148.2931  135.1365  156.5006 C   0  0  0  0  0  0  0  0  0  0  0  0
  149.1640  135.4870  155.2805 C   0  0  2  0  0  0  0  0  0  0  0  0
  148.4722  135.1851  154.0254 N   0  0  0  0  0  0  0  0  0  0  0  0
  147.6846  134.1307  153.7450 C   0  0  0  0  0  0  0  0  0  0  0  0
  147.4696  133.2503  154.5767 O   0  0  0  0  0  0  0  0  0  0  0  0
  147.1864  134.1295  152.4918 N   0  0  0  0  0  0  0  0  0  0  0  0
  146.3499  133.1599  151.9189 C   0  0  0  0  0  0  0  0  0  0  0  0
  145.2547  133.5693  151.2264 C   0  0  0  0  0  0  0  0  0  0  0  0
  144.9393  135.0435  151.0266 C   0  0  0  0  0  0  0  0  0  0  0  0
  144.3753  132.5750  150.6477 C   0  0  0  0  0  0  0  0  0  0  0  0
  144.6496  131.2747  150.8166 C   0  0  0  0  0  0  0  0  0  0  0  0
  145.7612  130.8463  151.5562 N   0  0  0  0  0  0  0  0  0  0  0  0
  145.9645  129.4024  151.7009 C   0  0  0  0  0  0  0  0  0  0  0  0
  146.6176  131.7207  152.1585 C   0  0  0  0  0  0  0  0  0  0  0  0
  147.5373  131.3123  152.8713 O   0  0  0  0  0  0  0  0  0  0  0  0
  150.4726  134.6909  155.3609 C   0  0  0  0  0  0  0  0  0  0  0  0
  151.1376  134.8899  156.7313 C   0  0  0  0  0  0  0  0  0  0  0  0
  150.2225  134.5496  157.7684 O   0  0  0  0  0  0  0  0  0  0  0  0
  148.9134  135.2732  162.5632 H   0  0  0  0  0  0  0  0  0  0  0  0
  147.8101  134.1691  161.7536 H   0  0  0  0  0  0  0  0  0  0  0  0
  147.4407  135.8989  161.8506 H   0  0  0  0  0  0  0  0  0  0  0  0
  149.3591  136.4297  160.3753 H   0  0  0  0  0  0  0  0  0  0  0  0
  149.8835  134.7729  160.4402 H   0  0  0  0  0  0  0  0  0  0  0  0
  147.3348  135.7452  159.0604 H   0  0  0  0  0  0  0  0  0  0  0  0
  147.0086  133.5088  159.9597 H   0  0  0  0  0  0  0  0  0  0  0  0
  147.0905  133.4429  158.2192 H   0  0  0  0  0  0  0  0  0  0  0  0
  148.3039  131.5801  159.4245 H   0  0  0  0  0  0  0  0  0  0  0  0
  149.4151  132.7590  160.1110 H   0  0  0  0  0  0  0  0  0  0  0  0
  149.3819  132.4690  158.3682 H   0  0  0  0  0  0  0  0  0  0  0  0
  149.4061  136.4225  157.8591 H   0  0  0  0  0  0  0  0  0  0  0  0
  147.9970  134.0876  156.4494 H   0  0  0  0  0  0  0  0  0  0  0  0
  147.3685  135.7060  156.4702 H   0  0  0  0  0  0  0  0  0  0  0  0
  149.4136  136.5496  155.3078 H   0  0  0  0  0  0  0  0  0  0  0  0
  148.6011  135.8573  153.2826 H   0  0  0  0  0  0  0  0  0  0  0  0
  147.5297  134.8392  151.8617 H   0  0  0  0  0  0  0  0  0  0  0  0
  144.0462  135.1775  150.4159 H   0  0  0  0  0  0  0  0  0  0  0  0
  145.7663  135.5484  150.5262 H   0  0  0  0  0  0  0  0  0  0  0  0
  144.7660  135.5302  151.9869 H   0  0  0  0  0  0  0  0  0  0  0  0
  143.5086  132.8736  150.0762 H   0  0  0  0  0  0  0  0  0  0  0  0
  144.0330  130.4882  150.4065 H   0  0  0  0  0  0  0  0  0  0  0  0
  146.9638  129.1188  151.3670 H   0  0  0  0  0  0  0  0  0  0  0  0
  145.2525  128.8164  151.1188 H   0  0  0  0  0  0  0  0  0  0  0  0
  145.8573  129.1047  152.7447 H   0  0  0  0  0  0  0  0  0  0  0  0
  150.2703  133.6290  155.2123 H   0  0  0  0  0  0  0  0  0  0  0  0
  151.1542  134.9942  154.5654 H   0  0  0  0  0  0  0  0  0  0  0  0
  152.0172  134.2518  156.8154 H   0  0  0  0  0  0  0  0  0  0  0  0
  151.4788  135.9189  156.8543 H   0  0  0  0  0  0  0  0  0  0  0  0
  1  2  1  0  0  0  0
  1 25  1  0  0  0  0
  1 26  1  0  0  0  0
  1 27  1  0  0  0  0
  2  3  1  0  0  0  0
  2 28  1  0  0  0  0
  2 29  1  0  0  0  0
  3  4  1  0  0  0  0
  3  6  1  0  0  0  0
  3 30  1  0  0  0  0
  4  5  1  0  0  0  0
  4 31  1  0  0  0  0
  4 32  1  0  0  0  0
  5 33  1  0  0  0  0
  5 34  1  0  0  0  0
  5 35  1  0  0  0  0
  6 24  1  0  0  0  0
  6  7  1  0  0  0  0
  6 36  1  0  0  0  0
  7  8  1  0  0  0  0
  7 37  1  0  0  0  0
  7 38  1  0  0  0  0
  8  9  1  0  0  0  0
  8 22  1  0  0  0  0
  8 39  1  0  0  0  0
  9 10  1  0  0  0  0
  9 40  1  0  0  0  0
 10 11  2  0  0  0  0
 10 12  1  0  0  0  0
 12 13  1  0  0  0  0
 12 41  1  0  0  0  0
 13 20  1  0  0  0  0
 13 14  2  0  0  0  0
 14 15  1  0  0  0  0
 14 16  1  0  0  0  0
 15 42  1  0  0  0  0
 15 43  1  0  0  0  0
 15 44  1  0  0  0  0
 16 17  2  0  0  0  0
 16 45  1  0  0  0  0
 17 18  1  0  0  0  0
 17 46  1  0  0  0  0
 18 19  1  0  0  0  0
 18 20  1  0  0  0  0
 19 47  1  0  0  0  0
 19 48  1  0  0  0  0
 19 49  1  0  0  0  0
 20 21  2  0  0  0  0
 22 23  1  0  0  0  0
 22 50  1  0  0  0  0
 22 51  1  0  0  0  0
 23 24  1  0  0  0  0
 23 52  1  0  0  0  0
 23 53  1  0  0  0  0
M  END
> <s_m_source_file>
AV-unprocessed.smi

> <i_m_source_file_index>
2273

> <i_lp_mmshare_version>
43012

> <i_f3d_flags>
0

> <s_epik_input>
W0NIM11bQ0gyXVtDSF0oW0NIMl1bQ0gzXSlbQ0BASF0xW0NIMl1bQ0BIXShbQ0gyXVtDSDJdTzEpW05IXUMoPU8pW05IXWMyYyhbQ0gzXSlbY0hdW2NIXW4oW0NIM10pYzI9Tw==

> <s_epik_cmdline>
J2VwaWtfcHl0aG9uJywgJy1waCcsICc3LjAnLCAnLXRuJywgJzgnLCAnLW1hJywgJzIwMCcsICctbWV0YWxfYmluZGluZycsICctaW1hZScsICc8aW5maWxlLm1hZT4nLCAnLW9tYWUnLCAnPG91dGZpbGUubWFlPic=

> <r_lp_tautomer_probability>
1

> <r_epik_Ionization_Penalty>
2.66245e-05

> <r_epik_Ionization_Penalty_Charging>
6.91055e-06

> <r_epik_Ionization_Penalty_Neutral>
1.97139e-05

> <r_epik_State_Penalty>
-0

> <r_epik_Charging_Adjusted_Penalty>
6.91055e-06

> <i_epik_Tot_Q>
0

> <i_epik_Tot_abs_Q>
0

> <r_epik_Metal_State_Penalty>
-0

> <b_epik_Metal_Only>
0

> <s_lp_Force_Field>
OPLS_2005

> <r_lp_Energy>
42.9176

> <b_lp_Chiralities_Consistent>
1

> <s_lp_Variant>
AV-unprocessed.smi:2273-3

> <Gold.Version>
5.8.1

> <Gold.Id.Protein>
6NUR|6NUR_protein|mol2

> <Gold.PLP.Fitness>
43.1340

> <Gold.PLP.PLP>
-35.5603

> <Gold.PLP.part.hbond>
-2.8013

> <Gold.PLP.part.metal>
0.0000

> <Gold.PLP.part.buried>
-4.3887

> <Gold.PLP.part.nonpolar>
-28.7975

> <Gold.PLP.part.repulsive>
0.1551

> <Gold.PLP.ligand.clash>
0.0000

> <Gold.PLP.ligand.torsion>
0.6914

> <Gold.PLP.Chemscore.Hbond>
2.8073

> <Gold.PLP.Chemscore.CHOScore>
0.0000

> <Gold.PLP.Chemscore.Metal>
0.0000

> <Gold.Chemscore.Hbonds>
donor molecule, donor type, donor heavy atom, donor atom, acceptor molecule, acceptor atom, score
      L1  H     9    40       P1  7948  0.91
      L1  H    12    41       P1  7948  0.77
      P1  H  6896  6907       L1    24  0.66

> <Gold.PLP.Chemscore.Internal.Correction>
0.5346

> <Gold.Rescore>
     Score         DG    S(hbond)    S(metal)    S(lipo)     H(rot)  DE(clash)    DE(int)     intcor
     14.09     -18.50       2.17        0.00      80.57       1.42       0.20       4.20       ----

> <Gold.Chemscore.Fitness>
14.0892

> <Gold.Chemscore.DG>
-18.4958

> <Gold.Chemscore.ZeroCoef>
-5.4800

> <Gold.Chemscore.Hbond>
2.1658

> <Gold.Chemscore.Metal>
0.0000

> <Gold.Chemscore.Lipo>
80.5690

> <Gold.Chemscore.Internal_Hbond>
0.0000

> <Gold.Chemscore.DEClash>
0.2030

> <Gold.Chemscore.DEInternal>
4.2036

> <Gold.Chemscore.Rot>
1.4236

> <Gold.Chemscore.Internal.Correction>
   9.000000E+99

> <Gold.Chemscore.Hbonds>
donor molecule, donor type, donor heavy atom, donor atom, acceptor molecule, acceptor atom, score
      L1  H     9    40       P1  7948  0.84
      L1  H    12    41       P1  7948  0.53
      P1  H  6896  6907       L1    24  0.26

> <Gold.Chemscore.Hbond.Weighted>
-7.2337

> <Gold.Chemscore.Metal.Weighted>
-0.0000

> <Gold.Chemscore.Lipo.Weighted>
-9.4266

> <Gold.Chemscore.Internal_Hbond.Weighted>
0.0000

> <Gold.Chemscore.DEClash.Weighted>
0.2030

> <Gold.Chemscore.DEInternal.Weighted>
4.2036

> <Gold.Chemscore.Rot.Weighted>
3.6445

> <Gold.Chemscore.Internal.Correction.Weighted>
   9.000000E+99

> <Gold.Protein.RotatedTorsions>
[ 6907 6896 6895 6894 ] final  -80.78 input  -60.11 | X-H torsion
[ 7974 7965 7964 7962 ] final -114.64 input  175.53 | X-H torsion
[ 8008 7997 7996 7995 ] final  -77.52 input   59.86 | X-H torsion
[ 10167 10162 10161 10158 ] final -164.35 input  -65.29 | X-H torsion
[ 10718 10713 10712 10709 ] final -157.75 input   66.30 | X-H torsion
[ 10763 10752 10751 10750 ] final   22.14 input  -60.55 | X-H torsion
[ 11005 11000 10999 10996 ] final   41.66 input  -57.11 | X-H torsion

> <Gold.Protein.ActiveResidues>
 VAL166  LYS551  ARG553  GLY616  TRP617  ASP618  TYR619  PRO620  LYS621  CYS622 
 ASP623  PHE694  ASN695  SER759  ASP760  ASP761  ALA762  ILE779  LEU786  VAL792 
 PHE793  MET794  SER795  GLU796  ALA797  LYS798  CYS799  TRP800  GLU811  SER814 

> <Gold.Protein.RotatedAtoms>
  150.6923  134.3918  159.5079 H   0  0  0  0  0  0  0  0  0  0  0  0  # atno 6907 bound_to 6896
  152.1705  134.8835  160.0544 H   0  0  0  0  0  0  0  0  0  0  0  0  # atno 6908 bound_to 6896
  151.9863  133.3740  159.4164 H   0  0  0  0  0  0  0  0  0  0  0  0  # atno 6909 bound_to 6896
  145.1178  140.8651  143.3832 H   0  0  0  0  0  0  0  0  0  0  0  0  # atno 7974 bound_to 7965
  154.5604  140.0709  156.8810 H   0  0  0  0  0  0  0  0  0  0  0  0  # atno 8008 bound_to 7997
  155.2822  140.3372  155.4239 H   0  0  0  0  0  0  0  0  0  0  0  0  # atno 8009 bound_to 7997
  156.2037  140.1732  156.7830 H   0  0  0  0  0  0  0  0  0  0  0  0  # atno 8010 bound_to 7997
  139.6256  144.0538  152.1972 H   0  0  0  0  0  0  0  0  0  0  0  0  # atno 10167 bound_to 10162
  156.5446  130.8578  151.2760 H   0  0  0  0  0  0  0  0  0  0  0  0  # atno 10718 bound_to 10713
  153.0939  135.6654  153.9800 H   0  0  0  0  0  0  0  0  0  0  0  0  # atno 10763 bound_to 10752
  153.9389  135.2996  155.3444 H   0  0  0  0  0  0  0  0  0  0  0  0  # atno 10764 bound_to 10752
  154.7356  135.5103  153.9110 H   0  0  0  0  0  0  0  0  0  0  0  0  # atno 10765 bound_to 10752
  140.1813  134.4100  155.8198 H   0  0  0  0  0  0  0  0  0  0  0  0  # atno 11005 bound_to 11000
  145.0774  139.2985  143.5801 LP  0  0  0  0  0  0  0  0  0  0  0  0  # atno 17320 bound_to 7965
  146.3523  140.0269  142.8653 LP  0  0  0  0  0  0  0  0  0  0  0  0  # atno 17321 bound_to 7965
  140.0191  144.6167  150.7582 LP  0  0  0  0  0  0  0  0  0  0  0  0  # atno 17342 bound_to 10162
  140.7409  143.2811  151.3597 LP  0  0  0  0  0  0  0  0  0  0  0  0  # atno 17343 bound_to 10162
  157.7399  130.9840  150.2342 LP  0  0  0  0  0  0  0  0  0  0  0  0  # atno 17370 bound_to 10713
  156.2940  130.3749  149.7814 LP  0  0  0  0  0  0  0  0  0  0  0  0  # atno 17371 bound_to 10713
  141.2223  133.7002  156.7936 LP  0  0  0  0  0  0  0  0  0  0  0  0  # atno 17394 bound_to 11000
  140.2264  134.8719  157.3431 LP  0  0  0  0  0  0  0  0  0  0  0  0  # atno 17395 bound_to 11000

$$$$
