AV-unprocessed.smi:615|AV-procd|sdf|3071|dock2
  -GOLD-   2262023593D 1   1.00000     0.00000
 Structure written by MMmdl.
 25 26  0  0  0  0  0  0  0  0  2 V2000
  146.6721  142.1462  154.1165 C   0  0  0  0  0  0  0  0  0  0  0  0
  147.1568  140.8267  153.5011 C   0  0  0  0  0  0  0  0  0  0  0  0
  148.5689  140.5902  153.7811 N   0  0  0  0  0  0  0  0  0  0  0  0
  149.1509  140.6413  154.9881 C   0  0  0  0  0  0  0  0  0  0  0  0
  148.4765  140.9069  155.9860 O   0  0  0  0  0  0  0  0  0  0  0  0
  150.4777  140.3788  154.9650 N   0  5  0  0  0  0  0  0  0  0  0  0
  151.1886  140.4146  156.1041 C   0  0  0  0  0  0  0  0  0  0  0  0
  152.3083  139.6976  156.2752 N   0  0  0  0  0  0  0  0  0  0  0  0
  152.8854  139.8789  157.5237 N   0  0  0  0  0  0  0  0  0  0  0  0
  152.1870  140.7263  158.2832 C   0  0  0  0  0  0  0  0  0  0  0  0
  152.6050  141.0877  159.6692 C   0  0  0  0  0  0  0  0  0  0  0  0
  152.7636  142.5301  160.0983 C   0  0  0  0  0  0  0  0  0  0  0  0
  153.9800  141.6545  159.9384 C   0  0  0  0  0  0  0  0  0  0  0  0
  150.7435  141.3707  157.5172 S   0  0  0  0  0  0  0  0  0  0  0  0
  145.6084  142.2929  153.9292 H   0  0  0  0  0  0  0  0  0  0  0  0
  147.2032  143.0001  153.6948 H   0  0  0  0  0  0  0  0  0  0  0  0
  146.8245  142.1564  155.1962 H   0  0  0  0  0  0  0  0  0  0  0  0
  146.5860  139.9963  153.9167 H   0  0  0  0  0  0  0  0  0  0  0  0
  146.9759  140.8190  152.4249 H   0  0  0  0  0  0  0  0  0  0  0  0
  149.1595  140.3695  152.9928 H   0  0  0  0  0  0  0  0  0  0  0  0
  152.1921  140.3852  160.3904 H   0  0  0  0  0  0  0  0  0  0  0  0
  152.6111  143.3093  159.3541 H   0  0  0  0  0  0  0  0  0  0  0  0
  152.4593  142.7876  161.1107 H   0  0  0  0  0  0  0  0  0  0  0  0
  154.4883  141.3279  160.8433 H   0  0  0  0  0  0  0  0  0  0  0  0
  154.6250  141.8420  159.0822 H   0  0  0  0  0  0  0  0  0  0  0  0
  1  2  1  0  0  0  0
  1 15  1  0  0  0  0
  1 16  1  0  0  0  0
  1 17  1  0  0  0  0
  2  3  1  0  0  0  0
  2 18  1  0  0  0  0
  2 19  1  0  0  0  0
  3  4  1  0  0  0  0
  3 20  1  0  0  0  0
  4  5  2  0  0  0  0
  4  6  1  0  0  0  0
  6  7  1  0  0  0  0
  7 14  1  0  0  0  0
  7  8  2  0  0  0  0
  8  9  1  0  0  0  0
  9 10  2  0  0  0  0
 10 11  1  0  0  0  0
 10 14  1  0  0  0  0
 11 13  1  0  0  0  0
 11 12  1  0  0  0  0
 11 21  1  0  0  0  0
 12 13  1  0  0  0  0
 12 22  1  0  0  0  0
 12 23  1  0  0  0  0
 13 24  1  0  0  0  0
 13 25  1  0  0  0  0
M  CHG  1   6  -1
M  END
> <s_m_source_file>
AV-unprocessed.smi

> <i_m_source_file_index>
615

> <i_lp_mmshare_version>
43012

> <i_f3d_flags>
0

> <s_epik_input>
W0NIM11bQ0gyXVtOSF1DKD1PKVtOSF1jMW5uYyhzMSlbQ0hdMltDSDJdW0NIMl0y

> <s_epik_cmdline>
J2VwaWtfcHl0aG9uJywgJy1waCcsICc3LjAnLCAnLXRuJywgJzgnLCAnLW1hJywgJzIwMCcsICctbWV0YWxfYmluZGluZycsICctaW1hZScsICc8aW5maWxlLm1hZT4nLCAnLW9tYWUnLCAnPG91dGZpbGUubWFlPic=

> <r_lp_tautomer_probability>
1

> <r_epik_Ionization_Penalty>
3.99003

> <r_epik_Ionization_Penalty_Charging>
3.83446

> <r_epik_Ionization_Penalty_Neutral>
0.155577

> <r_epik_State_Penalty>
3.83354

> <r_epik_Charging_Adjusted_Penalty>
7.668

> <i_epik_Tot_Q>
-1

> <i_epik_Tot_abs_Q>
1

> <r_epik_Metal_State_Penalty>
0.575872

> <b_epik_Metal_Only>
1

> <s_lp_Force_Field>
OPLS_2005

> <r_lp_Energy>
-1.25132

> <b_lp_Chiralities_Consistent>
1

> <s_lp_Variant>
AV-unprocessed.smi:615-2

> <Gold.Version>
5.8.1

> <Gold.Id.Protein>
6NUR|6NUR_protein|mol2

> <Gold.PLP.Fitness>
39.4093

> <Gold.PLP.PLP>
-31.1094

> <Gold.PLP.part.hbond>
-4.0000

> <Gold.PLP.part.metal>
0.0000

> <Gold.PLP.part.buried>
-4.8999

> <Gold.PLP.part.nonpolar>
-22.9931

> <Gold.PLP.part.repulsive>
0.3203

> <Gold.PLP.ligand.clash>
0.0000

> <Gold.PLP.ligand.torsion>
0.2496

> <Gold.PLP.Chemscore.Hbond>
2.8800

> <Gold.PLP.Chemscore.CHOScore>
0.0000

> <Gold.PLP.Chemscore.Metal>
0.0000

> <Gold.Chemscore.Hbonds>
donor molecule, donor type, donor heavy atom, donor atom, acceptor molecule, acceptor atom, score
      L1  H     3    20       P1  7957  1.00
      P1  H  7989  7998       L1     6  1.00
      P1  H  7997  8009       L1     9  0.88

> <Gold.PLP.Chemscore.Internal.Correction>
0.1591

> <Gold.Rescore>
     Score         DG    S(hbond)    S(metal)    S(lipo)     H(rot)  DE(clash)    DE(int)     intcor
     13.00     -15.91       2.06        0.00      57.33       1.23       0.04       2.88       ----

> <Gold.Chemscore.Fitness>
13.0002

> <Gold.Chemscore.DG>
-15.9145

> <Gold.Chemscore.ZeroCoef>
-5.4800

> <Gold.Chemscore.Hbond>
2.0577

> <Gold.Chemscore.Metal>
0.0000

> <Gold.Chemscore.Lipo>
57.3284

> <Gold.Chemscore.Internal_Hbond>
0.0000

> <Gold.Chemscore.DEClash>
0.0354

> <Gold.Chemscore.DEInternal>
2.8789

> <Gold.Chemscore.Rot>
1.2288

> <Gold.Chemscore.Internal.Correction>
   9.000000E+99

> <Gold.Chemscore.Hbonds>
donor molecule, donor type, donor heavy atom, donor atom, acceptor molecule, acceptor atom, score
      L1  H     3    20       P1  7957  0.99
      P1  H  7989  7998       L1     6  0.67
      P1  H  7997  8009       L1     9  0.22

> <Gold.Chemscore.Hbond.Weighted>
-6.8727

> <Gold.Chemscore.Metal.Weighted>
-0.0000

> <Gold.Chemscore.Lipo.Weighted>
-6.7074

> <Gold.Chemscore.Internal_Hbond.Weighted>
0.0000

> <Gold.Chemscore.DEClash.Weighted>
0.0354

> <Gold.Chemscore.DEInternal.Weighted>
2.8789

> <Gold.Chemscore.Rot.Weighted>
3.1456

> <Gold.Chemscore.Internal.Correction.Weighted>
   9.000000E+99

> <Gold.Protein.RotatedTorsions>
[ 6907 6896 6895 6894 ] final   70.19 input  -60.11 | X-H torsion
[ 7974 7965 7964 7962 ] final  -70.97 input  175.53 | X-H torsion
[ 8008 7997 7996 7995 ] final  150.12 input   59.86 | X-H torsion
[ 10167 10162 10161 10158 ] final  112.01 input  -65.29 | X-H torsion
[ 10718 10713 10712 10709 ] final   60.42 input   66.30 | X-H torsion
[ 10763 10752 10751 10750 ] final   72.71 input  -60.55 | X-H torsion
[ 11005 11000 10999 10996 ] final -142.87 input  -57.11 | X-H torsion

> <Gold.Protein.ActiveResidues>
 VAL166  LYS551  ARG553  GLY616  TRP617  ASP618  TYR619  PRO620  LYS621  CYS622 
 ASP623  PHE694  ASN695  SER759  ASP760  ASP761  ALA762  ILE779  LEU786  VAL792 
 PHE793  MET794  SER795  GLU796  ALA797  LYS798  CYS799  TRP800  GLU811  SER814 

> <Gold.Protein.RotatedAtoms>
  152.4734  134.4905  159.9693 H   0  0  0  0  0  0  0  0  0  0  0  0  # atno 6907 bound_to 6896
  151.4926  133.3515  159.2864 H   0  0  0  0  0  0  0  0  0  0  0  0  # atno 6908 bound_to 6896
  150.8757  134.8167  159.7249 H   0  0  0  0  0  0  0  0  0  0  0  0  # atno 6909 bound_to 6896
  145.6842  140.9177  143.0816 H   0  0  0  0  0  0  0  0  0  0  0  0  # atno 7974 bound_to 7965
  156.2728  140.2083  156.5967 H   0  0  0  0  0  0  0  0  0  0  0  0  # atno 8008 bound_to 7997
  154.6939  140.0527  157.0415 H   0  0  0  0  0  0  0  0  0  0  0  0  # atno 8009 bound_to 7997
  155.0828  140.3188  155.4599 H   0  0  0  0  0  0  0  0  0  0  0  0  # atno 8010 bound_to 7997
  139.6568  144.7129  151.1942 H   0  0  0  0  0  0  0  0  0  0  0  0  # atno 10167 bound_to 10162
  157.5751  130.8937  149.9333 H   0  0  0  0  0  0  0  0  0  0  0  0  # atno 10718 bound_to 10713
  153.0476  135.5090  154.7785 H   0  0  0  0  0  0  0  0  0  0  0  0  # atno 10763 bound_to 10752
  154.6673  135.2947  154.9791 H   0  0  0  0  0  0  0  0  0  0  0  0  # atno 10764 bound_to 10752
  154.0621  135.6689  153.4866 H   0  0  0  0  0  0  0  0  0  0  0  0  # atno 10765 bound_to 10752
  140.8182  134.2663  157.4912 H   0  0  0  0  0  0  0  0  0  0  0  0  # atno 11005 bound_to 11000
  144.7016  139.8736  143.7442 LP  0  0  0  0  0  0  0  0  0  0  0  0  # atno 17320 bound_to 7965
  146.0938  139.3929  143.0389 LP  0  0  0  0  0  0  0  0  0  0  0  0  # atno 17321 bound_to 7965
  140.7562  143.6059  150.8653 LP  0  0  0  0  0  0  0  0  0  0  0  0  # atno 17342 bound_to 10162
  139.9713  143.6054  152.2972 LP  0  0  0  0  0  0  0  0  0  0  0  0  # atno 17343 bound_to 10162
  156.0796  130.3674  150.0608 LP  0  0  0  0  0  0  0  0  0  0  0  0  # atno 17370 bound_to 10713
  156.8755  130.9539  151.3605 LP  0  0  0  0  0  0  0  0  0  0  0  0  # atno 17371 bound_to 10713
  139.8710  134.9520  156.4103 LP  0  0  0  0  0  0  0  0  0  0  0  0  # atno 17394 bound_to 11000
  140.9127  133.7700  155.9811 LP  0  0  0  0  0  0  0  0  0  0  0  0  # atno 17395 bound_to 11000

$$$$
