AV-unprocessed.smi:526|AV-procd|sdf|2812|dock4
  -GOLD-   2262023293D 1   1.00000     0.00000
 Structure written by MMmdl.
 30 30  0  0  0  0  0  0  0  0  2 V2000
  151.8915  145.0377  160.7605 C   0  0  0  0  0  0  0  0  0  0  0  0
  152.2884  143.7597  160.8789 C   0  0  0  0  0  0  0  0  0  0  0  0
  152.7922  143.1941  162.1934 C   0  0  0  0  0  0  0  0  0  0  0  0
  152.2588  142.7946  159.7078 C   0  0  0  0  0  0  0  0  0  0  0  0
  151.2774  143.4306  158.3124 S   0  0  0  0  0  0  0  0  0  0  0  0
  151.1873  142.0283  157.1433 C   0  0  0  0  0  0  0  0  0  0  0  0
  150.1474  142.1553  156.2325 N   0  0  0  0  0  0  0  0  0  0  0  0
  149.9459  141.1581  155.2966 C   0  0  0  0  0  0  0  0  0  0  0  0
  148.7728  141.3978  154.3625 C   0  0  0  0  0  0  0  0  0  0  0  0
  150.7533  140.0714  155.2474 C   0  0  0  0  0  0  0  0  0  0  0  0
  150.5668  138.9416  154.2326 C   0  0  0  0  0  0  0  0  0  0  0  0
  150.6320  137.5262  154.8195 C   0  0  0  0  0  0  0  0  0  0  0  0
  149.7556  137.2341  155.6618 O   0  0  0  0  0  0  0  0  0  0  0  0
  151.5398  136.7586  154.4286 O   0  5  0  0  0  0  0  0  0  0  0  0
  151.8615  139.9792  156.2219 C   0  0  0  0  0  0  0  0  0  0  0  0
  152.6434  139.0293  156.2231 O   0  0  0  0  0  0  0  0  0  0  0  0
  152.0030  141.0161  157.1572 N   0  0  0  0  0  0  0  0  0  0  0  0
  149.5211  142.9467  156.2200 H   0  0  0  0  0  0  0  0  0  0  0  0
  151.9176  145.7132  161.6030 H   0  0  0  0  0  0  0  0  0  0  0  0
  151.5331  145.4289  159.8195 H   0  0  0  0  0  0  0  0  0  0  0  0
  153.8065  142.8118  162.0765 H   0  0  0  0  0  0  0  0  0  0  0  0
  152.1544  142.3768  162.5298 H   0  0  0  0  0  0  0  0  0  0  0  0
  152.8054  143.9548  162.9747 H   0  0  0  0  0  0  0  0  0  0  0  0
  153.2776  142.6074  159.3659 H   0  0  0  0  0  0  0  0  0  0  0  0
  151.8479  141.8429  160.0464 H   0  0  0  0  0  0  0  0  0  0  0  0
  149.1073  141.4010  153.3249 H   0  0  0  0  0  0  0  0  0  0  0  0
  148.2898  142.3553  154.5607 H   0  0  0  0  0  0  0  0  0  0  0  0
  148.0249  140.6138  154.4818 H   0  0  0  0  0  0  0  0  0  0  0  0
  151.3391  139.0232  153.4678 H   0  0  0  0  0  0  0  0  0  0  0  0
  149.6242  139.0551  153.6962 H   0  0  0  0  0  0  0  0  0  0  0  0
  1  2  2  0  0  0  0
  1 19  1  0  0  0  0
  1 20  1  0  0  0  0
  2  3  1  0  0  0  0
  2  4  1  0  0  0  0
  3 21  1  0  0  0  0
  3 22  1  0  0  0  0
  3 23  1  0  0  0  0
  4 24  1  0  0  0  0
  4 25  1  0  0  0  0
  4  5  1  0  0  0  0
  5  6  1  0  0  0  0
  6 17  2  0  0  0  0
  6  7  1  0  0  0  0
  7  8  1  0  0  0  0
  7 18  1  0  0  0  0
  8 10  2  0  0  0  0
  8  9  1  0  0  0  0
  9 26  1  0  0  0  0
  9 27  1  0  0  0  0
  9 28  1  0  0  0  0
 10 15  1  0  0  0  0
 10 11  1  0  0  0  0
 11 12  1  0  0  0  0
 11 29  1  0  0  0  0
 11 30  1  0  0  0  0
 12 13  2  0  0  0  0
 12 14  1  0  0  0  0
 15 17  1  0  0  0  0
 15 16  2  0  0  0  0
M  CHG  1  14  -1
M  END
> <s_m_source_file>
AV-unprocessed.smi

> <i_m_source_file_index>
526

> <i_lp_mmshare_version>
43012

> <i_f3d_flags>
0

> <s_epik_input>
W0NIMl09QyhbQ0gzXSlbQ0gyXVNjMW5jKFtDSDNdKWMoYyg9TylbbkhdMSlbQ0gyXUMoPU8pW09IXQ==

> <s_epik_cmdline>
J2VwaWtfcHl0aG9uJywgJy1waCcsICc3LjAnLCAnLXRuJywgJzgnLCAnLW1hJywgJzIwMCcsICctbWV0YWxfYmluZGluZycsICctaW1hZScsICc8aW5maWxlLm1hZT4nLCAnLW9tYWUnLCAnPG91dGZpbGUubWFlPic=

> <r_lp_tautomer_probability>
0.273662

> <r_epik_Ionization_Penalty>
0.012426

> <r_epik_Ionization_Penalty_Charging>
0.012254

> <r_epik_Ionization_Penalty_Neutral>
0.000171952

> <r_epik_State_Penalty>
0.787696

> <r_epik_Charging_Adjusted_Penalty>
0.79995

> <i_epik_Tot_Q>
-1

> <i_epik_Tot_abs_Q>
1

> <r_epik_Metal_State_Penalty>
0.901144

> <b_epik_Metal_Only>
0

> <s_lp_Force_Field>
OPLS_2005

> <r_lp_Energy>
7.99396

> <b_lp_Chiralities_Consistent>
1

> <s_lp_Variant>
AV-unprocessed.smi:526-2

> <Gold.Version>
5.8.1

> <Gold.Id.Protein>
6NUR|6NUR_protein|mol2

> <Gold.PLP.Fitness>
49.1809

> <Gold.PLP.PLP>
-38.6746

> <Gold.PLP.part.hbond>
-3.0000

> <Gold.PLP.part.metal>
0.0000

> <Gold.PLP.part.buried>
-0.5713

> <Gold.PLP.part.nonpolar>
-33.6468

> <Gold.PLP.part.repulsive>
0.8083

> <Gold.PLP.ligand.clash>
0.0000

> <Gold.PLP.ligand.torsion>
0.6144

> <Gold.PLP.Chemscore.Hbond>
3.9000

> <Gold.PLP.Chemscore.CHOScore>
0.0000

> <Gold.PLP.Chemscore.Metal>
0.0000

> <Gold.Chemscore.Hbonds>
donor molecule, donor type, donor heavy atom, donor atom, acceptor molecule, acceptor atom, score
      L1  H     7    18       P1  8028  1.00
      P1  H  7997  8009       L1    16  0.85
      P1  H 10752 10764       L1    14  2.00

> <Gold.PLP.Chemscore.Internal.Correction>
0.0351

> <Gold.Rescore>
     Score         DG    S(hbond)    S(metal)    S(lipo)     H(rot)  DE(clash)    DE(int)     intcor
     15.97     -16.95       2.10        0.00      89.20       2.34       0.50       0.48       ----

> <Gold.Chemscore.Fitness>
15.9731

> <Gold.Chemscore.DG>
-16.9505

> <Gold.Chemscore.ZeroCoef>
-5.4800

> <Gold.Chemscore.Hbond>
2.1047

> <Gold.Chemscore.Metal>
0.0000

> <Gold.Chemscore.Lipo>
89.1981

> <Gold.Chemscore.Internal_Hbond>
0.0000

> <Gold.Chemscore.DEClash>
0.5004

> <Gold.Chemscore.DEInternal>
0.4770

> <Gold.Chemscore.Rot>
2.3420

> <Gold.Chemscore.Internal.Correction>
   9.000000E+99

> <Gold.Chemscore.Hbonds>
donor molecule, donor type, donor heavy atom, donor atom, acceptor molecule, acceptor atom, score
      L1  H     7    18       P1  8028  0.97
      P1  H  7997  8009       L1    16  0.14
      P1  H 10752 10764       L1    14  0.96

> <Gold.Chemscore.Hbond.Weighted>
-7.0298

> <Gold.Chemscore.Metal.Weighted>
-0.0000

> <Gold.Chemscore.Lipo.Weighted>
-10.4362

> <Gold.Chemscore.Internal_Hbond.Weighted>
0.0000

> <Gold.Chemscore.DEClash.Weighted>
0.5004

> <Gold.Chemscore.DEInternal.Weighted>
0.4770

> <Gold.Chemscore.Rot.Weighted>
5.9955

> <Gold.Chemscore.Internal.Correction.Weighted>
   9.000000E+99

> <Gold.Protein.RotatedTorsions>
[ 6907 6896 6895 6894 ] final  -17.62 input  -60.11 | X-H torsion
[ 7974 7965 7964 7962 ] final  160.22 input  175.53 | X-H torsion
[ 8008 7997 7996 7995 ] final -168.59 input   59.86 | X-H torsion
[ 10167 10162 10161 10158 ] final  169.02 input  -65.29 | X-H torsion
[ 10718 10713 10712 10709 ] final  -98.77 input   66.30 | X-H torsion
[ 10763 10752 10751 10750 ] final  -92.06 input  -60.55 | X-H torsion
[ 11005 11000 10999 10996 ] final   62.11 input  -57.11 | X-H torsion

> <Gold.Protein.ActiveResidues>
 VAL166  LYS551  ARG553  GLY616  TRP617  ASP618  TYR619  PRO620  LYS621  CYS622 
 ASP623  PHE694  ASN695  SER759  ASP760  ASP761  ALA762  ILE779  LEU786  VAL792 
 PHE793  MET794  SER795  GLU796  ALA797  LYS798  CYS799  TRP800  GLU811  SER814 

> <Gold.Protein.RotatedAtoms>
  151.2905  135.0740  159.9202 H   0  0  0  0  0  0  0  0  0  0  0  0  # atno 6907 bound_to 6896
  152.5317  133.9936  159.7872 H   0  0  0  0  0  0  0  0  0  0  0  0  # atno 6908 bound_to 6896
  151.0206  133.5830  159.2702 H   0  0  0  0  0  0  0  0  0  0  0  0  # atno 6909 bound_to 6896
  144.7748  139.7726  143.6283 H   0  0  0  0  0  0  0  0  0  0  0  0  # atno 7974 bound_to 7965
  155.8935  140.1029  157.1401 H   0  0  0  0  0  0  0  0  0  0  0  0  # atno 8008 bound_to 7997
  154.4017  140.1306  156.4410 H   0  0  0  0  0  0  0  0  0  0  0  0  # atno 8009 bound_to 7997
  155.7506  140.3465  155.5151 H   0  0  0  0  0  0  0  0  0  0  0  0  # atno 8010 bound_to 7997
  139.4982  144.3752  151.9682 H   0  0  0  0  0  0  0  0  0  0  0  0  # atno 10167 bound_to 10162
  156.0116  130.5253  150.6572 H   0  0  0  0  0  0  0  0  0  0  0  0  # atno 10718 bound_to 10713
  154.6823  135.5245  153.8280 H   0  0  0  0  0  0  0  0  0  0  0  0  # atno 10763 bound_to 10752
  153.0573  135.6555  154.0555 H   0  0  0  0  0  0  0  0  0  0  0  0  # atno 10764 bound_to 10752
  154.0440  135.2975  155.3330 H   0  0  0  0  0  0  0  0  0  0  0  0  # atno 10765 bound_to 10752
  140.0114  134.6290  155.9774 H   0  0  0  0  0  0  0  0  0  0  0  0  # atno 11005 bound_to 11000
  146.1921  139.5166  142.9798 LP  0  0  0  0  0  0  0  0  0  0  0  0  # atno 17320 bound_to 7965
  145.6217  141.0321  143.1911 LP  0  0  0  0  0  0  0  0  0  0  0  0  # atno 17321 bound_to 7965
  140.3188  144.3452  150.6015 LP  0  0  0  0  0  0  0  0  0  0  0  0  # atno 17342 bound_to 10162
  140.5740  143.2178  151.7549 LP  0  0  0  0  0  0  0  0  0  0  0  0  # atno 17343 bound_to 10162
  157.4322  131.0850  151.1027 LP  0  0  0  0  0  0  0  0  0  0  0  0  # atno 17370 bound_to 10713
  157.1597  130.6220  149.5607 LP  0  0  0  0  0  0  0  0  0  0  0  0  # atno 17371 bound_to 10713
  141.1713  133.6537  156.4664 LP  0  0  0  0  0  0  0  0  0  0  0  0  # atno 17394 bound_to 11000
  140.4547  134.6896  157.5057 LP  0  0  0  0  0  0  0  0  0  0  0  0  # atno 17395 bound_to 11000

$$$$
