AV-unprocessed.smi:2095|AV-procd|sdf|8554|dock1
  -GOLD-   2272011273D 1   1.00000     0.00000
 Structure written by MMmdl.
 42 43  0  0  0  0  0  0  0  0  2 V2000
  144.7333  133.7111  150.1856 C   0  0  0  0  0  0  0  0  0  0  0  0
  145.6799  134.2844  151.2499 C   0  0  2  0  0  0  0  0  0  0  0  0
  145.6123  133.4720  152.5515 C   0  0  0  0  0  0  0  0  0  0  0  0
  146.5458  134.0847  153.5986 C   0  0  0  0  0  0  0  0  0  0  0  0
  146.2112  135.5663  153.8221 C   0  0  0  0  0  0  0  0  0  0  0  0
  146.2998  136.3479  152.5554 N   0  3  2  0  0  0  0  0  0  0  0  0
  146.1792  137.8244  152.7983 C   0  0  2  0  0  0  0  0  0  0  0  0
  146.5232  138.6981  151.5655 C   0  0  0  0  0  0  0  0  0  0  0  0
  147.0487  138.2273  154.0177 C   0  0  0  0  0  0  0  0  0  0  0  0
  148.4775  138.0972  153.7469 N   0  0  0  0  0  0  0  0  0  0  0  0
  149.4662  138.3726  154.6130 C   0  0  0  0  0  0  0  0  0  0  0  0
  149.2784  138.8458  155.7329 O   0  0  0  0  0  0  0  0  0  0  0  0
  150.8843  138.0326  154.1545 C   0  0  0  0  0  0  0  0  0  0  0  0
  151.8416  138.3109  155.2093 N   0  0  0  0  0  0  0  0  0  0  0  0
  152.1136  139.4372  155.8715 C   0  0  0  0  0  0  0  0  0  0  0  0
  153.0965  139.2678  156.7421 N   0  0  0  0  0  0  0  0  0  0  0  0
  153.4293  137.9326  156.5848 N   0  0  0  0  0  0  0  0  0  0  0  0
  152.6885  137.3597  155.6762 N   0  0  0  0  0  0  0  0  0  0  0  0
  145.3878  135.7758  151.5203 C   0  0  0  0  0  0  0  0  0  0  0  0
  143.6944  133.7538  150.5142 H   0  0  0  0  0  0  0  0  0  0  0  0
  144.9708  132.6691  149.9689 H   0  0  0  0  0  0  0  0  0  0  0  0
  144.8092  134.2665  149.2504 H   0  0  0  0  0  0  0  0  0  0  0  0
  146.6958  134.2078  150.8589 H   0  0  0  0  0  0  0  0  0  0  0  0
  144.5899  133.4576  152.9321 H   0  0  0  0  0  0  0  0  0  0  0  0
  145.8922  132.4341  152.3667 H   0  0  0  0  0  0  0  0  0  0  0  0
  146.4592  133.5375  154.5380 H   0  0  0  0  0  0  0  0  0  0  0  0
  147.5829  133.9847  153.2754 H   0  0  0  0  0  0  0  0  0  0  0  0
  145.2056  135.6604  154.2356 H   0  0  0  0  0  0  0  0  0  0  0  0
  146.8917  135.9602  154.5748 H   0  0  0  0  0  0  0  0  0  0  0  0
  145.1348  138.0343  153.0365 H   0  0  0  0  0  0  0  0  0  0  0  0
  146.4067  139.7607  151.7766 H   0  0  0  0  0  0  0  0  0  0  0  0
  145.8610  138.4995  150.7230 H   0  0  0  0  0  0  0  0  0  0  0  0
  147.5524  138.5429  151.2395 H   0  0  0  0  0  0  0  0  0  0  0  0
  146.8854  139.2671  154.2950 H   0  0  0  0  0  0  0  0  0  0  0  0
  146.7562  137.6386  154.8888 H   0  0  0  0  0  0  0  0  0  0  0  0
  148.7343  137.7207  152.8457 H   0  0  0  0  0  0  0  0  0  0  0  0
  150.9486  136.9776  153.8843 H   0  0  0  0  0  0  0  0  0  0  0  0
  151.1469  138.6120  153.2679 H   0  0  0  0  0  0  0  0  0  0  0  0
  151.6048  140.3758  155.7075 H   0  0  0  0  0  0  0  0  0  0  0  0
  145.5131  136.2974  150.5721 H   0  0  0  0  0  0  0  0  0  0  0  0
  144.3509  135.9117  151.8326 H   0  0  0  0  0  0  0  0  0  0  0  0
  147.2321  136.2077  152.1922 H   0  0  0  0  0  0  0  0  0  0  0  0
  1  2  1  0  0  0  0
  1 20  1  0  0  0  0
  1 21  1  0  0  0  0
  1 22  1  0  0  0  0
  2 19  1  0  0  0  0
  2  3  1  0  0  0  0
  2 23  1  0  0  0  0
  3  4  1  0  0  0  0
  3 24  1  0  0  0  0
  3 25  1  0  0  0  0
  4  5  1  0  0  0  0
  4 26  1  0  0  0  0
  4 27  1  0  0  0  0
  5  6  1  0  0  0  0
  5 28  1  0  0  0  0
  5 29  1  0  0  0  0
  6  7  1  0  0  0  0
  6 19  1  0  0  0  0
  6 42  1  0  0  0  0
  7  8  1  0  0  0  0
  7  9  1  0  0  0  0
  7 30  1  0  0  0  0
  8 31  1  0  0  0  0
  8 32  1  0  0  0  0
  8 33  1  0  0  0  0
  9 10  1  0  0  0  0
  9 34  1  0  0  0  0
  9 35  1  0  0  0  0
 10 11  1  0  0  0  0
 10 36  1  0  0  0  0
 11 12  2  0  0  0  0
 11 13  1  0  0  0  0
 13 14  1  0  0  0  0
 13 37  1  0  0  0  0
 13 38  1  0  0  0  0
 14 18  1  0  0  0  0
 14 15  1  0  0  0  0
 15 16  2  0  0  0  0
 15 39  1  0  0  0  0
 16 17  1  0  0  0  0
 17 18  2  0  0  0  0
 19 40  1  0  0  0  0
 19 41  1  0  0  0  0
M  CHG  1   6   1
M  END
> <s_m_source_file>
AV-unprocessed.smi

> <i_m_source_file_index>
2095

> <i_lp_mmshare_version>
43012

> <i_f3d_flags>
0

> <s_epik_input>
W0NIM11bQ0BASF0xW0NIMl1bQ0gyXVtDSDJdTihbQ0gyXTEpW0NASF0oW0NIM10pW0NIMl1bTkhdQyg9TylbQ0gyXW4yW2NIXW5ubjI=

> <s_epik_cmdline>
J2VwaWtfcHl0aG9uJywgJy1waCcsICc3LjAnLCAnLXRuJywgJzgnLCAnLW1hJywgJzIwMCcsICctbWV0YWxfYmluZGluZycsICctaW1hZScsICc8aW5maWxlLm1hZT4nLCAnLW9tYWUnLCAnPG91dGZpbGUubWFlPic=

> <r_lp_tautomer_probability>
1

> <r_epik_Ionization_Penalty>
0.00268321

> <r_epik_Ionization_Penalty_Charging>
0.00267875

> <r_epik_Ionization_Penalty_Neutral>
4.46125e-06

> <r_epik_State_Penalty>
0.00186642

> <r_epik_Charging_Adjusted_Penalty>
0.00454517

> <i_epik_Tot_Q>
1

> <i_epik_Tot_abs_Q>
1

> <r_epik_Metal_State_Penalty>
-0

> <b_epik_Metal_Only>
0

> <s_lp_Force_Field>
OPLS_2005

> <r_lp_Energy>
25.312

> <b_lp_Chiralities_Consistent>
1

> <s_lp_Variant>
AV-unprocessed.smi:2095-1

> <Gold.Version>
5.8.1

> <Gold.Id.Protein>
6NUR|6NUR_protein|mol2

> <Gold.PLP.Fitness>
44.8060

> <Gold.PLP.PLP>
-31.5973

> <Gold.PLP.part.hbond>
-4.5545

> <Gold.PLP.part.metal>
0.0000

> <Gold.PLP.part.buried>
-3.9366

> <Gold.PLP.part.nonpolar>
-25.1264

> <Gold.PLP.part.repulsive>
0.0846

> <Gold.PLP.ligand.clash>
0.0000

> <Gold.PLP.ligand.torsion>
0.1376

> <Gold.PLP.Chemscore.Hbond>
4.4713

> <Gold.PLP.Chemscore.CHOScore>
0.0000

> <Gold.PLP.Chemscore.Metal>
0.0000

> <Gold.Chemscore.Hbonds>
donor molecule, donor type, donor heavy atom, donor atom, acceptor molecule, acceptor atom, score
      L1  H     6    42       P1  7948  2.00
      L1  H    10    36       P1  7948  0.94
      P1  H  7997  8008       L1    16  0.94
      P1  H 10752 10765       L1    18  0.61

> <Gold.PLP.Chemscore.Internal.Correction>
0.0700

> <Gold.Rescore>
     Score         DG    S(hbond)    S(metal)    S(lipo)     H(rot)  DE(clash)    DE(int)     intcor
     15.30     -16.57       3.53        0.00      51.84       2.64       0.06       1.21       ----

> <Gold.Chemscore.Fitness>
15.3034

> <Gold.Chemscore.DG>
-16.5707

> <Gold.Chemscore.ZeroCoef>
-5.4800

> <Gold.Chemscore.Hbond>
3.5309

> <Gold.Chemscore.Metal>
0.0000

> <Gold.Chemscore.Lipo>
51.8449

> <Gold.Chemscore.Internal_Hbond>
0.0000

> <Gold.Chemscore.DEClash>
0.0570

> <Gold.Chemscore.DEInternal>
1.2102

> <Gold.Chemscore.Rot>
2.6439

> <Gold.Chemscore.Internal.Correction>
   9.000000E+99

> <Gold.Chemscore.Hbonds>
donor molecule, donor type, donor heavy atom, donor atom, acceptor molecule, acceptor atom, score
      L1  H     6    42       P1  7948  1.00
      L1  H    10    36       P1  7948  0.91
      P1  H  7997  8008       L1    16  0.35
      P1  H 10752 10765       L1    18  0.59

> <Gold.Chemscore.Hbond.Weighted>
-11.7933

> <Gold.Chemscore.Metal.Weighted>
-0.0000

> <Gold.Chemscore.Lipo.Weighted>
-6.0659

> <Gold.Chemscore.Internal_Hbond.Weighted>
0.0000

> <Gold.Chemscore.DEClash.Weighted>
0.0570

> <Gold.Chemscore.DEInternal.Weighted>
1.2102

> <Gold.Chemscore.Rot.Weighted>
6.7685

> <Gold.Chemscore.Internal.Correction.Weighted>
   9.000000E+99

> <Gold.Protein.RotatedTorsions>
[ 6907 6896 6895 6894 ] final   40.10 input  -60.11 | X-H torsion
[ 7974 7965 7964 7962 ] final  157.86 input  175.53 | X-H torsion
[ 8008 7997 7996 7995 ] final  -34.99 input   59.86 | X-H torsion
[ 10167 10162 10161 10158 ] final -155.90 input  -65.29 | X-H torsion
[ 10718 10713 10712 10709 ] final  -32.44 input   66.30 | X-H torsion
[ 10763 10752 10751 10750 ] final -154.79 input  -60.55 | X-H torsion
[ 11005 11000 10999 10996 ] final -133.94 input  -57.11 | X-H torsion

> <Gold.Protein.ActiveResidues>
 VAL166  LYS551  ARG553  GLY616  TRP617  ASP618  TYR619  PRO620  LYS621  CYS622 
 ASP623  PHE694  ASN695  SER759  ASP760  ASP761  ALA762  ILE779  LEU786  VAL792 
 PHE793  MET794  SER795  GLU796  ALA797  LYS798  CYS799  TRP800  GLU811  SER814 

> <Gold.Protein.RotatedAtoms>
  152.1782  134.8777  160.0528 H   0  0  0  0  0  0  0  0  0  0  0  0  # atno 6907 bound_to 6896
  151.9711  133.3721  159.4080 H   0  0  0  0  0  0  0  0  0  0  0  0  # atno 6908 bound_to 6896
  150.6913  134.4062  159.5185 H   0  0  0  0  0  0  0  0  0  0  0  0  # atno 6909 bound_to 6896
  144.7879  139.7398  143.6233 H   0  0  0  0  0  0  0  0  0  0  0  0  # atno 7974 bound_to 7965
  154.4106  140.1669  156.2139 H   0  0  0  0  0  0  0  0  0  0  0  0  # atno 8008 bound_to 7997
  155.9421  140.3407  155.6313 H   0  0  0  0  0  0  0  0  0  0  0  0  # atno 8009 bound_to 7997
  155.6976  140.0741  157.2414 H   0  0  0  0  0  0  0  0  0  0  0  0  # atno 8010 bound_to 7997
  139.6894  143.9446  152.2377 H   0  0  0  0  0  0  0  0  0  0  0  0  # atno 10167 bound_to 10162
  156.3749  130.4346  149.7515 H   0  0  0  0  0  0  0  0  0  0  0  0  # atno 10718 bound_to 10713
  154.7834  135.3182  154.7940 H   0  0  0  0  0  0  0  0  0  0  0  0  # atno 10763 bound_to 10752
  153.8646  135.6850  153.4784 H   0  0  0  0  0  0  0  0  0  0  0  0  # atno 10764 bound_to 10752
  153.1477  135.4712  154.9529 H   0  0  0  0  0  0  0  0  0  0  0  0  # atno 10765 bound_to 10752
  140.9035  134.1660  157.4443 H   0  0  0  0  0  0  0  0  0  0  0  0  # atno 11005 bound_to 11000
  146.2119  139.5481  142.9676 LP  0  0  0  0  0  0  0  0  0  0  0  0  # atno 17320 bound_to 7965
  145.5873  141.0374  143.2089 LP  0  0  0  0  0  0  0  0  0  0  0  0  # atno 17321 bound_to 7965
  139.9258  144.6772  150.8414 LP  0  0  0  0  0  0  0  0  0  0  0  0  # atno 17342 bound_to 10162
  140.7678  143.3343  151.2343 LP  0  0  0  0  0  0  0  0  0  0  0  0  # atno 17343 bound_to 10162
  156.4628  130.7960  151.2980 LP  0  0  0  0  0  0  0  0  0  0  0  0  # atno 17370 bound_to 10713
  157.7487  131.0060  150.3136 LP  0  0  0  0  0  0  0  0  0  0  0  0  # atno 17371 bound_to 10713
  139.8746  134.9907  156.5517 LP  0  0  0  0  0  0  0  0  0  0  0  0  # atno 17394 bound_to 11000
  140.8200  133.8361  155.8887 LP  0  0  0  0  0  0  0  0  0  0  0  0  # atno 17395 bound_to 11000

$$$$
