AV-unprocessed.smi:1817|AV-procd|sdf|7372|dock8
  -GOLD-   22720 9 33D 1   1.00000     0.00000
 Structure written by MMmdl.
 42 43  0  0  0  0  0  0  0  0  1 V2000
  153.4515  142.1201  161.7414 C   0  0  0  0  0  0  0  0  0  0  0  0
  152.6159  142.8473  160.6782 C   0  0  0  0  0  0  0  0  0  0  0  0
  152.4490  142.1199  159.4213 N   0  0  0  0  0  0  0  0  0  0  0  0
  151.2122  142.5144  158.7515 C   0  0  0  0  0  0  0  0  0  0  0  0
  151.0243  141.7730  157.4154 C   0  0  0  0  0  0  0  0  0  0  0  0
  150.9880  140.3148  157.5921 N   0  0  0  0  0  0  0  0  0  0  0  0
  150.7948  139.5922  156.3159 C   0  0  2  0  0  0  0  0  0  0  0  0
  149.6080  140.1243  155.4812 C   0  0  0  0  0  0  0  0  0  0  0  0
  150.6329  138.0580  156.4793 C   0  0  0  0  0  0  0  0  0  0  0  0
  149.4807  137.7038  157.3061 N   0  0  0  0  0  0  0  0  0  0  0  0
  149.5326  137.1410  158.5216 C   0  0  0  0  0  0  0  0  0  0  0  0
  150.5838  136.8680  159.1009 O   0  0  0  0  0  0  0  0  0  0  0  0
  148.2997  136.9172  159.0041 N   0  0  0  0  0  0  0  0  0  0  0  0
  147.9417  136.3400  160.2482 C   0  0  0  0  0  0  0  0  0  0  0  0
  147.7898  137.1548  161.2989 N   0  0  0  0  0  0  0  0  0  0  0  0
  147.4411  136.4599  162.4506 N   0  0  0  0  0  0  0  0  0  0  0  0
  147.3437  135.1465  162.2230 C   0  0  0  0  0  0  0  0  0  0  0  0
  147.6683  134.6265  160.5791 S   0  0  0  0  0  0  0  0  0  0  0  0
  152.2275  139.9251  158.2787 C   0  0  0  0  0  0  0  0  0  0  0  0
  152.4132  140.6701  159.6135 C   0  0  0  0  0  0  0  0  0  0  0  0
  153.6177  142.7659  162.6037 H   0  0  0  0  0  0  0  0  0  0  0  0
  154.4284  141.8372  161.3480 H   0  0  0  0  0  0  0  0  0  0  0  0
  152.9576  141.2190  162.1036 H   0  0  0  0  0  0  0  0  0  0  0  0
  151.6394  143.1011  161.0936 H   0  0  0  0  0  0  0  0  0  0  0  0
  153.1091  143.7978  160.4706 H   0  0  0  0  0  0  0  0  0  0  0  0
  150.3563  142.3203  159.4002 H   0  0  0  0  0  0  0  0  0  0  0  0
  151.2223  143.5887  158.5639 H   0  0  0  0  0  0  0  0  0  0  0  0
  150.0924  142.1269  156.9773 H   0  0  0  0  0  0  0  0  0  0  0  0
  151.8228  142.0478  156.7243 H   0  0  0  0  0  0  0  0  0  0  0  0
  151.6883  139.7418  155.7076 H   0  0  0  0  0  0  0  0  0  0  0  0
  149.4191  139.4916  154.6135 H   0  0  0  0  0  0  0  0  0  0  0  0
  149.7978  141.1238  155.0912 H   0  0  0  0  0  0  0  0  0  0  0  0
  148.6896  140.1607  156.0677 H   0  0  0  0  0  0  0  0  0  0  0  0
  150.5690  137.5803  155.5003 H   0  0  0  0  0  0  0  0  0  0  0  0
  151.5219  137.6219  156.9334 H   0  0  0  0  0  0  0  0  0  0  0  0
  148.5710  137.8826  156.9064 H   0  0  0  0  0  0  0  0  0  0  0  0
  147.5271  137.1893  158.4142 H   0  0  0  0  0  0  0  0  0  0  0  0
  147.0788  134.4791  163.0296 H   0  0  0  0  0  0  0  0  0  0  0  0
  152.2227  138.8594  158.5006 H   0  0  0  0  0  0  0  0  0  0  0  0
  153.0871  140.1081  157.6319 H   0  0  0  0  0  0  0  0  0  0  0  0
  153.3398  140.3286  160.0733 H   0  0  0  0  0  0  0  0  0  0  0  0
  151.6068  140.4021  160.2982 H   0  0  0  0  0  0  0  0  0  0  0  0
  1  2  1  0  0  0  0
  1 21  1  0  0  0  0
  1 22  1  0  0  0  0
  1 23  1  0  0  0  0
  2  3  1  0  0  0  0
  2 24  1  0  0  0  0
  2 25  1  0  0  0  0
  3 20  1  0  0  0  0
  3  4  1  0  0  0  0
  4  5  1  0  0  0  0
  4 26  1  0  0  0  0
  4 27  1  0  0  0  0
  5  6  1  0  0  0  0
  5 28  1  0  0  0  0
  5 29  1  0  0  0  0
  6  7  1  0  0  0  0
  6 19  1  0  0  0  0
  7  8  1  0  0  0  0
  7  9  1  0  0  0  0
  7 30  1  0  0  0  0
  8 31  1  0  0  0  0
  8 32  1  0  0  0  0
  8 33  1  0  0  0  0
  9 10  1  0  0  0  0
  9 34  1  0  0  0  0
  9 35  1  0  0  0  0
 10 11  1  0  0  0  0
 10 36  1  0  0  0  0
 11 12  2  0  0  0  0
 11 13  1  0  0  0  0
 13 14  1  0  0  0  0
 13 37  1  0  0  0  0
 14 18  1  0  0  0  0
 14 15  2  0  0  0  0
 15 16  1  0  0  0  0
 16 17  2  0  0  0  0
 17 18  1  0  0  0  0
 17 38  1  0  0  0  0
 19 20  1  0  0  0  0
 19 39  1  0  0  0  0
 19 40  1  0  0  0  0
 20 41  1  0  0  0  0
 20 42  1  0  0  0  0
M  END
> <s_m_source_file>
AV-unprocessed.smi

> <i_m_source_file_index>
1817

> <i_lp_mmshare_version>
43012

> <i_f3d_flags>
0

> <s_epik_input>
W0NIM11bQ0gyXU4xW0NIMl1bQ0gyXU4oW0NIMl1bQ0gyXTEpW0NASF0oW0NIM10pW0NIMl1bTkhdQyg9TylbTkhdYzJubltjSF1zMg==

> <s_epik_cmdline>
J2VwaWtfcHl0aG9uJywgJy1waCcsICc3LjAnLCAnLXRuJywgJzgnLCAnLW1hJywgJzIwMCcsICctbWV0YWxfYmluZGluZycsICctaW1hZScsICc8aW5maWxlLm1hZT4nLCAnLW9tYWUnLCAnPG91dGZpbGUubWFlPic=

> <r_lp_tautomer_probability>
1

> <r_epik_Ionization_Penalty>
2.44129

> <r_epik_Ionization_Penalty_Charging>
0

> <r_epik_Ionization_Penalty_Neutral>
2.44129

> <r_epik_State_Penalty>
1.7682

> <r_epik_Charging_Adjusted_Penalty>
1.7682

> <i_epik_Tot_Q>
0

> <i_epik_Tot_abs_Q>
0

> <r_epik_Metal_State_Penalty>
2.10306

> <b_epik_Metal_Only>
0

> <s_lp_Force_Field>
OPLS_2005

> <r_lp_Energy>
42.0041

> <b_lp_Chiralities_Consistent>
1

> <s_lp_Variant>
AV-unprocessed.smi:1817-5

> <Gold.Version>
5.8.1

> <Gold.Id.Protein>
6NUR|6NUR_protein|mol2

> <Gold.PLP.Fitness>
40.1284

> <Gold.PLP.PLP>
-34.1432

> <Gold.PLP.part.hbond>
-3.0744

> <Gold.PLP.part.metal>
0.0000

> <Gold.PLP.part.buried>
-6.1309

> <Gold.PLP.part.nonpolar>
-24.8134

> <Gold.PLP.part.repulsive>
0.1783

> <Gold.PLP.ligand.clash>
0.0000

> <Gold.PLP.ligand.torsion>
1.1644

> <Gold.PLP.Chemscore.Hbond>
2.7600

> <Gold.PLP.Chemscore.CHOScore>
0.0000

> <Gold.PLP.Chemscore.Metal>
0.0000

> <Gold.Chemscore.Hbonds>
donor molecule, donor type, donor heavy atom, donor atom, acceptor molecule, acceptor atom, score
      P1  H  6896  6908       L1    12  0.98
      P1  H  6931  6943       L1    15  1.00
      P1  H  6934  6947       L1    15  0.78

> <Gold.PLP.Chemscore.Internal.Correction>
0.0339

> <Gold.Rescore>
     Score         DG    S(hbond)    S(metal)    S(lipo)     H(rot)  DE(clash)    DE(int)     intcor
     17.33     -18.47       2.45        0.00      81.98       1.87       0.00       1.13       ----

> <Gold.Chemscore.Fitness>
17.3266

> <Gold.Chemscore.DG>
-18.4659

> <Gold.Chemscore.ZeroCoef>
-5.4800

> <Gold.Chemscore.Hbond>
2.4521

> <Gold.Chemscore.Metal>
0.0000

> <Gold.Chemscore.Lipo>
81.9783

> <Gold.Chemscore.Internal_Hbond>
0.0000

> <Gold.Chemscore.DEClash>
0.0048

> <Gold.Chemscore.DEInternal>
1.1344

> <Gold.Chemscore.Rot>
1.8733

> <Gold.Chemscore.Internal.Correction>
   9.000000E+99

> <Gold.Chemscore.Hbonds>
donor molecule, donor type, donor heavy atom, donor atom, acceptor molecule, acceptor atom, score
      P1  H  6896  6908       L1    12  0.90
      P1  H  6931  6943       L1    15  0.33
      P1  H  6934  6947       L1    15  0.71

> <Gold.Chemscore.Hbond.Weighted>
-8.1901

> <Gold.Chemscore.Metal.Weighted>
-0.0000

> <Gold.Chemscore.Lipo.Weighted>
-9.5915

> <Gold.Chemscore.Internal_Hbond.Weighted>
0.0000

> <Gold.Chemscore.DEClash.Weighted>
0.0048

> <Gold.Chemscore.DEInternal.Weighted>
1.1344

> <Gold.Chemscore.Rot.Weighted>
4.7957

> <Gold.Chemscore.Internal.Correction.Weighted>
   9.000000E+99

> <Gold.Protein.RotatedTorsions>
[ 6907 6896 6895 6894 ] final -161.01 input  -60.11 | X-H torsion
[ 7974 7965 7964 7962 ] final -149.02 input  175.53 | X-H torsion
[ 8008 7997 7996 7995 ] final -161.08 input   59.86 | X-H torsion
[ 10167 10162 10161 10158 ] final  112.95 input  -65.29 | X-H torsion
[ 10718 10713 10712 10709 ] final  134.82 input   66.30 | X-H torsion
[ 10763 10752 10751 10750 ] final -140.52 input  -60.55 | X-H torsion
[ 11005 11000 10999 10996 ] final    9.02 input  -57.11 | X-H torsion

> <Gold.Protein.ActiveResidues>
 VAL166  LYS551  ARG553  GLY616  TRP617  ASP618  TYR619  PRO620  LYS621  CYS622 
 ASP623  PHE694  ASN695  SER759  ASP760  ASP761  ALA762  ILE779  LEU786  VAL792 
 PHE793  MET794  SER795  GLU796  ALA797  LYS798  CYS799  TRP800  GLU811  SER814 

> <Gold.Protein.RotatedAtoms>
  151.3580  133.3900  159.2686 H   0  0  0  0  0  0  0  0  0  0  0  0  # atno 6907 bound_to 6896
  150.9748  134.9115  159.7820 H   0  0  0  0  0  0  0  0  0  0  0  0  # atno 6908 bound_to 6896
  152.5197  134.3543  159.9314 H   0  0  0  0  0  0  0  0  0  0  0  0  # atno 6909 bound_to 6896
  144.7993  140.5120  143.5718 H   0  0  0  0  0  0  0  0  0  0  0  0  # atno 7974 bound_to 7965
  155.7869  140.0873  157.2030 H   0  0  0  0  0  0  0  0  0  0  0  0  # atno 8008 bound_to 7997
  154.3987  140.1497  156.3175 H   0  0  0  0  0  0  0  0  0  0  0  0  # atno 8009 bound_to 7997
  155.8598  140.3431  155.5751 H   0  0  0  0  0  0  0  0  0  0  0  0  # atno 8010 bound_to 7997
  139.6497  144.7128  151.2072 H   0  0  0  0  0  0  0  0  0  0  0  0  # atno 10167 bound_to 10162
  157.4633  131.1075  150.9893 H   0  0  0  0  0  0  0  0  0  0  0  0  # atno 10718 bound_to 10713
  154.8576  135.3551  154.5720 H   0  0  0  0  0  0  0  0  0  0  0  0  # atno 10763 bound_to 10752
  153.6332  135.7001  153.5272 H   0  0  0  0  0  0  0  0  0  0  0  0  # atno 10764 bound_to 10752
  153.3032  135.4200  155.1230 H   0  0  0  0  0  0  0  0  0  0  0  0  # atno 10765 bound_to 10752
  140.5305  134.0471  155.7872 H   0  0  0  0  0  0  0  0  0  0  0  0  # atno 11005 bound_to 11000
  145.5593  139.1479  143.3350 LP  0  0  0  0  0  0  0  0  0  0  0  0  # atno 17320 bound_to 7965
  146.2270  140.5729  142.8992 LP  0  0  0  0  0  0  0  0  0  0  0  0  # atno 17321 bound_to 7965
  140.7532  143.6171  150.8549 LP  0  0  0  0  0  0  0  0  0  0  0  0  # atno 17342 bound_to 10162
  139.9818  143.5943  152.2940 LP  0  0  0  0  0  0  0  0  0  0  0  0  # atno 17343 bound_to 10162
  157.0682  130.5853  149.5398 LP  0  0  0  0  0  0  0  0  0  0  0  0  # atno 17370 bound_to 10713
  156.0039  130.5122  150.7760 LP  0  0  0  0  0  0  0  0  0  0  0  0  # atno 17371 bound_to 10713
  141.1284  133.9344  157.2587 LP  0  0  0  0  0  0  0  0  0  0  0  0  # atno 17394 bound_to 11000
  139.9557  135.0166  156.9121 LP  0  0  0  0  0  0  0  0  0  0  0  0  # atno 17395 bound_to 11000

$$$$
