#       Name:                AV-unprocessed.smi:2062
#       Creating user name   scv26
#       Creation time:       Fri Mar 27 11:08:18 2020


#       File generated by GOLD software.
#

@<TRIPOS>MOLECULE
AV-unprocessed.smi:2062
    48    49     1
SMALL
NO_CHARGES


@<TRIPOS>ATOM
      1 ****        -2.5399   1.8434  -3.0412 C.3            1 S1                 0.0000
      2 ****        -1.0136   1.6780  -3.0833 C.3            1 S1                 0.0000
      3 ****        -0.4767   2.0074  -4.4862 C.3            1 S1                 0.0000
      4 ****        -0.6089   0.2583  -2.6298 C.3            1 S1                 0.0000
      5 ****         0.8643   0.0806  -2.5085 N.4            1 S1                 1.0000
      6 ****         1.3015  -1.3325  -2.6165 C.3            1 S1                 0.0000
      7 ****         1.0531  -2.0931  -1.3016 C.3            1 S1                 0.0000
      8 ****         1.7204  -1.4256  -0.2379 O.3            1 S1                 0.0000
      9 ****         1.2332  -0.1025  -0.0340 C.3            1 S1                 0.0000
     10 ****         1.9607   0.5006   1.1812 C.3            1 S1                 0.0000
     11 ****         1.6635  -0.2260   2.4111 N.am           1 S1                 0.0000
     12 ****         0.5122  -0.1402   3.0927 C.2            1 S1                 0.0000
     13 ****        -0.4264   0.5775   2.7456 O.2            1 S1                 0.0000
     14 ****         0.5271  -0.9319   4.1790 N.am           1 S1                 0.0000
     15 ****        -0.5100  -1.1413   5.1257 C.2            1 S1                 0.0000
     16 ****        -1.7211  -0.5764   5.0551 N.2            1 S1                 0.0000
     17 ****        -2.5428  -0.9638   6.1167 C.2            1 S1                 0.0000
     18 ****        -1.9373  -1.8316   6.9911 C.2            1 S1                 0.0000
     19 ****        -0.3014  -2.1994   6.5136 S.3            1 S1                 0.0000
     20 ****         1.4784   0.7219  -1.3168 C.3            1 S1                 0.0000
     21 ****        -3.0345   1.1499  -3.7222 H              1 S1                 0.0000
     22 ****        -2.8341   2.8544  -3.3250 H              1 S1                 0.0000
     23 ****        -2.9279   1.6600  -2.0389 H              1 S1                 0.0000
     24 ****        -0.6034   2.4090  -2.3877 H              1 S1                 0.0000
     25 ****        -0.8579   1.3082  -5.2313 H              1 S1                 0.0000
     26 ****         0.6121   1.9674  -4.5174 H              1 S1                 0.0000
     27 ****        -0.7721   3.0112  -4.7930 H              1 S1                 0.0000
     28 ****        -1.0952   0.0080  -1.6871 H              1 S1                 0.0000
     29 ****        -0.9976  -0.4517  -3.3613 H              1 S1                 0.0000
     30 ****         0.8080  -1.8283  -3.4531 H              1 S1                 0.0000
     31 ****         2.3687  -1.3448  -2.8420 H              1 S1                 0.0000
     32 ****        -0.0130  -2.1789  -1.0868 H              1 S1                 0.0000
     33 ****         1.4431  -3.1080  -1.3775 H              1 S1                 0.0000
     34 ****         0.1642  -0.1411   0.1782 H              1 S1                 0.0000
     35 ****         3.0392   0.4809   1.0215 H              1 S1                 0.0000
     36 ****         1.6855   1.5492   1.3060 H              1 S1                 0.0000
     37 ****         2.3837  -0.8396   2.7638 H              1 S1                 0.0000
     38 ****         1.3757  -1.4523   4.3449 H              1 S1                 0.0000
     39 ****        -3.5480  -0.5729   6.1721 H              1 S1                 0.0000
     40 ****        -2.3531  -2.2752   7.8835 H              1 S1                 0.0000
     41 ****         2.5517   0.8004  -1.4949 H              1 S1                 0.0000
     42 ****         1.1203   1.7426  -1.1908 H              1 S1                 0.0000
     43 ****         1.2485   0.5482  -3.3174 H              1 S1                 0.0000
     44 ****         2.6964  -1.3789  -0.4506 LP             1 S1                 0.0000
     45 ****         1.5873  -1.9497   0.6033 LP             1 S1                 0.0000
     46 ****        -0.3511   1.1337   1.9180 LP             1 S1                 0.0000
     47 ****        -1.2639   0.6041   3.2914 LP             1 S1                 0.0000
     48 ****        -2.0046   0.0492   4.3283 LP             1 S1                 0.0000
@<TRIPOS>BOND
    1    1    2 1     
    2    1   21 1     
    3    1   22 1     
    4    1   23 1     
    5    2    3 1     
    6    2    4 1     
    7    2   24 1     
    8    3   25 1     
    9    3   26 1     
   10    3   27 1     
   11    4    5 1     
   12    4   28 1     
   13    4   29 1     
   14    5   20 1     
   15    5    6 1     
   16    5   43 1     
   17    6    7 1     
   18    6   30 1     
   19    6   31 1     
   20    7    8 1     
   21    7   32 1     
   22    7   33 1     
   23    8    9 1     
   24    9   10 1     
   25    9   20 1     
   26    9   34 1     
   27   10   11 1     
   28   10   35 1     
   29   10   36 1     
   30   11   12 am    
   31   11   37 1     
   32   12   13 2     
   33   12   14 am    
   34   14   15 1     
   35   14   38 1     
   36   15   19 1     
   37   15   16 2     
   38   16   17 1     
   39   17   18 2     
   40   17   39 1     
   41   18   19 1     
   42   18   40 1     
   43   20   41 1     
   44   20   42 1     
   45    8   44 1     
   46    8   45 1     
   47   13   46 1     
   48   13   47 1     
   49   16   48 1     
@<TRIPOS>SUBSTRUCTURE
      1 S1             1
@<TRIPOS>SET
LONE_PAIRS      STATIC     ATOMS    <user>   **** ""
5 44 45 46 47 48
DONOR_HYDROGENS      STATIC     ATOMS    <user>   **** ""
3 43 37 38
ATOM$BLUE        STATIC     ATOMS    COLORGROUP SYSTEM
5 44 45 46 47 48
ATOM$RED        STATIC     ATOMS    COLORGROUP SYSTEM
3 43 37 38
