AV-unprocessed.smi:2124|AV-procd|sdf|8658|dock4
  -GOLD-   2272011403D 1   1.00000     0.00000
 Structure written by MMmdl.
 47 49  0  0  0  0  0  0  0  0  1 V2000
  144.5187  143.6498  153.7096 C   0  0  0  0  0  0  0  0  0  0  0  0
  145.2663  142.7096  154.6298 C   0  0  0  0  0  0  0  0  0  0  0  0
  146.4113  142.1728  154.0651 N   0  0  0  0  0  0  0  0  0  0  0  0
  147.1774  141.3208  154.8407 C   0  0  0  0  0  0  0  0  0  0  0  0
  148.4259  140.7959  154.1533 C   0  0  0  0  0  0  0  0  0  0  0  0
  146.8118  141.0058  156.1094 C   0  0  0  0  0  0  0  0  0  0  0  0
  147.6360  140.0796  157.0013 C   0  0  0  0  0  0  0  0  0  0  0  0
  149.1380  140.3673  157.0379 C   0  0  0  0  0  0  0  0  0  0  0  0
  149.9097  139.6970  156.3527 O   0  0  0  0  0  0  0  0  0  0  0  0
  149.5358  141.3680  157.8393 N   0  0  0  0  0  0  0  0  0  0  0  0
  150.9136  141.8187  158.0222 C   0  0  2  0  0  0  0  0  0  0  0  0
  151.8372  140.5969  158.1585 C   0  0  0  0  0  0  0  0  0  0  0  0
  150.9850  142.7547  159.2517 C   0  0  2  0  0  0  0  0  0  0  0  0
  149.9987  143.9449  159.2165 C   0  0  0  0  0  0  0  0  0  0  0  0
  150.8962  145.1504  159.5514 C   0  0  2  0  0  0  0  0  0  0  0  0
  151.7725  145.4784  158.3289 C   0  0  0  0  0  0  0  0  0  0  0  0
  152.7893  144.3226  158.3233 C   0  0  0  0  0  0  0  0  0  0  0  0
  152.3372  143.4619  159.5214 C   0  0  1  0  0  0  0  0  0  0  0  0
  151.9113  144.5412  160.5120 C   0  0  0  0  0  0  0  0  0  0  0  0
  145.5617  141.5910  156.6496 C   0  0  0  0  0  0  0  0  0  0  0  0
  145.1612  141.3236  157.7819 O   0  0  0  0  0  0  0  0  0  0  0  0
  144.8321  142.4663  155.8290 N   0  0  0  0  0  0  0  0  0  0  0  0
  146.7202  142.3817  153.1267 H   0  0  0  0  0  0  0  0  0  0  0  0
  143.6361  144.0593  154.2028 H   0  0  0  0  0  0  0  0  0  0  0  0
  144.1946  143.1245  152.8107 H   0  0  0  0  0  0  0  0  0  0  0  0
  145.1595  144.4812  153.4144 H   0  0  0  0  0  0  0  0  0  0  0  0
  149.3197  141.1009  154.6974 H   0  0  0  0  0  0  0  0  0  0  0  0
  148.5113  141.1713  153.1330 H   0  0  0  0  0  0  0  0  0  0  0  0
  148.4042  139.7077  154.1060 H   0  0  0  0  0  0  0  0  0  0  0  0
  147.4978  139.0386  156.7082 H   0  0  0  0  0  0  0  0  0  0  0  0
  147.2352  140.1327  158.0142 H   0  0  0  0  0  0  0  0  0  0  0  0
  148.8266  141.8607  158.3627 H   0  0  0  0  0  0  0  0  0  0  0  0
  151.2108  142.3802  157.1360 H   0  0  0  0  0  0  0  0  0  0  0  0
  152.8821  140.8964  158.2385 H   0  0  0  0  0  0  0  0  0  0  0  0
  151.7556  139.9422  157.2902 H   0  0  0  0  0  0  0  0  0  0  0  0
  151.5898  140.0089  159.0430 H   0  0  0  0  0  0  0  0  0  0  0  0
  150.7530  142.1555  160.1346 H   0  0  0  0  0  0  0  0  0  0  0  0
  149.5118  144.0670  158.2481 H   0  0  0  0  0  0  0  0  0  0  0  0
  149.2169  143.8155  159.9659 H   0  0  0  0  0  0  0  0  0  0  0  0
  150.3486  146.0096  159.9394 H   0  0  0  0  0  0  0  0  0  0  0  0
  151.1941  145.5283  157.4055 H   0  0  0  0  0  0  0  0  0  0  0  0
  152.2801  146.4351  158.4577 H   0  0  0  0  0  0  0  0  0  0  0  0
  152.8097  143.7800  157.3792 H   0  0  0  0  0  0  0  0  0  0  0  0
  153.7957  144.7077  158.4930 H   0  0  0  0  0  0  0  0  0  0  0  0
  153.1131  142.7929  159.8948 H   0  0  0  0  0  0  0  0  0  0  0  0
  152.7174  145.2261  160.7815 H   0  0  0  0  0  0  0  0  0  0  0  0
  151.4610  144.1434  161.4234 H   0  0  0  0  0  0  0  0  0  0  0  0
  1 24  1  0  0  0  0
  1 25  1  0  0  0  0
  1 26  1  0  0  0  0
  1  2  1  0  0  0  0
  2  3  1  0  0  0  0
  2 22  2  0  0  0  0
  3  4  1  0  0  0  0
  3 23  1  0  0  0  0
  4  6  2  0  0  0  0
  4  5  1  0  0  0  0
  5 27  1  0  0  0  0
  5 28  1  0  0  0  0
  5 29  1  0  0  0  0
  6 20  1  0  0  0  0
  6  7  1  0  0  0  0
  7  8  1  0  0  0  0
  7 30  1  0  0  0  0
  7 31  1  0  0  0  0
  8  9  2  0  0  0  0
  8 10  1  0  0  0  0
 10 11  1  0  0  0  0
 10 32  1  0  0  0  0
 11 12  1  0  0  0  0
 11 13  1  0  0  0  0
 11 33  1  0  0  0  0
 12 34  1  0  0  0  0
 12 35  1  0  0  0  0
 12 36  1  0  0  0  0
 13 18  1  0  0  0  0
 13 14  1  0  0  0  0
 13 37  1  0  0  0  0
 14 15  1  0  0  0  0
 14 38  1  0  0  0  0
 14 39  1  0  0  0  0
 15 19  1  0  0  0  0
 15 16  1  0  0  0  0
 15 40  1  0  0  0  0
 16 17  1  0  0  0  0
 16 41  1  0  0  0  0
 16 42  1  0  0  0  0
 17 18  1  0  0  0  0
 17 43  1  0  0  0  0
 17 44  1  0  0  0  0
 18 19  1  0  0  0  0
 18 45  1  0  0  0  0
 19 46  1  0  0  0  0
 19 47  1  0  0  0  0
 20 21  2  0  0  0  0
 20 22  1  0  0  0  0
M  END
> <s_m_source_file>
AV-unprocessed.smi

> <i_m_source_file_index>
2124

> <i_lp_mmshare_version>
43012

> <i_f3d_flags>
0

> <s_epik_input>
W0NIM11jMW5jKFtDSDNdKWMoYyg9TylbbkhdMSlbQ0gyXUMoPU8pW05IXVtDQEhdKFtDSDNdKVtDQEhdKFtDSDJdW0NASF0yMylbQ0BIXShbQ0gyXTMpW0NIMl1bQ0gyXTI=

> <s_epik_cmdline>
J2VwaWtfcHl0aG9uJywgJy1waCcsICc3LjAnLCAnLXRuJywgJzgnLCAnLW1hJywgJzIwMCcsICctbWV0YWxfYmluZGluZycsICctaW1hZScsICc8aW5maWxlLm1hZT4nLCAnLW9tYWUnLCAnPG91dGZpbGUubWFlPic=

> <r_lp_tautomer_probability>
0.156392

> <r_epik_Ionization_Penalty>
0.0139374

> <r_epik_Ionization_Penalty_Charging>
0.0138122

> <r_epik_Ionization_Penalty_Neutral>
0.000125146

> <r_epik_State_Penalty>
1.15342

> <r_epik_Charging_Adjusted_Penalty>
1.16723

> <i_epik_Tot_Q>
0

> <i_epik_Tot_abs_Q>
0

> <r_epik_Metal_State_Penalty>
1.3173

> <b_epik_Metal_Only>
0

> <s_lp_Force_Field>
OPLS_2005

> <r_lp_Energy>
55.868

> <b_lp_Chiralities_Consistent>
1

> <s_lp_Variant>
AV-unprocessed.smi:2124-9

> <Gold.Version>
5.8.1

> <Gold.Id.Protein>
6NUR|6NUR_protein|mol2

> <Gold.PLP.Fitness>
39.9753

> <Gold.PLP.PLP>
-41.2470

> <Gold.PLP.part.hbond>
0.0000

> <Gold.PLP.part.metal>
0.0000

> <Gold.PLP.part.buried>
-5.4072

> <Gold.PLP.part.nonpolar>
-35.9123

> <Gold.PLP.part.repulsive>
0.4916

> <Gold.PLP.ligand.clash>
0.0000

> <Gold.PLP.ligand.torsion>
0.6466

> <Gold.PLP.Chemscore.Hbond>
0.0000

> <Gold.PLP.Chemscore.CHOScore>
0.0000

> <Gold.PLP.Chemscore.Metal>
0.0000

> <Gold.PLP.Chemscore.Internal.Correction>
0.0216

> <Gold.Rescore>
     Score         DG    S(hbond)    S(metal)    S(lipo)     H(rot)  DE(clash)    DE(int)     intcor
     12.36     -15.03       0.00        0.00     117.82       1.65       0.53       2.14       ----

> <Gold.Chemscore.Fitness>
12.3625

> <Gold.Chemscore.DG>
-15.0324

> <Gold.Chemscore.ZeroCoef>
-5.4800

> <Gold.Chemscore.Hbond>
0.0000

> <Gold.Chemscore.Metal>
0.0000

> <Gold.Chemscore.Lipo>
117.8209

> <Gold.Chemscore.Internal_Hbond>
0.0000

> <Gold.Chemscore.DEClash>
0.5340

> <Gold.Chemscore.DEInternal>
2.1359

> <Gold.Chemscore.Rot>
1.6534

> <Gold.Chemscore.Internal.Correction>
   9.000000E+99

> <Gold.Chemscore.Hbond.Weighted>
-0.0000

> <Gold.Chemscore.Metal.Weighted>
-0.0000

> <Gold.Chemscore.Lipo.Weighted>
-13.7850

> <Gold.Chemscore.Internal_Hbond.Weighted>
0.0000

> <Gold.Chemscore.DEClash.Weighted>
0.5340

> <Gold.Chemscore.DEInternal.Weighted>
2.1359

> <Gold.Chemscore.Rot.Weighted>
4.2326

> <Gold.Chemscore.Internal.Correction.Weighted>
   9.000000E+99

> <Gold.Protein.RotatedTorsions>
[ 6907 6896 6895 6894 ] final   45.33 input  -60.11 | X-H torsion
[ 7974 7965 7964 7962 ] final  159.62 input  175.53 | X-H torsion
[ 8008 7997 7996 7995 ] final  167.19 input   59.86 | X-H torsion
[ 10167 10162 10161 10158 ] final -125.51 input  -65.29 | X-H torsion
[ 10718 10713 10712 10709 ] final  -15.30 input   66.30 | X-H torsion
[ 10763 10752 10751 10750 ] final  -93.53 input  -60.55 | X-H torsion
[ 11005 11000 10999 10996 ] final  179.04 input  -57.11 | X-H torsion

> <Gold.Protein.ActiveResidues>
 VAL166  LYS551  ARG553  GLY616  TRP617  ASP618  TYR619  PRO620  LYS621  CYS622 
 ASP623  PHE694  ASN695  SER759  ASP760  ASP761  ALA762  ILE779  LEU786  VAL792 
 PHE793  MET794  SER795  GLU796  ALA797  LYS798  CYS799  TRP800  GLU811  SER814 

> <Gold.Protein.RotatedAtoms>
  152.2433  134.8207  160.0456 H   0  0  0  0  0  0  0  0  0  0  0  0  # atno 6907 bound_to 6896
  151.8913  133.3511  159.3807 H   0  0  0  0  0  0  0  0  0  0  0  0  # atno 6908 bound_to 6896
  150.7060  134.4847  159.5531 H   0  0  0  0  0  0  0  0  0  0  0  0  # atno 6909 bound_to 6896
  144.7780  139.7642  143.6271 H   0  0  0  0  0  0  0  0  0  0  0  0  # atno 7974 bound_to 7965
  156.1655  140.1623  156.8539 H   0  0  0  0  0  0  0  0  0  0  0  0  # atno 8008 bound_to 7997
  154.5203  140.0780  156.8194 H   0  0  0  0  0  0  0  0  0  0  0  0  # atno 8009 bound_to 7997
  155.3621  140.3396  155.4243 H   0  0  0  0  0  0  0  0  0  0  0  0  # atno 8010 bound_to 7997
  139.9813  143.5739  152.2377 H   0  0  0  0  0  0  0  0  0  0  0  0  # atno 10167 bound_to 10162
  156.6037  130.4831  149.6229 H   0  0  0  0  0  0  0  0  0  0  0  0  # atno 10718 bound_to 10713
  154.6968  135.5191  153.8469 H   0  0  0  0  0  0  0  0  0  0  0  0  # atno 10763 bound_to 10752
  153.0673  135.6589  154.0335 H   0  0  0  0  0  0  0  0  0  0  0  0  # atno 10764 bound_to 10752
  154.0201  135.2994  155.3361 H   0  0  0  0  0  0  0  0  0  0  0  0  # atno 10765 bound_to 10752
  140.4018  134.6770  157.4566 H   0  0  0  0  0  0  0  0  0  0  0  0  # atno 11005 bound_to 11000
  146.1972  139.5245  142.9767 LP  0  0  0  0  0  0  0  0  0  0  0  0  # atno 17320 bound_to 7965
  145.6129  141.0336  143.1956 LP  0  0  0  0  0  0  0  0  0  0  0  0  # atno 17321 bound_to 7965
  139.6407  144.7654  151.2344 LP  0  0  0  0  0  0  0  0  0  0  0  0  # atno 17342 bound_to 10162
  140.7488  143.6321  150.8413 LP  0  0  0  0  0  0  0  0  0  0  0  0  # atno 17343 bound_to 10162
  156.2448  130.6872  151.1589 LP  0  0  0  0  0  0  0  0  0  0  0  0  # atno 17370 bound_to 10713
  157.7273  131.0640  150.5872 LP  0  0  0  0  0  0  0  0  0  0  0  0  # atno 17371 bound_to 10713
  140.0331  134.6377  155.9080 LP  0  0  0  0  0  0  0  0  0  0  0  0  # atno 17394 bound_to 11000
  141.1854  133.6555  156.5196 LP  0  0  0  0  0  0  0  0  0  0  0  0  # atno 17395 bound_to 11000

$$$$
