AV-unprocessed.smi:2712|AV-procd|sdf|10474|dock3
  -GOLD-   2272014513D 1   1.00000     0.00000
 Structure written by MMmdl.
 52 53  0  0  0  0  0  0  0  0  1 V2000
  151.8108  144.1763  160.8010 C   0  0  0  0  0  0  0  0  0  0  0  0
  152.3754  142.8843  160.2888 C   0  0  0  0  0  0  0  0  0  0  0  0
  153.3886  142.1295  161.0011 C   0  0  0  0  0  0  0  0  0  0  0  0
  153.8467  140.9744  160.4730 C   0  0  0  0  0  0  0  0  0  0  0  0
  153.3458  140.4596  159.2007 C   0  0  0  0  0  0  0  0  0  0  0  0
  153.7322  139.4036  158.7008 O   0  0  0  0  0  0  0  0  0  0  0  0
  152.3954  141.2533  158.6224 N   0  0  0  0  0  0  0  0  0  0  0  0
  151.7579  140.8783  157.3491 C   0  0  0  0  0  0  0  0  0  0  0  0
  150.2222  140.7868  157.3984 C   0  0  0  0  0  0  0  0  0  0  0  0
  149.6507  140.8787  158.4842 O   0  0  0  0  0  0  0  0  0  0  0  0
  149.5640  140.6140  156.2396 N   0  0  0  0  0  0  0  0  0  0  0  0
  148.1161  140.5395  156.0710 C   0  0  2  0  0  0  0  0  0  0  0  0
  147.7732  140.6145  154.5714 C   0  0  0  0  0  0  0  0  0  0  0  0
  147.6892  142.0388  154.0025 C   0  0  0  0  0  0  0  0  0  0  0  0
  146.2827  142.6553  154.1196 C   0  0  0  0  0  0  0  0  0  0  0  0
  145.8405  143.0994  155.5422 C   0  0  1  0  0  0  0  0  0  0  0  0
  144.4216  143.7801  155.5682 C   0  0  0  0  0  0  0  0  0  0  0  0
  144.2025  144.6028  156.8567 C   0  0  0  0  0  0  0  0  0  0  0  0
  143.2925  142.7283  155.4689 C   0  0  0  0  0  0  0  0  0  0  0  0
  144.2449  144.7158  154.3482 C   0  0  0  0  0  0  0  0  0  0  0  0
  145.9820  141.9446  156.5760 C   0  0  0  0  0  0  0  0  0  0  0  0
  147.4393  141.6172  156.9442 C   0  0  0  0  0  0  0  0  0  0  0  0
  151.9270  142.4408  159.1605 N   0  0  0  0  0  0  0  0  0  0  0  0
  152.2072  144.4168  161.7878 H   0  0  0  0  0  0  0  0  0  0  0  0
  150.7247  144.1216  160.8824 H   0  0  0  0  0  0  0  0  0  0  0  0
  152.0589  144.9999  160.1312 H   0  0  0  0  0  0  0  0  0  0  0  0
  153.7686  142.4955  161.9433 H   0  0  0  0  0  0  0  0  0  0  0  0
  154.6023  140.4138  161.0041 H   0  0  0  0  0  0  0  0  0  0  0  0
  152.0251  141.6009  156.5760 H   0  0  0  0  0  0  0  0  0  0  0  0
  152.1520  139.9231  156.9973 H   0  0  0  0  0  0  0  0  0  0  0  0
  150.1175  140.5459  155.3978 H   0  0  0  0  0  0  0  0  0  0  0  0
  147.7854  139.5580  156.4160 H   0  0  0  0  0  0  0  0  0  0  0  0
  148.5173  140.0474  154.0099 H   0  0  0  0  0  0  0  0  0  0  0  0
  146.8314  140.0968  154.3857 H   0  0  0  0  0  0  0  0  0  0  0  0
  148.4440  142.6892  154.4466 H   0  0  0  0  0  0  0  0  0  0  0  0
  147.9354  141.9867  152.9415 H   0  0  0  0  0  0  0  0  0  0  0  0
  146.2886  143.5211  153.4594 H   0  0  0  0  0  0  0  0  0  0  0  0
  145.5542  141.9646  153.6954 H   0  0  0  0  0  0  0  0  0  0  0  0
  146.5436  143.8784  155.8405 H   0  0  0  0  0  0  0  0  0  0  0  0
  143.2090  145.0526  156.8701 H   0  0  0  0  0  0  0  0  0  0  0  0
  144.9198  145.4186  156.9467 H   0  0  0  0  0  0  0  0  0  0  0  0
  144.2870  143.9881  157.7525 H   0  0  0  0  0  0  0  0  0  0  0  0
  143.2144  142.1215  156.3709 H   0  0  0  0  0  0  0  0  0  0  0  0
  143.4454  142.0572  154.6228 H   0  0  0  0  0  0  0  0  0  0  0  0
  142.3184  143.2006  155.3373 H   0  0  0  0  0  0  0  0  0  0  0  0
  143.2235  145.0931  154.2832 H   0  0  0  0  0  0  0  0  0  0  0  0
  144.4544  144.1954  153.4131 H   0  0  0  0  0  0  0  0  0  0  0  0
  144.8864  145.5944  154.3899 H   0  0  0  0  0  0  0  0  0  0  0  0
  145.4965  142.2223  157.5080 H   0  0  0  0  0  0  0  0  0  0  0  0
  145.4609  141.0478  156.2397 H   0  0  0  0  0  0  0  0  0  0  0  0
  147.4655  141.2702  157.9780 H   0  0  0  0  0  0  0  0  0  0  0  0
  148.0286  142.5354  156.9416 H   0  0  0  0  0  0  0  0  0  0  0  0
  1  2  1  0  0  0  0
  1 24  1  0  0  0  0
  1 25  1  0  0  0  0
  1 26  1  0  0  0  0
  2 23  2  0  0  0  0
  2  3  1  0  0  0  0
  3  4  2  0  0  0  0
  3 27  1  0  0  0  0
  4  5  1  0  0  0  0
  4 28  1  0  0  0  0
  5  6  2  0  0  0  0
  5  7  1  0  0  0  0
  7  8  1  0  0  0  0
  7 23  1  0  0  0  0
  8  9  1  0  0  0  0
  8 29  1  0  0  0  0
  8 30  1  0  0  0  0
  9 10  2  0  0  0  0
  9 11  1  0  0  0  0
 11 12  1  0  0  0  0
 11 31  1  0  0  0  0
 12 22  1  0  0  0  0
 12 13  1  0  0  0  0
 12 32  1  0  0  0  0
 13 14  1  0  0  0  0
 13 33  1  0  0  0  0
 13 34  1  0  0  0  0
 14 15  1  0  0  0  0
 14 35  1  0  0  0  0
 14 36  1  0  0  0  0
 15 16  1  0  0  0  0
 15 37  1  0  0  0  0
 15 38  1  0  0  0  0
 16 17  1  0  0  0  0
 16 21  1  0  0  0  0
 16 39  1  0  0  0  0
 17 18  1  0  0  0  0
 17 19  1  0  0  0  0
 17 20  1  0  0  0  0
 18 40  1  0  0  0  0
 18 41  1  0  0  0  0
 18 42  1  0  0  0  0
 19 43  1  0  0  0  0
 19 44  1  0  0  0  0
 19 45  1  0  0  0  0
 20 46  1  0  0  0  0
 20 47  1  0  0  0  0
 20 48  1  0  0  0  0
 21 22  1  0  0  0  0
 21 49  1  0  0  0  0
 21 50  1  0  0  0  0
 22 51  1  0  0  0  0
 22 52  1  0  0  0  0
M  END
> <s_m_source_file>
AV-unprocessed.smi

> <i_m_source_file_index>
2712

> <i_lp_mmshare_version>
43012

> <i_f3d_flags>
0

> <s_epik_input>
W0NIM11jMVtjSF1bY0hdYyg9TyluKG4xKVtDSDJdQyg9TylbTkhdW0NAQEhdMltDSDJdW0NIMl1bQ0gyXVtDQEBIXShDKFtDSDNdKShbQ0gzXSlbQ0gzXSlbQ0gyXVtDSDJdMg==

> <s_epik_cmdline>
J2VwaWtfcHl0aG9uJywgJy1waCcsICc3LjAnLCAnLXRuJywgJzgnLCAnLW1hJywgJzIwMCcsICctbWV0YWxfYmluZGluZycsICctaW1hZScsICc8aW5maWxlLm1hZT4nLCAnLW9tYWUnLCAnPG91dGZpbGUubWFlPic=

> <r_lp_tautomer_probability>
1

> <r_epik_Ionization_Penalty>
8.71758e-07

> <r_epik_Ionization_Penalty_Charging>
8.50442e-07

> <r_epik_Ionization_Penalty_Neutral>
2.13165e-08

> <r_epik_State_Penalty>
-0

> <r_epik_Charging_Adjusted_Penalty>
8.50442e-07

> <i_epik_Tot_Q>
0

> <i_epik_Tot_abs_Q>
0

> <r_epik_Metal_State_Penalty>
-0

> <b_epik_Metal_Only>
0

> <s_lp_Force_Field>
OPLS_2005

> <r_lp_Energy>
38.8827

> <b_lp_Chiralities_Consistent>
1

> <s_lp_Variant>
AV-unprocessed.smi:2712-1

> <Gold.Version>
5.8.1

> <Gold.Id.Protein>
6NUR|6NUR_protein|mol2

> <Gold.PLP.Fitness>
43.8697

> <Gold.PLP.PLP>
-41.9166

> <Gold.PLP.part.hbond>
-1.0000

> <Gold.PLP.part.metal>
0.0000

> <Gold.PLP.part.buried>
-6.7150

> <Gold.PLP.part.nonpolar>
-33.6598

> <Gold.PLP.part.repulsive>
0.0517

> <Gold.PLP.ligand.clash>
0.0000

> <Gold.PLP.ligand.torsion>
0.5674

> <Gold.PLP.Chemscore.Hbond>
1.0000

> <Gold.PLP.Chemscore.CHOScore>
0.0000

> <Gold.PLP.Chemscore.Metal>
0.0000

> <Gold.Chemscore.Hbonds>
donor molecule, donor type, donor heavy atom, donor atom, acceptor molecule, acceptor atom, score
      P1  H  7997  8008       L1     6  1.00

> <Gold.PLP.Chemscore.Internal.Correction>
0.0880

> <Gold.Rescore>
     Score         DG    S(hbond)    S(metal)    S(lipo)     H(rot)  DE(clash)    DE(int)     intcor
     12.98     -16.28       0.89        0.00     100.04       1.52       0.15       3.15       ----

> <Gold.Chemscore.Fitness>
12.9756

> <Gold.Chemscore.DG>
-16.2821

> <Gold.Chemscore.ZeroCoef>
-5.4800

> <Gold.Chemscore.Hbond>
0.8920

> <Gold.Chemscore.Metal>
0.0000

> <Gold.Chemscore.Lipo>
100.0369

> <Gold.Chemscore.Internal_Hbond>
0.0000

> <Gold.Chemscore.DEClash>
0.1526

> <Gold.Chemscore.DEInternal>
3.1539

> <Gold.Chemscore.Rot>
1.5162

> <Gold.Chemscore.Internal.Correction>
   9.000000E+99

> <Gold.Chemscore.Hbonds>
donor molecule, donor type, donor heavy atom, donor atom, acceptor molecule, acceptor atom, score
      P1  H  7997  8008       L1     6  0.34

> <Gold.Chemscore.Hbond.Weighted>
-2.9792

> <Gold.Chemscore.Metal.Weighted>
-0.0000

> <Gold.Chemscore.Lipo.Weighted>
-11.7043

> <Gold.Chemscore.Internal_Hbond.Weighted>
0.0000

> <Gold.Chemscore.DEClash.Weighted>
0.1526

> <Gold.Chemscore.DEInternal.Weighted>
3.1539

> <Gold.Chemscore.Rot.Weighted>
3.8814

> <Gold.Chemscore.Internal.Correction.Weighted>
   9.000000E+99

> <Gold.Protein.RotatedTorsions>
[ 6907 6896 6895 6894 ] final -155.11 input  -60.11 | X-H torsion
[ 7974 7965 7964 7962 ] final  -75.75 input  175.53 | X-H torsion
[ 8008 7997 7996 7995 ] final -100.51 input   59.86 | X-H torsion
[ 10167 10162 10161 10158 ] final -127.57 input  -65.29 | X-H torsion
[ 10718 10713 10712 10709 ] final   76.03 input   66.30 | X-H torsion
[ 10763 10752 10751 10750 ] final    1.10 input  -60.55 | X-H torsion
[ 11005 11000 10999 10996 ] final  179.03 input  -57.11 | X-H torsion

> <Gold.Protein.ActiveResidues>
 VAL166  LYS551  ARG553  GLY616  TRP617  ASP618  TYR619  PRO620  LYS621  CYS622 
 ASP623  PHE694  ASN695  SER759  ASP760  ASP761  ALA762  ILE779  LEU786  VAL792 
 PHE793  MET794  SER795  GLU796  ALA797  LYS798  CYS799  TRP800  GLU811  SER814 

> <Gold.Protein.RotatedAtoms>
  151.2676  133.4271  159.2619 H   0  0  0  0  0  0  0  0  0  0  0  0  # atno 6907 bound_to 6896
  151.0474  134.9649  159.8204 H   0  0  0  0  0  0  0  0  0  0  0  0  # atno 6908 bound_to 6896
  152.5376  134.2632  159.8996 H   0  0  0  0  0  0  0  0  0  0  0  0  # atno 6909 bound_to 6896
  145.6219  140.9360  143.1133 H   0  0  0  0  0  0  0  0  0  0  0  0  # atno 7974 bound_to 7965
  154.8296  140.0440  157.1468 H   0  0  0  0  0  0  0  0  0  0  0  0  # atno 8008 bound_to 7997
  154.9167  140.3021  155.5217 H   0  0  0  0  0  0  0  0  0  0  0  0  # atno 8009 bound_to 7997
  156.2986  140.2348  156.4212 H   0  0  0  0  0  0  0  0  0  0  0  0  # atno 8010 bound_to 7997
  139.9594  143.5966  152.2450 H   0  0  0  0  0  0  0  0  0  0  0  0  # atno 10167 bound_to 10162
  157.6658  130.9755  150.1439 H   0  0  0  0  0  0  0  0  0  0  0  0  # atno 10718 bound_to 10713
  153.3123  135.6963  153.7104 H   0  0  0  0  0  0  0  0  0  0  0  0  # atno 10763 bound_to 10752
  153.5977  135.3468  155.2934 H   0  0  0  0  0  0  0  0  0  0  0  0  # atno 10764 bound_to 10752
  154.8578  135.4333  154.2265 H   0  0  0  0  0  0  0  0  0  0  0  0  # atno 10765 bound_to 10752
  140.4016  134.6772  157.4565 H   0  0  0  0  0  0  0  0  0  0  0  0  # atno 11005 bound_to 11000
  144.7228  139.7975  143.7376 LP  0  0  0  0  0  0  0  0  0  0  0  0  # atno 17320 bound_to 7965
  146.1424  139.4485  143.0100 LP  0  0  0  0  0  0  0  0  0  0  0  0  # atno 17321 bound_to 7965
  139.6565  144.7662  151.2045 LP  0  0  0  0  0  0  0  0  0  0  0  0  # atno 17342 bound_to 10162
  140.7558  143.6077  150.8637 LP  0  0  0  0  0  0  0  0  0  0  0  0  # atno 17343 bound_to 10162
  156.2255  130.3677  149.8506 LP  0  0  0  0  0  0  0  0  0  0  0  0  # atno 17370 bound_to 10713
  156.6347  130.8680  151.3502 LP  0  0  0  0  0  0  0  0  0  0  0  0  # atno 17371 bound_to 10713
  140.0332  134.6376  155.9078 LP  0  0  0  0  0  0  0  0  0  0  0  0  # atno 17394 bound_to 11000
  141.1854  133.6555  156.5198 LP  0  0  0  0  0  0  0  0  0  0  0  0  # atno 17395 bound_to 11000

$$$$
