AV-unprocessed.smi:2811|AV-procd|sdf|10831|dock4
  -GOLD-   2272015273D 1   1.00000     0.00000
 Structure written by MMmdl.
 38 40  0  0  0  0  0  0  0  0  1 V2000
  151.3286  145.6035  159.9217 C   0  0  0  0  0  0  0  0  0  0  0  0
  151.8125  144.1690  159.9573 C   0  0  0  0  0  0  0  0  0  0  0  0
  152.5461  143.6799  161.0552 C   0  0  0  0  0  0  0  0  0  0  0  0
  152.9691  142.3368  161.0254 C   0  0  0  0  0  0  0  0  0  0  0  0
  153.7696  141.7427  162.1651 C   0  0  0  0  0  0  0  0  0  0  0  0
  152.7010  141.5040  159.9976 N   0  0  0  0  0  0  0  0  0  0  0  0
  151.9897  141.9602  158.9355 C   0  0  0  0  0  0  0  0  0  0  0  0
  151.6684  141.1758  157.7891 N   0  0  0  0  0  0  0  0  0  0  0  0
  152.2138  140.0324  157.3225 C   0  0  0  0  0  0  0  0  0  0  0  0
  153.1560  139.4908  157.8983 O   0  0  0  0  0  0  0  0  0  0  0  0
  151.6698  139.5418  156.1981 N   0  0  0  0  0  0  0  0  0  0  0  0
  152.0473  138.2924  155.5472 C   0  0  2  0  0  0  0  0  0  0  0  0
  151.1559  137.9943  154.3383 C   0  0  0  0  0  0  0  0  0  0  0  0
  150.5459  136.6383  154.7173 C   0  0  2  0  0  0  0  0  0  0  0  0
  149.5064  136.7701  155.8399 C   0  0  0  0  0  0  0  0  0  0  0  0
  150.3935  137.0136  157.0597 C   0  0  0  0  0  0  0  0  0  0  0  0
  151.7946  137.0487  156.4250 C   0  0  1  0  0  0  0  0  0  0  0  0
  151.6290  136.0588  155.4238 O   0  0  0  0  0  0  0  0  0  0  0  0
  151.5367  143.2976  158.8844 C   0  0  0  0  0  0  0  0  0  0  0  0
  151.5460  146.1190  160.8576 H   0  0  0  0  0  0  0  0  0  0  0  0
  150.2510  145.6353  159.7581 H   0  0  0  0  0  0  0  0  0  0  0  0
  151.8160  146.1458  159.1113 H   0  0  0  0  0  0  0  0  0  0  0  0
  152.7807  144.3174  161.8952 H   0  0  0  0  0  0  0  0  0  0  0  0
  153.8679  142.4489  162.9902 H   0  0  0  0  0  0  0  0  0  0  0  0
  154.7699  141.4749  161.8240 H   0  0  0  0  0  0  0  0  0  0  0  0
  153.2833  140.8428  162.5432 H   0  0  0  0  0  0  0  0  0  0  0  0
  150.9611  141.5792  157.1924 H   0  0  0  0  0  0  0  0  0  0  0  0
  150.8985  140.0517  155.7914 H   0  0  0  0  0  0  0  0  0  0  0  0
  153.0907  138.3268  155.2289 H   0  0  0  0  0  0  0  0  0  0  0  0
  150.3914  138.7512  154.1570 H   0  0  0  0  0  0  0  0  0  0  0  0
  151.7610  137.9053  153.4353 H   0  0  0  0  0  0  0  0  0  0  0  0
  150.2023  136.0548  153.8627 H   0  0  0  0  0  0  0  0  0  0  0  0
  148.8037  137.5843  155.6592 H   0  0  0  0  0  0  0  0  0  0  0  0
  148.9382  135.8470  155.9584 H   0  0  0  0  0  0  0  0  0  0  0  0
  150.1355  137.9231  157.6025 H   0  0  0  0  0  0  0  0  0  0  0  0
  150.3145  136.1779  157.7559 H   0  0  0  0  0  0  0  0  0  0  0  0
  152.5998  136.8376  157.1294 H   0  0  0  0  0  0  0  0  0  0  0  0
  150.9784  143.6547  158.0307 H   0  0  0  0  0  0  0  0  0  0  0  0
  1  2  1  0  0  0  0
  1 20  1  0  0  0  0
  1 21  1  0  0  0  0
  1 22  1  0  0  0  0
  2 19  1  0  0  0  0
  2  3  2  0  0  0  0
  3  4  1  0  0  0  0
  3 23  1  0  0  0  0
  4  5  1  0  0  0  0
  4  6  2  0  0  0  0
  5 24  1  0  0  0  0
  5 25  1  0  0  0  0
  5 26  1  0  0  0  0
  6  7  1  0  0  0  0
  7  8  1  0  0  0  0
  7 19  2  0  0  0  0
  8  9  1  0  0  0  0
  8 27  1  0  0  0  0
  9 10  2  0  0  0  0
  9 11  1  0  0  0  0
 11 12  1  0  0  0  0
 11 28  1  0  0  0  0
 12 17  1  0  0  0  0
 12 13  1  0  0  0  0
 12 29  1  0  0  0  0
 13 14  1  0  0  0  0
 13 30  1  0  0  0  0
 13 31  1  0  0  0  0
 14 18  1  0  0  0  0
 14 15  1  0  0  0  0
 14 32  1  0  0  0  0
 15 16  1  0  0  0  0
 15 33  1  0  0  0  0
 15 34  1  0  0  0  0
 16 17  1  0  0  0  0
 16 35  1  0  0  0  0
 16 36  1  0  0  0  0
 17 18  1  0  0  0  0
 17 37  1  0  0  0  0
 19 38  1  0  0  0  0
M  END
> <s_m_source_file>
AV-unprocessed.smi

> <i_m_source_file_index>
2811

> <i_lp_mmshare_version>
43012

> <i_f3d_flags>
0

> <s_epik_input>
W0NIM11jMVtjSF1jKFtDSDNdKW5jKFtjSF0xKVtOSF1DKD1PKVtOSF1bQ0BIXShbQ0gyXVtDQEBIXTIzKVtDQEBIXShPMylbQ0gyXVtDSDJdMg==

> <s_epik_cmdline>
J2VwaWtfcHl0aG9uJywgJy1waCcsICc3LjAnLCAnLXRuJywgJzgnLCAnLW1hJywgJzIwMCcsICctbWV0YWxfYmluZGluZycsICctaW1hZScsICc8aW5maWxlLm1hZT4nLCAnLW9tYWUnLCAnPG91dGZpbGUubWFlPic=

> <r_lp_tautomer_probability>
1

> <r_epik_Ionization_Penalty>
0.000281548

> <r_epik_Ionization_Penalty_Charging>
0

> <r_epik_Ionization_Penalty_Neutral>
0.000281548

> <r_epik_State_Penalty>
-0

> <r_epik_Charging_Adjusted_Penalty>
0

> <i_epik_Tot_Q>
0

> <i_epik_Tot_abs_Q>
0

> <r_epik_Metal_State_Penalty>
-0

> <b_epik_Metal_Only>
0

> <s_lp_Force_Field>
OPLS_2005

> <r_lp_Energy>
38.9687

> <b_lp_Chiralities_Consistent>
1

> <s_lp_Variant>
AV-unprocessed.smi:2811-3

> <Gold.Version>
5.8.1

> <Gold.Id.Protein>
6NUR|6NUR_protein|mol2

> <Gold.PLP.Fitness>
42.0189

> <Gold.PLP.PLP>
-36.1864

> <Gold.PLP.part.hbond>
-2.0000

> <Gold.PLP.part.metal>
0.0000

> <Gold.PLP.part.buried>
-5.2478

> <Gold.PLP.part.nonpolar>
-29.6573

> <Gold.PLP.part.repulsive>
0.2782

> <Gold.PLP.ligand.clash>
0.0000

> <Gold.PLP.ligand.torsion>
0.0943

> <Gold.PLP.Chemscore.Hbond>
2.0000

> <Gold.PLP.Chemscore.CHOScore>
0.0000

> <Gold.PLP.Chemscore.Metal>
0.0000

> <Gold.Chemscore.Hbonds>
donor molecule, donor type, donor heavy atom, donor atom, acceptor molecule, acceptor atom, score
      P1  H  7997  8008       L1    10  1.00
      P1  H 10752 10763       L1    18  1.00

> <Gold.PLP.Chemscore.Internal.Correction>
0.0211

> <Gold.Rescore>
     Score         DG    S(hbond)    S(metal)    S(lipo)     H(rot)  DE(clash)    DE(int)     intcor
     19.70     -21.04       1.96        0.00      98.85       1.00       0.06       1.28       ----

> <Gold.Chemscore.Fitness>
19.6988

> <Gold.Chemscore.DG>
-21.0372

> <Gold.Chemscore.ZeroCoef>
-5.4800

> <Gold.Chemscore.Hbond>
1.9616

> <Gold.Chemscore.Metal>
0.0000

> <Gold.Chemscore.Lipo>
98.8489

> <Gold.Chemscore.Internal_Hbond>
0.0000

> <Gold.Chemscore.DEClash>
0.0551

> <Gold.Chemscore.DEInternal>
1.2833

> <Gold.Chemscore.Rot>
1.0000

> <Gold.Chemscore.Internal.Correction>
   9.000000E+99

> <Gold.Chemscore.Hbonds>
donor molecule, donor type, donor heavy atom, donor atom, acceptor molecule, acceptor atom, score
      P1  H  7997  8008       L1    10  0.35
      P1  H 10752 10763       L1    18  0.90

> <Gold.Chemscore.Hbond.Weighted>
-6.5519

> <Gold.Chemscore.Metal.Weighted>
-0.0000

> <Gold.Chemscore.Lipo.Weighted>
-11.5653

> <Gold.Chemscore.Internal_Hbond.Weighted>
0.0000

> <Gold.Chemscore.DEClash.Weighted>
0.0551

> <Gold.Chemscore.DEInternal.Weighted>
1.2833

> <Gold.Chemscore.Rot.Weighted>
2.5600

> <Gold.Chemscore.Internal.Correction.Weighted>
   9.000000E+99

> <Gold.Protein.RotatedTorsions>
[ 6907 6896 6895 6894 ] final   72.20 input  -60.11 | X-H torsion
[ 7974 7965 7964 7962 ] final  104.20 input  175.53 | X-H torsion
[ 8008 7997 7996 7995 ] final  -80.17 input   59.86 | X-H torsion
[ 10167 10162 10161 10158 ] final  150.69 input  -65.29 | X-H torsion
[ 10718 10713 10712 10709 ] final  -71.36 input   66.30 | X-H torsion
[ 10763 10752 10751 10750 ] final   68.06 input  -60.55 | X-H torsion
[ 11005 11000 10999 10996 ] final   59.60 input  -57.11 | X-H torsion

> <Gold.Protein.ActiveResidues>
 VAL166  LYS551  ARG553  GLY616  TRP617  ASP618  TYR619  PRO620  LYS621  CYS622 
 ASP623  PHE694  ASN695  SER759  ASP760  ASP761  ALA762  ILE779  LEU786  VAL792 
 PHE793  MET794  SER795  GLU796  ALA797  LYS798  CYS799  TRP800  GLU811  SER814 

> <Gold.Protein.RotatedAtoms>
  152.4854  134.4606  159.9603 H   0  0  0  0  0  0  0  0  0  0  0  0  # atno 6907 bound_to 6896
  151.4604  133.3588  159.2816 H   0  0  0  0  0  0  0  0  0  0  0  0  # atno 6908 bound_to 6896
  150.8961  134.8394  159.7388 H   0  0  0  0  0  0  0  0  0  0  0  0  # atno 6909 bound_to 6896
  145.3359  139.2474  143.3636 H   0  0  0  0  0  0  0  0  0  0  0  0  # atno 7974 bound_to 7965
  154.5856  140.0667  156.9167 H   0  0  0  0  0  0  0  0  0  0  0  0  # atno 8008 bound_to 7997
  155.2385  140.3343  155.4277 H   0  0  0  0  0  0  0  0  0  0  0  0  # atno 8009 bound_to 7997
  156.2220  140.1803  156.7438 H   0  0  0  0  0  0  0  0  0  0  0  0  # atno 8010 bound_to 7997
  139.4847  144.5502  151.7415 H   0  0  0  0  0  0  0  0  0  0  0  0  # atno 10167 bound_to 10162
  156.0366  130.4350  150.2432 H   0  0  0  0  0  0  0  0  0  0  0  0  # atno 10718 bound_to 10713
  153.0216  135.5261  154.7076 H   0  0  0  0  0  0  0  0  0  0  0  0  # atno 10763 bound_to 10752
  154.6167  135.2884  155.0374 H   0  0  0  0  0  0  0  0  0  0  0  0  # atno 10764 bound_to 10752
  154.1375  135.6583  153.4987 H   0  0  0  0  0  0  0  0  0  0  0  0  # atno 10765 bound_to 10752
  140.0292  134.6037  155.9530 H   0  0  0  0  0  0  0  0  0  0  0  0  # atno 11005 bound_to 11000
  146.3027  140.3946  142.8698 LP  0  0  0  0  0  0  0  0  0  0  0  0  # atno 17320 bound_to 7965
  144.8828  140.7423  143.5976 LP  0  0  0  0  0  0  0  0  0  0  0  0  # atno 17321 bound_to 7965
  140.5054  144.1105  150.5981 LP  0  0  0  0  0  0  0  0  0  0  0  0  # atno 17342 bound_to 10162
  140.4013  143.2702  151.9944 LP  0  0  0  0  0  0  0  0  0  0  0  0  # atno 17343 bound_to 10162
  157.0531  131.0068  151.3247 LP  0  0  0  0  0  0  0  0  0  0  0  0  # atno 17370 bound_to 10713
  157.5126  130.7948  149.7721 LP  0  0  0  0  0  0  0  0  0  0  0  0  # atno 17371 bound_to 10713
  141.1821  133.6548  156.5063 LP  0  0  0  0  0  0  0  0  0  0  0  0  # atno 17394 bound_to 11000
  140.4254  134.7150  157.4913 LP  0  0  0  0  0  0  0  0  0  0  0  0  # atno 17395 bound_to 11000

$$$$
