AV-unprocessed.smi:1021|AV-procd|sdf|4457|dock6
  -GOLD-   22720 2433D 1   1.00000     0.00000
 Structure written by MMmdl.
 43 45  0  0  0  0  0  0  0  0  2 V2000
  155.5939  138.5103  154.3386 O   0  0  0  0  0  0  0  0  0  0  0  0
  154.4175  137.8499  154.7546 C   0  0  0  0  0  0  0  0  0  0  0  0
  153.1966  138.7645  154.5764 C   0  0  0  0  0  0  0  0  0  0  0  0
  151.8666  137.9908  154.5115 C   0  0  0  0  0  0  0  0  0  0  0  0
  150.6697  138.8754  154.3377 C   0  0  0  0  0  0  0  0  0  0  0  0
  149.5771  138.6358  153.5561 N   0  3  0  0  0  0  0  0  0  0  0  0
  148.6729  139.6925  153.6659 C   0  0  0  0  0  0  0  0  0  0  0  0
  147.4342  139.8969  153.0660 C   0  0  0  0  0  0  0  0  0  0  0  0
  146.7621  141.0926  153.3938 C   0  0  0  0  0  0  0  0  0  0  0  0
  147.3245  142.0301  154.2843 C   0  0  0  0  0  0  0  0  0  0  0  0
  148.5814  141.8114  154.8860 C   0  0  0  0  0  0  0  0  0  0  0  0
  149.2387  140.6252  154.5588 C   0  0  0  0  0  0  0  0  0  0  0  0
  150.4680  140.0786  154.9478 N   0  0  0  0  0  0  0  0  0  0  0  0
  151.3259  140.8096  155.8945 C   0  0  0  0  0  0  0  0  0  0  0  0
  150.7375  140.8657  157.3185 C   0  0  1  0  0  0  0  0  0  0  0  0
  151.0864  139.6981  158.0369 O   0  0  0  0  0  0  0  0  0  0  0  0
  151.1636  142.1336  158.0415 C   0  0  0  0  0  0  0  0  0  0  0  0
  151.8211  142.0469  159.2876 C   0  0  0  0  0  0  0  0  0  0  0  0
  152.2113  143.2171  159.9675 C   0  0  0  0  0  0  0  0  0  0  0  0
  151.9439  144.4807  159.4069 C   0  0  0  0  0  0  0  0  0  0  0  0
  152.3180  145.6051  160.0618 F   0  0  0  0  0  0  0  0  0  0  0  0
  151.2857  144.5739  158.1656 C   0  0  0  0  0  0  0  0  0  0  0  0
  150.8953  143.4040  157.4851 C   0  0  0  0  0  0  0  0  0  0  0  0
  156.3405  138.0168  154.6428 H   0  0  0  0  0  0  0  0  0  0  0  0
  154.2992  136.9254  154.1885 H   0  0  0  0  0  0  0  0  0  0  0  0
  154.5289  137.5740  155.8035 H   0  0  0  0  0  0  0  0  0  0  0  0
  153.1618  139.4615  155.4144 H   0  0  0  0  0  0  0  0  0  0  0  0
  153.3253  139.3689  153.6771 H   0  0  0  0  0  0  0  0  0  0  0  0
  151.8879  137.2801  153.6848 H   0  0  0  0  0  0  0  0  0  0  0  0
  151.7364  137.4064  155.4226 H   0  0  0  0  0  0  0  0  0  0  0  0
  147.0026  139.1809  152.3820 H   0  0  0  0  0  0  0  0  0  0  0  0
  145.7970  141.2953  152.9526 H   0  0  0  0  0  0  0  0  0  0  0  0
  146.7816  142.9363  154.5100 H   0  0  0  0  0  0  0  0  0  0  0  0
  149.0048  142.5394  155.5617 H   0  0  0  0  0  0  0  0  0  0  0  0
  152.3237  140.3706  155.8922 H   0  0  0  0  0  0  0  0  0  0  0  0
  151.4431  141.8215  155.5047 H   0  0  0  0  0  0  0  0  0  0  0  0
  149.6493  140.8673  157.2458 H   0  0  0  0  0  0  0  0  0  0  0  0
  150.6999  138.9533  157.6019 H   0  0  0  0  0  0  0  0  0  0  0  0
  152.0279  141.0828  159.7284 H   0  0  0  0  0  0  0  0  0  0  0  0
  152.7155  143.1452  160.9201 H   0  0  0  0  0  0  0  0  0  0  0  0
  151.0788  145.5429  157.7357 H   0  0  0  0  0  0  0  0  0  0  0  0
  150.3874  143.4855  156.5351 H   0  0  0  0  0  0  0  0  0  0  0  0
  149.4615  137.8054  152.9897 H   0  0  0  0  0  0  0  0  0  0  0  0
  1  2  1  0  0  0  0
  1 24  1  0  0  0  0
  2  3  1  0  0  0  0
  2 25  1  0  0  0  0
  2 26  1  0  0  0  0
  3  4  1  0  0  0  0
  3 27  1  0  0  0  0
  3 28  1  0  0  0  0
  4  5  1  0  0  0  0
  4 29  1  0  0  0  0
  4 30  1  0  0  0  0
  5 13  1  0  0  0  0
  5  6  2  0  0  0  0
  6  7  1  0  0  0  0
  6 43  1  0  0  0  0
  7 12  2  0  0  0  0
  7  8  1  0  0  0  0
  8  9  2  0  0  0  0
  8 31  1  0  0  0  0
  9 10  1  0  0  0  0
  9 32  1  0  0  0  0
 10 11  2  0  0  0  0
 10 33  1  0  0  0  0
 11 12  1  0  0  0  0
 11 34  1  0  0  0  0
 12 13  1  0  0  0  0
 13 14  1  0  0  0  0
 14 15  1  0  0  0  0
 14 35  1  0  0  0  0
 14 36  1  0  0  0  0
 15 16  1  0  0  0  0
 15 17  1  0  0  0  0
 15 37  1  0  0  0  0
 16 38  1  0  0  0  0
 17 23  1  0  0  0  0
 17 18  2  0  0  0  0
 18 19  1  0  0  0  0
 18 39  1  0  0  0  0
 19 20  2  0  0  0  0
 19 40  1  0  0  0  0
 20 21  1  0  0  0  0
 20 22  1  0  0  0  0
 22 23  2  0  0  0  0
 22 41  1  0  0  0  0
 23 42  1  0  0  0  0
M  CHG  1   6   1
M  END
> <s_m_source_file>
AV-unprocessed.smi

> <i_m_source_file_index>
1021

> <i_lp_mmshare_version>
43012

> <i_f3d_flags>
0

> <s_epik_input>
W09IXVtDSDJdW0NIMl1bQ0gyXWMobjEpbihjKGMxMilbY0hdW2NIXVtjSF1bY0hdMilbQ0gyXVtDQEhdKFtPSF0pYzNbY0hdW2NIXWMoRilbY0hdW2NIXTM=

> <s_epik_cmdline>
J2VwaWtfcHl0aG9uJywgJy1waCcsICc3LjAnLCAnLXRuJywgJzgnLCAnLW1hJywgJzIwMCcsICctbWV0YWxfYmluZGluZycsICctaW1hZScsICc8aW5maWxlLm1hZT4nLCAnLW9tYWUnLCAnPG91dGZpbGUubWFlPic=

> <r_epik_Ionization_Penalty>
0.786441

> <r_epik_Ionization_Penalty_Charging>
0.786439

> <r_epik_Ionization_Penalty_Neutral>
1.96029e-06

> <r_epik_State_Penalty>
0.816472

> <r_epik_Charging_Adjusted_Penalty>
1.60291

> <i_epik_Tot_Q>
1

> <i_epik_Tot_abs_Q>
1

> <r_epik_Metal_State_Penalty>
4.73733

> <b_epik_Metal_Only>
0

> <s_lp_Force_Field>
OPLS_2005

> <r_lp_Energy>
16.4086

> <b_lp_Chiralities_Consistent>
1

> <s_lp_Variant>
AV-unprocessed.smi:1021-4

> <Gold.Version>
5.8.1

> <Gold.Id.Protein>
6NUR|6NUR_protein|mol2

> <Gold.PLP.Fitness>
55.8882

> <Gold.PLP.PLP>
-49.4036

> <Gold.PLP.part.hbond>
-3.0000

> <Gold.PLP.part.metal>
0.0000

> <Gold.PLP.part.buried>
7.3769

> <Gold.PLP.part.nonpolar>
-53.4729

> <Gold.PLP.part.repulsive>
0.0823

> <Gold.PLP.ligand.clash>
0.0000

> <Gold.PLP.ligand.torsion>
0.8066

> <Gold.PLP.Chemscore.Hbond>
2.6720

> <Gold.PLP.Chemscore.CHOScore>
0.0000

> <Gold.PLP.Chemscore.Metal>
0.0000

> <Gold.Chemscore.Hbonds>
donor molecule, donor type, donor heavy atom, donor atom, acceptor molecule, acceptor atom, score
      L1  H     6    43       P1  7948  2.00
      P1  H  7997  8008       L1     1  0.56

> <Gold.PLP.Chemscore.Internal.Correction>
0.0819

> <Gold.Rescore>
     Score         DG    S(hbond)    S(metal)    S(lipo)     H(rot)  DE(clash)    DE(int)     intcor
     12.90     -16.36       0.95        0.00     135.13       3.16       1.87       1.58       ----

> <Gold.Chemscore.Fitness>
12.9047

> <Gold.Chemscore.DG>
-16.3637

> <Gold.Chemscore.ZeroCoef>
-5.4800

> <Gold.Chemscore.Hbond>
0.9474

> <Gold.Chemscore.Metal>
0.0000

> <Gold.Chemscore.Lipo>
135.1293

> <Gold.Chemscore.Internal_Hbond>
0.0000

> <Gold.Chemscore.DEClash>
1.8746

> <Gold.Chemscore.DEInternal>
1.5844

> <Gold.Chemscore.Rot>
3.1604

> <Gold.Chemscore.Internal.Correction>
   9.000000E+99

> <Gold.Chemscore.Hbonds>
donor molecule, donor type, donor heavy atom, donor atom, acceptor molecule, acceptor atom, score
      L1  H     6    43       P1  7948  0.87
      P1  H  7997  8008       L1     1  0.11

> <Gold.Chemscore.Hbond.Weighted>
-3.1643

> <Gold.Chemscore.Metal.Weighted>
-0.0000

> <Gold.Chemscore.Lipo.Weighted>
-15.8101

> <Gold.Chemscore.Internal_Hbond.Weighted>
0.0000

> <Gold.Chemscore.DEClash.Weighted>
1.8746

> <Gold.Chemscore.DEInternal.Weighted>
1.5844

> <Gold.Chemscore.Rot.Weighted>
8.0907

> <Gold.Chemscore.Internal.Correction.Weighted>
   9.000000E+99

> <Gold.Protein.RotatedTorsions>
[ 6907 6896 6895 6894 ] final   92.67 input  -60.11 | X-H torsion
[ 7974 7965 7964 7962 ] final  -41.81 input  175.53 | X-H torsion
[ 8008 7997 7996 7995 ] final   48.50 input   59.86 | X-H torsion
[ 10167 10162 10161 10158 ] final -140.05 input  -65.29 | X-H torsion
[ 10718 10713 10712 10709 ] final   75.90 input   66.30 | X-H torsion
[ 10763 10752 10751 10750 ] final   77.91 input  -60.55 | X-H torsion
[ 11005 11000 10999 10996 ] final   34.63 input  -57.11 | X-H torsion

> <Gold.Protein.ActiveResidues>
 VAL166  LYS551  ARG553  GLY616  TRP617  ASP618  TYR619  PRO620  LYS621  CYS622 
 ASP623  PHE694  ASN695  SER759  ASP760  ASP761  ALA762  ILE779  LEU786  VAL792 
 PHE793  MET794  SER795  GLU796  ALA797  LYS798  CYS799  TRP800  GLU811  SER814 

> <Gold.Protein.RotatedAtoms>
  152.5453  134.1466  159.8500 H   0  0  0  0  0  0  0  0  0  0  0  0  # atno 6907 bound_to 6896
  151.1497  133.4908  159.2603 H   0  0  0  0  0  0  0  0  0  0  0  0  # atno 6908 bound_to 6896
  151.1485  135.0226  159.8712 H   0  0  0  0  0  0  0  0  0  0  0  0  # atno 6909 bound_to 6896
  146.0175  140.6890  142.9194 H   0  0  0  0  0  0  0  0  0  0  0  0  # atno 7974 bound_to 7965
  155.3867  140.3431  155.4249 H   0  0  0  0  0  0  0  0  0  0  0  0  # atno 8008 bound_to 7997
  156.1580  140.1592  156.8692 H   0  0  0  0  0  0  0  0  0  0  0  0  # atno 8009 bound_to 7997
  154.5113  140.0789  156.7977 H   0  0  0  0  0  0  0  0  0  0  0  0  # atno 8010 bound_to 7997
  139.8319  143.7436  152.2665 H   0  0  0  0  0  0  0  0  0  0  0  0  # atno 10167 bound_to 10162
  157.6652  130.9749  150.1420 H   0  0  0  0  0  0  0  0  0  0  0  0  # atno 10718 bound_to 10713
  153.0834  135.4896  154.8549 H   0  0  0  0  0  0  0  0  0  0  0  0  # atno 10763 bound_to 10752
  154.7180  135.3033  154.9095 H   0  0  0  0  0  0  0  0  0  0  0  0  # atno 10764 bound_to 10752
  153.9768  135.6794  153.4802 H   0  0  0  0  0  0  0  0  0  0  0  0  # atno 10765 bound_to 10752
  140.2508  134.3305  155.7891 H   0  0  0  0  0  0  0  0  0  0  0  0  # atno 11005 bound_to 11000
  144.6977  140.3508  143.7182 LP  0  0  0  0  0  0  0  0  0  0  0  0  # atno 17320 bound_to 7965
  145.7245  139.1719  143.2466 LP  0  0  0  0  0  0  0  0  0  0  0  0  # atno 17321 bound_to 7965
  139.7646  144.7496  151.0314 LP  0  0  0  0  0  0  0  0  0  0  0  0  # atno 17342 bound_to 10162
  140.7806  143.4713  151.0143 LP  0  0  0  0  0  0  0  0  0  0  0  0  # atno 17343 bound_to 10162
  156.2240  130.3676  149.8522 LP  0  0  0  0  0  0  0  0  0  0  0  0  # atno 17370 bound_to 10713
  156.6367  130.8688  151.3506 LP  0  0  0  0  0  0  0  0  0  0  0  0  # atno 17371 bound_to 10713
  141.2201  133.7352  156.9034 LP  0  0  0  0  0  0  0  0  0  0  0  0  # atno 17394 bound_to 11000
  140.1560  134.9198  157.2653 LP  0  0  0  0  0  0  0  0  0  0  0  0  # atno 17395 bound_to 11000

$$$$
