AV-unprocessed.smi:1966|AV-procd|sdf|7948|dock2
  -GOLD-   2272010113D 1   1.00000     0.00000
 Structure written by MMmdl.
 53 54  0  0  0  0  0  0  0  0  1 V2000
  145.5425  135.9042  151.5184 C   0  0  0  0  0  0  0  0  0  0  0  0
  145.8311  135.1788  152.8279 C   0  0  0  0  0  0  0  0  0  0  0  0
  144.9465  134.5277  153.3830 O   0  0  0  0  0  0  0  0  0  0  0  0
  147.0778  135.3001  153.3103 N   0  0  0  0  0  0  0  0  0  0  0  0
  147.5699  134.7036  154.5544 C   0  0  2  0  0  0  0  0  0  0  0  0
  148.0258  135.8328  155.4994 C   0  0  0  0  0  0  0  0  0  0  0  0
  147.5300  135.9327  156.6228 O   0  0  0  0  0  0  0  0  0  0  0  0
  148.9690  136.6569  155.0074 N   0  0  0  0  0  0  0  0  0  0  0  0
  149.5623  137.7895  155.6266 C   0  0  0  0  0  0  0  0  0  0  0  0
  150.5155  138.6277  155.0040 C   0  0  0  0  0  0  0  0  0  0  0  0
  151.0470  139.7116  155.7287 C   0  0  0  0  0  0  0  0  0  0  0  0
  150.6225  139.9301  157.0607 C   0  0  0  0  0  0  0  0  0  0  0  0
  151.1349  141.0174  157.8011 N   0  0  0  0  0  0  0  0  0  0  0  0
  151.3777  142.2462  157.0504 C   0  0  0  0  0  0  0  0  0  0  0  0
  151.5985  143.4277  158.0141 C   0  0  2  0  0  0  0  0  0  0  0  0
  151.9756  144.7144  157.2722 C   0  0  0  0  0  0  0  0  0  0  0  0
  152.6534  143.1067  158.9170 O   0  0  0  0  0  0  0  0  0  0  0  0
  152.3547  141.9683  159.7207 C   0  0  2  0  0  0  0  0  0  0  0  0
  153.5018  141.7658  160.7160 C   0  0  0  0  0  0  0  0  0  0  0  0
  152.1574  140.7434  158.8082 C   0  0  0  0  0  0  0  0  0  0  0  0
  149.7170  139.1165  157.6574 N   0  0  0  0  0  0  0  0  0  0  0  0
  149.2122  138.0771  156.9606 C   0  0  0  0  0  0  0  0  0  0  0  0
  148.7717  133.7700  154.2228 C   0  0  0  0  0  0  0  0  0  0  0  0
  148.3758  132.6547  153.2350 C   0  0  0  0  0  0  0  0  0  0  0  0
  149.4056  133.1302  155.4760 C   0  0  0  0  0  0  0  0  0  0  0  0
  145.6952  136.9775  151.6366 H   0  0  0  0  0  0  0  0  0  0  0  0
  144.5122  135.7384  151.2015 H   0  0  0  0  0  0  0  0  0  0  0  0
  146.2049  135.5451  150.7303 H   0  0  0  0  0  0  0  0  0  0  0  0
  147.7341  135.8625  152.7882 H   0  0  0  0  0  0  0  0  0  0  0  0
  146.7749  134.1195  155.0233 H   0  0  0  0  0  0  0  0  0  0  0  0
  149.3521  136.4028  154.1084 H   0  0  0  0  0  0  0  0  0  0  0  0
  150.8562  138.4563  153.9947 H   0  0  0  0  0  0  0  0  0  0  0  0
  151.7600  140.3668  155.2511 H   0  0  0  0  0  0  0  0  0  0  0  0
  152.2589  142.1031  156.4235 H   0  0  0  0  0  0  0  0  0  0  0  0
  150.5498  142.4808  156.3829 H   0  0  0  0  0  0  0  0  0  0  0  0
  150.6848  143.6115  158.5824 H   0  0  0  0  0  0  0  0  0  0  0  0
  151.1914  145.0091  156.5743 H   0  0  0  0  0  0  0  0  0  0  0  0
  152.8984  144.5879  156.7054 H   0  0  0  0  0  0  0  0  0  0  0  0
  152.1243  145.5376  157.9714 H   0  0  0  0  0  0  0  0  0  0  0  0
  151.4386  142.1582  160.2831 H   0  0  0  0  0  0  0  0  0  0  0  0
  153.3119  140.9101  161.3644 H   0  0  0  0  0  0  0  0  0  0  0  0
  153.6254  142.6430  161.3513 H   0  0  0  0  0  0  0  0  0  0  0  0
  154.4464  141.5923  160.1997 H   0  0  0  0  0  0  0  0  0  0  0  0
  151.8663  139.8848  159.4149 H   0  0  0  0  0  0  0  0  0  0  0  0
  153.0938  140.4891  158.3092 H   0  0  0  0  0  0  0  0  0  0  0  0
  148.4987  137.4591  157.4861 H   0  0  0  0  0  0  0  0  0  0  0  0
  149.5480  134.3640  153.7370 H   0  0  0  0  0  0  0  0  0  0  0  0
  147.5733  132.0370  153.6395 H   0  0  0  0  0  0  0  0  0  0  0  0
  149.2214  132.0001  153.0216 H   0  0  0  0  0  0  0  0  0  0  0  0
  148.0377  133.0554  152.2793 H   0  0  0  0  0  0  0  0  0  0  0  0
  148.6689  132.5612  156.0437 H   0  0  0  0  0  0  0  0  0  0  0  0
  149.8398  133.8741  156.1440 H   0  0  0  0  0  0  0  0  0  0  0  0
  150.2108  132.4479  155.2027 H   0  0  0  0  0  0  0  0  0  0  0  0
  1  2  1  0  0  0  0
  1 26  1  0  0  0  0
  1 27  1  0  0  0  0
  1 28  1  0  0  0  0
  2  3  2  0  0  0  0
  2  4  1  0  0  0  0
  4  5  1  0  0  0  0
  4 29  1  0  0  0  0
  5  6  1  0  0  0  0
  5 23  1  0  0  0  0
  5 30  1  0  0  0  0
  6  7  2  0  0  0  0
  6  8  1  0  0  0  0
  8  9  1  0  0  0  0
  8 31  1  0  0  0  0
  9 22  1  0  0  0  0
  9 10  2  0  0  0  0
 10 11  1  0  0  0  0
 10 32  1  0  0  0  0
 11 12  2  0  0  0  0
 11 33  1  0  0  0  0
 12 13  1  0  0  0  0
 12 21  1  0  0  0  0
 13 20  1  0  0  0  0
 13 14  1  0  0  0  0
 14 15  1  0  0  0  0
 14 34  1  0  0  0  0
 14 35  1  0  0  0  0
 15 16  1  0  0  0  0
 15 17  1  0  0  0  0
 15 36  1  0  0  0  0
 16 37  1  0  0  0  0
 16 38  1  0  0  0  0
 16 39  1  0  0  0  0
 17 18  1  0  0  0  0
 18 19  1  0  0  0  0
 18 20  1  0  0  0  0
 18 40  1  0  0  0  0
 19 41  1  0  0  0  0
 19 42  1  0  0  0  0
 19 43  1  0  0  0  0
 20 44  1  0  0  0  0
 20 45  1  0  0  0  0
 21 22  2  0  0  0  0
 22 46  1  0  0  0  0
 23 24  1  0  0  0  0
 23 25  1  0  0  0  0
 23 47  1  0  0  0  0
 24 48  1  0  0  0  0
 24 49  1  0  0  0  0
 24 50  1  0  0  0  0
 25 51  1  0  0  0  0
 25 52  1  0  0  0  0
 25 53  1  0  0  0  0
M  END
> <s_m_source_file>
AV-unprocessed.smi

> <i_m_source_file_index>
1966

> <i_lp_mmshare_version>
43012

> <i_f3d_flags>
0

> <s_epik_input>
W0NIM11DKD1PKVtOSF1bQ0BASF0oW0NIXShbQ0gzXSlbQ0gzXSlDKD1PKVtOSF1jMVtjSF1bY0hdYyhuW2NIXTEpTjJbQ0gyXVtDQEBIXShbQ0gzXSlPW0NAQEhdKFtDSDNdKVtDSDJdMg==

> <s_epik_cmdline>
J2VwaWtfcHl0aG9uJywgJy1waCcsICc3LjAnLCAnLXRuJywgJzgnLCAnLW1hJywgJzIwMCcsICctbWV0YWxfYmluZGluZycsICctaW1hZScsICc8aW5maWxlLm1hZT4nLCAnLW9tYWUnLCAnPG91dGZpbGUubWFlPic=

> <r_lp_tautomer_probability>
1

> <r_epik_Ionization_Penalty>
0.000679699

> <r_epik_Ionization_Penalty_Charging>
0

> <r_epik_Ionization_Penalty_Neutral>
0.000679699

> <r_epik_State_Penalty>
0.000430485

> <r_epik_Charging_Adjusted_Penalty>
0.000430485

> <i_epik_Tot_Q>
0

> <i_epik_Tot_abs_Q>
0

> <r_epik_Metal_State_Penalty>
-0

> <b_epik_Metal_Only>
0

> <s_lp_Force_Field>
OPLS_2005

> <r_lp_Energy>
25.1321

> <b_lp_Chiralities_Consistent>
1

> <s_lp_Variant>
AV-unprocessed.smi:1966-1

> <Gold.Version>
5.8.1

> <Gold.Id.Protein>
6NUR|6NUR_protein|mol2

> <Gold.PLP.Fitness>
43.2143

> <Gold.PLP.PLP>
-38.2145

> <Gold.PLP.part.hbond>
-1.7702

> <Gold.PLP.part.metal>
0.0000

> <Gold.PLP.part.buried>
-4.4639

> <Gold.PLP.part.nonpolar>
-31.7203

> <Gold.PLP.part.repulsive>
0.0910

> <Gold.PLP.ligand.clash>
0.1349

> <Gold.PLP.ligand.torsion>
0.5805

> <Gold.PLP.Chemscore.Hbond>
1.9663

> <Gold.PLP.Chemscore.CHOScore>
0.0000

> <Gold.PLP.Chemscore.Metal>
0.0000

> <Gold.Chemscore.Hbonds>
donor molecule, donor type, donor heavy atom, donor atom, acceptor molecule, acceptor atom, score
      L1  H     4    29       P1  7948  1.00
      L1  H     8    31       P1  7948  0.38

> <Gold.PLP.Chemscore.Internal.Correction>
0.3968

> <Gold.Rescore>
     Score         DG    S(hbond)    S(metal)    S(lipo)     H(rot)  DE(clash)    DE(int)     intcor
     15.88     -19.47       1.94        0.00     100.81       1.68       1.28       2.31       ----

> <Gold.Chemscore.Fitness>
15.8764

> <Gold.Chemscore.DG>
-19.4667

> <Gold.Chemscore.ZeroCoef>
-5.4800

> <Gold.Chemscore.Hbond>
1.9408

> <Gold.Chemscore.Metal>
0.0000

> <Gold.Chemscore.Lipo>
100.8094

> <Gold.Chemscore.Internal_Hbond>
0.0000

> <Gold.Chemscore.DEClash>
1.2837

> <Gold.Chemscore.DEInternal>
2.3067

> <Gold.Chemscore.Rot>
1.6759

> <Gold.Chemscore.Internal.Correction>
   9.000000E+99

> <Gold.Chemscore.Hbonds>
donor molecule, donor type, donor heavy atom, donor atom, acceptor molecule, acceptor atom, score
      L1  H     4    29       P1  7948  0.96
      L1  H     8    31       P1  7948  0.34

> <Gold.Chemscore.Hbond.Weighted>
-6.4822

> <Gold.Chemscore.Metal.Weighted>
-0.0000

> <Gold.Chemscore.Lipo.Weighted>
-11.7947

> <Gold.Chemscore.Internal_Hbond.Weighted>
0.0000

> <Gold.Chemscore.DEClash.Weighted>
1.2837

> <Gold.Chemscore.DEInternal.Weighted>
2.3067

> <Gold.Chemscore.Rot.Weighted>
4.2902

> <Gold.Chemscore.Internal.Correction.Weighted>
   9.000000E+99

> <Gold.Protein.RotatedTorsions>
[ 6907 6896 6895 6894 ] final   59.42 input  -60.11 | X-H torsion
[ 7974 7965 7964 7962 ] final  110.31 input  175.53 | X-H torsion
[ 8008 7997 7996 7995 ] final  125.51 input   59.86 | X-H torsion
[ 10167 10162 10161 10158 ] final -107.23 input  -65.29 | X-H torsion
[ 10718 10713 10712 10709 ] final -127.58 input   66.30 | X-H torsion
[ 10763 10752 10751 10750 ] final  154.50 input  -60.55 | X-H torsion
[ 11005 11000 10999 10996 ] final -108.32 input  -57.11 | X-H torsion

> <Gold.Protein.ActiveResidues>
 VAL166  LYS551  ARG553  GLY616  TRP617  ASP618  TYR619  PRO620  LYS621  CYS622 
 ASP623  PHE694  ASN695  SER759  ASP760  ASP761  ALA762  ILE779  LEU786  VAL792 
 PHE793  MET794  SER795  GLU796  ALA797  LYS798  CYS799  TRP800  GLU811  SER814 

> <Gold.Protein.RotatedAtoms>
  152.3913  134.6437  160.0106 H   0  0  0  0  0  0  0  0  0  0  0  0  # atno 6907 bound_to 6896
  151.6670  133.3309  159.3195 H   0  0  0  0  0  0  0  0  0  0  0  0  # atno 6908 bound_to 6896
  150.7828  134.6832  159.6500 H   0  0  0  0  0  0  0  0  0  0  0  0  # atno 6909 bound_to 6896
  145.2566  139.2718  143.4039 H   0  0  0  0  0  0  0  0  0  0  0  0  # atno 7974 bound_to 7965
  156.2836  140.2714  156.1961 H   0  0  0  0  0  0  0  0  0  0  0  0  # atno 8008 bound_to 7997
  155.0409  140.0386  157.2527 H   0  0  0  0  0  0  0  0  0  0  0  0  # atno 8009 bound_to 7997
  154.7275  140.2700  155.6491 H   0  0  0  0  0  0  0  0  0  0  0  0  # atno 8010 bound_to 7997
  140.1792  143.3980  152.1295 H   0  0  0  0  0  0  0  0  0  0  0  0  # atno 10167 bound_to 10162
  156.1870  130.6770  151.0377 H   0  0  0  0  0  0  0  0  0  0  0  0  # atno 10718 bound_to 10713
  154.1533  135.2814  155.3129 H   0  0  0  0  0  0  0  0  0  0  0  0  # atno 10763 bound_to 10752
  154.6201  135.5470  153.7569 H   0  0  0  0  0  0  0  0  0  0  0  0  # atno 10764 bound_to 10752
  153.0214  135.6437  154.1677 H   0  0  0  0  0  0  0  0  0  0  0  0  # atno 10765 bound_to 10752
  141.0908  133.9059  157.2080 H   0  0  0  0  0  0  0  0  0  0  0  0  # atno 11005 bound_to 11000
  146.3287  140.2972  142.8618 LP  0  0  0  0  0  0  0  0  0  0  0  0  # atno 17320 bound_to 7965
  144.9455  140.8124  143.5604 LP  0  0  0  0  0  0  0  0  0  0  0  0  # atno 17321 bound_to 7965
  139.5304  144.7152  151.5078 LP  0  0  0  0  0  0  0  0  0  0  0  0  # atno 17342 bound_to 10162
  140.6531  143.8655  150.6806 LP  0  0  0  0  0  0  0  0  0  0  0  0  # atno 17343 bound_to 10162
  157.6905  131.0811  150.7121 LP  0  0  0  0  0  0  0  0  0  0  0  0  # atno 17370 bound_to 10713
  156.7177  130.4671  149.5531 LP  0  0  0  0  0  0  0  0  0  0  0  0  # atno 17371 bound_to 10713
  139.9733  135.0121  156.9568 LP  0  0  0  0  0  0  0  0  0  0  0  0  # atno 17394 bound_to 11000
  140.5257  134.0863  155.7303 LP  0  0  0  0  0  0  0  0  0  0  0  0  # atno 17395 bound_to 11000

$$$$
