AV-unprocessed.smi:1834|AV-procd|sdf|7470|dock9
  -GOLD-   22720 9163D 1   1.00000     0.00000
 Structure written by MMmdl.
 46 47  0  0  0  0  0  0  0  0  2 V2000
  150.9918  137.8094  154.5478 C   0  0  0  0  0  0  0  0  0  0  0  0
  150.7281  139.3144  154.3933 C   0  0  0  0  0  0  0  0  0  0  0  0
  149.2971  139.6700  154.5712 N   0  3  2  0  0  0  0  0  0  0  0  0
  148.3951  138.6604  153.9574 C   0  0  0  0  0  0  0  0  0  0  0  0
  146.9180  138.9745  154.2444 C   0  0  0  0  0  0  0  0  0  0  0  0
  146.5558  140.3983  153.7963 C   0  0  0  0  0  0  0  0  0  0  0  0
  147.5125  141.4368  154.4113 C   0  0  1  0  0  0  0  0  0  0  0  0
  147.2223  141.6729  155.9132 C   0  0  0  0  0  0  0  0  0  0  0  0
  148.2664  142.4546  156.5698 N   0  0  0  0  0  0  0  0  0  0  0  0
  149.1665  141.9676  157.4363 C   0  0  0  0  0  0  0  0  0  0  0  0
  149.1948  140.7885  157.7888 O   0  0  0  0  0  0  0  0  0  0  0  0
  150.0207  142.9235  157.8396 N   0  0  0  0  0  0  0  0  0  0  0  0
  151.1116  142.8032  158.6421 C   0  0  0  0  0  0  0  0  0  0  0  0
  151.7498  141.6670  159.0596 C   0  0  0  0  0  0  0  0  0  0  0  0
  152.8061  142.1793  159.8680 C   0  0  0  0  0  0  0  0  0  0  0  0
  153.8578  141.4100  160.6117 C   0  0  0  0  0  0  0  0  0  0  0  0
  152.8044  143.5058  159.9324 N   0  0  0  0  0  0  0  0  0  0  0  0
  151.7585  143.8976  159.1737 N   0  0  0  0  0  0  0  0  0  0  0  0
  151.4675  145.3112  159.0311 C   0  0  0  0  0  0  0  0  0  0  0  0
  148.9754  141.0433  154.0964 C   0  0  0  0  0  0  0  0  0  0  0  0
  152.0435  137.5865  154.3677 H   0  0  0  0  0  0  0  0  0  0  0  0
  150.4089  137.2324  153.8298 H   0  0  0  0  0  0  0  0  0  0  0  0
  150.7519  137.4462  155.5467 H   0  0  0  0  0  0  0  0  0  0  0  0
  151.3437  139.8861  155.0895 H   0  0  0  0  0  0  0  0  0  0  0  0
  151.0496  139.6025  153.3916 H   0  0  0  0  0  0  0  0  0  0  0  0
  148.5681  138.6267  152.8805 H   0  0  0  0  0  0  0  0  0  0  0  0
  148.6296  137.6689  154.3465 H   0  0  0  0  0  0  0  0  0  0  0  0
  146.2812  138.2534  153.7309 H   0  0  0  0  0  0  0  0  0  0  0  0
  146.7156  138.8523  155.3087 H   0  0  0  0  0  0  0  0  0  0  0  0
  146.6150  140.4550  152.7084 H   0  0  0  0  0  0  0  0  0  0  0  0
  145.5215  140.6263  154.0562 H   0  0  0  0  0  0  0  0  0  0  0  0
  147.3206  142.3856  153.9080 H   0  0  0  0  0  0  0  0  0  0  0  0
  146.2898  142.2282  156.0189 H   0  0  0  0  0  0  0  0  0  0  0  0
  147.0647  140.7279  156.4344 H   0  0  0  0  0  0  0  0  0  0  0  0
  148.3101  143.4372  156.3401 H   0  0  0  0  0  0  0  0  0  0  0  0
  149.8610  143.8488  157.4695 H   0  0  0  0  0  0  0  0  0  0  0  0
  151.5181  140.6359  158.8397 H   0  0  0  0  0  0  0  0  0  0  0  0
  153.8023  140.3452  160.3849 H   0  0  0  0  0  0  0  0  0  0  0  0
  153.7398  141.5262  161.6893 H   0  0  0  0  0  0  0  0  0  0  0  0
  154.8581  141.7532  160.3465 H   0  0  0  0  0  0  0  0  0  0  0  0
  150.9300  145.4958  158.1010 H   0  0  0  0  0  0  0  0  0  0  0  0
  152.3946  145.8852  159.0166 H   0  0  0  0  0  0  0  0  0  0  0  0
  150.8550  145.6438  159.8694 H   0  0  0  0  0  0  0  0  0  0  0  0
  149.6615  141.7721  154.5243 H   0  0  0  0  0  0  0  0  0  0  0  0
  149.1365  141.0858  153.0179 H   0  0  0  0  0  0  0  0  0  0  0  0
  149.1166  139.6489  155.5652 H   0  0  0  0  0  0  0  0  0  0  0  0
  1  2  1  0  0  0  0
  1 21  1  0  0  0  0
  1 22  1  0  0  0  0
  1 23  1  0  0  0  0
  2  3  1  0  0  0  0
  2 24  1  0  0  0  0
  2 25  1  0  0  0  0
  3 20  1  0  0  0  0
  3  4  1  0  0  0  0
  3 46  1  0  0  0  0
  4  5  1  0  0  0  0
  4 26  1  0  0  0  0
  4 27  1  0  0  0  0
  5  6  1  0  0  0  0
  5 28  1  0  0  0  0
  5 29  1  0  0  0  0
  6  7  1  0  0  0  0
  6 30  1  0  0  0  0
  6 31  1  0  0  0  0
  7  8  1  0  0  0  0
  7 20  1  0  0  0  0
  7 32  1  0  0  0  0
  8  9  1  0  0  0  0
  8 33  1  0  0  0  0
  8 34  1  0  0  0  0
  9 10  1  0  0  0  0
  9 35  1  0  0  0  0
 10 11  2  0  0  0  0
 10 12  1  0  0  0  0
 12 13  1  0  0  0  0
 12 36  1  0  0  0  0
 13 18  1  0  0  0  0
 13 14  2  0  0  0  0
 14 15  1  0  0  0  0
 14 37  1  0  0  0  0
 15 16  1  0  0  0  0
 15 17  2  0  0  0  0
 16 38  1  0  0  0  0
 16 39  1  0  0  0  0
 16 40  1  0  0  0  0
 17 18  1  0  0  0  0
 18 19  1  0  0  0  0
 19 41  1  0  0  0  0
 19 42  1  0  0  0  0
 19 43  1  0  0  0  0
 20 44  1  0  0  0  0
 20 45  1  0  0  0  0
M  CHG  1   3   1
M  END
> <s_m_source_file>
AV-unprocessed.smi

> <i_m_source_file_index>
1834

> <i_lp_mmshare_version>
43012

> <i_f3d_flags>
0

> <s_epik_input>
W0NIM11bQ0gyXU4xW0NIMl1bQ0gyXVtDSDJdW0NASF0oW0NIMl0xKVtDSDJdW05IXUMoPU8pW05IXWMyW2NIXWMoW0NIM10pbm4yW0NIM10=

> <s_epik_cmdline>
J2VwaWtfcHl0aG9uJywgJy1waCcsICc3LjAnLCAnLXRuJywgJzgnLCAnLW1hJywgJzIwMCcsICctbWV0YWxfYmluZGluZycsICctaW1hZScsICc8aW5maWxlLm1hZT4nLCAnLW9tYWUnLCAnPG91dGZpbGUubWFlPic=

> <r_lp_tautomer_probability>
1

> <r_epik_Ionization_Penalty>
0.000466842

> <r_epik_Ionization_Penalty_Charging>
0.000378984

> <r_epik_Ionization_Penalty_Neutral>
8.78572e-05

> <r_epik_State_Penalty>
0.000231434

> <r_epik_Charging_Adjusted_Penalty>
0.000610418

> <i_epik_Tot_Q>
1

> <i_epik_Tot_abs_Q>
1

> <r_epik_Metal_State_Penalty>
-0

> <b_epik_Metal_Only>
0

> <s_lp_Force_Field>
OPLS_2005

> <r_lp_Energy>
21.1664

> <b_lp_Chiralities_Consistent>
1

> <s_lp_Variant>
AV-unprocessed.smi:1834-2

> <Gold.Version>
5.8.1

> <Gold.Id.Protein>
6NUR|6NUR_protein|mol2

> <Gold.PLP.Fitness>
41.2031

> <Gold.PLP.PLP>
-37.6788

> <Gold.PLP.part.hbond>
-1.8249

> <Gold.PLP.part.metal>
0.0000

> <Gold.PLP.part.buried>
-2.2460

> <Gold.PLP.part.nonpolar>
-33.5272

> <Gold.PLP.part.repulsive>
0.1577

> <Gold.PLP.ligand.clash>
0.0000

> <Gold.PLP.ligand.torsion>
0.3508

> <Gold.PLP.Chemscore.Hbond>
1.3978

> <Gold.PLP.Chemscore.CHOScore>
0.0000

> <Gold.PLP.Chemscore.Metal>
0.0000

> <Gold.Chemscore.Hbonds>
donor molecule, donor type, donor heavy atom, donor atom, acceptor molecule, acceptor atom, score
      L1  H     9    35       P1  8028  1.00
      L1  H    12    36       P1  8028  0.42

> <Gold.PLP.Chemscore.Internal.Correction>
0.0325

> <Gold.Rescore>
     Score         DG    S(hbond)    S(metal)    S(lipo)     H(rot)  DE(clash)    DE(int)     intcor
     14.98     -19.03       1.87        0.00      93.80       1.43       2.86       1.20       ----

> <Gold.Chemscore.Fitness>
14.9789

> <Gold.Chemscore.DG>
-19.0343

> <Gold.Chemscore.ZeroCoef>
-5.4800

> <Gold.Chemscore.Hbond>
1.8676

> <Gold.Chemscore.Metal>
0.0000

> <Gold.Chemscore.Lipo>
93.8030

> <Gold.Chemscore.Internal_Hbond>
0.0000

> <Gold.Chemscore.DEClash>
2.8558

> <Gold.Chemscore.DEInternal>
1.1996

> <Gold.Chemscore.Rot>
1.4291

> <Gold.Chemscore.Internal.Correction>
   9.000000E+99

> <Gold.Chemscore.Hbonds>
donor molecule, donor type, donor heavy atom, donor atom, acceptor molecule, acceptor atom, score
      L1  H     9    35       P1  8028  0.37
      L1  H    12    36       P1  8028  0.29

> <Gold.Chemscore.Hbond.Weighted>
-6.2378

> <Gold.Chemscore.Metal.Weighted>
-0.0000

> <Gold.Chemscore.Lipo.Weighted>
-10.9750

> <Gold.Chemscore.Internal_Hbond.Weighted>
0.0000

> <Gold.Chemscore.DEClash.Weighted>
2.8558

> <Gold.Chemscore.DEInternal.Weighted>
1.1996

> <Gold.Chemscore.Rot.Weighted>
3.6584

> <Gold.Chemscore.Internal.Correction.Weighted>
   9.000000E+99

> <Gold.Protein.RotatedTorsions>
[ 6907 6896 6895 6894 ] final -169.81 input  -60.11 | X-H torsion
[ 7974 7965 7964 7962 ] final  166.81 input  175.53 | X-H torsion
[ 8008 7997 7996 7995 ] final  130.37 input   59.86 | X-H torsion
[ 10167 10162 10161 10158 ] final  153.15 input  -65.29 | X-H torsion
[ 10718 10713 10712 10709 ] final -168.01 input   66.30 | X-H torsion
[ 10763 10752 10751 10750 ] final -169.92 input  -60.55 | X-H torsion
[ 11005 11000 10999 10996 ] final  -62.28 input  -57.11 | X-H torsion

> <Gold.Protein.ActiveResidues>
 VAL166  LYS551  ARG553  GLY616  TRP617  ASP618  TYR619  PRO620  LYS621  CYS622 
 ASP623  PHE694  ASN695  SER759  ASP760  ASP761  ALA762  ILE779  LEU786  VAL792 
 PHE793  MET794  SER795  GLU796  ALA797  LYS798  CYS799  TRP800  GLU811  SER814 

> <Gold.Protein.RotatedAtoms>
  151.4976  133.3511  159.2863 H   0  0  0  0  0  0  0  0  0  0  0  0  # atno 6907 bound_to 6896
  150.8794  134.8184  159.7224 H   0  0  0  0  0  0  0  0  0  0  0  0  # atno 6908 bound_to 6896
  152.4752  134.4871  159.9735 H   0  0  0  0  0  0  0  0  0  0  0  0  # atno 6909 bound_to 6896
  144.7448  139.8669  143.6385 H   0  0  0  0  0  0  0  0  0  0  0  0  # atno 7974 bound_to 7965
  156.2953  140.2597  156.2751 H   0  0  0  0  0  0  0  0  0  0  0  0  # atno 8008 bound_to 7997
  154.9657  140.0392  157.2229 H   0  0  0  0  0  0  0  0  0  0  0  0  # atno 8009 bound_to 7997
  154.7905  140.2811  155.5999 H   0  0  0  0  0  0  0  0  0  0  0  0  # atno 8010 bound_to 7997
  139.4828  144.5297  151.7743 H   0  0  0  0  0  0  0  0  0  0  0  0  # atno 10167 bound_to 10162
  156.6907  130.9158  151.3068 H   0  0  0  0  0  0  0  0  0  0  0  0  # atno 10718 bound_to 10713
  154.6471  135.2906  155.0033 H   0  0  0  0  0  0  0  0  0  0  0  0  # atno 10763 bound_to 10752
  154.1139  135.6558  153.4894 H   0  0  0  0  0  0  0  0  0  0  0  0  # atno 10764 bound_to 10752
  153.0356  135.5271  154.7363 H   0  0  0  0  0  0  0  0  0  0  0  0  # atno 10765 bound_to 10752
  141.1354  133.6638  156.5503 H   0  0  0  0  0  0  0  0  0  0  0  0  # atno 11005 bound_to 11000
  146.1308  139.4343  143.0170 LP  0  0  0  0  0  0  0  0  0  0  0  0  # atno 17320 bound_to 7965
  145.7166  141.0089  143.1425 LP  0  0  0  0  0  0  0  0  0  0  0  0  # atno 17321 bound_to 7965
  140.4822  144.1433  150.5934 LP  0  0  0  0  0  0  0  0  0  0  0  0  # atno 17342 bound_to 10162
  140.4265  143.2587  151.9649 LP  0  0  0  0  0  0  0  0  0  0  0  0  # atno 17343 bound_to 10162
  157.7010  130.9333  150.0785 LP  0  0  0  0  0  0  0  0  0  0  0  0  # atno 17370 bound_to 10713
  156.1799  130.3649  149.9049 LP  0  0  0  0  0  0  0  0  0  0  0  0  # atno 17371 bound_to 10713
  140.4069  134.7307  157.4813 LP  0  0  0  0  0  0  0  0  0  0  0  0  # atno 17394 bound_to 11000
  140.0455  134.6205  155.8926 LP  0  0  0  0  0  0  0  0  0  0  0  0  # atno 17395 bound_to 11000

$$$$
