AV-unprocessed.smi:1430|AV-procd|sdf|5826|dock2
  -GOLD-   22720 5483D 1   1.00000     0.00000
 Structure written by MMmdl.
 47 48  0  0  0  0  0  0  0  0  2 V2000
  151.6560  141.7160  157.8656 C   0  0  0  0  0  0  0  0  0  0  0  0
  151.6856  141.4813  156.4619 O   0  0  0  0  0  0  0  0  0  0  0  0
  151.1597  140.2984  155.9846 C   0  0  0  0  0  0  0  0  0  0  0  0
  150.9232  139.2495  156.8950 C   0  0  0  0  0  0  0  0  0  0  0  0
  150.3873  138.0386  156.4163 C   0  0  0  0  0  0  0  0  0  0  0  0
  150.0956  137.9172  155.0363 C   0  0  0  0  0  0  0  0  0  0  0  0
  149.5722  136.7454  154.4248 N   0  0  0  0  0  0  0  0  0  0  0  0
  149.2888  135.5596  154.9896 C   0  0  0  0  0  0  0  0  0  0  0  0
  149.3847  135.2991  156.1878 O   0  0  0  0  0  0  0  0  0  0  0  0
  148.8758  134.6716  154.0735 N   0  0  0  0  0  0  0  0  0  0  0  0
  148.4946  133.2867  154.3488 C   0  0  0  0  0  0  0  0  0  0  0  0
  149.0694  132.2752  153.3321 C   0  0  0  0  0  0  0  0  0  0  0  0
  148.0305  131.3907  152.7480 N   0  3  1  0  0  0  0  0  0  0  0  0
  147.6407  130.2812  153.6475 C   0  0  0  0  0  0  0  0  0  0  0  0
  146.6464  129.3357  152.9466 C   0  0  2  0  0  0  0  0  0  0  0  0
  147.2988  128.4573  151.8633 C   0  0  0  0  0  0  0  0  0  0  0  0
  145.5342  130.0778  152.4442 O   0  0  0  0  0  0  0  0  0  0  0  0
  145.8712  131.1459  151.5616 C   0  0  1  0  0  0  0  0  0  0  0  0
  144.5703  131.8345  151.1348 C   0  0  0  0  0  0  0  0  0  0  0  0
  146.8316  132.1172  152.2712 C   0  0  0  0  0  0  0  0  0  0  0  0
  150.3812  139.0218  154.2074 C   0  0  0  0  0  0  0  0  0  0  0  0
  150.8956  140.1845  154.6595 N   0  0  0  0  0  0  0  0  0  0  0  0
  152.1044  142.6862  158.0783 H   0  0  0  0  0  0  0  0  0  0  0  0
  152.2267  140.9614  158.4089 H   0  0  0  0  0  0  0  0  0  0  0  0
  150.6334  141.7341  158.2454 H   0  0  0  0  0  0  0  0  0  0  0  0
  151.1539  139.3698  157.9433 H   0  0  0  0  0  0  0  0  0  0  0  0
  150.2272  137.2309  157.1128 H   0  0  0  0  0  0  0  0  0  0  0  0
  149.3559  136.8337  153.4427 H   0  0  0  0  0  0  0  0  0  0  0  0
  148.8109  134.9777  153.1133 H   0  0  0  0  0  0  0  0  0  0  0  0
  148.7976  133.0158  155.3612 H   0  0  0  0  0  0  0  0  0  0  0  0
  147.4057  133.2400  154.3375 H   0  0  0  0  0  0  0  0  0  0  0  0
  149.5424  132.8385  152.5267 H   0  0  0  0  0  0  0  0  0  0  0  0
  149.8632  131.6802  153.7859 H   0  0  0  0  0  0  0  0  0  0  0  0
  148.5232  129.7228  153.9629 H   0  0  0  0  0  0  0  0  0  0  0  0
  147.1875  130.6949  154.5502 H   0  0  0  0  0  0  0  0  0  0  0  0
  146.2423  128.6592  153.7003 H   0  0  0  0  0  0  0  0  0  0  0  0
  148.0536  127.8026  152.3000 H   0  0  0  0  0  0  0  0  0  0  0  0
  147.7929  129.0470  151.0915 H   0  0  0  0  0  0  0  0  0  0  0  0
  146.5563  127.8240  151.3775 H   0  0  0  0  0  0  0  0  0  0  0  0
  146.3506  130.7464  150.6677 H   0  0  0  0  0  0  0  0  0  0  0  0
  144.7687  132.6617  150.4530 H   0  0  0  0  0  0  0  0  0  0  0  0
  144.0326  132.2323  151.9961 H   0  0  0  0  0  0  0  0  0  0  0  0
  143.9082  131.1350  150.6238 H   0  0  0  0  0  0  0  0  0  0  0  0
  146.3342  132.5956  153.1167 H   0  0  0  0  0  0  0  0  0  0  0  0
  147.1232  132.9092  151.5813 H   0  0  0  0  0  0  0  0  0  0  0  0
  150.1897  138.9736  153.1452 H   0  0  0  0  0  0  0  0  0  0  0  0
  148.4543  130.9577  151.9399 H   0  0  0  0  0  0  0  0  0  0  0  0
  1  2  1  0  0  0  0
  1 23  1  0  0  0  0
  1 24  1  0  0  0  0
  1 25  1  0  0  0  0
  2  3  1  0  0  0  0
  3 22  1  0  0  0  0
  3  4  2  0  0  0  0
  4  5  1  0  0  0  0
  4 26  1  0  0  0  0
  5  6  2  0  0  0  0
  5 27  1  0  0  0  0
  6  7  1  0  0  0  0
  6 21  1  0  0  0  0
  7  8  1  0  0  0  0
  7 28  1  0  0  0  0
  8  9  2  0  0  0  0
  8 10  1  0  0  0  0
 10 11  1  0  0  0  0
 10 29  1  0  0  0  0
 11 12  1  0  0  0  0
 11 30  1  0  0  0  0
 11 31  1  0  0  0  0
 12 13  1  0  0  0  0
 12 32  1  0  0  0  0
 12 33  1  0  0  0  0
 13 20  1  0  0  0  0
 13 14  1  0  0  0  0
 13 47  1  0  0  0  0
 14 15  1  0  0  0  0
 14 34  1  0  0  0  0
 14 35  1  0  0  0  0
 15 16  1  0  0  0  0
 15 17  1  0  0  0  0
 15 36  1  0  0  0  0
 16 37  1  0  0  0  0
 16 38  1  0  0  0  0
 16 39  1  0  0  0  0
 17 18  1  0  0  0  0
 18 19  1  0  0  0  0
 18 20  1  0  0  0  0
 18 40  1  0  0  0  0
 19 41  1  0  0  0  0
 19 42  1  0  0  0  0
 19 43  1  0  0  0  0
 20 44  1  0  0  0  0
 20 45  1  0  0  0  0
 21 22  2  0  0  0  0
 21 46  1  0  0  0  0
M  CHG  1  13   1
M  END
> <s_m_source_file>
AV-unprocessed.smi

> <i_m_source_file_index>
1430

> <i_lp_mmshare_version>
43012

> <i_f3d_flags>
0

> <s_epik_input>
W0NIM11PYzFbY0hdW2NIXWMoW2NIXW4xKVtOSF1DKD1PKVtOSF1bQ0gyXVtDSDJdTjJbQ0gyXVtDQEBIXShbQ0gzXSlPW0NAQEhdKFtDSDNdKVtDSDJdMg==

> <s_epik_cmdline>
J2VwaWtfcHl0aG9uJywgJy1waCcsICc3LjAnLCAnLXRuJywgJzgnLCAnLW1hJywgJzIwMCcsICctbWV0YWxfYmluZGluZycsICctaW1hZScsICc8aW5maWxlLm1hZT4nLCAnLW9tYWUnLCAnPG91dGZpbGUubWFlPic=

> <r_lp_tautomer_probability>
1

> <r_epik_Ionization_Penalty>
0.602607

> <r_epik_Ionization_Penalty_Charging>
0.602531

> <r_epik_Ionization_Penalty_Neutral>
7.66983e-05

> <r_epik_State_Penalty>
0.617039

> <r_epik_Charging_Adjusted_Penalty>
1.21957

> <i_epik_Tot_Q>
1

> <i_epik_Tot_abs_Q>
1

> <r_epik_Metal_State_Penalty>
0.617043

> <b_epik_Metal_Only>
0

> <s_lp_Force_Field>
OPLS_2005

> <r_lp_Energy>
27.4257

> <b_lp_Chiralities_Consistent>
1

> <s_lp_Variant>
AV-unprocessed.smi:1430-5

> <Gold.Version>
5.8.1

> <Gold.Id.Protein>
6NUR|6NUR_protein|mol2

> <Gold.PLP.Fitness>
47.7470

> <Gold.PLP.PLP>
-34.2333

> <Gold.PLP.part.hbond>
-4.0000

> <Gold.PLP.part.metal>
0.0000

> <Gold.PLP.part.buried>
-3.1118

> <Gold.PLP.part.nonpolar>
-26.2234

> <Gold.PLP.part.repulsive>
0.3131

> <Gold.PLP.ligand.clash>
0.0000

> <Gold.PLP.ligand.torsion>
0.7803

> <Gold.PLP.Chemscore.Hbond>
4.0000

> <Gold.PLP.Chemscore.CHOScore>
1.0000

> <Gold.PLP.Chemscore.Metal>
0.0000

> <Gold.Chemscore.Hbonds>
donor molecule, donor type, donor heavy atom, donor atom, acceptor molecule, acceptor atom, score
      L1  H     7    28       P1  7948  1.00
      L1  H    10    29       P1  7948  1.00
      L1  H    13    47       P1 10747  1.00
      P1  H  7989  7998       L1    22  1.00
      L1  C    21    46       P1  7957  1.00

> <Gold.PLP.Chemscore.Internal.Correction>
0.0743

> <Gold.Rescore>
     Score         DG    S(hbond)    S(metal)    S(lipo)     H(rot)  DE(clash)    DE(int)     intcor
     20.53     -22.52       3.43        0.00      86.22       1.76       0.01       1.98       ----

> <Gold.Chemscore.Fitness>
20.5308

> <Gold.Chemscore.DG>
-22.5204

> <Gold.Chemscore.ZeroCoef>
-5.4800

> <Gold.Chemscore.Hbond>
3.4310

> <Gold.Chemscore.Metal>
0.0000

> <Gold.Chemscore.Lipo>
86.2225

> <Gold.Chemscore.Internal_Hbond>
0.0000

> <Gold.Chemscore.DEClash>
0.0121

> <Gold.Chemscore.DEInternal>
1.9774

> <Gold.Chemscore.Rot>
1.7606

> <Gold.Chemscore.Internal.Correction>
   9.000000E+99

> <Gold.Chemscore.Hbonds>
donor molecule, donor type, donor heavy atom, donor atom, acceptor molecule, acceptor atom, score
      L1  H     7    28       P1  7948  0.91
      L1  H    10    29       P1  7948  0.33
      L1  H    13    47       P1 10747  0.97
      P1  H  7989  7998       L1    22  0.61

> <Gold.Chemscore.Hbond.Weighted>
-11.4595

> <Gold.Chemscore.Metal.Weighted>
-0.0000

> <Gold.Chemscore.Lipo.Weighted>
-10.0880

> <Gold.Chemscore.Internal_Hbond.Weighted>
0.0000

> <Gold.Chemscore.DEClash.Weighted>
0.0121

> <Gold.Chemscore.DEInternal.Weighted>
1.9774

> <Gold.Chemscore.Rot.Weighted>
4.5072

> <Gold.Chemscore.Internal.Correction.Weighted>
   9.000000E+99

> <Gold.Protein.RotatedTorsions>
[ 6907 6896 6895 6894 ] final   90.78 input  -60.11 | X-H torsion
[ 7974 7965 7964 7962 ] final  -75.86 input  175.53 | X-H torsion
[ 8008 7997 7996 7995 ] final  -55.14 input   59.86 | X-H torsion
[ 10167 10162 10161 10158 ] final   57.08 input  -65.29 | X-H torsion
[ 10718 10713 10712 10709 ] final   67.60 input   66.30 | X-H torsion
[ 10763 10752 10751 10750 ] final -157.44 input  -60.55 | X-H torsion
[ 11005 11000 10999 10996 ] final    8.71 input  -57.11 | X-H torsion

> <Gold.Protein.ActiveResidues>
 VAL166  LYS551  ARG553  GLY616  TRP617  ASP618  TYR619  PRO620  LYS621  CYS622 
 ASP623  PHE694  ASN695  SER759  ASP760  ASP761  ALA762  ILE779  LEU786  VAL792 
 PHE793  MET794  SER795  GLU796  ALA797  LYS798  CYS799  TRP800  GLU811  SER814 

> <Gold.Protein.RotatedAtoms>
  152.5446  134.1758  159.8615 H   0  0  0  0  0  0  0  0  0  0  0  0  # atno 6907 bound_to 6896
  151.1765  133.4745  159.2601 H   0  0  0  0  0  0  0  0  0  0  0  0  # atno 6908 bound_to 6896
  151.1222  135.0097  159.8599 H   0  0  0  0  0  0  0  0  0  0  0  0  # atno 6909 bound_to 6896
  145.6205  140.9364  143.1141 H   0  0  0  0  0  0  0  0  0  0  0  0  # atno 7974 bound_to 7965
  154.4185  140.1160  156.5428 H   0  0  0  0  0  0  0  0  0  0  0  0  # atno 8008 bound_to 7997
  155.6490  140.3496  155.4722 H   0  0  0  0  0  0  0  0  0  0  0  0  # atno 8009 bound_to 7997
  155.9808  140.1160  157.0718 H   0  0  0  0  0  0  0  0  0  0  0  0  # atno 8010 bound_to 7997
  140.2018  144.3980  150.6526 H   0  0  0  0  0  0  0  0  0  0  0  0  # atno 10167 bound_to 10162
  157.6240  130.9330  150.0265 H   0  0  0  0  0  0  0  0  0  0  0  0  # atno 10718 bound_to 10713
  154.7636  135.3124  154.8330 H   0  0  0  0  0  0  0  0  0  0  0  0  # atno 10763 bound_to 10752
  153.9084  135.6808  153.4756 H   0  0  0  0  0  0  0  0  0  0  0  0  # atno 10764 bound_to 10752
  153.1239  135.4810  154.9173 H   0  0  0  0  0  0  0  0  0  0  0  0  # atno 10765 bound_to 10752
  140.5339  134.0440  155.7882 H   0  0  0  0  0  0  0  0  0  0  0  0  # atno 11005 bound_to 11000
  144.7233  139.7957  143.7374 LP  0  0  0  0  0  0  0  0  0  0  0  0  # atno 17320 bound_to 7965
  146.1435  139.4498  143.0094 LP  0  0  0  0  0  0  0  0  0  0  0  0  # atno 17321 bound_to 7965
  140.6385  143.2199  151.6343 LP  0  0  0  0  0  0  0  0  0  0  0  0  # atno 17342 bound_to 10162
  139.5214  144.3194  152.0924 LP  0  0  0  0  0  0  0  0  0  0  0  0  # atno 17343 bound_to 10162
  156.1401  130.3642  149.9595 LP  0  0  0  0  0  0  0  0  0  0  0  0  # atno 17370 bound_to 10713
  156.7638  130.9160  151.3642 LP  0  0  0  0  0  0  0  0  0  0  0  0  # atno 17371 bound_to 10713
  141.1266  133.9373  157.2623 LP  0  0  0  0  0  0  0  0  0  0  0  0  # atno 17394 bound_to 11000
  139.9539  135.0169  156.9074 LP  0  0  0  0  0  0  0  0  0  0  0  0  # atno 17395 bound_to 11000

$$$$
