AV-unprocessed.smi:2605|AV-procd|sdf|10194|dock7
  -GOLD-   2272014203D 1   1.00000     0.00000
 Structure written by MMmdl.
 26 27  0  0  0  0  0  0  0  0  2 V2000
  146.2646  133.1112  150.8074 C   0  0  0  0  0  0  0  0  0  0  0  0
  146.3817  134.3707  151.4290 C   0  0  0  0  0  0  0  0  0  0  0  0
  145.2796  135.2498  151.3851 C   0  0  0  0  0  0  0  0  0  0  0  0
  145.3657  136.6213  152.0356 C   0  0  1  0  0  0  0  0  0  0  0  0
  144.2510  136.8131  153.0892 C   0  0  0  0  0  0  0  0  0  0  0  0
  144.3250  138.1646  153.6813 N   0  3  0  0  0  0  0  0  0  0  0  0
  145.6635  138.4256  154.2466 C   0  0  0  0  0  0  0  0  0  0  0  0
  146.7410  138.2123  153.1680 C   0  0  0  0  0  0  0  0  0  0  0  0
  146.6685  136.8451  152.6625 N   0  0  0  0  0  0  0  0  0  0  0  0
  144.1115  134.8275  150.7136 C   0  0  0  0  0  0  0  0  0  0  0  0
  144.0978  133.5473  150.1250 C   0  0  0  0  0  0  0  0  0  0  0  0
  145.1491  132.7013  150.1668 N   0  0  0  0  0  0  0  0  0  0  0  0
  147.0898  132.4147  150.8250 H   0  0  0  0  0  0  0  0  0  0  0  0
  147.2986  134.6491  151.9278 H   0  0  0  0  0  0  0  0  0  0  0  0
  145.2423  137.3656  151.2470 H   0  0  0  0  0  0  0  0  0  0  0  0
  143.2694  136.6862  152.6318 H   0  0  0  0  0  0  0  0  0  0  0  0
  144.3323  136.0676  153.8819 H   0  0  0  0  0  0  0  0  0  0  0  0
  144.1402  138.8459  152.9591 H   0  0  0  0  0  0  0  0  0  0  0  0
  145.6989  139.4486  154.6219 H   0  0  0  0  0  0  0  0  0  0  0  0
  145.8359  137.7652  155.0979 H   0  0  0  0  0  0  0  0  0  0  0  0
  146.6187  138.9212  152.3478 H   0  0  0  0  0  0  0  0  0  0  0  0
  147.7320  138.3801  153.5906 H   0  0  0  0  0  0  0  0  0  0  0  0
  147.4009  136.6888  151.9837 H   0  0  0  0  0  0  0  0  0  0  0  0
  143.2426  135.4660  150.6491 H   0  0  0  0  0  0  0  0  0  0  0  0
  143.2191  133.1941  149.6060 H   0  0  0  0  0  0  0  0  0  0  0  0
  143.6286  138.2530  154.4074 H   0  0  0  0  0  0  0  0  0  0  0  0
  1 12  1  0  0  0  0
  1  2  2  0  0  0  0
  1 13  1  0  0  0  0
  2  3  1  0  0  0  0
  2 14  1  0  0  0  0
  3  4  1  0  0  0  0
  3 10  2  0  0  0  0
  4  9  1  0  0  0  0
  4  5  1  0  0  0  0
  4 15  1  0  0  0  0
  5  6  1  0  0  0  0
  5 16  1  0  0  0  0
  5 17  1  0  0  0  0
  6  7  1  0  0  0  0
  6 18  1  0  0  0  0
  6 26  1  0  0  0  0
  7  8  1  0  0  0  0
  7 19  1  0  0  0  0
  7 20  1  0  0  0  0
  8  9  1  0  0  0  0
  8 21  1  0  0  0  0
  8 22  1  0  0  0  0
  9 23  1  0  0  0  0
 10 11  1  0  0  0  0
 10 24  1  0  0  0  0
 11 12  2  0  0  0  0
 11 25  1  0  0  0  0
M  CHG  1   6   1
M  END
> <s_m_source_file>
AV-unprocessed.smi

> <i_m_source_file_index>
2605

> <i_lp_mmshare_version>
43012

> <i_f3d_flags>
0

> <s_epik_input>
W2NIXTFbY0hdbltjSF1bY0hdYzFbQ0BASF0yW0NIMl1bTkhdW0NIMl1bQ0gyXVtOSF0y

> <s_epik_cmdline>
J2VwaWtfcHl0aG9uJywgJy1waCcsICc3LjAnLCAnLXRuJywgJzgnLCAnLW1hJywgJzIwMCcsICctbWV0YWxfYmluZGluZycsICctaW1hZScsICc8aW5maWxlLm1hZT4nLCAnLW9tYWUnLCAnPG91dGZpbGUubWFlPic=

> <r_epik_Ionization_Penalty>
0.0197506

> <r_epik_Ionization_Penalty_Charging>
0.010317

> <r_epik_Ionization_Penalty_Neutral>
0.00943359

> <r_epik_State_Penalty>
0.319455

> <r_epik_Charging_Adjusted_Penalty>
0.329772

> <i_epik_Tot_Q>
1

> <i_epik_Tot_abs_Q>
1

> <r_epik_Metal_State_Penalty>
0.318246

> <b_epik_Metal_Only>
0

> <s_lp_Force_Field>
OPLS_2005

> <r_lp_Energy>
9.79217

> <b_lp_Chiralities_Consistent>
1

> <s_lp_Variant>
AV-unprocessed.smi:2605-2

> <Gold.Version>
5.8.1

> <Gold.Id.Protein>
6NUR|6NUR_protein|mol2

> <Gold.PLP.Fitness>
32.8873

> <Gold.PLP.PLP>
-18.5820

> <Gold.PLP.part.hbond>
-1.8593

> <Gold.PLP.part.metal>
0.0000

> <Gold.PLP.part.buried>
-2.7262

> <Gold.PLP.part.nonpolar>
-15.3974

> <Gold.PLP.part.repulsive>
0.1439

> <Gold.PLP.ligand.clash>
0.0000

> <Gold.PLP.ligand.torsion>
0.0064

> <Gold.PLP.Chemscore.Hbond>
2.8800

> <Gold.PLP.Chemscore.CHOScore>
1.8902

> <Gold.PLP.Chemscore.Metal>
0.0000

> <Gold.Chemscore.Hbonds>
donor molecule, donor type, donor heavy atom, donor atom, acceptor molecule, acceptor atom, score
      L1  H     6    18       P1 10175  2.00
      L1  H     9    23       P1  7948  0.86
      L1  C     1    13       P1 10747  1.00
      L1  C    11    25       P1 10186  0.89

> <Gold.PLP.Chemscore.Internal.Correction>
0.0074

> <Gold.Rescore>
     Score         DG    S(hbond)    S(metal)    S(lipo)     H(rot)  DE(clash)    DE(int)     intcor
     14.79     -14.92       1.94        0.00      47.21       1.00       0.04       0.08       ----

> <Gold.Chemscore.Fitness>
14.7949

> <Gold.Chemscore.DG>
-14.9168

> <Gold.Chemscore.ZeroCoef>
-5.4800

> <Gold.Chemscore.Hbond>
1.9380

> <Gold.Chemscore.Metal>
0.0000

> <Gold.Chemscore.Lipo>
47.2125

> <Gold.Chemscore.Internal_Hbond>
0.0000

> <Gold.Chemscore.DEClash>
0.0436

> <Gold.Chemscore.DEInternal>
0.0783

> <Gold.Chemscore.Rot>
1.0000

> <Gold.Chemscore.Internal.Correction>
   9.000000E+99

> <Gold.Chemscore.Hbonds>
donor molecule, donor type, donor heavy atom, donor atom, acceptor molecule, acceptor atom, score
      L1  H     6    18       P1 10175  0.95
      L1  H     9    23       P1  7948  0.85

> <Gold.Chemscore.Hbond.Weighted>
-6.4730

> <Gold.Chemscore.Metal.Weighted>
-0.0000

> <Gold.Chemscore.Lipo.Weighted>
-5.5239

> <Gold.Chemscore.Internal_Hbond.Weighted>
0.0000

> <Gold.Chemscore.DEClash.Weighted>
0.0436

> <Gold.Chemscore.DEInternal.Weighted>
0.0783

> <Gold.Chemscore.Rot.Weighted>
2.5600

> <Gold.Chemscore.Internal.Correction.Weighted>
   9.000000E+99

> <Gold.Protein.RotatedTorsions>
[ 6907 6896 6895 6894 ] final  -19.63 input  -60.11 | X-H torsion
[ 7974 7965 7964 7962 ] final  -70.54 input  175.53 | X-H torsion
[ 8008 7997 7996 7995 ] final    4.93 input   59.86 | X-H torsion
[ 10167 10162 10161 10158 ] final   49.83 input  -65.29 | X-H torsion
[ 10718 10713 10712 10709 ] final -109.29 input   66.30 | X-H torsion
[ 10763 10752 10751 10750 ] final  -29.00 input  -60.55 | X-H torsion
[ 11005 11000 10999 10996 ] final  -27.87 input  -57.11 | X-H torsion

> <Gold.Protein.ActiveResidues>
 VAL166  LYS551  ARG553  GLY616  TRP617  ASP618  TYR619  PRO620  LYS621  CYS622 
 ASP623  PHE694  ASN695  SER759  ASP760  ASP761  ALA762  ILE779  LEU786  VAL792 
 PHE793  MET794  SER795  GLU796  ALA797  LYS798  CYS799  TRP800  GLU811  SER814 

> <Gold.Protein.RotatedAtoms>
  151.2602  135.0651  159.9094 H   0  0  0  0  0  0  0  0  0  0  0  0  # atno 6907 bound_to 6896
  152.5367  134.0239  159.8004 H   0  0  0  0  0  0  0  0  0  0  0  0  # atno 6908 bound_to 6896
  151.0461  133.5614  159.2677 H   0  0  0  0  0  0  0  0  0  0  0  0  # atno 6909 bound_to 6896
  145.6897  140.9158  143.0788 H   0  0  0  0  0  0  0  0  0  0  0  0  # atno 7974 bound_to 7965
  154.7220  140.2713  155.6533 H   0  0  0  0  0  0  0  0  0  0  0  0  # atno 8008 bound_to 7997
  156.2826  140.2732  156.1819 H   0  0  0  0  0  0  0  0  0  0  0  0  # atno 8009 bound_to 7997
  155.0494  140.0371  157.2528 H   0  0  0  0  0  0  0  0  0  0  0  0  # atno 8010 bound_to 7997
  140.2788  144.3181  150.6270 H   0  0  0  0  0  0  0  0  0  0  0  0  # atno 10167 bound_to 10162
  156.0529  130.5756  150.8079 H   0  0  0  0  0  0  0  0  0  0  0  0  # atno 10718 bound_to 10713
  153.7576  135.6921  153.4932 H   0  0  0  0  0  0  0  0  0  0  0  0  # atno 10763 bound_to 10752
  153.1960  135.4453  155.0207 H   0  0  0  0  0  0  0  0  0  0  0  0  # atno 10764 bound_to 10752
  154.8165  135.3401  154.7093 H   0  0  0  0  0  0  0  0  0  0  0  0  # atno 10765 bound_to 10752
  140.9158  133.7431  156.0733 H   0  0  0  0  0  0  0  0  0  0  0  0  # atno 11005 bound_to 11000
  144.7000  139.8805  143.7447 LP  0  0  0  0  0  0  0  0  0  0  0  0  # atno 17320 bound_to 7965
  146.0893  139.3882  143.0416 LP  0  0  0  0  0  0  0  0  0  0  0  0  # atno 17321 bound_to 7965
  140.5829  143.2171  151.7395 LP  0  0  0  0  0  0  0  0  0  0  0  0  # atno 17342 bound_to 10162
  139.4968  144.4053  152.0138 LP  0  0  0  0  0  0  0  0  0  0  0  0  # atno 17343 bound_to 10162
  157.5472  131.0943  150.9745 LP  0  0  0  0  0  0  0  0  0  0  0  0  # atno 17370 bound_to 10713
  157.0014  130.5601  149.5312 LP  0  0  0  0  0  0  0  0  0  0  0  0  # atno 17371 bound_to 10713
  140.8051  134.3464  157.5428 LP  0  0  0  0  0  0  0  0  0  0  0  0  # atno 17394 bound_to 11000
  139.8766  134.9221  156.3292 LP  0  0  0  0  0  0  0  0  0  0  0  0  # atno 17395 bound_to 11000

$$$$
