AV-unprocessed.smi:2562|AV-procd|sdf|10050|dock6
  -GOLD-   2272014 93D 1   1.00000     0.00000
 Structure written by MMmdl.
 31 32  0  0  0  0  0  0  0  0  2 V2000
  150.5923  130.4808  154.9158 C   0  0  0  0  0  0  0  0  0  0  0  0
  149.4160  131.0454  154.1122 C   0  0  0  0  0  0  0  0  0  0  0  0
  149.3418  132.5775  154.1773 C   0  0  0  0  0  0  0  0  0  0  0  0
  148.1278  133.1232  153.4998 C   0  0  0  0  0  0  0  0  0  0  0  0
  147.1928  133.8706  154.0938 N   0  0  0  0  0  0  0  0  0  0  0  0
  146.2552  134.1378  153.1111 N   0  0  0  0  0  0  0  0  0  0  0  0
  146.7032  133.5211  152.0123 C   0  0  0  0  0  0  0  0  0  0  0  0
  146.0205  133.5349  150.6811 C   0  0  2  0  0  0  0  0  0  0  0  0
  144.6330  134.2027  150.7378 C   0  0  0  0  0  0  0  0  0  0  0  0
  143.9681  134.0963  149.4243 N   0  3  0  0  0  0  0  0  0  0  0  0
  143.8988  132.6948  148.9656 C   0  0  0  0  0  0  0  0  0  0  0  0
  145.3036  132.0665  148.9684 C   0  0  0  0  0  0  0  0  0  0  0  0
  145.8777  132.1784  150.2665 O   0  0  0  0  0  0  0  0  0  0  0  0
  147.8644  132.8793  152.2080 N   0  0  0  0  0  0  0  0  0  0  0  0
  148.4077  132.3416  151.5483 H   0  0  0  0  0  0  0  0  0  0  0  0
  150.6185  129.3927  154.8543 H   0  0  0  0  0  0  0  0  0  0  0  0
  150.5151  130.7527  155.9689 H   0  0  0  0  0  0  0  0  0  0  0  0
  151.5438  130.8583  154.5403 H   0  0  0  0  0  0  0  0  0  0  0  0
  149.5036  130.7260  153.0730 H   0  0  0  0  0  0  0  0  0  0  0  0
  148.4860  130.6178  154.4892 H   0  0  0  0  0  0  0  0  0  0  0  0
  149.3342  132.9067  155.2173 H   0  0  0  0  0  0  0  0  0  0  0  0
  150.2301  133.0152  153.7197 H   0  0  0  0  0  0  0  0  0  0  0  0
  146.6602  134.0612  149.9699 H   0  0  0  0  0  0  0  0  0  0  0  0
  144.0075  133.7222  151.4917 H   0  0  0  0  0  0  0  0  0  0  0  0
  144.7214  135.2536  151.0144 H   0  0  0  0  0  0  0  0  0  0  0  0
  143.0340  134.4755  149.4882 H   0  0  0  0  0  0  0  0  0  0  0  0
  143.2341  132.1341  149.6244 H   0  0  0  0  0  0  0  0  0  0  0  0
  143.4649  132.6614  147.9662 H   0  0  0  0  0  0  0  0  0  0  0  0
  145.2448  131.0123  148.6970 H   0  0  0  0  0  0  0  0  0  0  0  0
  145.9476  132.5495  148.2317 H   0  0  0  0  0  0  0  0  0  0  0  0
  144.4958  134.6316  148.7495 H   0  0  0  0  0  0  0  0  0  0  0  0
  1  2  1  0  0  0  0
  1 16  1  0  0  0  0
  1 17  1  0  0  0  0
  1 18  1  0  0  0  0
  2  3  1  0  0  0  0
  2 19  1  0  0  0  0
  2 20  1  0  0  0  0
  3 21  1  0  0  0  0
  3 22  1  0  0  0  0
  3  4  1  0  0  0  0
  4  5  2  0  0  0  0
  4 14  1  0  0  0  0
  5  6  1  0  0  0  0
  6  7  2  0  0  0  0
  7 14  1  0  0  0  0
  7  8  1  0  0  0  0
  8 13  1  0  0  0  0
  8  9  1  0  0  0  0
  8 23  1  0  0  0  0
  9 10  1  0  0  0  0
  9 24  1  0  0  0  0
  9 25  1  0  0  0  0
 10 11  1  0  0  0  0
 10 26  1  0  0  0  0
 10 31  1  0  0  0  0
 11 12  1  0  0  0  0
 11 27  1  0  0  0  0
 11 28  1  0  0  0  0
 12 13  1  0  0  0  0
 12 29  1  0  0  0  0
 12 30  1  0  0  0  0
 14 15  1  0  0  0  0
M  CHG  1  10   1
M  END
> <s_m_source_file>
AV-unprocessed.smi

> <i_m_source_file_index>
2562

> <i_lp_mmshare_version>
43012

> <i_f3d_flags>
0

> <s_epik_input>
W0NIM11bQ0gyXVtDSDJdYzFuW25IXWMobjEpW0NAQEhdMltDSDJdW05IXVtDSDJdW0NIMl1PMg==

> <s_epik_cmdline>
J2VwaWtfcHl0aG9uJywgJy1waCcsICc3LjAnLCAnLXRuJywgJzgnLCAnLW1hJywgJzIwMCcsICctbWV0YWxfYmluZGluZycsICctaW1hZScsICc8aW5maWxlLm1hZT4nLCAnLW9tYWUnLCAnPG91dGZpbGUubWFlPic=

> <r_lp_tautomer_probability>
0.0517155

> <r_epik_Ionization_Penalty>
0.274244

> <r_epik_Ionization_Penalty_Charging>
0.125708

> <r_epik_Ionization_Penalty_Neutral>
0.148536

> <r_epik_State_Penalty>
1.9659

> <r_epik_Charging_Adjusted_Penalty>
2.09161

> <i_epik_Tot_Q>
1

> <i_epik_Tot_abs_Q>
1

> <r_epik_Metal_State_Penalty>
2.08836

> <b_epik_Metal_Only>
0

> <s_lp_Force_Field>
OPLS_2005

> <r_lp_Energy>
13.0069

> <b_lp_Chiralities_Consistent>
1

> <s_lp_Variant>
AV-unprocessed.smi:2562-9

> <Gold.Version>
5.8.1

> <Gold.Id.Protein>
6NUR|6NUR_protein|mol2

> <Gold.PLP.Fitness>
40.0783

> <Gold.PLP.PLP>
-28.3568

> <Gold.PLP.part.hbond>
-3.0000

> <Gold.PLP.part.metal>
0.0000

> <Gold.PLP.part.buried>
-4.0360

> <Gold.PLP.part.nonpolar>
-22.5812

> <Gold.PLP.part.repulsive>
0.4362

> <Gold.PLP.ligand.clash>
0.0000

> <Gold.PLP.ligand.torsion>
0.1023

> <Gold.PLP.Chemscore.Hbond>
3.9745

> <Gold.PLP.Chemscore.CHOScore>
0.0000

> <Gold.PLP.Chemscore.Metal>
0.0000

> <Gold.Chemscore.Hbonds>
donor molecule, donor type, donor heavy atom, donor atom, acceptor molecule, acceptor atom, score
      L1  H    10    26       P1 10186  2.00
      L1  H    10    31       P1  7921  0.98
      L1  H    14    15       P1 10747  1.00

> <Gold.PLP.Chemscore.Internal.Correction>
0.0025

> <Gold.Rescore>
     Score         DG    S(hbond)    S(metal)    S(lipo)     H(rot)  DE(clash)    DE(int)     intcor
     17.95     -18.09       2.89        0.00      58.22       1.51       0.10       0.04       ----

> <Gold.Chemscore.Fitness>
17.9513

> <Gold.Chemscore.DG>
-18.0906

> <Gold.Chemscore.ZeroCoef>
-5.4800

> <Gold.Chemscore.Hbond>
2.8949

> <Gold.Chemscore.Metal>
0.0000

> <Gold.Chemscore.Lipo>
58.2156

> <Gold.Chemscore.Internal_Hbond>
0.0000

> <Gold.Chemscore.DEClash>
0.1005

> <Gold.Chemscore.DEInternal>
0.0389

> <Gold.Chemscore.Rot>
1.5115

> <Gold.Chemscore.Internal.Correction>
   9.000000E+99

> <Gold.Chemscore.Hbonds>
donor molecule, donor type, donor heavy atom, donor atom, acceptor molecule, acceptor atom, score
      L1  H    10    26       P1 10186  0.92
      L1  H    10    31       P1  7921  0.91
      L1  H    14    15       P1 10747  0.93

> <Gold.Chemscore.Hbond.Weighted>
-9.6688

> <Gold.Chemscore.Metal.Weighted>
-0.0000

> <Gold.Chemscore.Lipo.Weighted>
-6.8112

> <Gold.Chemscore.Internal_Hbond.Weighted>
0.0000

> <Gold.Chemscore.DEClash.Weighted>
0.1005

> <Gold.Chemscore.DEInternal.Weighted>
0.0389

> <Gold.Chemscore.Rot.Weighted>
3.8695

> <Gold.Chemscore.Internal.Correction.Weighted>
   9.000000E+99

> <Gold.Protein.RotatedTorsions>
[ 6907 6896 6895 6894 ] final  175.84 input  -60.11 | X-H torsion
[ 7974 7965 7964 7962 ] final  171.97 input  175.53 | X-H torsion
[ 8008 7997 7996 7995 ] final  104.82 input   59.86 | X-H torsion
[ 10167 10162 10161 10158 ] final   97.49 input  -65.29 | X-H torsion
[ 10718 10713 10712 10709 ] final  -34.38 input   66.30 | X-H torsion
[ 10763 10752 10751 10750 ] final  179.57 input  -60.55 | X-H torsion
[ 11005 11000 10999 10996 ] final   87.40 input  -57.11 | X-H torsion

> <Gold.Protein.ActiveResidues>
 VAL166  LYS551  ARG553  GLY616  TRP617  ASP618  TYR619  PRO620  LYS621  CYS622 
 ASP623  PHE694  ASN695  SER759  ASP760  ASP761  ALA762  ILE779  LEU786  VAL792 
 PHE793  MET794  SER795  GLU796  ALA797  LYS798  CYS799  TRP800  GLU811  SER814 

> <Gold.Protein.RotatedAtoms>
  151.7298  133.3317  159.3336 H   0  0  0  0  0  0  0  0  0  0  0  0  # atno 6907 bound_to 6896
  150.7617  134.6374  159.6228 H   0  0  0  0  0  0  0  0  0  0  0  0  # atno 6908 bound_to 6896
  152.3599  134.6889  160.0262 H   0  0  0  0  0  0  0  0  0  0  0  0  # atno 6909 bound_to 6896
  144.7280  139.9428  143.6429 H   0  0  0  0  0  0  0  0  0  0  0  0  # atno 7974 bound_to 7965
  156.1606  140.3141  155.8801 H   0  0  0  0  0  0  0  0  0  0  0  0  # atno 8008 bound_to 7997
  155.3790  140.0486  157.3061 H   0  0  0  0  0  0  0  0  0  0  0  0  # atno 8009 bound_to 7997
  154.5143  140.2176  155.9107 H   0  0  0  0  0  0  0  0  0  0  0  0  # atno 8010 bound_to 7997
  139.7796  144.6893  151.0041 H   0  0  0  0  0  0  0  0  0  0  0  0  # atno 10167 bound_to 10162
  156.3512  130.4309  149.7702 H   0  0  0  0  0  0  0  0  0  0  0  0  # atno 10718 bound_to 10713
  154.5223  135.2794  155.1251 H   0  0  0  0  0  0  0  0  0  0  0  0  # atno 10763 bound_to 10752
  154.2804  135.6286  153.5348 H   0  0  0  0  0  0  0  0  0  0  0  0  # atno 10764 bound_to 10752
  152.9939  135.5650  154.5716 H   0  0  0  0  0  0  0  0  0  0  0  0  # atno 10765 bound_to 10752
  139.8920  134.8419  156.2854 H   0  0  0  0  0  0  0  0  0  0  0  0  # atno 11005 bound_to 11000
  146.0771  139.3759  143.0487 LP  0  0  0  0  0  0  0  0  0  0  0  0  # atno 17320 bound_to 7965
  145.7890  140.9822  143.1059 LP  0  0  0  0  0  0  0  0  0  0  0  0  # atno 17321 bound_to 7965
  140.7818  143.4497  151.0430 LP  0  0  0  0  0  0  0  0  0  0  0  0  # atno 17342 bound_to 10162
  139.8178  143.7861  152.3175 LP  0  0  0  0  0  0  0  0  0  0  0  0  # atno 17343 bound_to 10162
  156.4902  130.8081  151.3091 LP  0  0  0  0  0  0  0  0  0  0  0  0  # atno 17370 bound_to 10713
  157.7461  130.9978  150.2828 LP  0  0  0  0  0  0  0  0  0  0  0  0  # atno 17371 bound_to 10713
  141.0011  133.7151  156.0962 LP  0  0  0  0  0  0  0  0  0  0  0  0  # atno 17394 bound_to 11000
  140.7496  134.4059  157.5543 LP  0  0  0  0  0  0  0  0  0  0  0  0  # atno 17395 bound_to 11000

$$$$
