AV-unprocessed.smi:2079|AV-procd|sdf|8477|dock5
  -GOLD-   2272011183D 1   1.00000     0.00000
 Structure written by MMmdl.
 42 43  0  0  0  0  0  0  0  0  2 V2000
  153.6366  137.8609  156.9203 C   0  0  0  0  0  0  0  0  0  0  0  0
  152.5812  138.2998  155.9639 C   0  0  0  0  0  0  0  0  0  0  0  0
  151.6368  137.6220  155.2452 C   0  0  0  0  0  0  0  0  0  0  0  0
  150.9719  138.6569  154.5353 C   0  0  0  0  0  0  0  0  0  0  0  0
  149.9025  138.3629  153.6512 N   0  0  0  0  0  0  0  0  0  0  0  0
  148.7478  139.0363  153.5123 C   0  0  0  0  0  0  0  0  0  0  0  0
  148.4291  140.0404  154.1498 O   0  0  0  0  0  0  0  0  0  0  0  0
  147.9621  138.4761  152.5810 N   0  0  0  0  0  0  0  0  0  0  0  0
  146.6495  138.9777  152.1910 C   0  0  0  0  0  0  0  0  0  0  0  0
  145.7766  137.8621  151.5823 C   0  0  0  0  0  0  0  0  0  0  0  0
  146.2287  136.4922  151.9464 N   0  3  2  0  0  0  0  0  0  0  0  0
  145.6522  135.4584  151.0443 C   0  0  0  0  0  0  0  0  0  0  0  0
  146.2946  134.0829  151.2826 C   0  0  0  0  0  0  0  0  0  0  0  0
  146.1657  133.6606  152.7502 C   0  0  0  0  0  0  0  0  0  0  0  0
  146.7503  134.7503  153.6589 C   0  0  0  0  0  0  0  0  0  0  0  0
  146.1157  136.1330  153.3958 C   0  0  2  0  0  0  0  0  0  0  0  0
  144.6767  136.2282  153.9475 C   0  0  0  0  0  0  0  0  0  0  0  0
  151.4621  139.8582  154.8005 N   0  0  0  0  0  0  0  0  0  0  0  0
  152.4970  139.6353  155.7165 O   0  0  0  0  0  0  0  0  0  0  0  0
  153.4779  136.8271  157.2276 H   0  0  0  0  0  0  0  0  0  0  0  0
  153.6327  138.4841  157.8149 H   0  0  0  0  0  0  0  0  0  0  0  0
  154.6237  137.9302  156.4632 H   0  0  0  0  0  0  0  0  0  0  0  0
  151.4559  136.5573  155.2303 H   0  0  0  0  0  0  0  0  0  0  0  0
  150.0341  137.5564  153.0587 H   0  0  0  0  0  0  0  0  0  0  0  0
  148.2986  137.6526  152.1029 H   0  0  0  0  0  0  0  0  0  0  0  0
  146.1521  139.4313  153.0501 H   0  0  0  0  0  0  0  0  0  0  0  0
  146.8198  139.7751  151.4685 H   0  0  0  0  0  0  0  0  0  0  0  0
  144.7296  138.0018  151.8519 H   0  0  0  0  0  0  0  0  0  0  0  0
  145.8182  137.9487  150.4957 H   0  0  0  0  0  0  0  0  0  0  0  0
  144.5716  135.4030  151.1799 H   0  0  0  0  0  0  0  0  0  0  0  0
  145.8181  135.7456  150.0052 H   0  0  0  0  0  0  0  0  0  0  0  0
  145.8291  133.3372  150.6374 H   0  0  0  0  0  0  0  0  0  0  0  0
  147.3484  134.1186  151.0031 H   0  0  0  0  0  0  0  0  0  0  0  0
  145.1182  133.4855  152.9974 H   0  0  0  0  0  0  0  0  0  0  0  0
  146.6849  132.7162  152.9161 H   0  0  0  0  0  0  0  0  0  0  0  0
  146.6284  134.4689  154.7054 H   0  0  0  0  0  0  0  0  0  0  0  0
  147.8261  134.8131  153.4882 H   0  0  0  0  0  0  0  0  0  0  0  0
  146.7188  136.8421  153.9613 H   0  0  0  0  0  0  0  0  0  0  0  0
  144.6487  135.9371  154.9978 H   0  0  0  0  0  0  0  0  0  0  0  0
  143.9830  135.5786  153.4145 H   0  0  0  0  0  0  0  0  0  0  0  0
  144.2889  137.2451  153.8954 H   0  0  0  0  0  0  0  0  0  0  0  0
  147.2194  136.4837  151.7492 H   0  0  0  0  0  0  0  0  0  0  0  0
  1  2  1  0  0  0  0
  1 20  1  0  0  0  0
  1 21  1  0  0  0  0
  1 22  1  0  0  0  0
  2 19  1  0  0  0  0
  2  3  2  0  0  0  0
  3  4  1  0  0  0  0
  3 23  1  0  0  0  0
  4  5  1  0  0  0  0
  4 18  2  0  0  0  0
  5  6  1  0  0  0  0
  5 24  1  0  0  0  0
  6  7  2  0  0  0  0
  6  8  1  0  0  0  0
  8  9  1  0  0  0  0
  8 25  1  0  0  0  0
  9 10  1  0  0  0  0
  9 26  1  0  0  0  0
  9 27  1  0  0  0  0
 10 11  1  0  0  0  0
 10 28  1  0  0  0  0
 10 29  1  0  0  0  0
 11 16  1  0  0  0  0
 11 12  1  0  0  0  0
 11 42  1  0  0  0  0
 12 13  1  0  0  0  0
 12 30  1  0  0  0  0
 12 31  1  0  0  0  0
 13 14  1  0  0  0  0
 13 32  1  0  0  0  0
 13 33  1  0  0  0  0
 14 15  1  0  0  0  0
 14 34  1  0  0  0  0
 14 35  1  0  0  0  0
 15 16  1  0  0  0  0
 15 36  1  0  0  0  0
 15 37  1  0  0  0  0
 16 17  1  0  0  0  0
 16 38  1  0  0  0  0
 17 39  1  0  0  0  0
 17 40  1  0  0  0  0
 17 41  1  0  0  0  0
 18 19  1  0  0  0  0
M  CHG  1  11   1
M  END
> <s_m_source_file>
AV-unprocessed.smi

> <i_m_source_file_index>
2079

> <i_lp_mmshare_version>
43012

> <i_f3d_flags>
0

> <s_epik_input>
W0NIM11jMVtjSF1jKG5vMSlbTkhdQyg9TylbTkhdW0NIMl1bQ0gyXU4yW0NIMl1bQ0gyXVtDSDJdW0NIMl1bQ0BIXTJbQ0gzXQ==

> <s_epik_cmdline>
J2VwaWtfcHl0aG9uJywgJy1waCcsICc3LjAnLCAnLXRuJywgJzgnLCAnLW1hJywgJzIwMCcsICctbWV0YWxfYmluZGluZycsICctaW1hZScsICc8aW5maWxlLm1hZT4nLCAnLW9tYWUnLCAnPG91dGZpbGUubWFlPic=

> <r_epik_Ionization_Penalty>
0.00265971

> <r_epik_Ionization_Penalty_Charging>
0.00262393

> <r_epik_Ionization_Penalty_Neutral>
3.57846e-05

> <r_epik_State_Penalty>
0.00182566

> <r_epik_Charging_Adjusted_Penalty>
0.00444959

> <i_epik_Tot_Q>
1

> <i_epik_Tot_abs_Q>
1

> <r_epik_Metal_State_Penalty>
0.0216344

> <b_epik_Metal_Only>
0

> <s_lp_Force_Field>
OPLS_2005

> <r_lp_Energy>
16.7127

> <b_lp_Chiralities_Consistent>
1

> <s_lp_Variant>
AV-unprocessed.smi:2079-3

> <Gold.Version>
5.8.1

> <Gold.Id.Protein>
6NUR|6NUR_protein|mol2

> <Gold.PLP.Fitness>
43.6060

> <Gold.PLP.PLP>
-27.6895

> <Gold.PLP.part.hbond>
-7.0000

> <Gold.PLP.part.metal>
0.0000

> <Gold.PLP.part.buried>
1.6989

> <Gold.PLP.part.nonpolar>
-24.2792

> <Gold.PLP.part.repulsive>
0.3595

> <Gold.PLP.ligand.clash>
0.0000

> <Gold.PLP.ligand.torsion>
0.8625

> <Gold.PLP.Chemscore.Hbond>
5.8640

> <Gold.PLP.Chemscore.CHOScore>
0.0000

> <Gold.PLP.Chemscore.Metal>
0.0000

> <Gold.Chemscore.Hbonds>
donor molecule, donor type, donor heavy atom, donor atom, acceptor molecule, acceptor atom, score
      L1  H     5    24       P1  7948  0.80
      L1  H     8    25       P1  7948  1.00
      L1  H    11    42       P1  7948  2.00
      P1  H  7989  7998       L1    18  1.00
      P1  H  7997  8010       L1    19  1.00

> <Gold.PLP.Chemscore.Internal.Correction>
0.0496

> <Gold.Rescore>
     Score         DG    S(hbond)    S(metal)    S(lipo)     H(rot)  DE(clash)    DE(int)     intcor
     18.79     -21.77       4.17        0.00      54.52       1.57       1.87       1.11       ----

> <Gold.Chemscore.Fitness>
18.7912

> <Gold.Chemscore.DG>
-21.7740

> <Gold.Chemscore.ZeroCoef>
-5.4800

> <Gold.Chemscore.Hbond>
4.1718

> <Gold.Chemscore.Metal>
0.0000

> <Gold.Chemscore.Lipo>
54.5190

> <Gold.Chemscore.Internal_Hbond>
0.0000

> <Gold.Chemscore.DEClash>
1.8707

> <Gold.Chemscore.DEInternal>
1.1121

> <Gold.Chemscore.Rot>
1.5697

> <Gold.Chemscore.Internal.Correction>
   9.000000E+99

> <Gold.Chemscore.Hbonds>
donor molecule, donor type, donor heavy atom, donor atom, acceptor molecule, acceptor atom, score
      L1  H     5    24       P1  7948  0.17
      L1  H     8    25       P1  7948  0.95
      L1  H    11    42       P1  7948  1.00
      P1  H  7989  7998       L1    18  0.91
      P1  H  7997  8010       L1    19  0.25

> <Gold.Chemscore.Hbond.Weighted>
-13.9337

> <Gold.Chemscore.Metal.Weighted>
-0.0000

> <Gold.Chemscore.Lipo.Weighted>
-6.3787

> <Gold.Chemscore.Internal_Hbond.Weighted>
0.0000

> <Gold.Chemscore.DEClash.Weighted>
1.8707

> <Gold.Chemscore.DEInternal.Weighted>
1.1121

> <Gold.Chemscore.Rot.Weighted>
4.0185

> <Gold.Chemscore.Internal.Correction.Weighted>
   9.000000E+99

> <Gold.Protein.RotatedTorsions>
[ 6907 6896 6895 6894 ] final -110.11 input  -60.11 | X-H torsion
[ 7974 7965 7964 7962 ] final  156.22 input  175.53 | X-H torsion
[ 8008 7997 7996 7995 ] final   94.97 input   59.86 | X-H torsion
[ 10167 10162 10161 10158 ] final   81.17 input  -65.29 | X-H torsion
[ 10718 10713 10712 10709 ] final  154.52 input   66.30 | X-H torsion
[ 10763 10752 10751 10750 ] final  116.48 input  -60.55 | X-H torsion
[ 11005 11000 10999 10996 ] final   97.74 input  -57.11 | X-H torsion

> <Gold.Protein.ActiveResidues>
 VAL166  LYS551  ARG553  GLY616  TRP617  ASP618  TYR619  PRO620  LYS621  CYS622 
 ASP623  PHE694  ASN695  SER759  ASP760  ASP761  ALA762  ILE779  LEU786  VAL792 
 PHE793  MET794  SER795  GLU796  ALA797  LYS798  CYS799  TRP800  GLU811  SER814 

> <Gold.Protein.RotatedAtoms>
  150.7604  133.9429  159.3461 H   0  0  0  0  0  0  0  0  0  0  0  0  # atno 6907 bound_to 6896
  151.7339  135.0867  160.0314 H   0  0  0  0  0  0  0  0  0  0  0  0  # atno 6908 bound_to 6896
  152.3572  133.6214  159.6024 H   0  0  0  0  0  0  0  0  0  0  0  0  # atno 6909 bound_to 6896
  144.7977  139.7173  143.6195 H   0  0  0  0  0  0  0  0  0  0  0  0  # atno 7974 bound_to 7965
  156.0638  140.3293  155.7493 H   0  0  0  0  0  0  0  0  0  0  0  0  # atno 8008 bound_to 7997
  155.5414  140.0602  157.2886 H   0  0  0  0  0  0  0  0  0  0  0  0  # atno 8009 bound_to 7997
  154.4494  140.1910  156.0583 H   0  0  0  0  0  0  0  0  0  0  0  0  # atno 8010 bound_to 7997
  139.9421  144.6083  150.8242 H   0  0  0  0  0  0  0  0  0  0  0  0  # atno 10167 bound_to 10162
  157.2305  131.0738  151.1856 H   0  0  0  0  0  0  0  0  0  0  0  0  # atno 10718 bound_to 10713
  153.5378  135.3565  155.2705 H   0  0  0  0  0  0  0  0  0  0  0  0  # atno 10763 bound_to 10752
  154.8720  135.4084  154.3078 H   0  0  0  0  0  0  0  0  0  0  0  0  # atno 10764 bound_to 10752
  153.3779  135.7067  153.6656 H   0  0  0  0  0  0  0  0  0  0  0  0  # atno 10765 bound_to 10752
  139.8775  134.9015  156.4353 H   0  0  0  0  0  0  0  0  0  0  0  0  # atno 11005 bound_to 11000
  146.2249  139.5705  142.9593 LP  0  0  0  0  0  0  0  0  0  0  0  0  # atno 17320 bound_to 7965
  145.5632  141.0402  143.2214 LP  0  0  0  0  0  0  0  0  0  0  0  0  # atno 17321 bound_to 7965
  140.7608  143.3159  151.2734 LP  0  0  0  0  0  0  0  0  0  0  0  0  # atno 17342 bound_to 10162
  139.6696  144.0043  152.2745 LP  0  0  0  0  0  0  0  0  0  0  0  0  # atno 17343 bound_to 10162
  157.3483  130.7069  149.6424 LP  0  0  0  0  0  0  0  0  0  0  0  0  # atno 17370 bound_to 10713
  155.9676  130.4260  150.4679 LP  0  0  0  0  0  0  0  0  0  0  0  0  # atno 17371 bound_to 10713
  140.9038  133.7760  155.9711 LP  0  0  0  0  0  0  0  0  0  0  0  0  # atno 17394 bound_to 11000
  140.8622  134.2827  157.5229 LP  0  0  0  0  0  0  0  0  0  0  0  0  # atno 17395 bound_to 11000

$$$$
