AV-unprocessed.smi:107|AV-procd|sdf|1019|dock2
  -GOLD-   2262018 23D 1   1.00000     0.00000
 Structure written by MMmdl.
 31 32  0  0  0  0  0  0  0  0  1 V2000
  152.9156  142.6422  160.3213 C   0  0  0  0  0  0  0  0  0  0  0  0
  152.1854  142.3520  159.0205 C   0  0  0  0  0  0  0  0  0  0  0  0
  152.0974  141.1020  158.4979 C   0  0  0  0  0  0  0  0  0  0  0  0
  151.4388  140.8001  157.3124 N   0  0  0  0  0  0  0  0  0  0  0  0
  151.4649  139.3999  156.7329 C   0  0  2  0  0  0  0  0  0  0  0  0
  152.0836  139.3089  155.3250 C   0  0  0  0  0  0  0  0  0  0  0  0
  150.9434  138.7629  154.4763 C   0  0  2  0  0  0  0  0  0  0  0  0
  150.3168  139.7966  153.7410 O   0  0  0  0  0  0  0  0  0  0  0  0
  150.0048  138.1282  155.5153 C   0  0  2  0  0  0  0  0  0  0  0  0
  148.5232  137.9856  155.1253 C   0  0  0  0  0  0  0  0  0  0  0  0
  148.3074  136.7622  154.4547 O   0  0  0  0  0  0  0  0  0  0  0  0
  150.1489  138.9507  156.6638 O   0  0  0  0  0  0  0  0  0  0  0  0
  150.9170  141.8594  156.5367 C   0  0  0  0  0  0  0  0  0  0  0  0
  150.4055  141.6967  155.4296 O   0  0  0  0  0  0  0  0  0  0  0  0
  150.9922  143.1413  157.0790 N   0  0  0  0  0  0  0  0  0  0  0  0
  151.5824  143.4751  158.2995 C   0  0  0  0  0  0  0  0  0  0  0  0
  151.5745  144.6450  158.6790 O   0  0  0  0  0  0  0  0  0  0  0  0
  150.5974  143.8956  156.5365 H   0  0  0  0  0  0  0  0  0  0  0  0
  153.3253  141.7352  160.7667 H   0  0  0  0  0  0  0  0  0  0  0  0
  152.2377  143.0940  161.0464 H   0  0  0  0  0  0  0  0  0  0  0  0
  153.7423  143.3320  160.1483 H   0  0  0  0  0  0  0  0  0  0  0  0
  152.5852  140.3050  159.0360 H   0  0  0  0  0  0  0  0  0  0  0  0
  152.0292  138.7719  157.4237 H   0  0  0  0  0  0  0  0  0  0  0  0
  152.5011  140.2514  154.9707 H   0  0  0  0  0  0  0  0  0  0  0  0
  152.8997  138.5860  155.3634 H   0  0  0  0  0  0  0  0  0  0  0  0
  151.3002  138.0189  153.7635 H   0  0  0  0  0  0  0  0  0  0  0  0
  150.1794  139.4924  152.8567 H   0  0  0  0  0  0  0  0  0  0  0  0
  150.3988  137.1460  155.7838 H   0  0  0  0  0  0  0  0  0  0  0  0
  147.9021  137.9992  156.0212 H   0  0  0  0  0  0  0  0  0  0  0  0
  148.1916  138.8136  154.4984 H   0  0  0  0  0  0  0  0  0  0  0  0
  148.5028  136.8841  153.5379 H   0  0  0  0  0  0  0  0  0  0  0  0
  1  2  1  0  0  0  0
  1 19  1  0  0  0  0
  1 20  1  0  0  0  0
  1 21  1  0  0  0  0
  2 16  1  0  0  0  0
  2  3  2  0  0  0  0
  3  4  1  0  0  0  0
  3 22  1  0  0  0  0
  4  5  1  0  0  0  0
  4 13  1  0  0  0  0
  5 12  1  0  0  0  0
  5  6  1  0  0  0  0
  5 23  1  0  0  0  0
  6  7  1  0  0  0  0
  6 24  1  0  0  0  0
  6 25  1  0  0  0  0
  7  8  1  0  0  0  0
  7  9  1  0  0  0  0
  7 26  1  0  0  0  0
  8 27  1  0  0  0  0
  9 10  1  0  0  0  0
  9 12  1  0  0  0  0
  9 28  1  0  0  0  0
 10 11  1  0  0  0  0
 10 29  1  0  0  0  0
 10 30  1  0  0  0  0
 11 31  1  0  0  0  0
 13 14  2  0  0  0  0
 13 15  1  0  0  0  0
 15 18  1  0  0  0  0
 15 16  1  0  0  0  0
 16 17  2  0  0  0  0
M  END
> <s_m_source_file>
AV-unprocessed.smi

> <i_m_source_file_index>
107

> <i_lp_mmshare_version>
43012

> <i_f3d_flags>
0

> <s_epik_input>
Tz1jMVtuSF1jKD1PKW4oW2NIXWMxW0NIM10pW0NAQEhdMltDSDJdW0NAQEhdKFtPSF0pW0NASF0oTzIpW0NIMl1bT0hd

> <s_epik_cmdline>
J2VwaWtfcHl0aG9uJywgJy1waCcsICc3LjAnLCAnLXRuJywgJzgnLCAnLW1hJywgJzIwMCcsICctbWV0YWxfYmluZGluZycsICctaW1hZScsICc8aW5maWxlLm1hZT4nLCAnLW9tYWUnLCAnPG91dGZpbGUubWFlPic=

> <r_lp_tautomer_probability>
0.999537

> <r_epik_Ionization_Penalty>
0.00121888

> <r_epik_Ionization_Penalty_Charging>
0.00121876

> <r_epik_Ionization_Penalty_Neutral>
1.19946e-07

> <r_epik_State_Penalty>
0.000805124

> <r_epik_Charging_Adjusted_Penalty>
0.00202389

> <i_epik_Tot_Q>
0

> <i_epik_Tot_abs_Q>
0

> <r_epik_Metal_State_Penalty>
0.662472

> <b_epik_Metal_Only>
0

> <s_epik_Chemistry_Notes>
This compound contains an acetal/aminal-like group ( X-CH(R)-Y where X, Y are N, S, or O) that may be acid/base labile, releasing an aldehyde.

> <s_lp_Force_Field>
OPLS_2005

> <r_lp_Energy>
26.1821

> <b_lp_Chiralities_Consistent>
1

> <s_lp_Variant>
AV-unprocessed.smi:107-7

> <Gold.Version>
5.8.1

> <Gold.Id.Protein>
6NUR|6NUR_protein|mol2

> <Gold.PLP.Fitness>
41.4293

> <Gold.PLP.PLP>
-30.9359

> <Gold.PLP.part.hbond>
-4.6608

> <Gold.PLP.part.metal>
0.0000

> <Gold.PLP.part.buried>
-4.1906

> <Gold.PLP.part.nonpolar>
-22.6170

> <Gold.PLP.part.repulsive>
0.2244

> <Gold.PLP.ligand.clash>
0.0000

> <Gold.PLP.ligand.torsion>
0.4231

> <Gold.PLP.Chemscore.Hbond>
3.7464

> <Gold.PLP.Chemscore.CHOScore>
0.0000

> <Gold.PLP.Chemscore.Metal>
0.0000

> <Gold.Chemscore.Hbonds>
donor molecule, donor type, donor heavy atom, donor atom, acceptor molecule, acceptor atom, score
      L1  H     8    27       P1  7957  0.88
      L1  H    11    31       P1  7948  1.00
      L1  H    15    18       P1  8028  0.86
      P1  H  7989  7998       L1     8  0.87

> <Gold.PLP.Chemscore.Internal.Correction>
0.1004

> <Gold.Rescore>
     Score         DG    S(hbond)    S(metal)    S(lipo)     H(rot)  DE(clash)    DE(int)     intcor
     10.51     -14.17       2.91        0.00      50.89       2.73       0.01       3.65       ----

> <Gold.Chemscore.Fitness>
10.5123

> <Gold.Chemscore.DG>
-14.1699

> <Gold.Chemscore.ZeroCoef>
-5.4800

> <Gold.Chemscore.Hbond>
2.9081

> <Gold.Chemscore.Metal>
0.0000

> <Gold.Chemscore.Lipo>
50.8854

> <Gold.Chemscore.Internal_Hbond>
0.0000

> <Gold.Chemscore.DEClash>
0.0106

> <Gold.Chemscore.DEInternal>
3.6470

> <Gold.Chemscore.Rot>
2.7253

> <Gold.Chemscore.Internal.Correction>
   9.000000E+99

> <Gold.Chemscore.Hbonds>
donor molecule, donor type, donor heavy atom, donor atom, acceptor molecule, acceptor atom, score
      L1  H     8    27       P1  7957  0.82
      L1  H    11    31       P1  7948  0.96
      L1  H    15    18       P1  8028  0.79
      P1  H  7989  7998       L1     8  0.07

> <Gold.Chemscore.Hbond.Weighted>
-9.7132

> <Gold.Chemscore.Metal.Weighted>
-0.0000

> <Gold.Chemscore.Lipo.Weighted>
-5.9536

> <Gold.Chemscore.Internal_Hbond.Weighted>
0.0000

> <Gold.Chemscore.DEClash.Weighted>
0.0106

> <Gold.Chemscore.DEInternal.Weighted>
3.6470

> <Gold.Chemscore.Rot.Weighted>
6.9769

> <Gold.Chemscore.Internal.Correction.Weighted>
   9.000000E+99

> <Gold.Protein.RotatedTorsions>
[ 6907 6896 6895 6894 ] final -159.38 input  -60.11 | X-H torsion
[ 7974 7965 7964 7962 ] final   96.61 input  175.53 | X-H torsion
[ 8008 7997 7996 7995 ] final  -53.24 input   59.86 | X-H torsion
[ 10167 10162 10161 10158 ] final -162.70 input  -65.29 | X-H torsion
[ 10718 10713 10712 10709 ] final  101.32 input   66.30 | X-H torsion
[ 10763 10752 10751 10750 ] final  109.31 input  -60.55 | X-H torsion
[ 11005 11000 10999 10996 ] final   95.74 input  -57.11 | X-H torsion

> <Gold.Protein.ActiveResidues>
 VAL166  LYS551  ARG553  GLY616  TRP617  ASP618  TYR619  PRO620  LYS621  CYS622 
 ASP623  PHE694  ASN695  SER759  ASP760  ASP761  ALA762  ILE779  LEU786  VAL792 
 PHE793  MET794  SER795  GLU796  ALA797  LYS798  CYS799  TRP800  GLU811  SER814 

> <Gold.Protein.RotatedAtoms>
  151.3327  133.3994  159.2663 H   0  0  0  0  0  0  0  0  0  0  0  0  # atno 6907 bound_to 6896
  150.9942  134.9271  159.7927 H   0  0  0  0  0  0  0  0  0  0  0  0  # atno 6908 bound_to 6896
  152.5256  134.3292  159.9229 H   0  0  0  0  0  0  0  0  0  0  0  0  # atno 6909 bound_to 6896
  145.4366  139.2305  143.3115 H   0  0  0  0  0  0  0  0  0  0  0  0  # atno 7974 bound_to 7965
  154.4128  140.1204  156.5122 H   0  0  0  0  0  0  0  0  0  0  0  0  # atno 8008 bound_to 7997
  155.6787  140.3496  155.4827 H   0  0  0  0  0  0  0  0  0  0  0  0  # atno 8009 bound_to 7997
  155.9570  140.1115  157.0918 H   0  0  0  0  0  0  0  0  0  0  0  0  # atno 8010 bound_to 7997
  139.6374  144.0325  152.2065 H   0  0  0  0  0  0  0  0  0  0  0  0  # atno 10167 bound_to 10162
  157.6832  131.0723  150.5234 H   0  0  0  0  0  0  0  0  0  0  0  0  # atno 10718 bound_to 10713
  153.4330  135.3784  155.2182 H   0  0  0  0  0  0  0  0  0  0  0  0  # atno 10763 bound_to 10752
  154.8751  135.3844  154.4245 H   0  0  0  0  0  0  0  0  0  0  0  0  # atno 10764 bound_to 10752
  153.4780  135.7088  153.6017 H   0  0  0  0  0  0  0  0  0  0  0  0  # atno 10765 bound_to 10752
  139.8786  134.8915  156.4056 H   0  0  0  0  0  0  0  0  0  0  0  0  # atno 11005 bound_to 11000
  146.2579  140.5109  142.8866 LP  0  0  0  0  0  0  0  0  0  0  0  0  # atno 17320 bound_to 7965
  144.8148  140.6449  143.6391 LP  0  0  0  0  0  0  0  0  0  0  0  0  # atno 17321 bound_to 7965
  140.0005  144.6296  150.7734 LP  0  0  0  0  0  0  0  0  0  0  0  0  # atno 17342 bound_to 10162
  140.7472  143.2903  151.3349 LP  0  0  0  0  0  0  0  0  0  0  0  0  # atno 17343 bound_to 10162
  156.5546  130.4240  149.6091 LP  0  0  0  0  0  0  0  0  0  0  0  0  # atno 17370 bound_to 10713
  156.2873  130.7104  151.1944 LP  0  0  0  0  0  0  0  0  0  0  0  0  # atno 17371 bound_to 10713
  140.9236  133.7627  155.9937 LP  0  0  0  0  0  0  0  0  0  0  0  0  # atno 17394 bound_to 11000
  140.8411  134.3066  157.5313 LP  0  0  0  0  0  0  0  0  0  0  0  0  # atno 17395 bound_to 11000

$$$$
