AV-unprocessed.smi:2451|AV-procd|sdf|9670|dock5
  -GOLD-   2272013313D 1   1.00000     0.00000
 Structure written by MMmdl.
 38 39  0  0  0  0  0  0  0  0  1 V2000
  153.2217  141.5626  160.7368 C   0  0  0  0  0  0  0  0  0  0  0  0
  152.4499  142.5979  159.9021 C   0  0  1  0  0  0  0  0  0  0  0  0
  153.3995  143.6000  159.2114 C   0  0  0  0  0  0  0  0  0  0  0  0
  152.6232  144.6940  158.4586 C   0  0  0  0  0  0  0  0  0  0  0  0
  151.6126  144.0959  157.4676 C   0  0  0  0  0  0  0  0  0  0  0  0
  150.6785  143.0990  158.1762 C   0  0  1  0  0  0  0  0  0  0  0  0
  149.6933  142.5597  157.2347 N   0  0  0  0  0  0  0  0  0  0  0  0
  148.4891  141.4774  157.8261 S   0  0  0  0  0  0  0  0  0  0  0  0
  149.1752  140.2641  158.2970 O   0  0  0  0  0  0  0  0  0  0  0  0
  147.6281  142.2369  158.7456 O   0  0  0  0  0  0  0  0  0  0  0  0
  147.5387  141.0641  156.3036 C   0  0  0  0  0  0  0  0  0  0  0  0
  148.4465  140.4003  155.3078 C   0  0  0  0  0  0  0  0  0  0  0  0
  148.2099  139.2270  154.5391 C   0  0  0  0  0  0  0  0  0  0  0  0
  149.3570  139.0852  153.8126 C   0  0  0  0  0  0  0  0  0  0  0  0
  150.2318  140.0797  154.1072 O   0  0  0  0  0  0  0  0  0  0  0  0
  149.6421  140.9135  155.0640 N   0  0  0  0  0  0  0  0  0  0  0  0
  151.4552  141.9654  158.8918 C   0  0  1  0  0  0  0  0  0  0  0  0
  152.1281  140.9770  157.9104 C   0  0  0  0  0  0  0  0  0  0  0  0
  153.9310  140.9986  160.1311 H   0  0  0  0  0  0  0  0  0  0  0  0
  152.5430  140.8532  161.2107 H   0  0  0  0  0  0  0  0  0  0  0  0
  153.7898  142.0511  161.5291 H   0  0  0  0  0  0  0  0  0  0  0  0
  151.8519  143.1687  160.6145 H   0  0  0  0  0  0  0  0  0  0  0  0
  154.0477  144.0671  159.9535 H   0  0  0  0  0  0  0  0  0  0  0  0
  154.0611  143.0773  158.5199 H   0  0  0  0  0  0  0  0  0  0  0  0
  152.0947  145.3212  159.1776 H   0  0  0  0  0  0  0  0  0  0  0  0
  153.3185  145.3482  157.9321 H   0  0  0  0  0  0  0  0  0  0  0  0
  151.0282  144.8982  157.0156 H   0  0  0  0  0  0  0  0  0  0  0  0
  152.1426  143.6057  156.6506 H   0  0  0  0  0  0  0  0  0  0  0  0
  150.1347  143.6573  158.9402 H   0  0  0  0  0  0  0  0  0  0  0  0
  149.2814  143.2994  156.6663 H   0  0  0  0  0  0  0  0  0  0  0  0
  146.7101  140.4129  156.5830 H   0  0  0  0  0  0  0  0  0  0  0  0
  147.1174  141.9844  155.8995 H   0  0  0  0  0  0  0  0  0  0  0  0
  147.3351  138.5942  154.5203 H   0  0  0  0  0  0  0  0  0  0  0  0
  149.6872  138.3641  153.0797 H   0  0  0  0  0  0  0  0  0  0  0  0
  150.7285  141.3890  159.4664 H   0  0  0  0  0  0  0  0  0  0  0  0
  152.8918  141.4565  157.2993 H   0  0  0  0  0  0  0  0  0  0  0  0
  151.4008  140.5302  157.2326 H   0  0  0  0  0  0  0  0  0  0  0  0
  152.6006  140.1498  158.4390 H   0  0  0  0  0  0  0  0  0  0  0  0
  1  2  1  0  0  0  0
  1 19  1  0  0  0  0
  1 20  1  0  0  0  0
  1 21  1  0  0  0  0
  2 17  1  0  0  0  0
  2  3  1  0  0  0  0
  2 22  1  0  0  0  0
  3  4  1  0  0  0  0
  3 23  1  0  0  0  0
  3 24  1  0  0  0  0
  4  5  1  0  0  0  0
  4 25  1  0  0  0  0
  4 26  1  0  0  0  0
  5  6  1  0  0  0  0
  5 27  1  0  0  0  0
  5 28  1  0  0  0  0
  6  7  1  0  0  0  0
  6 17  1  0  0  0  0
  6 29  1  0  0  0  0
  7  8  1  0  0  0  0
  7 30  1  0  0  0  0
  8  9  2  0  0  0  0
  8 10  2  0  0  0  0
  8 11  1  0  0  0  0
 11 12  1  0  0  0  0
 11 31  1  0  0  0  0
 11 32  1  0  0  0  0
 12 16  2  0  0  0  0
 12 13  1  0  0  0  0
 13 14  2  0  0  0  0
 13 33  1  0  0  0  0
 14 15  1  0  0  0  0
 14 34  1  0  0  0  0
 15 16  1  0  0  0  0
 17 18  1  0  0  0  0
 17 35  1  0  0  0  0
 18 36  1  0  0  0  0
 18 37  1  0  0  0  0
 18 38  1  0  0  0  0
M  END
> <s_m_source_file>
AV-unprocessed.smi

> <i_m_source_file_index>
2451

> <i_lp_mmshare_version>
43012

> <i_f3d_flags>
0

> <s_epik_input>
W0NIM11bQ0BASF0xW0NIMl1bQ0gyXVtDSDJdW0NASF0oW0NASF0xW0NIM10pW05IXVMoPU8pKD1PKVtDSDJdYzJbY0hdW2NIXW9uMg==

> <s_epik_cmdline>
J2VwaWtfcHl0aG9uJywgJy1waCcsICc3LjAnLCAnLXRuJywgJzgnLCAnLW1hJywgJzIwMCcsICctbWV0YWxfYmluZGluZycsICctaW1hZScsICc8aW5maWxlLm1hZT4nLCAnLW9tYWUnLCAnPG91dGZpbGUubWFlPic=

> <r_lp_tautomer_probability>
1

> <r_epik_Ionization_Penalty>
8.73668e-05

> <r_epik_Ionization_Penalty_Charging>
0

> <r_epik_Ionization_Penalty_Neutral>
8.73668e-05

> <r_epik_State_Penalty>
-0

> <r_epik_Charging_Adjusted_Penalty>
0

> <i_epik_Tot_Q>
0

> <i_epik_Tot_abs_Q>
0

> <r_epik_Metal_State_Penalty>
0.0716439

> <b_epik_Metal_Only>
0

> <s_lp_Force_Field>
OPLS_2005

> <r_lp_Energy>
8.89421

> <b_lp_Chiralities_Consistent>
1

> <s_lp_Variant>
AV-unprocessed.smi:2451-2

> <Gold.Version>
5.8.1

> <Gold.Id.Protein>
6NUR|6NUR_protein|mol2

> <Gold.PLP.Fitness>
42.8818

> <Gold.PLP.PLP>
-33.3197

> <Gold.PLP.part.hbond>
-3.2509

> <Gold.PLP.part.metal>
0.0000

> <Gold.PLP.part.buried>
-2.8890

> <Gold.PLP.part.nonpolar>
-27.4006

> <Gold.PLP.part.repulsive>
1.1209

> <Gold.PLP.ligand.clash>
0.0000

> <Gold.PLP.ligand.torsion>
0.2347

> <Gold.PLP.Chemscore.Hbond>
2.0000

> <Gold.PLP.Chemscore.CHOScore>
1.2960

> <Gold.PLP.Chemscore.Metal>
0.0000

> <Gold.Chemscore.Hbonds>
donor molecule, donor type, donor heavy atom, donor atom, acceptor molecule, acceptor atom, score
      L1  H     7    30       P1  8028  1.00
      P1  H  7989  7998       L1    15  1.00
      L1  C    14    34       P1  7948  1.00
      L1  C    14    34       P1  7957  0.29

> <Gold.PLP.Chemscore.Internal.Correction>
0.1434

> <Gold.Rescore>
     Score         DG    S(hbond)    S(metal)    S(lipo)     H(rot)  DE(clash)    DE(int)     intcor
     16.10     -19.65       1.82        0.00     105.55       1.66       0.43       3.12       ----

> <Gold.Chemscore.Fitness>
16.1001

> <Gold.Chemscore.DG>
-19.6526

> <Gold.Chemscore.ZeroCoef>
-5.4800

> <Gold.Chemscore.Hbond>
1.8172

> <Gold.Chemscore.Metal>
0.0000

> <Gold.Chemscore.Lipo>
105.5522

> <Gold.Chemscore.Internal_Hbond>
0.0000

> <Gold.Chemscore.DEClash>
0.4298

> <Gold.Chemscore.DEInternal>
3.1227

> <Gold.Chemscore.Rot>
1.6588

> <Gold.Chemscore.Internal.Correction>
   9.000000E+99

> <Gold.Chemscore.Hbonds>
donor molecule, donor type, donor heavy atom, donor atom, acceptor molecule, acceptor atom, score
      L1  H     7    30       P1  8028  0.99
      P1  H  6934  6946       L1    10  0.01
      P1  H  7989  7998       L1    15  0.62

> <Gold.Chemscore.Hbond.Weighted>
-6.0695

> <Gold.Chemscore.Metal.Weighted>
-0.0000

> <Gold.Chemscore.Lipo.Weighted>
-12.3496

> <Gold.Chemscore.Internal_Hbond.Weighted>
0.0000

> <Gold.Chemscore.DEClash.Weighted>
0.4298

> <Gold.Chemscore.DEInternal.Weighted>
3.1227

> <Gold.Chemscore.Rot.Weighted>
4.2466

> <Gold.Chemscore.Internal.Correction.Weighted>
   9.000000E+99

> <Gold.Protein.RotatedTorsions>
[ 6907 6896 6895 6894 ] final  -57.70 input  -60.11 | X-H torsion
[ 7974 7965 7964 7962 ] final  114.86 input  175.53 | X-H torsion
[ 8008 7997 7996 7995 ] final  152.99 input   59.86 | X-H torsion
[ 10167 10162 10161 10158 ] final  104.97 input  -65.29 | X-H torsion
[ 10718 10713 10712 10709 ] final -176.82 input   66.30 | X-H torsion
[ 10763 10752 10751 10750 ] final   94.62 input  -60.55 | X-H torsion
[ 11005 11000 10999 10996 ] final  -67.34 input  -57.11 | X-H torsion

> <Gold.Protein.ActiveResidues>
 VAL166  LYS551  ARG553  GLY616  TRP617  ASP618  TYR619  PRO620  LYS621  CYS622 
 ASP623  PHE694  ASN695  SER759  ASP760  ASP761  ALA762  ILE779  LEU786  VAL792 
 PHE793  MET794  SER795  GLU796  ALA797  LYS798  CYS799  TRP800  GLU811  SER814 

> <Gold.Protein.RotatedAtoms>
  150.8065  134.7193  159.6648 H   0  0  0  0  0  0  0  0  0  0  0  0  # atno 6907 bound_to 6896
  152.4185  134.5995  160.0006 H   0  0  0  0  0  0  0  0  0  0  0  0  # atno 6908 bound_to 6896
  151.6218  133.3301  159.3125 H   0  0  0  0  0  0  0  0  0  0  0  0  # atno 6909 bound_to 6896
  145.1992  139.2961  143.4327 H   0  0  0  0  0  0  0  0  0  0  0  0  # atno 7974 bound_to 7965
  156.2603  140.2005  156.6421 H   0  0  0  0  0  0  0  0  0  0  0  0  # atno 8008 bound_to 7997
  154.6601  140.0562  157.0078 H   0  0  0  0  0  0  0  0  0  0  0  0  # atno 8009 bound_to 7997
  155.1288  140.3232  155.4482 H   0  0  0  0  0  0  0  0  0  0  0  0  # atno 8010 bound_to 7997
  139.7132  144.7073  151.0992 H   0  0  0  0  0  0  0  0  0  0  0  0  # atno 10167 bound_to 10162
  156.8203  130.9617  151.3112 H   0  0  0  0  0  0  0  0  0  0  0  0  # atno 10718 bound_to 10713
  153.2437  135.4283  155.0725 H   0  0  0  0  0  0  0  0  0  0  0  0  # atno 10763 bound_to 10752
  154.8352  135.3409  154.6612 H   0  0  0  0  0  0  0  0  0  0  0  0  # atno 10764 bound_to 10752
  153.7035  135.7027  153.5113 H   0  0  0  0  0  0  0  0  0  0  0  0  # atno 10765 bound_to 10752
  141.1505  133.6717  156.6278 H   0  0  0  0  0  0  0  0  0  0  0  0  # atno 11005 bound_to 11000
  146.3421  140.2230  142.8592 LP  0  0  0  0  0  0  0  0  0  0  0  0  # atno 17320 bound_to 7965
  144.9965  140.8594  143.5308 LP  0  0  0  0  0  0  0  0  0  0  0  0  # atno 17321 bound_to 7965
  140.7738  143.5264  150.9475 LP  0  0  0  0  0  0  0  0  0  0  0  0  # atno 17342 bound_to 10162
  139.8950  143.6906  152.3140 LP  0  0  0  0  0  0  0  0  0  0  0  0  # atno 17343 bound_to 10162
  157.6460  130.8845  149.9540 LP  0  0  0  0  0  0  0  0  0  0  0  0  # atno 17370 bound_to 10713
  156.0993  130.3657  150.0248 LP  0  0  0  0  0  0  0  0  0  0  0  0  # atno 17371 bound_to 10713
  140.3490  134.7785  157.4453 LP  0  0  0  0  0  0  0  0  0  0  0  0  # atno 17394 bound_to 11000
  140.0876  134.5645  155.8476 LP  0  0  0  0  0  0  0  0  0  0  0  0  # atno 17395 bound_to 11000

$$$$
