AV-unprocessed.smi:1241|AV-procd|sdf|5215|dock7
  -GOLD-   22720 4313D 1   1.00000     0.00000
 Structure written by MMmdl.
 38 39  0  0  0  0  0  0  0  0  1 V2000
  148.7343  139.3194  157.0823 C   0  0  0  0  0  0  0  0  0  0  0  0
  147.9274  140.9716  157.0266 S   0  0  0  0  0  0  0  0  0  0  0  0
  146.8760  141.0037  158.0548 O   0  0  0  0  0  0  0  0  0  0  0  0
  148.9811  141.9981  157.0291 O   0  0  0  0  0  0  0  0  0  0  0  0
  147.1504  141.0099  155.4699 N   0  0  0  0  0  0  0  0  0  0  0  0
  147.9615  141.1430  154.2425 C   0  0  0  0  0  0  0  0  0  0  0  0
  148.1344  139.7942  153.5216 C   0  0  0  0  0  0  0  0  0  0  0  0
  146.7773  139.1235  153.2512 C   0  0  0  0  0  0  0  0  0  0  0  0
  146.9589  137.8125  152.6336 N   0  0  0  0  0  0  0  0  0  0  0  0
  145.9729  136.9443  152.3631 C   0  0  0  0  0  0  0  0  0  0  0  0
  144.7869  137.1681  152.6074 O   0  0  0  0  0  0  0  0  0  0  0  0
  146.4522  135.8237  151.7942 N   0  0  0  0  0  0  0  0  0  0  0  0
  145.7330  134.6638  151.3992 C   0  0  0  0  0  0  0  0  0  0  0  0
  146.5302  133.5927  150.9357 C   0  0  0  0  0  0  0  0  0  0  0  0
  145.9119  132.3951  150.5266 C   0  0  0  0  0  0  0  0  0  0  0  0
  144.5105  132.2989  150.5928 C   0  0  0  0  0  0  0  0  0  0  0  0
  143.7910  133.4116  151.0663 C   0  0  0  0  0  0  0  0  0  0  0  0
  144.3816  134.5605  151.4579 N   0  0  0  0  0  0  0  0  0  0  0  0
  146.0118  138.9778  154.5742 C   0  0  0  0  0  0  0  0  0  0  0  0
  145.8503  140.3360  155.2793 C   0  0  0  0  0  0  0  0  0  0  0  0
  149.2666  139.2161  158.0275 H   0  0  0  0  0  0  0  0  0  0  0  0
  149.4462  139.2259  156.2643 H   0  0  0  0  0  0  0  0  0  0  0  0
  147.9813  138.5364  157.0137 H   0  0  0  0  0  0  0  0  0  0  0  0
  147.4633  141.8488  153.5769 H   0  0  0  0  0  0  0  0  0  0  0  0
  148.9345  141.5754  154.4740 H   0  0  0  0  0  0  0  0  0  0  0  0
  148.6664  139.9540  152.5831 H   0  0  0  0  0  0  0  0  0  0  0  0
  148.7634  139.1325  154.1164 H   0  0  0  0  0  0  0  0  0  0  0  0
  146.1907  139.7582  152.5841 H   0  0  0  0  0  0  0  0  0  0  0  0
  147.9041  137.5481  152.3981 H   0  0  0  0  0  0  0  0  0  0  0  0
  147.4480  135.7918  151.6339 H   0  0  0  0  0  0  0  0  0  0  0  0
  147.6060  133.6828  150.8925 H   0  0  0  0  0  0  0  0  0  0  0  0
  146.5034  131.5651  150.1695 H   0  0  0  0  0  0  0  0  0  0  0  0
  144.0003  131.3969  150.2891 H   0  0  0  0  0  0  0  0  0  0  0  0
  142.7137  133.3787  151.1342 H   0  0  0  0  0  0  0  0  0  0  0  0
  145.0271  138.5472  154.3887 H   0  0  0  0  0  0  0  0  0  0  0  0
  146.5304  138.2784  155.2292 H   0  0  0  0  0  0  0  0  0  0  0  0
  145.3444  140.2085  156.2358 H   0  0  0  0  0  0  0  0  0  0  0  0
  145.2119  140.9846  154.6784 H   0  0  0  0  0  0  0  0  0  0  0  0
  1  2  1  0  0  0  0
  1 21  1  0  0  0  0
  1 22  1  0  0  0  0
  1 23  1  0  0  0  0
  2  3  2  0  0  0  0
  2  4  2  0  0  0  0
  2  5  1  0  0  0  0
  5 20  1  0  0  0  0
  5  6  1  0  0  0  0
  6  7  1  0  0  0  0
  6 24  1  0  0  0  0
  6 25  1  0  0  0  0
  7  8  1  0  0  0  0
  7 26  1  0  0  0  0
  7 27  1  0  0  0  0
  8  9  1  0  0  0  0
  8 19  1  0  0  0  0
  8 28  1  0  0  0  0
  9 10  1  0  0  0  0
  9 29  1  0  0  0  0
 10 11  2  0  0  0  0
 10 12  1  0  0  0  0
 12 13  1  0  0  0  0
 12 30  1  0  0  0  0
 13 18  1  0  0  0  0
 13 14  2  0  0  0  0
 14 15  1  0  0  0  0
 14 31  1  0  0  0  0
 15 16  2  0  0  0  0
 15 32  1  0  0  0  0
 16 17  1  0  0  0  0
 16 33  1  0  0  0  0
 17 18  2  0  0  0  0
 17 34  1  0  0  0  0
 19 20  1  0  0  0  0
 19 35  1  0  0  0  0
 19 36  1  0  0  0  0
 20 37  1  0  0  0  0
 20 38  1  0  0  0  0
M  END
> <s_m_source_file>
AV-unprocessed.smi

> <i_m_source_file_index>
1241

> <i_lp_mmshare_version>
43012

> <i_f3d_flags>
0

> <s_epik_input>
W0NIM11TKD1PKSg9TylOMVtDSDJdW0NIMl1bQ0hdKFtDSDJdW0NIMl0xKVtOSF1DKD1PKVtOSF1jMltjSF1bY0hdW2NIXVtjSF1uMg==

> <s_epik_cmdline>
J2VwaWtfcHl0aG9uJywgJy1waCcsICc3LjAnLCAnLXRuJywgJzgnLCAnLW1hJywgJzIwMCcsICctbWV0YWxfYmluZGluZycsICctaW1hZScsICc8aW5maWxlLm1hZT4nLCAnLW9tYWUnLCAnPG91dGZpbGUubWFlPic=

> <r_lp_tautomer_probability>
1

> <r_epik_Ionization_Penalty>
4.62702e-05

> <r_epik_Ionization_Penalty_Charging>
0

> <r_epik_Ionization_Penalty_Neutral>
4.62702e-05

> <r_epik_State_Penalty>
-0

> <r_epik_Charging_Adjusted_Penalty>
0

> <i_epik_Tot_Q>
0

> <i_epik_Tot_abs_Q>
0

> <r_epik_Metal_State_Penalty>
-0

> <b_epik_Metal_Only>
0

> <s_lp_Force_Field>
OPLS_2005

> <r_lp_Energy>
3.28241

> <b_lp_Chiralities_Consistent>
1

> <s_lp_Variant>
AV-unprocessed.smi:1241-1

> <Gold.Version>
5.8.1

> <Gold.Id.Protein>
6NUR|6NUR_protein|mol2

> <Gold.PLP.Fitness>
34.8819

> <Gold.PLP.PLP>
-26.1686

> <Gold.PLP.part.hbond>
-2.5010

> <Gold.PLP.part.metal>
0.0000

> <Gold.PLP.part.buried>
-2.8889

> <Gold.PLP.part.nonpolar>
-21.5181

> <Gold.PLP.part.repulsive>
0.9621

> <Gold.PLP.ligand.clash>
0.0000

> <Gold.PLP.ligand.torsion>
1.0618

> <Gold.PLP.Chemscore.Hbond>
1.9280

> <Gold.PLP.Chemscore.CHOScore>
1.0000

> <Gold.PLP.Chemscore.Metal>
0.0000

> <Gold.Chemscore.Hbonds>
donor molecule, donor type, donor heavy atom, donor atom, acceptor molecule, acceptor atom, score
      L1  H     9    29       P1  7948  0.91
      L1  H    12    30       P1  7948  1.00
      L1  C    17    34       P1 10186  0.94

> <Gold.PLP.Chemscore.Internal.Correction>
2.0529

> <Gold.Rescore>
     Score         DG    S(hbond)    S(metal)    S(lipo)     H(rot)  DE(clash)    DE(int)     intcor
     11.51     -16.06       1.94        0.00      56.90       1.00       1.03       3.52       ----

> <Gold.Chemscore.Fitness>
11.5123

> <Gold.Chemscore.DG>
-16.0575

> <Gold.Chemscore.ZeroCoef>
-5.4800

> <Gold.Chemscore.Hbond>
1.9403

> <Gold.Chemscore.Metal>
0.0000

> <Gold.Chemscore.Lipo>
56.8956

> <Gold.Chemscore.Internal_Hbond>
0.0000

> <Gold.Chemscore.DEClash>
1.0282

> <Gold.Chemscore.DEInternal>
3.5171

> <Gold.Chemscore.Rot>
1.0000

> <Gold.Chemscore.Internal.Correction>
   9.000000E+99

> <Gold.Chemscore.Hbonds>
donor molecule, donor type, donor heavy atom, donor atom, acceptor molecule, acceptor atom, score
      L1  H     9    29       P1  7948  0.90
      L1  H    12    30       P1  7948  0.93

> <Gold.Chemscore.Hbond.Weighted>
-6.4807

> <Gold.Chemscore.Metal.Weighted>
-0.0000

> <Gold.Chemscore.Lipo.Weighted>
-6.6568

> <Gold.Chemscore.Internal_Hbond.Weighted>
0.0000

> <Gold.Chemscore.DEClash.Weighted>
1.0282

> <Gold.Chemscore.DEInternal.Weighted>
3.5171

> <Gold.Chemscore.Rot.Weighted>
2.5600

> <Gold.Chemscore.Internal.Correction.Weighted>
   9.000000E+99

> <Gold.Protein.RotatedTorsions>
[ 6907 6896 6895 6894 ] final  -82.83 input  -60.11 | X-H torsion
[ 7974 7965 7964 7962 ] final -148.85 input  175.53 | X-H torsion
[ 8008 7997 7996 7995 ] final  -58.80 input   59.86 | X-H torsion
[ 10167 10162 10161 10158 ] final   37.09 input  -65.29 | X-H torsion
[ 10718 10713 10712 10709 ] final   49.23 input   66.30 | X-H torsion
[ 10763 10752 10751 10750 ] final  128.23 input  -60.55 | X-H torsion
[ 11005 11000 10999 10996 ] final  100.71 input  -57.11 | X-H torsion

> <Gold.Protein.ActiveResidues>
 VAL166  LYS551  ARG553  GLY616  TRP617  ASP618  TYR619  PRO620  LYS621  CYS622 
 ASP623  PHE694  ASN695  SER759  ASP760  ASP761  ALA762  ILE779  LEU786  VAL792 
 PHE793  MET794  SER795  GLU796  ALA797  LYS798  CYS799  TRP800  GLU811  SER814 

> <Gold.Protein.RotatedAtoms>
  150.6892  134.3604  159.4947 H   0  0  0  0  0  0  0  0  0  0  0  0  # atno 6907 bound_to 6896
  152.1434  134.9042  160.0561 H   0  0  0  0  0  0  0  0  0  0  0  0  # atno 6908 bound_to 6896
  152.0167  133.3848  159.4278 H   0  0  0  0  0  0  0  0  0  0  0  0  # atno 6909 bound_to 6896
  144.8003  140.5142  143.5711 H   0  0  0  0  0  0  0  0  0  0  0  0  # atno 7974 bound_to 7965
  154.4324  140.1076  156.6015 H   0  0  0  0  0  0  0  0  0  0  0  0  # atno 8008 bound_to 7997
  155.5906  140.3492  155.4546 H   0  0  0  0  0  0  0  0  0  0  0  0  # atno 8009 bound_to 7997
  156.0249  140.1248  157.0308 H   0  0  0  0  0  0  0  0  0  0  0  0  # atno 8010 bound_to 7997
  140.4066  144.1650  150.6136 H   0  0  0  0  0  0  0  0  0  0  0  0  # atno 10167 bound_to 10162
  157.4766  130.8288  149.8046 H   0  0  0  0  0  0  0  0  0  0  0  0  # atno 10718 bound_to 10713
  153.7221  135.3251  155.3269 H   0  0  0  0  0  0  0  0  0  0  0  0  # atno 10763 bound_to 10752
  154.8352  135.4502  154.1207 H   0  0  0  0  0  0  0  0  0  0  0  0  # atno 10764 bound_to 10752
  153.2330  135.6962  153.7948 H   0  0  0  0  0  0  0  0  0  0  0  0  # atno 10765 bound_to 10752
  139.8771  134.9152  156.4797 H   0  0  0  0  0  0  0  0  0  0  0  0  # atno 11005 bound_to 11000
  145.5569  139.1478  143.3363 LP  0  0  0  0  0  0  0  0  0  0  0  0  # atno 17320 bound_to 7965
  146.2283  140.5706  142.8986 LP  0  0  0  0  0  0  0  0  0  0  0  0  # atno 17321 bound_to 7965
  140.4683  143.2422  151.9125 LP  0  0  0  0  0  0  0  0  0  0  0  0  # atno 17342 bound_to 10162
  139.4783  144.5396  151.8547 LP  0  0  0  0  0  0  0  0  0  0  0  0  # atno 17343 bound_to 10162
  156.0100  130.3838  150.2298 LP  0  0  0  0  0  0  0  0  0  0  0  0  # atno 17370 bound_to 10713
  157.0483  131.0055  151.3262 LP  0  0  0  0  0  0  0  0  0  0  0  0  # atno 17371 bound_to 10713
  140.8736  133.7970  155.9390 LP  0  0  0  0  0  0  0  0  0  0  0  0  # atno 17394 bound_to 11000
  140.8927  134.2475  157.5085 LP  0  0  0  0  0  0  0  0  0  0  0  0  # atno 17395 bound_to 11000

$$$$
