AV-unprocessed.smi:1999|AV-procd|sdf|8093|dock2
  -GOLD-   2272010313D 1   1.00000     0.00000
 Structure written by MMmdl.
 38 39  0  0  0  0  0  0  0  0  1 V2000
  143.7566  132.4722  149.7198 C   0  0  0  0  0  0  0  0  0  0  0  0
  144.5929  133.0039  150.8328 C   0  0  0  0  0  0  0  0  0  0  0  0
  144.1284  133.1490  152.0796 N   0  0  0  0  0  0  0  0  0  0  0  0
  145.0884  133.6580  152.9431 N   0  0  0  0  0  0  0  0  0  0  0  0
  146.2537  133.8803  152.3196 C   0  0  0  0  0  0  0  0  0  0  0  0
  147.4071  134.4007  152.9639 N   0  0  0  0  0  0  0  0  0  0  0  0
  147.7829  134.2550  154.2469 C   0  0  0  0  0  0  0  0  0  0  0  0
  147.1690  133.6138  155.1002 O   0  0  0  0  0  0  0  0  0  0  0  0
  148.9320  134.9025  154.4906 N   0  0  0  0  0  0  0  0  0  0  0  0
  149.6228  134.9529  155.7762 C   0  0  1  0  0  0  0  0  0  0  0  0
  149.9558  133.5243  156.2401 C   0  0  0  0  0  0  0  0  0  0  0  0
  150.8844  135.8272  155.6225 C   0  0  0  0  0  0  0  0  0  0  0  0
  150.6715  137.2733  155.6969 N   0  0  0  0  0  0  0  0  0  0  0  0
  149.8069  137.7748  154.6301 C   0  0  0  0  0  0  0  0  0  0  0  0
  149.6234  139.3007  154.7089 C   0  0  0  0  0  0  0  0  0  0  0  0
  150.8951  139.9402  154.6773 O   0  0  0  0  0  0  0  0  0  0  0  0
  151.7490  139.5128  155.7330 C   0  0  0  0  0  0  0  0  0  0  0  0
  151.9421  137.9889  155.6517 C   0  0  0  0  0  0  0  0  0  0  0  0
  146.2710  133.4836  150.6097 S   0  0  0  0  0  0  0  0  0  0  0  0
  142.7171  132.7762  149.8469 H   0  0  0  0  0  0  0  0  0  0  0  0
  143.8050  131.3835  149.7053 H   0  0  0  0  0  0  0  0  0  0  0  0
  144.1154  132.8523  148.7633 H   0  0  0  0  0  0  0  0  0  0  0  0
  148.0183  134.9501  152.3781 H   0  0  0  0  0  0  0  0  0  0  0  0
  149.3653  135.4006  153.7271 H   0  0  0  0  0  0  0  0  0  0  0  0
  148.9551  135.4136  156.5047 H   0  0  0  0  0  0  0  0  0  0  0  0
  150.4428  133.5294  157.2156 H   0  0  0  0  0  0  0  0  0  0  0  0
  150.6234  133.0239  155.5380 H   0  0  0  0  0  0  0  0  0  0  0  0
  149.0539  132.9184  156.3322 H   0  0  0  0  0  0  0  0  0  0  0  0
  151.5885  135.5354  156.4031 H   0  0  0  0  0  0  0  0  0  0  0  0
  151.3750  135.5864  154.6777 H   0  0  0  0  0  0  0  0  0  0  0  0
  150.2265  137.5110  153.6582 H   0  0  0  0  0  0  0  0  0  0  0  0
  148.8246  137.3075  154.6854 H   0  0  0  0  0  0  0  0  0  0  0  0
  149.0253  139.6548  153.8693 H   0  0  0  0  0  0  0  0  0  0  0  0
  149.0922  139.5783  155.6207 H   0  0  0  0  0  0  0  0  0  0  0  0
  152.7085  140.0225  155.6438 H   0  0  0  0  0  0  0  0  0  0  0  0
  151.3216  139.7981  156.6956 H   0  0  0  0  0  0  0  0  0  0  0  0
  152.5799  137.6638  156.4744 H   0  0  0  0  0  0  0  0  0  0  0  0
  152.4722  137.7430  154.7303 H   0  0  0  0  0  0  0  0  0  0  0  0
  1  2  1  0  0  0  0
  1 20  1  0  0  0  0
  1 21  1  0  0  0  0
  1 22  1  0  0  0  0
  2 19  1  0  0  0  0
  2  3  2  0  0  0  0
  3  4  1  0  0  0  0
  4  5  2  0  0  0  0
  5  6  1  0  0  0  0
  5 19  1  0  0  0  0
  6  7  1  0  0  0  0
  6 23  1  0  0  0  0
  7  8  2  0  0  0  0
  7  9  1  0  0  0  0
  9 10  1  0  0  0  0
  9 24  1  0  0  0  0
 10 11  1  0  0  0  0
 10 12  1  0  0  0  0
 10 25  1  0  0  0  0
 11 26  1  0  0  0  0
 11 27  1  0  0  0  0
 11 28  1  0  0  0  0
 12 13  1  0  0  0  0
 12 29  1  0  0  0  0
 12 30  1  0  0  0  0
 13 18  1  0  0  0  0
 13 14  1  0  0  0  0
 14 15  1  0  0  0  0
 14 31  1  0  0  0  0
 14 32  1  0  0  0  0
 15 16  1  0  0  0  0
 15 33  1  0  0  0  0
 15 34  1  0  0  0  0
 16 17  1  0  0  0  0
 17 18  1  0  0  0  0
 17 35  1  0  0  0  0
 17 36  1  0  0  0  0
 18 37  1  0  0  0  0
 18 38  1  0  0  0  0
M  END
> <s_m_source_file>
AV-unprocessed.smi

> <i_m_source_file_index>
1999

> <i_lp_mmshare_version>
43012

> <i_f3d_flags>
0

> <s_epik_input>
W0NIM11jMW5uYyhzMSlbTkhdQyg9TylbTkhdW0NASF0oW0NIM10pW0NIMl1OMltDSDJdW0NIMl1PW0NIMl1bQ0gyXTI=

> <s_epik_cmdline>
J2VwaWtfcHl0aG9uJywgJy1waCcsICc3LjAnLCAnLXRuJywgJzgnLCAnLW1hJywgJzIwMCcsICctbWV0YWxfYmluZGluZycsICctaW1hZScsICc8aW5maWxlLm1hZT4nLCAnLW9tYWUnLCAnPG91dGZpbGUubWFlPic=

> <r_lp_tautomer_probability>
1

> <r_epik_Ionization_Penalty>
0.221412

> <r_epik_Ionization_Penalty_Charging>
0

> <r_epik_Ionization_Penalty_Neutral>
0.221412

> <r_epik_State_Penalty>
0.209349

> <r_epik_Charging_Adjusted_Penalty>
0.209349

> <i_epik_Tot_Q>
0

> <i_epik_Tot_abs_Q>
0

> <r_epik_Metal_State_Penalty>
0.56886

> <b_epik_Metal_Only>
0

> <s_lp_Force_Field>
OPLS_2005

> <r_lp_Energy>
22.0732

> <b_lp_Chiralities_Consistent>
1

> <s_lp_Variant>
AV-unprocessed.smi:1999-2

> <Gold.Version>
5.8.1

> <Gold.Id.Protein>
6NUR|6NUR_protein|mol2

> <Gold.PLP.Fitness>
36.0260

> <Gold.PLP.PLP>
-28.1778

> <Gold.PLP.part.hbond>
-3.0000

> <Gold.PLP.part.metal>
0.0000

> <Gold.PLP.part.buried>
-2.6724

> <Gold.PLP.part.nonpolar>
-22.5694

> <Gold.PLP.part.repulsive>
0.4412

> <Gold.PLP.ligand.clash>
0.0000

> <Gold.PLP.ligand.torsion>
0.4210

> <Gold.PLP.Chemscore.Hbond>
2.8800

> <Gold.PLP.Chemscore.CHOScore>
0.0000

> <Gold.PLP.Chemscore.Metal>
0.0000

> <Gold.Chemscore.Hbonds>
donor molecule, donor type, donor heavy atom, donor atom, acceptor molecule, acceptor atom, score
      L1  H     6    23       P1  7948  1.00
      L1  H     9    24       P1  7948  0.83
      P1  H  7989  7998       L1    16  1.00

> <Gold.PLP.Chemscore.Internal.Correction>
0.0502

> <Gold.Rescore>
     Score         DG    S(hbond)    S(metal)    S(lipo)     H(rot)  DE(clash)    DE(int)     intcor
     15.93     -17.94       2.72        0.00      63.62       1.58       0.01       2.00       ----

> <Gold.Chemscore.Fitness>
15.9328

> <Gold.Chemscore.DG>
-17.9442

> <Gold.Chemscore.ZeroCoef>
-5.4800

> <Gold.Chemscore.Hbond>
2.7169

> <Gold.Chemscore.Metal>
0.0000

> <Gold.Chemscore.Lipo>
63.6244

> <Gold.Chemscore.Internal_Hbond>
0.0000

> <Gold.Chemscore.DEClash>
0.0126

> <Gold.Chemscore.DEInternal>
1.9988

> <Gold.Chemscore.Rot>
1.5837

> <Gold.Chemscore.Internal.Correction>
   9.000000E+99

> <Gold.Chemscore.Hbonds>
donor molecule, donor type, donor heavy atom, donor atom, acceptor molecule, acceptor atom, score
      L1  H     6    23       P1  7948  0.74
      L1  H     9    24       P1  7948  0.23
      P1  H  7989  7998       L1    16  0.91

> <Gold.Chemscore.Hbond.Weighted>
-9.0744

> <Gold.Chemscore.Metal.Weighted>
-0.0000

> <Gold.Chemscore.Lipo.Weighted>
-7.4441

> <Gold.Chemscore.Internal_Hbond.Weighted>
0.0000

> <Gold.Chemscore.DEClash.Weighted>
0.0126

> <Gold.Chemscore.DEInternal.Weighted>
1.9988

> <Gold.Chemscore.Rot.Weighted>
4.0542

> <Gold.Chemscore.Internal.Correction.Weighted>
   9.000000E+99

> <Gold.Protein.RotatedTorsions>
[ 6907 6896 6895 6894 ] final  134.29 input  -60.11 | X-H torsion
[ 7974 7965 7964 7962 ] final  -35.07 input  175.53 | X-H torsion
[ 8008 7997 7996 7995 ] final  -20.46 input   59.86 | X-H torsion
[ 10167 10162 10161 10158 ] final  121.09 input  -65.29 | X-H torsion
[ 10718 10713 10712 10709 ] final  -68.78 input   66.30 | X-H torsion
[ 10763 10752 10751 10750 ] final   -3.32 input  -60.55 | X-H torsion
[ 11005 11000 10999 10996 ] final -154.70 input  -57.11 | X-H torsion

> <Gold.Protein.ActiveResidues>
 VAL166  LYS551  ARG553  GLY616  TRP617  ASP618  TYR619  PRO620  LYS621  CYS622 
 ASP623  PHE694  ASN695  SER759  ASP760  ASP761  ALA762  ILE779  LEU786  VAL792 
 PHE793  MET794  SER795  GLU796  ALA797  LYS798  CYS799  TRP800  GLU811  SER814 

> <Gold.Protein.RotatedAtoms>
  152.3129  133.5771  159.5692 H   0  0  0  0  0  0  0  0  0  0  0  0  # atno 6907 bound_to 6896
  150.7332  134.0126  159.3683 H   0  0  0  0  0  0  0  0  0  0  0  0  # atno 6908 bound_to 6896
  151.8017  135.0707  160.0452 H   0  0  0  0  0  0  0  0  0  0  0  0  # atno 6909 bound_to 6896
  146.0777  140.6115  142.8923 H   0  0  0  0  0  0  0  0  0  0  0  0  # atno 7974 bound_to 7965
  154.4768  140.2061  155.9858 H   0  0  0  0  0  0  0  0  0  0  0  0  # atno 8008 bound_to 7997
  156.1102  140.3230  155.8032 H   0  0  0  0  0  0  0  0  0  0  0  0  # atno 8009 bound_to 7997
  155.4647  140.0526  157.2977 H   0  0  0  0  0  0  0  0  0  0  0  0  # atno 8010 bound_to 7997
  139.5941  144.7035  151.3219 H   0  0  0  0  0  0  0  0  0  0  0  0  # atno 10167 bound_to 10162
  156.0488  130.4301  150.2051 H   0  0  0  0  0  0  0  0  0  0  0  0  # atno 10718 bound_to 10713
  153.3698  135.6994  153.6646 H   0  0  0  0  0  0  0  0  0  0  0  0  # atno 10763 bound_to 10752
  153.5301  135.3594  155.2672 H   0  0  0  0  0  0  0  0  0  0  0  0  # atno 10764 bound_to 10752
  154.8680  135.4178  154.2974 H   0  0  0  0  0  0  0  0  0  0  0  0  # atno 10765 bound_to 10752
  140.6945  134.4005  157.5216 H   0  0  0  0  0  0  0  0  0  0  0  0  # atno 11005 bound_to 11000
  144.7272  140.4562  143.6964 LP  0  0  0  0  0  0  0  0  0  0  0  0  # atno 17320 bound_to 7965
  145.6275  139.1532  143.2987 LP  0  0  0  0  0  0  0  0  0  0  0  0  # atno 17321 bound_to 7965
  140.7197  143.7169  150.7726 LP  0  0  0  0  0  0  0  0  0  0  0  0  # atno 17342 bound_to 10162
  140.0731  143.5041  152.2569 LP  0  0  0  0  0  0  0  0  0  0  0  0  # atno 17343 bound_to 10162
  157.0137  130.9958  151.3359 LP  0  0  0  0  0  0  0  0  0  0  0  0  # atno 17370 bound_to 10713
  157.5392  130.8109  149.8008 LP  0  0  0  0  0  0  0  0  0  0  0  0  # atno 17371 bound_to 10713
  139.8914  134.8781  156.2322 LP  0  0  0  0  0  0  0  0  0  0  0  0  # atno 17394 bound_to 11000
  141.0214  133.7039  156.1275 LP  0  0  0  0  0  0  0  0  0  0  0  0  # atno 17395 bound_to 11000

$$$$
