AV-unprocessed.smi:1552|AV-procd|sdf|6236|dock4
  -GOLD-   22720 6413D 1   1.00000     0.00000
 Structure written by MMmdl.
 49 50  0  0  0  0  0  0  0  0  3 V2000
  143.2230  135.3001  154.8699 C   0  0  0  0  0  0  0  0  0  0  0  0
  143.2247  134.5568  153.5881 N   0  3  0  0  0  0  0  0  0  0  0  0
  142.0757  134.9317  152.7293 C   0  0  0  0  0  0  0  0  0  0  0  0
  144.5617  134.5123  152.9153 C   0  0  2  0  0  0  0  0  0  0  0  0
  144.9727  135.8755  152.2926 C   0  0  0  0  0  0  0  0  0  0  0  0
  145.2105  136.9086  153.2982 N   0  0  0  0  0  0  0  0  0  0  0  0
  145.8476  138.0822  153.1523 C   0  0  0  0  0  0  0  0  0  0  0  0
  146.3445  138.3873  152.0700 O   0  0  0  0  0  0  0  0  0  0  0  0
  145.9990  139.0483  154.3414 C   0  0  0  0  0  0  0  0  0  0  0  0
  147.4082  139.3995  154.5776 N   0  0  0  0  0  0  0  0  0  0  0  0
  148.3938  138.5113  154.1108 C   0  0  0  0  0  0  0  0  0  0  0  0
  149.7077  138.7588  154.2722 C   0  0  0  0  0  0  0  0  0  0  0  0
  150.1005  139.9871  154.9515 C   0  0  0  0  0  0  0  0  0  0  0  0
  151.2954  140.2299  155.1087 O   0  0  0  0  0  0  0  0  0  0  0  0
  149.1074  140.8181  155.3842 N   0  5  0  0  0  0  0  0  0  0  0  0
  147.7756  140.5532  155.2132 C   0  0  0  0  0  0  0  0  0  0  0  0
  146.8980  141.3196  155.6116 O   0  0  0  0  0  0  0  0  0  0  0  0
  144.6872  133.2908  151.9548 C   0  0  0  0  0  0  0  0  0  0  0  0
  146.1663  132.9611  151.6329 C   0  0  0  0  0  0  0  0  0  0  0  0
  146.3013  131.7625  150.6799 C   0  0  0  0  0  0  0  0  0  0  0  0
  145.5236  131.9957  149.3784 C   0  0  0  0  0  0  0  0  0  0  0  0
  144.0518  132.3113  149.6746 C   0  0  0  0  0  0  0  0  0  0  0  0
  143.9181  133.5093  150.6284 C   0  0  0  0  0  0  0  0  0  0  0  0
  143.3604  136.3704  154.7182 H   0  0  0  0  0  0  0  0  0  0  0  0
  144.0118  134.9430  155.5325 H   0  0  0  0  0  0  0  0  0  0  0  0
  142.2740  135.1578  155.3875 H   0  0  0  0  0  0  0  0  0  0  0  0
  142.1004  135.9879  152.4635 H   0  0  0  0  0  0  0  0  0  0  0  0
  141.1389  134.7491  153.2563 H   0  0  0  0  0  0  0  0  0  0  0  0
  142.0500  134.3446  151.8123 H   0  0  0  0  0  0  0  0  0  0  0  0
  145.2810  134.3239  153.7139 H   0  0  0  0  0  0  0  0  0  0  0  0
  145.8408  135.7306  151.6545 H   0  0  0  0  0  0  0  0  0  0  0  0
  144.1812  136.2339  151.6341 H   0  0  0  0  0  0  0  0  0  0  0  0
  144.8822  136.6952  154.2289 H   0  0  0  0  0  0  0  0  0  0  0  0
  145.3940  139.9484  154.2484 H   0  0  0  0  0  0  0  0  0  0  0  0
  145.5898  138.5463  155.2190 H   0  0  0  0  0  0  0  0  0  0  0  0
  148.0205  137.6287  153.6123 H   0  0  0  0  0  0  0  0  0  0  0  0
  150.4519  138.0675  153.9051 H   0  0  0  0  0  0  0  0  0  0  0  0
  144.2544  132.4150  152.4391 H   0  0  0  0  0  0  0  0  0  0  0  0
  146.6499  133.8323  151.1886 H   0  0  0  0  0  0  0  0  0  0  0  0
  146.7187  132.7361  152.5452 H   0  0  0  0  0  0  0  0  0  0  0  0
  147.3532  131.5831  150.4556 H   0  0  0  0  0  0  0  0  0  0  0  0
  145.9319  130.8610  151.1704 H   0  0  0  0  0  0  0  0  0  0  0  0
  145.9724  132.8215  148.8246 H   0  0  0  0  0  0  0  0  0  0  0  0
  145.5956  131.1165  148.7375 H   0  0  0  0  0  0  0  0  0  0  0  0
  143.5224  132.5170  148.7439 H   0  0  0  0  0  0  0  0  0  0  0  0
  143.5713  131.4371  150.1161 H   0  0  0  0  0  0  0  0  0  0  0  0
  142.8581  133.6738  150.8187 H   0  0  0  0  0  0  0  0  0  0  0  0
  144.2848  134.4097  150.1338 H   0  0  0  0  0  0  0  0  0  0  0  0
  143.0498  133.5985  153.8542 H   0  0  0  0  0  0  0  0  0  0  0  0
  1  2  1  0  0  0  0
  1 24  1  0  0  0  0
  1 25  1  0  0  0  0
  1 26  1  0  0  0  0
  2  3  1  0  0  0  0
  2  4  1  0  0  0  0
  2 49  1  0  0  0  0
  3 27  1  0  0  0  0
  3 28  1  0  0  0  0
  3 29  1  0  0  0  0
  4  5  1  0  0  0  0
  4 18  1  0  0  0  0
  4 30  1  0  0  0  0
  5  6  1  0  0  0  0
  5 31  1  0  0  0  0
  5 32  1  0  0  0  0
  6  7  1  0  0  0  0
  6 33  1  0  0  0  0
  7  8  2  0  0  0  0
  7  9  1  0  0  0  0
  9 10  1  0  0  0  0
  9 34  1  0  0  0  0
  9 35  1  0  0  0  0
 10 16  1  0  0  0  0
 10 11  1  0  0  0  0
 11 12  2  0  0  0  0
 11 36  1  0  0  0  0
 12 13  1  0  0  0  0
 12 37  1  0  0  0  0
 13 14  2  0  0  0  0
 13 15  1  0  0  0  0
 15 16  1  0  0  0  0
 16 17  2  0  0  0  0
 18 23  1  0  0  0  0
 18 19  1  0  0  0  0
 18 38  1  0  0  0  0
 19 20  1  0  0  0  0
 19 39  1  0  0  0  0
 19 40  1  0  0  0  0
 20 21  1  0  0  0  0
 20 41  1  0  0  0  0
 20 42  1  0  0  0  0
 21 22  1  0  0  0  0
 21 43  1  0  0  0  0
 21 44  1  0  0  0  0
 22 23  1  0  0  0  0
 22 45  1  0  0  0  0
 22 46  1  0  0  0  0
 23 47  1  0  0  0  0
 23 48  1  0  0  0  0
M  CHG  1   2   1
M  CHG  1  15  -1
M  END
> <s_m_source_file>
AV-unprocessed.smi

> <i_m_source_file_index>
1552

> <i_lp_mmshare_version>
43012

> <i_f3d_flags>
0

> <s_epik_input>
W0NIMl0xW0NIMl1bQ0gyXVtDSDJdW0NIMl1bQ0hdMVtDQEhdKE4oW0NIM10pW0NIM10pW0NIMl1bTkhdQyg9TylbQ0gyXW4yW2NIXVtjSF1jKD1PKVtuSF1jMj1P

> <s_epik_cmdline>
J2VwaWtfcHl0aG9uJywgJy1waCcsICc3LjAnLCAnLXRuJywgJzgnLCAnLW1hJywgJzIwMCcsICctbWV0YWxfYmluZGluZycsICctaW1hZScsICc8aW5maWxlLm1hZT4nLCAnLW9tYWUnLCAnPG91dGZpbGUubWFlPic=

> <r_lp_tautomer_probability>
1

> <r_epik_Ionization_Penalty>
2.93575

> <r_epik_Ionization_Penalty_Charging>
0.00331645

> <r_epik_Ionization_Penalty_Neutral>
2.93244

> <r_epik_State_Penalty>
2.92822

> <r_epik_Charging_Adjusted_Penalty>
2.93154

> <i_epik_Tot_Q>
0

> <i_epik_Tot_abs_Q>
2

> <r_epik_Metal_State_Penalty>
0.448509

> <b_epik_Metal_Only>
1

> <s_lp_Force_Field>
OPLS_2005

> <r_lp_Energy>
39.5493

> <b_lp_Chiralities_Consistent>
1

> <s_lp_Variant>
AV-unprocessed.smi:1552-3

> <Gold.Version>
5.8.1

> <Gold.Id.Protein>
6NUR|6NUR_protein|mol2

> <Gold.PLP.Fitness>
42.5698

> <Gold.PLP.PLP>
-31.9078

> <Gold.PLP.part.hbond>
-2.0000

> <Gold.PLP.part.metal>
0.0000

> <Gold.PLP.part.buried>
-3.3372

> <Gold.PLP.part.nonpolar>
-27.0646

> <Gold.PLP.part.repulsive>
0.5244

> <Gold.PLP.ligand.clash>
0.0000

> <Gold.PLP.ligand.torsion>
0.9297

> <Gold.PLP.Chemscore.Hbond>
3.0000

> <Gold.PLP.Chemscore.CHOScore>
1.0000

> <Gold.PLP.Chemscore.Metal>
0.0000

> <Gold.Chemscore.Hbonds>
donor molecule, donor type, donor heavy atom, donor atom, acceptor molecule, acceptor atom, score
      L1  H     2    49       P1 10957  1.72
      P1  H  7989  7998       L1    14  0.95
      L1  C    11    36       P1  7948  1.00

> <Gold.PLP.Chemscore.Internal.Correction>
0.5215

> <Gold.Rescore>
     Score         DG    S(hbond)    S(metal)    S(lipo)     H(rot)  DE(clash)    DE(int)     intcor
     11.50     -15.41       1.84        0.00      85.56       2.43       0.97       2.94       ----

> <Gold.Chemscore.Fitness>
11.5030

> <Gold.Chemscore.DG>
-15.4118

> <Gold.Chemscore.ZeroCoef>
-5.4800

> <Gold.Chemscore.Hbond>
1.8392

> <Gold.Chemscore.Metal>
0.0000

> <Gold.Chemscore.Lipo>
85.5625

> <Gold.Chemscore.Internal_Hbond>
0.0000

> <Gold.Chemscore.DEClash>
0.9701

> <Gold.Chemscore.DEInternal>
2.9387

> <Gold.Chemscore.Rot>
2.4305

> <Gold.Chemscore.Internal.Correction>
   9.000000E+99

> <Gold.Chemscore.Hbonds>
donor molecule, donor type, donor heavy atom, donor atom, acceptor molecule, acceptor atom, score
      L1  H     2    49       P1 10957  0.84
      P1  H  7989  7998       L1    14  0.21

> <Gold.Chemscore.Hbond.Weighted>
-6.1431

> <Gold.Chemscore.Metal.Weighted>
-0.0000

> <Gold.Chemscore.Lipo.Weighted>
-10.0108

> <Gold.Chemscore.Internal_Hbond.Weighted>
0.0000

> <Gold.Chemscore.DEClash.Weighted>
0.9701

> <Gold.Chemscore.DEInternal.Weighted>
2.9387

> <Gold.Chemscore.Rot.Weighted>
6.2220

> <Gold.Chemscore.Internal.Correction.Weighted>
   9.000000E+99

> <Gold.Protein.RotatedTorsions>
[ 6907 6896 6895 6894 ] final   48.94 input  -60.11 | X-H torsion
[ 7974 7965 7964 7962 ] final  -79.51 input  175.53 | X-H torsion
[ 8008 7997 7996 7995 ] final  148.64 input   59.86 | X-H torsion
[ 10167 10162 10161 10158 ] final -158.88 input  -65.29 | X-H torsion
[ 10718 10713 10712 10709 ] final   59.51 input   66.30 | X-H torsion
[ 10763 10752 10751 10750 ] final   40.79 input  -60.55 | X-H torsion
[ 11005 11000 10999 10996 ] final  151.89 input  -57.11 | X-H torsion

> <Gold.Protein.ActiveResidues>
 VAL166  LYS551  ARG553  GLY616  TRP617  ASP618  TYR619  PRO620  LYS621  CYS622 
 ASP623  PHE694  ASN695  SER759  ASP760  ASP761  ALA762  ILE779  LEU786  VAL792 
 PHE793  MET794  SER795  GLU796  ALA797  LYS798  CYS799  TRP800  GLU811  SER814 

> <Gold.Protein.RotatedAtoms>
  152.2852  134.7784  160.0388 H   0  0  0  0  0  0  0  0  0  0  0  0  # atno 6907 bound_to 6896
  151.8350  133.3409  159.3633 H   0  0  0  0  0  0  0  0  0  0  0  0  # atno 6908 bound_to 6896
  150.7206  134.5375  159.5775 H   0  0  0  0  0  0  0  0  0  0  0  0  # atno 6909 bound_to 6896
  145.5722  140.9464  143.1389 H   0  0  0  0  0  0  0  0  0  0  0  0  # atno 7974 bound_to 7965
  156.2784  140.2123  156.5731 H   0  0  0  0  0  0  0  0  0  0  0  0  # atno 8008 bound_to 7997
  154.7120  140.0511  157.0581 H   0  0  0  0  0  0  0  0  0  0  0  0  # atno 8009 bound_to 7997
  155.0593  140.3165  155.4669 H   0  0  0  0  0  0  0  0  0  0  0  0  # atno 8010 bound_to 7997
  139.6658  143.9832  152.2254 H   0  0  0  0  0  0  0  0  0  0  0  0  # atno 10167 bound_to 10162
  157.5681  130.8886  149.9221 H   0  0  0  0  0  0  0  0  0  0  0  0  # atno 10718 bound_to 10713
  152.9926  135.6181  154.2682 H   0  0  0  0  0  0  0  0  0  0  0  0  # atno 10763 bound_to 10752
  154.2416  135.2788  155.2853 H   0  0  0  0  0  0  0  0  0  0  0  0  # atno 10764 bound_to 10752
  154.5364  135.5773  153.6860 H   0  0  0  0  0  0  0  0  0  0  0  0  # atno 10765 bound_to 10752
  140.1259  134.8834  157.2137 H   0  0  0  0  0  0  0  0  0  0  0  0  # atno 11005 bound_to 11000
  144.7432  139.7390  143.7302 LP  0  0  0  0  0  0  0  0  0  0  0  0  # atno 17320 bound_to 7965
  146.1776  139.4954  142.9887 LP  0  0  0  0  0  0  0  0  0  0  0  0  # atno 17321 bound_to 7965
  139.9583  144.6575  150.8104 LP  0  0  0  0  0  0  0  0  0  0  0  0  # atno 17342 bound_to 10162
  140.7598  143.3138  151.2781 LP  0  0  0  0  0  0  0  0  0  0  0  0  # atno 17343 bound_to 10162
  156.0728  130.3683  150.0740 LP  0  0  0  0  0  0  0  0  0  0  0  0  # atno 17370 bound_to 10713
  156.8896  130.9584  151.3590 LP  0  0  0  0  0  0  0  0  0  0  0  0  # atno 17371 bound_to 10713
  140.2905  134.3246  155.7316 LP  0  0  0  0  0  0  0  0  0  0  0  0  # atno 17394 bound_to 11000
  141.2161  133.7531  156.9496 LP  0  0  0  0  0  0  0  0  0  0  0  0  # atno 17395 bound_to 11000

$$$$
