AV-unprocessed.smi:394|AV-procd|sdf|2485|dock7
  -GOLD-   2262022423D 1   1.00000     0.00000
 Structure written by MMmdl.
 30 31  0  0  0  0  0  0  0  0  1 V2000
  147.0315  139.6688  153.2458 C   0  0  0  0  0  0  0  0  0  0  0  0
  148.2311  140.4061  153.6099 N   0  0  0  0  0  0  0  0  0  0  0  0
  148.4548  140.9409  154.8213 C   0  0  0  0  0  0  0  0  0  0  0  0
  147.6479  140.8477  155.7456 O   0  0  0  0  0  0  0  0  0  0  0  0
  149.7736  141.6996  155.0570 C   0  0  0  0  0  0  0  0  0  0  0  0
  150.6985  141.0684  156.0275 N   0  0  0  0  0  0  0  0  0  0  0  0
  151.3356  139.8526  155.6695 C   0  0  0  0  0  0  0  0  0  0  0  0
  151.1464  139.3375  154.5665 O   0  0  0  0  0  0  0  0  0  0  0  0
  152.2127  139.2780  156.6873 C   0  0  0  0  0  0  0  0  0  0  0  0
  152.8333  138.0310  156.3843 C   0  0  0  0  0  0  0  0  0  0  0  0
  153.3319  137.0105  156.1619 N   0  0  0  0  0  0  0  0  0  0  0  0
  152.4169  139.9064  157.8633 C   0  0  0  0  0  0  0  0  0  0  0  0
  151.8337  141.1168  158.1679 N   0  0  0  0  0  0  0  0  0  0  0  0
  151.9509  141.6961  159.4765 C   0  0  0  0  0  0  0  0  0  0  0  0
  152.4259  143.1267  159.6423 C   0  0  0  0  0  0  0  0  0  0  0  0
  153.3293  141.9821  160.0313 C   0  0  0  0  0  0  0  0  0  0  0  0
  150.9163  141.7082  157.2723 C   0  0  0  0  0  0  0  0  0  0  0  0
  150.3227  142.7499  157.5621 O   0  0  0  0  0  0  0  0  0  0  0  0
  147.1044  139.3278  152.2133 H   0  0  0  0  0  0  0  0  0  0  0  0
  146.1466  140.3004  153.3346 H   0  0  0  0  0  0  0  0  0  0  0  0
  146.9029  138.7950  153.8858 H   0  0  0  0  0  0  0  0  0  0  0  0
  148.9366  140.5216  152.8969 H   0  0  0  0  0  0  0  0  0  0  0  0
  150.2613  141.8350  154.0904 H   0  0  0  0  0  0  0  0  0  0  0  0
  149.5247  142.7171  155.3620 H   0  0  0  0  0  0  0  0  0  0  0  0
  153.0686  139.4492  158.5942 H   0  0  0  0  0  0  0  0  0  0  0  0
  151.2112  141.3574  160.2000 H   0  0  0  0  0  0  0  0  0  0  0  0
  152.6940  143.6889  158.7496 H   0  0  0  0  0  0  0  0  0  0  0  0
  151.9803  143.7116  160.4441 H   0  0  0  0  0  0  0  0  0  0  0  0
  153.4884  141.8065  161.0933 H   0  0  0  0  0  0  0  0  0  0  0  0
  154.1901  141.7900  159.3938 H   0  0  0  0  0  0  0  0  0  0  0  0
  1  2  1  0  0  0  0
  1 19  1  0  0  0  0
  1 20  1  0  0  0  0
  1 21  1  0  0  0  0
  2  3  1  0  0  0  0
  2 22  1  0  0  0  0
  3  4  2  0  0  0  0
  3  5  1  0  0  0  0
  5  6  1  0  0  0  0
  5 23  1  0  0  0  0
  5 24  1  0  0  0  0
  6 17  1  0  0  0  0
  6  7  1  0  0  0  0
  7  8  2  0  0  0  0
  7  9  1  0  0  0  0
  9 10  1  0  0  0  0
  9 12  2  0  0  0  0
 10 11  3  0  0  0  0
 12 13  1  0  0  0  0
 12 25  1  0  0  0  0
 13 14  1  0  0  0  0
 13 17  1  0  0  0  0
 14 16  1  0  0  0  0
 14 15  1  0  0  0  0
 14 26  1  0  0  0  0
 15 16  1  0  0  0  0
 15 27  1  0  0  0  0
 15 28  1  0  0  0  0
 16 29  1  0  0  0  0
 16 30  1  0  0  0  0
 17 18  2  0  0  0  0
M  END
> <s_m_source_file>
AV-unprocessed.smi

> <i_m_source_file_index>
394

> <i_lp_mmshare_version>
43012

> <i_f3d_flags>
0

> <s_epik_input>
W0NIM11bTkhdQyg9TylbQ0gyXW4xYyg9TyljKEMjTilbY0hdbihjMT1PKVtDSF0yW0NIMl1bQ0gyXTI=

> <s_epik_cmdline>
J2VwaWtfcHl0aG9uJywgJy1waCcsICc3LjAnLCAnLXRuJywgJzgnLCAnLW1hJywgJzIwMCcsICctbWV0YWxfYmluZGluZycsICctaW1hZScsICc8aW5maWxlLm1hZT4nLCAnLW9tYWUnLCAnPG91dGZpbGUubWFlPic=

> <r_lp_tautomer_probability>
1

> <r_epik_Ionization_Penalty>
1.93483e-08

> <r_epik_Ionization_Penalty_Charging>
8.13451e-11

> <r_epik_Ionization_Penalty_Neutral>
1.9267e-08

> <r_epik_State_Penalty>
-0

> <r_epik_Charging_Adjusted_Penalty>
8.13451e-11

> <i_epik_Tot_Q>
0

> <i_epik_Tot_abs_Q>
0

> <r_epik_Metal_State_Penalty>
-0

> <b_epik_Metal_Only>
0

> <s_lp_Force_Field>
OPLS_2005

> <r_lp_Energy>
29.0516

> <b_lp_Chiralities_Consistent>
1

> <s_lp_Variant>
AV-unprocessed.smi:394-1

> <Gold.Version>
5.8.1

> <Gold.Id.Protein>
6NUR|6NUR_protein|mol2

> <Gold.PLP.Fitness>
41.0868

> <Gold.PLP.PLP>
-33.9296

> <Gold.PLP.part.hbond>
-3.0000

> <Gold.PLP.part.metal>
0.0000

> <Gold.PLP.part.buried>
-3.0277

> <Gold.PLP.part.nonpolar>
-28.6737

> <Gold.PLP.part.repulsive>
0.7844

> <Gold.PLP.ligand.clash>
0.0000

> <Gold.PLP.ligand.torsion>
0.2229

> <Gold.PLP.Chemscore.Hbond>
2.4680

> <Gold.PLP.Chemscore.CHOScore>
0.0000

> <Gold.PLP.Chemscore.Metal>
0.0000

> <Gold.Chemscore.Hbonds>
donor molecule, donor type, donor heavy atom, donor atom, acceptor molecule, acceptor atom, score
      L1  H     2    22       P1  7957  0.98
      P1  H  7989  7998       L1     8  0.90
      P1  H 10752 10764       L1    11  0.59

> <Gold.PLP.Chemscore.Internal.Correction>
0.1991

> <Gold.Rescore>
     Score         DG    S(hbond)    S(metal)    S(lipo)     H(rot)  DE(clash)    DE(int)     intcor
     12.63     -13.99       1.89        0.00      56.83       1.73       0.00       1.36       ----

> <Gold.Chemscore.Fitness>
12.6330

> <Gold.Chemscore.DG>
-13.9928

> <Gold.Chemscore.ZeroCoef>
-5.4800

> <Gold.Chemscore.Hbond>
1.8850

> <Gold.Chemscore.Metal>
0.0000

> <Gold.Chemscore.Lipo>
56.8286

> <Gold.Chemscore.Internal_Hbond>
0.0000

> <Gold.Chemscore.DEClash>
0.0000

> <Gold.Chemscore.DEInternal>
1.3598

> <Gold.Chemscore.Rot>
1.7313

> <Gold.Chemscore.Internal.Correction>
   9.000000E+99

> <Gold.Chemscore.Hbonds>
donor molecule, donor type, donor heavy atom, donor atom, acceptor molecule, acceptor atom, score
      L1  H     2    22       P1  7957  0.93
      P1  H  7989  7998       L1     8  0.18
      P1  H 10752 10764       L1    11  0.58

> <Gold.Chemscore.Hbond.Weighted>
-6.2959

> <Gold.Chemscore.Metal.Weighted>
-0.0000

> <Gold.Chemscore.Lipo.Weighted>
-6.6489

> <Gold.Chemscore.Internal_Hbond.Weighted>
0.0000

> <Gold.Chemscore.DEClash.Weighted>
0.0000

> <Gold.Chemscore.DEInternal.Weighted>
1.3598

> <Gold.Chemscore.Rot.Weighted>
4.4320

> <Gold.Chemscore.Internal.Correction.Weighted>
   9.000000E+99

> <Gold.Protein.RotatedTorsions>
[ 6907 6896 6895 6894 ] final  146.32 input  -60.11 | X-H torsion
[ 7974 7965 7964 7962 ] final -128.97 input  175.53 | X-H torsion
[ 8008 7997 7996 7995 ] final   88.43 input   59.86 | X-H torsion
[ 10167 10162 10161 10158 ] final   77.71 input  -65.29 | X-H torsion
[ 10718 10713 10712 10709 ] final   36.32 input   66.30 | X-H torsion
[ 10763 10752 10751 10750 ] final   -0.41 input  -60.55 | X-H torsion
[ 11005 11000 10999 10996 ] final  117.91 input  -57.11 | X-H torsion

> <Gold.Protein.ActiveResidues>
 VAL166  LYS551  ARG553  GLY616  TRP617  ASP618  TYR619  PRO620  LYS621  CYS622 
 ASP623  PHE694  ASN695  SER759  ASP760  ASP761  ALA762  ILE779  LEU786  VAL792 
 PHE793  MET794  SER795  GLU796  ALA797  LYS798  CYS799  TRP800  GLU811  SER814 

> <Gold.Protein.RotatedAtoms>
  152.1695  133.4634  159.4901 H   0  0  0  0  0  0  0  0  0  0  0  0  # atno 6907 bound_to 6896
  150.6917  134.1971  159.4317 H   0  0  0  0  0  0  0  0  0  0  0  0  # atno 6908 bound_to 6896
  151.9877  134.9995  160.0611 H   0  0  0  0  0  0  0  0  0  0  0  0  # atno 6909 bound_to 6896
  144.9618  140.7455  143.4724 H   0  0  0  0  0  0  0  0  0  0  0  0  # atno 7974 bound_to 7965
  155.9877  140.3371  155.6723 H   0  0  0  0  0  0  0  0  0  0  0  0  # atno 8008 bound_to 7997
  155.6463  140.0700  157.2620 H   0  0  0  0  0  0  0  0  0  0  0  0  # atno 8009 bound_to 7997
  154.4210  140.1733  156.1614 H   0  0  0  0  0  0  0  0  0  0  0  0  # atno 8010 bound_to 7997
  139.9787  144.5842  150.7920 H   0  0  0  0  0  0  0  0  0  0  0  0  # atno 10167 bound_to 10162
  157.3334  130.7509  149.6862 H   0  0  0  0  0  0  0  0  0  0  0  0  # atno 10718 bound_to 10713
  153.3315  135.6975  153.6944 H   0  0  0  0  0  0  0  0  0  0  0  0  # atno 10763 bound_to 10752
  153.5744  135.3510  155.2851 H   0  0  0  0  0  0  0  0  0  0  0  0  # atno 10764 bound_to 10752
  154.8619  135.4280  154.2505 H   0  0  0  0  0  0  0  0  0  0  0  0  # atno 10765 bound_to 10752
  139.9091  134.9615  156.7423 H   0  0  0  0  0  0  0  0  0  0  0  0  # atno 11005 bound_to 11000
  145.2688  139.1963  143.4852 LP  0  0  0  0  0  0  0  0  0  0  0  0  # atno 17320 bound_to 7965
  146.3355  140.2631  142.8603 LP  0  0  0  0  0  0  0  0  0  0  0  0  # atno 17321 bound_to 7965
  140.7497  143.2942  151.3248 LP  0  0  0  0  0  0  0  0  0  0  0  0  # atno 17342 bound_to 10162
  139.6426  144.0511  152.2566 LP  0  0  0  0  0  0  0  0  0  0  0  0  # atno 17343 bound_to 10162
  155.9698  130.4188  150.4347 LP  0  0  0  0  0  0  0  0  0  0  0  0  # atno 17370 bound_to 10713
  157.2383  131.0519  151.2451 LP  0  0  0  0  0  0  0  0  0  0  0  0  # atno 17371 bound_to 10713
  140.6839  133.9450  155.7926 LP  0  0  0  0  0  0  0  0  0  0  0  0  # atno 17394 bound_to 11000
  141.0490  134.0512  157.3807 LP  0  0  0  0  0  0  0  0  0  0  0  0  # atno 17395 bound_to 11000

$$$$
