#       Name:                AV-unprocessed.smi:1667
#       Creating user name   scv26
#       Creation time:       Fri Mar 27 07:39:18 2020


#       File generated by GOLD software.
#

@<TRIPOS>MOLECULE
AV-unprocessed.smi:1667
    50    52     1
SMALL
NO_CHARGES


@<TRIPOS>ATOM
      1 ****        -2.7341   4.8807  -1.0779 C.3            1 S1                 0.0000
      2 ****        -2.3687   3.4961  -0.5547 C.2            1 S1                 0.0000
      3 ****        -2.1875   3.3177   0.6493 O.2            1 S1                 0.0000
      4 ****        -2.2584   2.5238  -1.4731 N.am           1 S1                 0.0000
      5 ****        -1.9209   1.1334  -1.1837 C.3            1 S1                 0.0000
      6 ****        -2.2261   0.2573  -2.4067 C.3            1 S1                 0.0000
      7 ****        -0.4872   0.9794  -0.7672 C.2            1 S1                 0.0000
      8 ****         0.6012   1.3185  -1.5156 N.pl3          1 S1                 1.0000
      9 ****         1.7696   1.0301  -0.8116 C.ar           1 S1                 0.0000
     10 ****         3.1058   1.1911  -1.1642 C.ar           1 S1                 0.0000
     11 ****         4.0645   0.7862  -0.2128 C.ar           1 S1                 0.0000
     12 ****         3.6801   0.2478   1.0321 C.ar           1 S1                 0.0000
     13 ****         2.3220   0.0936   1.3794 C.ar           1 S1                 0.0000
     14 ****         1.3785   0.4951   0.4329 C.ar           1 S1                 0.0000
     15 ****        -0.0226   0.4858   0.4177 N.pl3          1 S1                 0.0000
     16 ****        -0.7605  -0.0280   1.5841 C.3            1 S1                 0.0000
     17 ****        -1.2674  -1.4681   1.3700 C.3            1 S1                 0.0000
     18 ****        -2.1062  -1.8065   2.4546 O.3            1 S1                 0.0000
     19 ****        -0.1289  -2.4616   1.1847 C.ar           1 S1                 0.0000
     20 ****         0.5877  -2.9563   2.2970 C.ar           1 S1                 0.0000
     21 ****         1.6565  -3.8542   2.1099 C.ar           1 S1                 0.0000
     22 ****         2.0165  -4.2608   0.8108 C.ar           1 S1                 0.0000
     23 ****         1.3073  -3.7691  -0.3017 C.ar           1 S1                 0.0000
     24 ****         1.6562  -4.1543  -1.5519 F              1 S1                 0.0000
     25 ****         0.2370  -2.8736  -0.1150 C.ar           1 S1                 0.0000
     26 ****        -2.5642   0.7957  -0.3706 H              1 S1                 0.0000
     27 ****        -1.9664   5.2438  -1.7617 H              1 S1                 0.0000
     28 ****        -2.8252   5.5938  -0.2578 H              1 S1                 0.0000
     29 ****        -3.6856   4.8497  -1.6095 H              1 S1                 0.0000
     30 ****        -2.4303   2.7619  -2.4393 H              1 S1                 0.0000
     31 ****        -2.0162  -0.7921  -2.1969 H              1 S1                 0.0000
     32 ****        -1.6278   0.5500  -3.2704 H              1 S1                 0.0000
     33 ****        -3.2765   0.3318  -2.6898 H              1 S1                 0.0000
     34 ****         3.4021   1.6017  -2.1183 H              1 S1                 0.0000
     35 ****         5.1151   0.8895  -0.4429 H              1 S1                 0.0000
     36 ****         4.4422  -0.0540   1.7358 H              1 S1                 0.0000
     37 ****         2.0449  -0.3248   2.3352 H              1 S1                 0.0000
     38 ****        -0.1421   0.0482   2.4780 H              1 S1                 0.0000
     39 ****        -1.6026   0.6449   1.7499 H              1 S1                 0.0000
     40 ****        -1.8957  -1.4943   0.4789 H              1 S1                 0.0000
     41 ****        -2.4967  -2.6495   2.2811 H              1 S1                 0.0000
     42 ****         0.3261  -2.6427   3.2972 H              1 S1                 0.0000
     43 ****         2.2020  -4.2290   2.9633 H              1 S1                 0.0000
     44 ****         2.8372  -4.9484   0.6680 H              1 S1                 0.0000
     45 ****        -0.2969  -2.4952  -0.9744 H              1 S1                 0.0000
     46 ****         0.5438   1.7164  -2.4440 H              1 S1                 0.0000
     47 ****        -2.2799   4.0820   1.2875 LP             1 S1                 0.0000
     48 ****        -1.9480   2.4084   0.9896 LP             1 S1                 0.0000
     49 ****        -2.8235  -1.1168   2.5541 LP             1 S1                 0.0000
     50 ****        -1.5678  -1.8512   3.2961 LP             1 S1                 0.0000
@<TRIPOS>BOND
    1    1    2 1     
    2    1   27 1     
    3    1   28 1     
    4    1   29 1     
    5    2    3 2     
    6    2    4 am    
    7    4    5 1     
    8    4   30 1     
    9    5   26 1     
   10    5    6 1     
   11    5    7 1     
   12    6   31 1     
   13    6   32 1     
   14    6   33 1     
   15    7   15 1     
   16    7    8 2     
   17    8    9 1     
   18    8   46 1     
   19    9   14 ar    
   20    9   10 ar    
   21   10   11 ar    
   22   10   34 1     
   23   11   12 ar    
   24   11   35 1     
   25   12   13 ar    
   26   12   36 1     
   27   13   14 ar    
   28   13   37 1     
   29   14   15 1     
   30   15   16 1     
   31   16   17 1     
   32   16   38 1     
   33   16   39 1     
   34   17   18 1     
   35   17   19 1     
   36   17   40 1     
   37   18   41 1     
   38   19   25 ar    
   39   19   20 ar    
   40   20   21 ar    
   41   20   42 1     
   42   21   22 ar    
   43   21   43 1     
   44   22   23 ar    
   45   22   44 1     
   46   23   24 1     
   47   23   25 ar    
   48   25   45 1     
   49    3   47 1     
   50    3   48 1     
   51   18   49 1     
   52   18   50 1     
@<TRIPOS>SUBSTRUCTURE
      1 S1             1
@<TRIPOS>SET
LONE_PAIRS      STATIC     ATOMS    <user>   **** ""
4 47 48 49 50
DONOR_HYDROGENS      STATIC     ATOMS    <user>   **** ""
3 30 46 41
ATOM$BLUE        STATIC     ATOMS    COLORGROUP SYSTEM
4 47 48 49 50
ATOM$RED        STATIC     ATOMS    COLORGROUP SYSTEM
3 30 46 41
