AV-unprocessed.smi:873|AV-procd|sdf|4015|dock2
  -GOLD-   22720 1503D 1   1.00000     0.00000
 Structure written by MMmdl.
 46 49  0  0  0  0  0  0  0  0  2 V2000
  146.1607  138.9173  153.6736 O   0  0  0  0  0  0  0  0  0  0  0  0
  147.0175  138.1752  153.1949 C   0  0  0  0  0  0  0  0  0  0  0  0
  148.3434  138.3087  153.3669 N   0  0  0  0  0  0  0  0  0  0  0  0
  149.0394  139.2624  154.1573 C   0  0  0  0  0  0  0  0  0  0  0  0
  148.3347  140.3747  154.6639 C   0  0  0  0  0  0  0  0  0  0  0  0
  148.9385  141.3302  155.4021 N   0  0  0  0  0  0  0  0  0  0  0  0
  150.2486  141.1857  155.6193 C   0  0  0  0  0  0  0  0  0  0  0  0
  150.9107  142.2289  156.4648 C   0  0  0  0  0  0  0  0  0  0  0  0
  151.6893  141.8447  157.7068 C   0  0  0  0  0  0  0  0  0  0  0  0
  150.3752  142.5615  157.8425 C   0  0  0  0  0  0  0  0  0  0  0  0
  151.0189  140.1793  155.1977 N   0  0  0  0  0  0  0  0  0  0  0  0
  150.4227  139.2172  154.4607 C   0  0  0  0  0  0  0  0  0  0  0  0
  146.7367  137.1274  152.4059 N   0  0  0  0  0  0  0  0  0  0  0  0
  145.4012  136.7009  151.9942 C   0  0  2  0  0  0  0  0  0  0  0  0
  144.7447  135.8721  153.1111 C   0  0  0  0  0  0  0  0  0  0  0  0
  143.3817  135.3122  152.6610 C   0  0  0  0  0  0  0  0  0  0  0  0
  143.4867  134.5258  151.4048 N   0  3  2  0  0  0  0  0  0  0  0  0
  144.1001  133.1907  151.5978 C   0  0  0  0  0  0  0  0  0  0  0  0
  144.7353  132.6293  150.3472 C   0  0  0  0  0  0  0  0  0  0  0  0
  143.4083  132.0885  150.8301 C   0  0  0  0  0  0  0  0  0  0  0  0
  144.1111  135.3072  150.3062 C   0  0  0  0  0  0  0  0  0  0  0  0
  145.4897  135.8689  150.7036 C   0  0  0  0  0  0  0  0  0  0  0  0
  148.9275  137.6715  152.8452 H   0  0  0  0  0  0  0  0  0  0  0  0
  147.2776  140.4992  154.4791 H   0  0  0  0  0  0  0  0  0  0  0  0
  151.2919  143.0475  155.8572 H   0  0  0  0  0  0  0  0  0  0  0  0
  151.7161  140.7931  157.9862 H   0  0  0  0  0  0  0  0  0  0  0  0
  152.5940  142.4081  157.9254 H   0  0  0  0  0  0  0  0  0  0  0  0
  150.3992  143.6047  158.1503 H   0  0  0  0  0  0  0  0  0  0  0  0
  149.5283  141.9862  158.2115 H   0  0  0  0  0  0  0  0  0  0  0  0
  151.0736  138.4331  154.1074 H   0  0  0  0  0  0  0  0  0  0  0  0
  147.5120  136.5824  152.0578 H   0  0  0  0  0  0  0  0  0  0  0  0
  144.7664  137.5668  151.7976 H   0  0  0  0  0  0  0  0  0  0  0  0
  145.4018  135.0527  153.4057 H   0  0  0  0  0  0  0  0  0  0  0  0
  144.6104  136.4892  154.0003 H   0  0  0  0  0  0  0  0  0  0  0  0
  142.9427  134.6998  153.4493 H   0  0  0  0  0  0  0  0  0  0  0  0
  142.6880  136.1369  152.4924 H   0  0  0  0  0  0  0  0  0  0  0  0
  144.5376  132.9867  152.5730 H   0  0  0  0  0  0  0  0  0  0  0  0
  144.7295  133.2392  149.4455 H   0  0  0  0  0  0  0  0  0  0  0  0
  145.6075  131.9904  150.4703 H   0  0  0  0  0  0  0  0  0  0  0  0
  143.4070  131.0940  151.2716 H   0  0  0  0  0  0  0  0  0  0  0  0
  142.5232  132.3401  150.2485 H   0  0  0  0  0  0  0  0  0  0  0  0
  144.1950  134.6902  149.4109 H   0  0  0  0  0  0  0  0  0  0  0  0
  143.4439  136.1308  150.0493 H   0  0  0  0  0  0  0  0  0  0  0  0
  145.8811  136.4838  149.8921 H   0  0  0  0  0  0  0  0  0  0  0  0
  146.1982  135.0499  150.8340 H   0  0  0  0  0  0  0  0  0  0  0  0
  142.5380  134.3413  151.1116 H   0  0  0  0  0  0  0  0  0  0  0  0
  1  2  2  0  0  0  0
  2  3  1  0  0  0  0
  2 13  1  0  0  0  0
  3  4  1  0  0  0  0
  3 23  1  0  0  0  0
  4 12  1  0  0  0  0
  4  5  2  0  0  0  0
  5  6  1  0  0  0  0
  5 24  1  0  0  0  0
  6  7  2  0  0  0  0
  7  8  1  0  0  0  0
  7 11  1  0  0  0  0
  8 10  1  0  0  0  0
  8  9  1  0  0  0  0
  8 25  1  0  0  0  0
  9 10  1  0  0  0  0
  9 26  1  0  0  0  0
  9 27  1  0  0  0  0
 10 28  1  0  0  0  0
 10 29  1  0  0  0  0
 11 12  2  0  0  0  0
 12 30  1  0  0  0  0
 13 14  1  0  0  0  0
 13 31  1  0  0  0  0
 14 22  1  0  0  0  0
 14 15  1  0  0  0  0
 14 32  1  0  0  0  0
 15 16  1  0  0  0  0
 15 33  1  0  0  0  0
 15 34  1  0  0  0  0
 16 17  1  0  0  0  0
 16 35  1  0  0  0  0
 16 36  1  0  0  0  0
 17 18  1  0  0  0  0
 17 21  1  0  0  0  0
 17 46  1  0  0  0  0
 18 20  1  0  0  0  0
 18 19  1  0  0  0  0
 18 37  1  0  0  0  0
 19 20  1  0  0  0  0
 19 38  1  0  0  0  0
 19 39  1  0  0  0  0
 20 40  1  0  0  0  0
 20 41  1  0  0  0  0
 21 22  1  0  0  0  0
 21 42  1  0  0  0  0
 21 43  1  0  0  0  0
 22 44  1  0  0  0  0
 22 45  1  0  0  0  0
M  CHG  1  17   1
M  END
> <s_m_source_file>
AV-unprocessed.smi

> <i_m_source_file_index>
873

> <i_lp_mmshare_version>
43012

> <i_f3d_flags>
0

> <s_epik_input>
W0NIMl0xW0NIMl1bQ0hdMU4oW0NIMl1bQ0gyXTIpW0NIMl1bQ0gyXVtDSF0yW05IXUMoPU8pW05IXWMzW2NIXW5jKG5bY0hdMylbQ0hdNFtDSDJdW0NIMl00

> <s_epik_cmdline>
J2VwaWtfcHl0aG9uJywgJy1waCcsICc3LjAnLCAnLXRuJywgJzgnLCAnLW1hJywgJzIwMCcsICctbWV0YWxfYmluZGluZycsICctaW1hZScsICc8aW5maWxlLm1hZT4nLCAnLW9tYWUnLCAnPG91dGZpbGUubWFlPic=

> <r_lp_tautomer_probability>
1

> <r_epik_Ionization_Penalty>
0.123264

> <r_epik_Ionization_Penalty_Charging>
0.123242

> <r_epik_Ionization_Penalty_Neutral>
2.24743e-05

> <r_epik_State_Penalty>
0.112739

> <r_epik_Charging_Adjusted_Penalty>
0.235981

> <i_epik_Tot_Q>
1

> <i_epik_Tot_abs_Q>
1

> <r_epik_Metal_State_Penalty>
0.112739

> <b_epik_Metal_Only>
0

> <s_lp_Force_Field>
OPLS_2005

> <r_lp_Energy>
28.8241

> <b_lp_Chiralities_Consistent>
1

> <s_lp_Variant>
AV-unprocessed.smi:873-2

> <Gold.Version>
5.8.1

> <Gold.Id.Protein>
6NUR|6NUR_protein|mol2

> <Gold.PLP.Fitness>
48.3244

> <Gold.PLP.PLP>
-37.8681

> <Gold.PLP.part.hbond>
-4.4797

> <Gold.PLP.part.metal>
0.0000

> <Gold.PLP.part.buried>
-0.8720

> <Gold.PLP.part.nonpolar>
-33.2762

> <Gold.PLP.part.repulsive>
0.6079

> <Gold.PLP.ligand.clash>
0.0022

> <Gold.PLP.ligand.torsion>
1.2636

> <Gold.PLP.Chemscore.Hbond>
3.8610

> <Gold.PLP.Chemscore.CHOScore>
0.0000

> <Gold.PLP.Chemscore.Metal>
0.0000

> <Gold.Chemscore.Hbonds>
donor molecule, donor type, donor heavy atom, donor atom, acceptor molecule, acceptor atom, score
      L1  H     3    23       P1  7948  0.93
      L1  H    13    31       P1  7948  0.88
      L1  H    17    46       P1 10186  1.03
      P1  H  7989  7998       L1    11  0.30

> <Gold.PLP.Chemscore.Internal.Correction>
1.4027

> <Gold.Rescore>
     Score         DG    S(hbond)    S(metal)    S(lipo)     H(rot)  DE(clash)    DE(int)     intcor
     17.22     -19.88       2.13        0.00      91.96       1.36       0.07       2.59       ----

> <Gold.Chemscore.Fitness>
17.2177

> <Gold.Chemscore.DG>
-19.8756

> <Gold.Chemscore.ZeroCoef>
-5.4800

> <Gold.Chemscore.Hbond>
2.1288

> <Gold.Chemscore.Metal>
0.0000

> <Gold.Chemscore.Lipo>
91.9616

> <Gold.Chemscore.Internal_Hbond>
0.0000

> <Gold.Chemscore.DEClash>
0.0723

> <Gold.Chemscore.DEInternal>
2.5856

> <Gold.Chemscore.Rot>
1.3571

> <Gold.Chemscore.Internal.Correction>
   9.000000E+99

> <Gold.Chemscore.Hbonds>
donor molecule, donor type, donor heavy atom, donor atom, acceptor molecule, acceptor atom, score
      L1  H     3    23       P1  7948  0.91
      L1  H    13    31       P1  7948  0.85
      L1  H    17    46       P1 10186  0.07

> <Gold.Chemscore.Hbond.Weighted>
-7.1103

> <Gold.Chemscore.Metal.Weighted>
-0.0000

> <Gold.Chemscore.Lipo.Weighted>
-10.7595

> <Gold.Chemscore.Internal_Hbond.Weighted>
0.0000

> <Gold.Chemscore.DEClash.Weighted>
0.0723

> <Gold.Chemscore.DEInternal.Weighted>
2.5856

> <Gold.Chemscore.Rot.Weighted>
3.4742

> <Gold.Chemscore.Internal.Correction.Weighted>
   9.000000E+99

> <Gold.Protein.RotatedTorsions>
[ 6907 6896 6895 6894 ] final  -40.26 input  -60.11 | X-H torsion
[ 7974 7965 7964 7962 ] final  151.28 input  175.53 | X-H torsion
[ 8008 7997 7996 7995 ] final -119.68 input   59.86 | X-H torsion
[ 10167 10162 10161 10158 ] final  -97.79 input  -65.29 | X-H torsion
[ 10718 10713 10712 10709 ] final  167.18 input   66.30 | X-H torsion
[ 10763 10752 10751 10750 ] final  -69.99 input  -60.55 | X-H torsion
[ 11005 11000 10999 10996 ] final  -52.52 input  -57.11 | X-H torsion

> <Gold.Protein.ActiveResidues>
 VAL166  LYS551  ARG553  GLY616  TRP617  ASP618  TYR619  PRO620  LYS621  CYS622 
 ASP623  PHE694  ASN695  SER759  ASP760  ASP761  ALA762  ILE779  LEU786  VAL792 
 PHE793  MET794  SER795  GLU796  ALA797  LYS798  CYS799  TRP800  GLU811  SER814 

> <Gold.Protein.RotatedAtoms>
  150.9805  134.9161  159.7841 H   0  0  0  0  0  0  0  0  0  0  0  0  # atno 6907 bound_to 6896
  152.5220  134.3417  159.9229 H   0  0  0  0  0  0  0  0  0  0  0  0  # atno 6908 bound_to 6896
  151.3424  133.3916  159.2707 H   0  0  0  0  0  0  0  0  0  0  0  0  # atno 6909 bound_to 6896
  144.8304  139.6517  143.6061 H   0  0  0  0  0  0  0  0  0  0  0  0  # atno 7974 bound_to 7965
  155.1196  140.0398  157.2746 H   0  0  0  0  0  0  0  0  0  0  0  0  # atno 8008 bound_to 7997
  154.6624  140.2594  155.7069 H   0  0  0  0  0  0  0  0  0  0  0  0  # atno 8009 bound_to 7997
  156.2624  140.2814  156.1101 H   0  0  0  0  0  0  0  0  0  0  0  0  # atno 8010 bound_to 7997
  140.2797  143.3290  152.0453 H   0  0  0  0  0  0  0  0  0  0  0  0  # atno 10167 bound_to 10162
  157.0552  131.0324  151.2667 H   0  0  0  0  0  0  0  0  0  0  0  0  # atno 10718 bound_to 10713
  154.4113  135.6008  153.5954 H   0  0  0  0  0  0  0  0  0  0  0  0  # atno 10763 bound_to 10752
  152.9790  135.5930  154.4067 H   0  0  0  0  0  0  0  0  0  0  0  0  # atno 10764 bound_to 10752
  154.3879  135.2841  155.2150 H   0  0  0  0  0  0  0  0  0  0  0  0  # atno 10765 bound_to 10752
  141.0929  133.6629  156.4037 H   0  0  0  0  0  0  0  0  0  0  0  0  # atno 11005 bound_to 11000
  146.2607  139.6404  142.9364 LP  0  0  0  0  0  0  0  0  0  0  0  0  # atno 17320 bound_to 7965
  145.4908  141.0438  143.2594 LP  0  0  0  0  0  0  0  0  0  0  0  0  # atno 17321 bound_to 7965
  139.4966  144.6600  151.6487 LP  0  0  0  0  0  0  0  0  0  0  0  0  # atno 17342 bound_to 10162
  140.5821  143.9927  150.6274 LP  0  0  0  0  0  0  0  0  0  0  0  0  # atno 17343 bound_to 10162
  157.4999  130.7873  149.7594 LP  0  0  0  0  0  0  0  0  0  0  0  0  # atno 17370 bound_to 10713
  155.9995  130.3888  150.2661 LP  0  0  0  0  0  0  0  0  0  0  0  0  # atno 17371 bound_to 10713
  140.5210  134.6304  157.5318 LP  0  0  0  0  0  0  0  0  0  0  0  0  # atno 17394 bound_to 11000
  139.9758  134.7217  155.9952 LP  0  0  0  0  0  0  0  0  0  0  0  0  # atno 17395 bound_to 11000

$$$$
