#       Name:                AV-unprocessed.smi:2775
#       Creating user name   scv26
#       Creation time:       Fri Mar 27 15:13:44 2020


#       File generated by GOLD software.
#

@<TRIPOS>MOLECULE
AV-unprocessed.smi:2775
    47    50     1
SMALL
NO_CHARGES


@<TRIPOS>ATOM
      1 ****        -5.5325   1.8974  -0.2848 C.3            1 S1                 0.0000
      2 ****        -4.8165   0.5986   0.0348 C.ar           1 S1                 0.0000
      3 ****        -5.5987  -0.4023   0.4943 N.ar           1 S1                 0.0000
      4 ****        -5.0135  -1.5813   0.7880 C.ar           1 S1                 0.0000
      5 ****        -3.6325  -1.8167   0.6485 C.ar           1 S1                 0.0000
      6 ****        -2.8070  -0.7646   0.1844 C.ar           1 S1                 0.0000
      7 ****        -1.4031  -0.8924  -0.0047 N.am           1 S1                 0.0000
      8 ****        -0.5409  -1.7457   0.5820 C.2            1 S1                 0.0000
      9 ****        -0.8548  -2.6393   1.3651 O.2            1 S1                 0.0000
     10 ****         0.7436  -1.5337   0.2483 N.am           1 S1                 0.0000
     11 ****         1.9201  -2.2828   0.7108 C.3            1 S1                 0.0000
     12 ****         2.1561  -3.6076  -0.0279 C.3            1 S1                 0.0000
     13 ****         1.3068  -4.5715  -0.7746 C.3            1 S1                 0.0000
     14 ****         2.3191  -4.8820  -1.9060 C.3            1 S1                 0.0000
     15 ****         3.4062  -3.9378  -1.7339 O.3            1 S1                 0.0000
     16 ****         2.8004  -2.8017  -1.1444 C.3            1 S1                 0.0000
     17 ****         3.2441  -1.8639  -0.0066 C.3            1 S1                 0.0000
     18 ****         3.5974  -0.3970  -0.2817 C.3            1 S1                 0.0000
     19 ****         5.0739  -0.7748  -0.1246 C.3            1 S1                 0.0000
     20 ****         4.6269  -2.0214   0.6461 C.3            1 S1                 0.0000
     21 ****        -3.4195   0.4675  -0.1449 C.ar           1 S1                 0.0000
     22 ****        -2.4792   1.7903  -0.7503 Cl             1 S1                 0.0000
     23 ****        -5.1200   2.7132   0.3094 H              1 S1                 0.0000
     24 ****        -6.5999   1.8305  -0.0693 H              1 S1                 0.0000
     25 ****        -5.4155   2.1454  -1.3399 H              1 S1                 0.0000
     26 ****        -5.6676  -2.3649   1.1407 H              1 S1                 0.0000
     27 ****        -3.2426  -2.7937   0.8873 H              1 S1                 0.0000
     28 ****        -0.9831  -0.1767  -0.5798 H              1 S1                 0.0000
     29 ****         0.9263  -0.7797  -0.3983 H              1 S1                 0.0000
     30 ****         2.0180  -2.3486   1.7955 H              1 S1                 0.0000
     31 ****         2.9000  -4.1699   0.5486 H              1 S1                 0.0000
     32 ****         1.0493  -5.4543  -0.1895 H              1 S1                 0.0000
     33 ****         0.3948  -4.1122  -1.1571 H              1 S1                 0.0000
     34 ****         2.7030  -5.9007  -1.8428 H              1 S1                 0.0000
     35 ****         1.8562  -4.7537  -2.8852 H              1 S1                 0.0000
     36 ****         2.0858  -2.3315  -1.8265 H              1 S1                 0.0000
     37 ****         3.3214  -0.0377  -1.2736 H              1 S1                 0.0000
     38 ****         3.2488   0.2743   0.5046 H              1 S1                 0.0000
     39 ****         5.5494  -1.0169  -1.0765 H              1 S1                 0.0000
     40 ****         5.6663  -0.0669   0.4556 H              1 S1                 0.0000
     41 ****         4.6039  -1.8642   1.7254 H              1 S1                 0.0000
     42 ****         5.1608  -2.9346   0.3810 H              1 S1                 0.0000
     43 ****        -6.5831  -0.2728   0.6133 LP             1 S1                 0.0000
     44 ****        -1.8147  -2.7748   1.6104 LP             1 S1                 0.0000
     45 ****        -0.1503  -3.2309   1.7571 LP             1 S1                 0.0000
     46 ****         3.8134  -3.7031  -2.6165 LP             1 S1                 0.0000
     47 ****         4.1099  -4.3152  -1.1320 LP             1 S1                 0.0000
@<TRIPOS>BOND
    1    1    2 1     
    2    1   23 1     
    3    1   24 1     
    4    1   25 1     
    5    2   21 ar    
    6    2    3 ar    
    7    3    4 ar    
    8    4    5 ar    
    9    4   26 1     
   10    5    6 ar    
   11    5   27 1     
   12    6    7 1     
   13    6   21 ar    
   14    7    8 am    
   15    7   28 1     
   16    8    9 2     
   17    8   10 am    
   18   10   11 1     
   19   10   29 1     
   20   11   17 1     
   21   11   12 1     
   22   11   30 1     
   23   12   16 1     
   24   12   13 1     
   25   12   31 1     
   26   13   14 1     
   27   13   32 1     
   28   13   33 1     
   29   14   15 1     
   30   14   34 1     
   31   14   35 1     
   32   15   16 1     
   33   16   17 1     
   34   16   36 1     
   35   17   20 1     
   36   17   18 1     
   37   18   19 1     
   38   18   37 1     
   39   18   38 1     
   40   19   20 1     
   41   19   39 1     
   42   19   40 1     
   43   20   41 1     
   44   20   42 1     
   45   21   22 1     
   46    3   43 1     
   47    9   44 1     
   48    9   45 1     
   49   15   46 1     
   50   15   47 1     
@<TRIPOS>SUBSTRUCTURE
      1 S1             1
@<TRIPOS>SET
LONE_PAIRS      STATIC     ATOMS    <user>   **** ""
5 43 44 45 46 47
DONOR_HYDROGENS      STATIC     ATOMS    <user>   **** ""
2 28 29
ATOM$BLUE        STATIC     ATOMS    COLORGROUP SYSTEM
5 43 44 45 46 47
ATOM$RED        STATIC     ATOMS    COLORGROUP SYSTEM
2 28 29
