AV-unprocessed.smi:1869|AV-procd|sdf|7592|dock6
  -GOLD-   22720 9303D 1   1.00000     0.00000
 Structure written by MMmdl.
 39 40  0  0  0  0  0  0  0  0  1 V2000
  145.7591  136.5613  151.7032 C   0  0  0  0  0  0  0  0  0  0  0  0
  146.1738  137.5308  152.6493 O   0  0  0  0  0  0  0  0  0  0  0  0
  146.7093  138.6926  152.0377 C   0  0  0  0  0  0  0  0  0  0  0  0
  147.3365  139.5836  153.1142 C   0  0  0  0  0  0  0  0  0  0  0  0
  148.4841  138.9259  153.6431 O   0  0  0  0  0  0  0  0  0  0  0  0
  149.2585  139.5936  154.5693 C   0  0  0  0  0  0  0  0  0  0  0  0
  150.5122  139.0512  154.9145 C   0  0  0  0  0  0  0  0  0  0  0  0
  151.3114  139.7272  155.8561 C   0  0  0  0  0  0  0  0  0  0  0  0
  150.8322  140.9342  156.4179 C   0  0  0  0  0  0  0  0  0  0  0  0
  151.5348  141.6966  157.3894 N   0  0  0  0  0  0  0  0  0  0  0  0
  152.5075  141.2953  158.2320 C   0  0  0  0  0  0  0  0  0  0  0  0
  152.9429  140.1437  158.2607 O   0  0  0  0  0  0  0  0  0  0  0  0
  152.9853  142.2771  159.0404 N   0  0  0  0  0  0  0  0  0  0  0  0
  153.5846  142.0912  160.3729 C   0  0  0  0  0  0  0  0  0  0  0  0
  152.5152  142.3551  161.4457 C   0  0  0  0  0  0  0  0  0  0  0  0
  151.9283  144.0765  161.3687 S   0  0  0  0  0  0  0  0  0  0  0  0
  151.5696  144.1997  159.5881 C   0  0  0  0  0  0  0  0  0  0  0  0
  152.7564  143.6976  158.7481 C   0  0  0  0  0  0  0  0  0  0  0  0
  149.5561  141.3830  156.0199 C   0  0  0  0  0  0  0  0  0  0  0  0
  148.7855  140.7404  155.1173 N   0  0  0  0  0  0  0  0  0  0  0  0
  145.3611  135.6897  152.2229 H   0  0  0  0  0  0  0  0  0  0  0  0
  146.5938  136.2314  151.0831 H   0  0  0  0  0  0  0  0  0  0  0  0
  144.9743  136.9537  151.0550 H   0  0  0  0  0  0  0  0  0  0  0  0
  147.4754  138.3974  151.3192 H   0  0  0  0  0  0  0  0  0  0  0  0
  145.9392  139.2389  151.4908 H   0  0  0  0  0  0  0  0  0  0  0  0
  147.5935  140.5572  152.6932 H   0  0  0  0  0  0  0  0  0  0  0  0
  146.6112  139.7438  153.9135 H   0  0  0  0  0  0  0  0  0  0  0  0
  150.8542  138.1296  154.4669 H   0  0  0  0  0  0  0  0  0  0  0  0
  152.2627  139.3022  156.1364 H   0  0  0  0  0  0  0  0  0  0  0  0
  151.3257  142.6842  157.3987 H   0  0  0  0  0  0  0  0  0  0  0  0
  154.0198  141.1018  160.5138 H   0  0  0  0  0  0  0  0  0  0  0  0
  154.4188  142.7820  160.5043 H   0  0  0  0  0  0  0  0  0  0  0  0
  151.6674  141.6817  161.3135 H   0  0  0  0  0  0  0  0  0  0  0  0
  152.9200  142.1686  162.4405 H   0  0  0  0  0  0  0  0  0  0  0  0
  150.6732  143.6197  159.3649 H   0  0  0  0  0  0  0  0  0  0  0  0
  151.3452  145.2389  159.3475 H   0  0  0  0  0  0  0  0  0  0  0  0
  153.6515  144.2786  158.9747 H   0  0  0  0  0  0  0  0  0  0  0  0
  152.5613  143.8731  157.6892 H   0  0  0  0  0  0  0  0  0  0  0  0
  149.1408  142.2904  156.4338 H   0  0  0  0  0  0  0  0  0  0  0  0
  1  2  1  0  0  0  0
  1 21  1  0  0  0  0
  1 22  1  0  0  0  0
  1 23  1  0  0  0  0
  2  3  1  0  0  0  0
  3  4  1  0  0  0  0
  3 24  1  0  0  0  0
  3 25  1  0  0  0  0
  4  5  1  0  0  0  0
  4 26  1  0  0  0  0
  4 27  1  0  0  0  0
  5  6  1  0  0  0  0
  6 20  1  0  0  0  0
  6  7  2  0  0  0  0
  7  8  1  0  0  0  0
  7 28  1  0  0  0  0
  8  9  2  0  0  0  0
  8 29  1  0  0  0  0
  9 10  1  0  0  0  0
  9 19  1  0  0  0  0
 10 11  1  0  0  0  0
 10 30  1  0  0  0  0
 11 12  2  0  0  0  0
 11 13  1  0  0  0  0
 13 18  1  0  0  0  0
 13 14  1  0  0  0  0
 14 15  1  0  0  0  0
 14 31  1  0  0  0  0
 14 32  1  0  0  0  0
 15 16  1  0  0  0  0
 15 33  1  0  0  0  0
 15 34  1  0  0  0  0
 16 17  1  0  0  0  0
 17 18  1  0  0  0  0
 17 35  1  0  0  0  0
 17 36  1  0  0  0  0
 18 37  1  0  0  0  0
 18 38  1  0  0  0  0
 19 20  2  0  0  0  0
 19 39  1  0  0  0  0
M  END
> <s_m_source_file>
AV-unprocessed.smi

> <i_m_source_file_index>
1869

> <i_lp_mmshare_version>
43012

> <i_f3d_flags>
0

> <s_epik_input>
W0NIM11PW0NIMl1bQ0gyXU9jMVtjSF1bY0hdYyhbY0hdbjEpW05IXUMoPU8pTjJbQ0gyXVtDSDJdU1tDSDJdW0NIMl0y

> <s_epik_cmdline>
J2VwaWtfcHl0aG9uJywgJy1waCcsICc3LjAnLCAnLXRuJywgJzgnLCAnLW1hJywgJzIwMCcsICctbWV0YWxfYmluZGluZycsICctaW1hZScsICc8aW5maWxlLm1hZT4nLCAnLW9tYWUnLCAnPG91dGZpbGUubWFlPic=

> <r_lp_tautomer_probability>
1

> <r_epik_Ionization_Penalty>
6.51674e-05

> <r_epik_Ionization_Penalty_Charging>
0

> <r_epik_Ionization_Penalty_Neutral>
6.51674e-05

> <r_epik_State_Penalty>
-0

> <r_epik_Charging_Adjusted_Penalty>
0

> <i_epik_Tot_Q>
0

> <i_epik_Tot_abs_Q>
0

> <r_epik_Metal_State_Penalty>
-0

> <b_epik_Metal_Only>
0

> <s_lp_Force_Field>
OPLS_2005

> <r_lp_Energy>
28.6984

> <b_lp_Chiralities_Consistent>
1

> <s_lp_Variant>
AV-unprocessed.smi:1869-1

> <Gold.Version>
5.8.1

> <Gold.Id.Protein>
6NUR|6NUR_protein|mol2

> <Gold.PLP.Fitness>
45.9201

> <Gold.PLP.PLP>
-42.3454

> <Gold.PLP.part.hbond>
-1.0000

> <Gold.PLP.part.metal>
0.0000

> <Gold.PLP.part.buried>
-4.0656

> <Gold.PLP.part.nonpolar>
-38.3948

> <Gold.PLP.part.repulsive>
1.8002

> <Gold.PLP.ligand.clash>
1.4527

> <Gold.PLP.ligand.torsion>
0.5015

> <Gold.PLP.Chemscore.Hbond>
0.9920

> <Gold.PLP.Chemscore.CHOScore>
1.0000

> <Gold.PLP.Chemscore.Metal>
0.0000

> <Gold.Chemscore.Hbonds>
donor molecule, donor type, donor heavy atom, donor atom, acceptor molecule, acceptor atom, score
      P1  H  7997  8009       L1    12  0.94
      L1  C    19    39       P1  8028  0.92

> <Gold.PLP.Chemscore.Internal.Correction>
0.0545

> <Gold.Rescore>
     Score         DG    S(hbond)    S(metal)    S(lipo)     H(rot)  DE(clash)    DE(int)     intcor
     14.64     -16.30       0.83        0.00     103.94       1.61       0.01       1.64       ----

> <Gold.Chemscore.Fitness>
14.6445

> <Gold.Chemscore.DG>
-16.2974

> <Gold.Chemscore.ZeroCoef>
-5.4800

> <Gold.Chemscore.Hbond>
0.8302

> <Gold.Chemscore.Metal>
0.0000

> <Gold.Chemscore.Lipo>
103.9364

> <Gold.Chemscore.Internal_Hbond>
0.0000

> <Gold.Chemscore.DEClash>
0.0089

> <Gold.Chemscore.DEInternal>
1.6440

> <Gold.Chemscore.Rot>
1.6078

> <Gold.Chemscore.Internal.Correction>
   9.000000E+99

> <Gold.Chemscore.Hbonds>
donor molecule, donor type, donor heavy atom, donor atom, acceptor molecule, acceptor atom, score
      P1  H  7997  8009       L1    12  0.55

> <Gold.Chemscore.Hbond.Weighted>
-2.7729

> <Gold.Chemscore.Metal.Weighted>
-0.0000

> <Gold.Chemscore.Lipo.Weighted>
-12.1606

> <Gold.Chemscore.Internal_Hbond.Weighted>
0.0000

> <Gold.Chemscore.DEClash.Weighted>
0.0089

> <Gold.Chemscore.DEInternal.Weighted>
1.6440

> <Gold.Chemscore.Rot.Weighted>
4.1161

> <Gold.Chemscore.Internal.Correction.Weighted>
   9.000000E+99

> <Gold.Protein.RotatedTorsions>
[ 6907 6896 6895 6894 ] final   98.88 input  -60.11 | X-H torsion
[ 7974 7965 7964 7962 ] final -177.53 input  175.53 | X-H torsion
[ 8008 7997 7996 7995 ] final  156.27 input   59.86 | X-H torsion
[ 10167 10162 10161 10158 ] final  145.54 input  -65.29 | X-H torsion
[ 10718 10713 10712 10709 ] final  109.94 input   66.30 | X-H torsion
[ 10763 10752 10751 10750 ] final   33.96 input  -60.55 | X-H torsion
[ 11005 11000 10999 10996 ] final -136.86 input  -57.11 | X-H torsion

> <Gold.Protein.ActiveResidues>
 VAL166  LYS551  ARG553  GLY616  TRP617  ASP618  TYR619  PRO620  LYS621  CYS622 
 ASP623  PHE694  ASN695  SER759  ASP760  ASP761  ALA762  ILE779  LEU786  VAL792 
 PHE793  MET794  SER795  GLU796  ALA797  LYS798  CYS799  TRP800  GLU811  SER814 

> <Gold.Protein.RotatedAtoms>
  152.5402  134.0513  159.8110 H   0  0  0  0  0  0  0  0  0  0  0  0  # atno 6907 bound_to 6896
  151.0654  133.5502  159.2638 H   0  0  0  0  0  0  0  0  0  0  0  0  # atno 6908 bound_to 6896
  151.2385  135.0588  159.9069 H   0  0  0  0  0  0  0  0  0  0  0  0  # atno 6909 bound_to 6896
  144.7128  140.1005  143.6416 H   0  0  0  0  0  0  0  0  0  0  0  0  # atno 7974 bound_to 7965
  156.2432  140.1917  156.6929 H   0  0  0  0  0  0  0  0  0  0  0  0  # atno 8008 bound_to 7997
  154.6238  140.0605  156.9674 H   0  0  0  0  0  0  0  0  0  0  0  0  # atno 8009 bound_to 7997
  155.1819  140.3277  155.4376 H   0  0  0  0  0  0  0  0  0  0  0  0  # atno 8010 bound_to 7997
  139.4924  144.5894  151.6711 H   0  0  0  0  0  0  0  0  0  0  0  0  # atno 10167 bound_to 10162
  157.6518  131.0923  150.6528 H   0  0  0  0  0  0  0  0  0  0  0  0  # atno 10718 bound_to 10713
  153.0187  135.6373  154.1593 H   0  0  0  0  0  0  0  0  0  0  0  0  # atno 10763 bound_to 10752
  154.1330  135.2839  155.3182 H   0  0  0  0  0  0  0  0  0  0  0  0  # atno 10764 bound_to 10752
  154.6180  135.5534  153.7606 H   0  0  0  0  0  0  0  0  0  0  0  0  # atno 10765 bound_to 10752
  140.8765  134.1985  157.4618 H   0  0  0  0  0  0  0  0  0  0  0  0  # atno 11005 bound_to 11000
  145.9542  139.2755  143.1194 LP  0  0  0  0  0  0  0  0  0  0  0  0  # atno 17320 bound_to 7965
  145.9290  140.9062  143.0366 LP  0  0  0  0  0  0  0  0  0  0  0  0  # atno 17321 bound_to 7965
  140.5518  144.0413  150.6130 LP  0  0  0  0  0  0  0  0  0  0  0  0  # atno 17342 bound_to 10162
  140.3469  143.2986  152.0528 LP  0  0  0  0  0  0  0  0  0  0  0  0  # atno 17343 bound_to 10162
  156.6839  130.4575  149.5619 LP  0  0  0  0  0  0  0  0  0  0  0  0  # atno 17370 bound_to 10713
  156.1909  130.6559  151.1061 LP  0  0  0  0  0  0  0  0  0  0  0  0  # atno 17371 bound_to 10713
  139.8716  134.9798  156.5051 LP  0  0  0  0  0  0  0  0  0  0  0  0  # atno 17394 bound_to 11000
  140.8512  133.8131  155.9170 LP  0  0  0  0  0  0  0  0  0  0  0  0  # atno 17395 bound_to 11000

$$$$
