AV-unprocessed.smi:3249|AV-procd|sdf|12421|dock10
  -GOLD-   2272018303D 1   1.00000     0.00000
 Structure written by MMmdl.
 44 45  0  0  0  0  0  0  0  0  2 V2000
  146.9372  139.0384  152.7239 C   0  0  0  0  0  0  0  0  0  0  0  0
  147.6638  140.0429  153.5712 C   0  0  0  0  0  0  0  0  0  0  0  0
  147.2757  141.3794  153.8714 C   0  0  0  0  0  0  0  0  0  0  0  0
  148.1431  142.0031  154.6515 N   0  0  0  0  0  0  0  0  0  0  0  0
  149.1162  141.0940  154.8748 N   0  0  0  0  0  0  0  0  0  0  0  0
  150.2511  141.4423  155.7201 C   0  0  2  0  0  0  0  0  0  0  0  0
  151.2772  140.2942  155.7137 C   0  0  0  0  0  0  0  0  0  0  0  0
  149.8010  141.8489  157.1485 C   0  0  2  0  0  0  0  0  0  0  0  0
  148.3035  141.6009  157.4051 C   0  0  0  0  0  0  0  0  0  0  0  0
  150.0950  143.2784  157.3946 N   0  3  0  0  0  0  0  0  0  0  0  0
  151.5081  143.6652  157.2044 C   0  0  0  0  0  0  0  0  0  0  0  0
  152.2089  143.8695  158.5541 C   0  0  1  0  0  0  0  0  0  0  0  0
  151.3976  144.7892  159.4871 C   0  0  0  0  0  0  0  0  0  0  0  0
  152.0692  144.8923  160.8610 C   0  0  0  0  0  0  0  0  0  0  0  0
  152.3152  143.4880  161.4224 C   0  0  0  0  0  0  0  0  0  0  0  0
  153.0707  142.6274  160.3976 C   0  0  0  0  0  0  0  0  0  0  0  0
  152.3491  142.5906  159.1698 O   0  0  0  0  0  0  0  0  0  0  0  0
  148.8483  139.8997  154.2358 C   0  0  0  0  0  0  0  0  0  0  0  0
  146.0126  139.4456  152.3139 H   0  0  0  0  0  0  0  0  0  0  0  0
  146.6712  138.1488  153.2950 H   0  0  0  0  0  0  0  0  0  0  0  0
  147.5445  138.7101  151.8803 H   0  0  0  0  0  0  0  0  0  0  0  0
  146.3932  141.9111  153.5474 H   0  0  0  0  0  0  0  0  0  0  0  0
  150.7365  142.3089  155.2660 H   0  0  0  0  0  0  0  0  0  0  0  0
  152.2018  140.5815  156.2145 H   0  0  0  0  0  0  0  0  0  0  0  0
  151.5402  140.0115  154.6937 H   0  0  0  0  0  0  0  0  0  0  0  0
  150.8894  139.4067  156.2146 H   0  0  0  0  0  0  0  0  0  0  0  0
  150.3504  141.2420  157.8707 H   0  0  0  0  0  0  0  0  0  0  0  0
  148.0506  140.5423  157.3436 H   0  0  0  0  0  0  0  0  0  0  0  0
  147.6845  142.1329  156.6818 H   0  0  0  0  0  0  0  0  0  0  0  0
  148.0159  141.9387  158.4012 H   0  0  0  0  0  0  0  0  0  0  0  0
  149.5221  143.8319  156.7731 H   0  0  0  0  0  0  0  0  0  0  0  0
  152.0082  142.8777  156.6391 H   0  0  0  0  0  0  0  0  0  0  0  0
  151.5710  144.5774  156.6097 H   0  0  0  0  0  0  0  0  0  0  0  0
  153.1958  144.3044  158.3846 H   0  0  0  0  0  0  0  0  0  0  0  0
  151.2968  145.7820  159.0475 H   0  0  0  0  0  0  0  0  0  0  0  0
  150.3870  144.3960  159.6051 H   0  0  0  0  0  0  0  0  0  0  0  0
  153.0178  145.4228  160.7677 H   0  0  0  0  0  0  0  0  0  0  0  0
  151.4501  145.4731  161.5454 H   0  0  0  0  0  0  0  0  0  0  0  0
  152.8771  143.5469  162.3551 H   0  0  0  0  0  0  0  0  0  0  0  0
  151.3611  143.0160  161.6604 H   0  0  0  0  0  0  0  0  0  0  0  0
  154.0769  143.0141  160.2294 H   0  0  0  0  0  0  0  0  0  0  0  0
  153.1797  141.6094  160.7721 H   0  0  0  0  0  0  0  0  0  0  0  0
  149.5160  139.0536  154.3050 H   0  0  0  0  0  0  0  0  0  0  0  0
  149.8355  143.4977  158.3459 H   0  0  0  0  0  0  0  0  0  0  0  0
  1  2  1  0  0  0  0
  1 19  1  0  0  0  0
  1 20  1  0  0  0  0
  1 21  1  0  0  0  0
  2 18  2  0  0  0  0
  2  3  1  0  0  0  0
  3  4  2  0  0  0  0
  3 22  1  0  0  0  0
  4  5  1  0  0  0  0
  5  6  1  0  0  0  0
  5 18  1  0  0  0  0
  6  7  1  0  0  0  0
  6  8  1  0  0  0  0
  6 23  1  0  0  0  0
  7 24  1  0  0  0  0
  7 25  1  0  0  0  0
  7 26  1  0  0  0  0
  8  9  1  0  0  0  0
  8 10  1  0  0  0  0
  8 27  1  0  0  0  0
  9 28  1  0  0  0  0
  9 29  1  0  0  0  0
  9 30  1  0  0  0  0
 10 11  1  0  0  0  0
 10 31  1  0  0  0  0
 10 44  1  0  0  0  0
 11 12  1  0  0  0  0
 11 32  1  0  0  0  0
 11 33  1  0  0  0  0
 12 17  1  0  0  0  0
 12 13  1  0  0  0  0
 12 34  1  0  0  0  0
 13 14  1  0  0  0  0
 13 35  1  0  0  0  0
 13 36  1  0  0  0  0
 14 15  1  0  0  0  0
 14 37  1  0  0  0  0
 14 38  1  0  0  0  0
 15 16  1  0  0  0  0
 15 39  1  0  0  0  0
 15 40  1  0  0  0  0
 16 17  1  0  0  0  0
 16 41  1  0  0  0  0
 16 42  1  0  0  0  0
 18 43  1  0  0  0  0
M  CHG  1  10   1
M  END
> <s_m_source_file>
AV-unprocessed.smi

> <i_m_source_file_index>
3249

> <i_lp_mmshare_version>
43012

> <i_f3d_flags>
0

> <s_epik_input>
W0NIM11jMVtjSF1ubihbY0hdMSlbQ0BIXShbQ0gzXSlbQ0BIXShbQ0gzXSlbTkhdW0NIMl1bQ0BASF0yW0NIMl1bQ0gyXVtDSDJdW0NIMl1PMg==

> <s_epik_cmdline>
J2VwaWtfcHl0aG9uJywgJy1waCcsICc3LjAnLCAnLXRuJywgJzgnLCAnLW1hJywgJzIwMCcsICctbWV0YWxfYmluZGluZycsICctaW1hZScsICc8aW5maWxlLm1hZT4nLCAnLW9tYWUnLCAnPG91dGZpbGUubWFlPic=

> <r_lp_tautomer_probability>
1

> <r_epik_Ionization_Penalty>
0.00659207

> <r_epik_Ionization_Penalty_Charging>
0.00656881

> <r_epik_Ionization_Penalty_Neutral>
2.32662e-05

> <r_epik_State_Penalty>
0.0048654

> <r_epik_Charging_Adjusted_Penalty>
0.0114342

> <i_epik_Tot_Q>
1

> <i_epik_Tot_abs_Q>
1

> <r_epik_Metal_State_Penalty>
-0

> <b_epik_Metal_Only>
0

> <s_lp_Force_Field>
OPLS_2005

> <r_lp_Energy>
18.8744

> <b_lp_Chiralities_Consistent>
1

> <s_lp_Variant>
AV-unprocessed.smi:3249-5

> <Gold.Version>
5.8.1

> <Gold.Id.Protein>
6NUR|6NUR_protein|mol2

> <Gold.PLP.Fitness>
46.5820

> <Gold.PLP.PLP>
-44.2015

> <Gold.PLP.part.hbond>
-1.0000

> <Gold.PLP.part.metal>
0.0000

> <Gold.PLP.part.buried>
-3.1233

> <Gold.PLP.part.nonpolar>
-40.0807

> <Gold.PLP.part.repulsive>
1.2388

> <Gold.PLP.ligand.clash>
0.0000

> <Gold.PLP.ligand.torsion>
1.8742

> <Gold.PLP.Chemscore.Hbond>
2.0000

> <Gold.PLP.Chemscore.CHOScore>
0.0000

> <Gold.PLP.Chemscore.Metal>
0.0000

> <Gold.Chemscore.Hbonds>
donor molecule, donor type, donor heavy atom, donor atom, acceptor molecule, acceptor atom, score
      L1  H    10    31       P1  8028  2.00

> <Gold.PLP.Chemscore.Internal.Correction>
0.1289

> <Gold.Rescore>
     Score         DG    S(hbond)    S(metal)    S(lipo)     H(rot)  DE(clash)    DE(int)     intcor
     15.36     -19.04       0.97        0.00     121.77       1.53       0.30       3.38       ----

> <Gold.Chemscore.Fitness>
15.3566

> <Gold.Chemscore.DG>
-19.0390

> <Gold.Chemscore.ZeroCoef>
-5.4800

> <Gold.Chemscore.Hbond>
0.9691

> <Gold.Chemscore.Metal>
0.0000

> <Gold.Chemscore.Lipo>
121.7729

> <Gold.Chemscore.Internal_Hbond>
0.0000

> <Gold.Chemscore.DEClash>
0.3011

> <Gold.Chemscore.DEInternal>
3.3813

> <Gold.Chemscore.Rot>
1.5333

> <Gold.Chemscore.Internal.Correction>
   9.000000E+99

> <Gold.Chemscore.Hbonds>
donor molecule, donor type, donor heavy atom, donor atom, acceptor molecule, acceptor atom, score
      L1  H    10    31       P1  8028  0.90

> <Gold.Chemscore.Hbond.Weighted>
-3.2368

> <Gold.Chemscore.Metal.Weighted>
-0.0000

> <Gold.Chemscore.Lipo.Weighted>
-14.2474

> <Gold.Chemscore.Internal_Hbond.Weighted>
0.0000

> <Gold.Chemscore.DEClash.Weighted>
0.3011

> <Gold.Chemscore.DEInternal.Weighted>
3.3813

> <Gold.Chemscore.Rot.Weighted>
3.9252

> <Gold.Chemscore.Internal.Correction.Weighted>
   9.000000E+99

> <Gold.Protein.RotatedTorsions>
[ 6907 6896 6895 6894 ] final  -54.21 input  -60.11 | X-H torsion
[ 7974 7965 7964 7962 ] final  110.34 input  175.53 | X-H torsion
[ 8008 7997 7996 7995 ] final   -8.01 input   59.86 | X-H torsion
[ 10167 10162 10161 10158 ] final   66.73 input  -65.29 | X-H torsion
[ 10718 10713 10712 10709 ] final  -95.11 input   66.30 | X-H torsion
[ 10763 10752 10751 10750 ] final  126.26 input  -60.55 | X-H torsion
[ 11005 11000 10999 10996 ] final  -81.14 input  -57.11 | X-H torsion

> <Gold.Protein.ActiveResidues>
 VAL166  LYS551  ARG553  GLY616  TRP617  ASP618  TYR619  PRO620  LYS621  CYS622 
 ASP623  PHE694  ASN695  SER759  ASP760  ASP761  ALA762  ILE779  LEU786  VAL792 
 PHE793  MET794  SER795  GLU796  ALA797  LYS798  CYS799  TRP800  GLU811  SER814 

> <Gold.Protein.RotatedAtoms>
  150.8358  134.7631  159.6891 H   0  0  0  0  0  0  0  0  0  0  0  0  # atno 6907 bound_to 6896
  152.4455  134.5500  159.9873 H   0  0  0  0  0  0  0  0  0  0  0  0  # atno 6908 bound_to 6896
  151.5650  133.3360  159.3014 H   0  0  0  0  0  0  0  0  0  0  0  0  # atno 6909 bound_to 6896
  145.2563  139.2720  143.4041 H   0  0  0  0  0  0  0  0  0  0  0  0  # atno 7974 bound_to 7965
  154.5782  140.2392  155.8092 H   0  0  0  0  0  0  0  0  0  0  0  0  # atno 8008 bound_to 7997
  156.2159  140.3012  155.9795 H   0  0  0  0  0  0  0  0  0  0  0  0  # atno 8009 bound_to 7997
  155.2588  140.0413  157.2985 H   0  0  0  0  0  0  0  0  0  0  0  0  # atno 8010 bound_to 7997
  140.0972  144.4936  150.7060 H   0  0  0  0  0  0  0  0  0  0  0  0  # atno 10167 bound_to 10162
  156.0038  130.5095  150.6027 H   0  0  0  0  0  0  0  0  0  0  0  0  # atno 10718 bound_to 10713
  153.6905  135.3299  155.3201 H   0  0  0  0  0  0  0  0  0  0  0  0  # atno 10763 bound_to 10752
  154.8441  135.4430  154.1513 H   0  0  0  0  0  0  0  0  0  0  0  0  # atno 10764 bound_to 10752
  153.2554  135.6985  153.7712 H   0  0  0  0  0  0  0  0  0  0  0  0  # atno 10765 bound_to 10752
  141.1667  133.7182  156.8377 H   0  0  0  0  0  0  0  0  0  0  0  0  # atno 11005 bound_to 11000
  146.3288  140.2968  142.8618 LP  0  0  0  0  0  0  0  0  0  0  0  0  # atno 17320 bound_to 7965
  144.9458  140.8127  143.5602 LP  0  0  0  0  0  0  0  0  0  0  0  0  # atno 17321 bound_to 7965
  140.6997  143.2427  151.4899 LP  0  0  0  0  0  0  0  0  0  0  0  0  # atno 17342 bound_to 10162
  139.5691  144.1970  152.1810 LP  0  0  0  0  0  0  0  0  0  0  0  0  # atno 17343 bound_to 10162
  157.3873  131.0790  151.1425 LP  0  0  0  0  0  0  0  0  0  0  0  0  # atno 17370 bound_to 10713
  157.2128  130.6445  149.5780 LP  0  0  0  0  0  0  0  0  0  0  0  0  # atno 17371 bound_to 10713
  140.2005  134.8900  157.3164 LP  0  0  0  0  0  0  0  0  0  0  0  0  # atno 17394 bound_to 11000
  140.2192  134.4044  155.7574 LP  0  0  0  0  0  0  0  0  0  0  0  0  # atno 17395 bound_to 11000

$$$$
