#       Name:                AV-unprocessed.smi:1031
#       Creating user name   scv26
#       Creation time:       Fri Mar 27 02:45:55 2020


#       File generated by GOLD software.
#

@<TRIPOS>MOLECULE
AV-unprocessed.smi:1031
    38    39     1
SMALL
NO_CHARGES


@<TRIPOS>ATOM
      1 ****         0.0250  -2.9055   1.6343 C.3            1 S1                 0.0000
      2 ****         0.5053  -2.0824   0.4288 C.3            1 S1                 0.0000
      3 ****         2.0058  -2.3044   0.1559 C.3            1 S1                 0.0000
      4 ****         2.4516  -1.6492  -1.0611 N.pl3          1 S1                 0.0000
      5 ****         3.1850  -0.4885  -1.1911 C.2            1 S1                 0.0000
      6 ****         3.3577  -0.2648  -2.5270 C.2            1 S1                 0.0000
      7 ****         2.6866  -1.3585  -3.1422 C.2            1 S1                 0.0000
      8 ****         2.1468  -2.1861  -2.2623 N.2            1 S1                 0.0000
      9 ****         0.2437  -0.6630   0.6603 N.am           1 S1                 0.0000
     10 ****        -0.9012  -0.0247   0.3735 C.2            1 S1                 0.0000
     11 ****        -1.8826  -0.5852  -0.1158 O.2            1 S1                 0.0000
     12 ****        -0.9400   1.4793   0.6907 C.3            1 S1                 0.0000
     13 ****        -2.0280   1.8218   1.7352 C.3            1 S1                 0.0000
     14 ****        -3.0195   2.7752   1.0550 C.3            1 S1                 0.0000
     15 ****        -2.7930   2.5956  -0.4436 C.3            1 S1                 0.0000
     16 ****        -1.2954   2.3140  -0.5547 C.3            1 S1                 0.0000
     17 ****         0.1984  -3.9700   1.4751 H              1 S1                 0.0000
     18 ****        -1.0436  -2.7705   1.8046 H              1 S1                 0.0000
     19 ****         0.5472  -2.6160   2.5469 H              1 S1                 0.0000
     20 ****        -0.0515  -2.4141  -0.4497 H              1 S1                 0.0000
     21 ****         2.6063  -1.9397   0.9906 H              1 S1                 0.0000
     22 ****         2.2184  -3.3705   0.0632 H              1 S1                 0.0000
     23 ****         3.5165   0.0765  -0.3324 H              1 S1                 0.0000
     24 ****         3.8829   0.5551  -2.9939 H              1 S1                 0.0000
     25 ****         2.5769  -1.5746  -4.1948 H              1 S1                 0.0000
     26 ****         0.9960  -0.1223   1.0616 H              1 S1                 0.0000
     27 ****         0.0397   1.7873   1.0603 H              1 S1                 0.0000
     28 ****        -2.5537   0.9305   2.0824 H              1 S1                 0.0000
     29 ****        -1.5925   2.2880   2.6195 H              1 S1                 0.0000
     30 ****        -4.0524   2.5814   1.3458 H              1 S1                 0.0000
     31 ****        -2.7865   3.8031   1.3357 H              1 S1                 0.0000
     32 ****        -3.3609   1.7369  -0.8040 H              1 S1                 0.0000
     33 ****        -3.1016   3.4666  -1.0223 H              1 S1                 0.0000
     34 ****        -0.7443   3.2549  -0.5291 H              1 S1                 0.0000
     35 ****        -1.0424   1.8225  -1.4956 H              1 S1                 0.0000
     36 ****         1.6291  -3.0218  -2.4456 LP             1 S1                 0.0000
     37 ****        -1.8500  -1.5638  -0.3187 LP             1 S1                 0.0000
     38 ****        -2.7122  -0.0616  -0.3102 LP             1 S1                 0.0000
@<TRIPOS>BOND
    1    1    2 1     
    2    1   17 1     
    3    1   18 1     
    4    1   19 1     
    5    2    3 1     
    6    2    9 1     
    7    2   20 1     
    8    3    4 1     
    9    3   21 1     
   10    3   22 1     
   11    4    8 1     
   12    4    5 1     
   13    5    6 2     
   14    5   23 1     
   15    6    7 1     
   16    6   24 1     
   17    7    8 2     
   18    7   25 1     
   19    9   10 am    
   20    9   26 1     
   21   10   11 2     
   22   10   12 1     
   23   12   16 1     
   24   12   13 1     
   25   12   27 1     
   26   13   14 1     
   27   13   28 1     
   28   13   29 1     
   29   14   15 1     
   30   14   30 1     
   31   14   31 1     
   32   15   16 1     
   33   15   32 1     
   34   15   33 1     
   35   16   34 1     
   36   16   35 1     
   37    8   36 1     
   38   11   37 1     
   39   11   38 1     
@<TRIPOS>SUBSTRUCTURE
      1 S1             1
@<TRIPOS>SET
LONE_PAIRS      STATIC     ATOMS    <user>   **** ""
3 36 37 38
DONOR_HYDROGENS      STATIC     ATOMS    <user>   **** ""
1 26
ATOM$BLUE        STATIC     ATOMS    COLORGROUP SYSTEM
3 36 37 38
ATOM$RED        STATIC     ATOMS    COLORGROUP SYSTEM
1 26
