#       Name:                AV-unprocessed.smi:392
#       Creating user name   scv26
#       Creation time:       Thu Mar 26 22:42:32 2020


#       File generated by GOLD software.
#

@<TRIPOS>MOLECULE
AV-unprocessed.smi:392
    35    37     1
SMALL
NO_CHARGES


@<TRIPOS>ATOM
      1 ****        -1.1396   3.1100   0.3765 O.3            1 S1                 0.0000
      2 ****        -0.7577   1.7581   0.2250 C.3            1 S1                 0.0000
      3 ****         0.7813   1.7032   0.1425 C.3            1 S1                 0.0000
      4 ****         1.2974   0.3285   0.1112 N.pl3          1 S1                 0.0000
      5 ****         1.7242  -0.4220  -0.9409 C.2            1 S1                 0.0000
      6 ****         2.0889  -1.6409  -0.4547 N.pl3          1 S1                 1.0000
      7 ****         1.8951  -1.6685   0.9283 C.ar           1 S1                 0.0000
      8 ****         2.1164  -2.6772   1.8610 C.ar           1 S1                 0.0000
      9 ****         1.8077  -2.3763   3.2041 C.ar           1 S1                 0.0000
     10 ****         1.3020  -1.1137   3.5769 C.ar           1 S1                 0.0000
     11 ****         1.0831  -0.0978   2.6232 C.ar           1 S1                 0.0000
     12 ****         1.3890  -0.4047   1.2983 C.ar           1 S1                 0.0000
     13 ****        -1.4216   1.0983  -0.9785 C.ar           1 S1                 0.0000
     14 ****        -1.5062   1.7839  -2.2112 C.ar           1 S1                 0.0000
     15 ****        -2.1029   1.1692  -3.3288 C.ar           1 S1                 0.0000
     16 ****        -2.6172  -0.1366  -3.2233 C.ar           1 S1                 0.0000
     17 ****        -2.5322  -0.8279  -2.0000 C.ar           1 S1                 0.0000
     18 ****        -1.9351  -0.2156  -0.8809 C.ar           1 S1                 0.0000
     19 ****        -1.8489  -0.9023   0.2840 F              1 S1                 0.0000
     20 ****        -2.0727   3.1437   0.5235 H              1 S1                 0.0000
     21 ****        -1.0866   1.2526   1.1329 H              1 S1                 0.0000
     22 ****         1.1359   2.2108  -0.7559 H              1 S1                 0.0000
     23 ****         1.2378   2.2173   0.9895 H              1 S1                 0.0000
     24 ****         1.7572  -0.1102  -1.9749 H              1 S1                 0.0000
     25 ****         2.5034  -3.6452   1.5785 H              1 S1                 0.0000
     26 ****         1.9614  -3.1289   3.9637 H              1 S1                 0.0000
     27 ****         1.0765  -0.9199   4.6156 H              1 S1                 0.0000
     28 ****         0.6946   0.8662   2.9172 H              1 S1                 0.0000
     29 ****        -1.1092   2.7842  -2.3062 H              1 S1                 0.0000
     30 ****        -2.1642   1.6995  -4.2679 H              1 S1                 0.0000
     31 ****        -3.0747  -0.6082  -4.0806 H              1 S1                 0.0000
     32 ****        -2.9237  -1.8314  -1.9202 H              1 S1                 0.0000
     33 ****         2.4417  -2.3971  -1.0273 H              1 S1                 0.0000
     34 ****        -0.9102   3.6202  -0.4524 LP             1 S1                 0.0000
     35 ****        -0.6605   3.5103   1.1576 LP             1 S1                 0.0000
@<TRIPOS>BOND
    1    1    2 1     
    2    1   20 1     
    3    2    3 1     
    4    2   13 1     
    5    2   21 1     
    6    3    4 1     
    7    3   22 1     
    8    3   23 1     
    9    4   12 1     
   10    4    5 1     
   11    5    6 2     
   12    5   24 1     
   13    6    7 1     
   14    6   33 1     
   15    7   12 ar    
   16    7    8 ar    
   17    8    9 ar    
   18    8   25 1     
   19    9   10 ar    
   20    9   26 1     
   21   10   11 ar    
   22   10   27 1     
   23   11   12 ar    
   24   11   28 1     
   25   13   18 ar    
   26   13   14 ar    
   27   14   15 ar    
   28   14   29 1     
   29   15   16 ar    
   30   15   30 1     
   31   16   17 ar    
   32   16   31 1     
   33   17   18 ar    
   34   17   32 1     
   35   18   19 1     
   36    1   34 1     
   37    1   35 1     
@<TRIPOS>SUBSTRUCTURE
      1 S1             1
@<TRIPOS>SET
LONE_PAIRS      STATIC     ATOMS    <user>   **** ""
2 34 35
DONOR_HYDROGENS      STATIC     ATOMS    <user>   **** ""
2 20 33
ATOM$BLUE        STATIC     ATOMS    COLORGROUP SYSTEM
2 34 35
ATOM$RED        STATIC     ATOMS    COLORGROUP SYSTEM
2 20 33
