AV-unprocessed.smi:530|AV-procd|sdf|2842|dock2
  -GOLD-   2262023333D 1   1.00000     0.00000
 Structure written by MMmdl.
 35 37  0  0  0  0  0  0  0  0  1 V2000
  152.4239  138.1125  157.0040 C   0  0  0  0  0  0  0  0  0  0  0  0
  152.4583  139.3802  157.7970 C   0  0  0  0  0  0  0  0  0  0  0  0
  153.4840  139.6956  158.5886 N   0  0  0  0  0  0  0  0  0  0  0  0
  153.1033  140.9196  159.1046 C   0  0  0  0  0  0  0  0  0  0  0  0
  153.7619  141.7797  160.0122 C   0  0  0  0  0  0  0  0  0  0  0  0
  153.1693  143.0004  160.3970 C   0  0  0  0  0  0  0  0  0  0  0  0
  151.9128  143.3784  159.8806 C   0  0  0  0  0  0  0  0  0  0  0  0
  151.2387  142.5352  158.9765 C   0  0  0  0  0  0  0  0  0  0  0  0
  151.8340  141.3174  158.5973 C   0  0  0  0  0  0  0  0  0  0  0  0
  151.4465  140.2821  157.7533 N   0  0  0  0  0  0  0  0  0  0  0  0
  150.2045  140.2154  156.9952 C   0  0  0  0  0  0  0  0  0  0  0  0
  150.2632  141.0407  155.6944 C   0  0  2  0  0  0  0  0  0  0  0  0
  150.3476  142.4193  156.0002 O   0  0  0  0  0  0  0  0  0  0  0  0
  149.0877  140.7233  154.7834 C   0  0  0  0  0  0  0  0  0  0  0  0
  148.8659  139.3958  154.3582 C   0  0  0  0  0  0  0  0  0  0  0  0
  147.7765  139.0910  153.5192 C   0  0  0  0  0  0  0  0  0  0  0  0
  146.9010  140.1117  153.1022 C   0  0  0  0  0  0  0  0  0  0  0  0
  147.1138  141.4370  153.5273 C   0  0  0  0  0  0  0  0  0  0  0  0
  148.2028  141.7421  154.3668 C   0  0  0  0  0  0  0  0  0  0  0  0
  153.2955  137.4967  157.2284 H   0  0  0  0  0  0  0  0  0  0  0  0
  152.4274  138.3367  155.9373 H   0  0  0  0  0  0  0  0  0  0  0  0
  151.5287  137.5385  157.2426 H   0  0  0  0  0  0  0  0  0  0  0  0
  154.7250  141.5001  160.4127 H   0  0  0  0  0  0  0  0  0  0  0  0
  153.6814  143.6503  161.0913 H   0  0  0  0  0  0  0  0  0  0  0  0
  151.4664  144.3156  160.1792 H   0  0  0  0  0  0  0  0  0  0  0  0
  150.2757  142.8202  158.5796 H   0  0  0  0  0  0  0  0  0  0  0  0
  150.0149  139.1673  156.7599 H   0  0  0  0  0  0  0  0  0  0  0  0
  149.3725  140.5399  157.6203 H   0  0  0  0  0  0  0  0  0  0  0  0
  151.1802  140.7883  155.1604 H   0  0  0  0  0  0  0  0  0  0  0  0
  149.5354  142.8317  155.7485 H   0  0  0  0  0  0  0  0  0  0  0  0
  149.5301  138.6050  154.6751 H   0  0  0  0  0  0  0  0  0  0  0  0
  147.6120  138.0737  153.1959 H   0  0  0  0  0  0  0  0  0  0  0  0
  146.0658  139.8783  152.4583 H   0  0  0  0  0  0  0  0  0  0  0  0
  146.4407  142.2197  153.2100 H   0  0  0  0  0  0  0  0  0  0  0  0
  148.3555  142.7612  154.6911 H   0  0  0  0  0  0  0  0  0  0  0  0
  1  2  1  0  0  0  0
  1 20  1  0  0  0  0
  1 21  1  0  0  0  0
  1 22  1  0  0  0  0
  2 10  1  0  0  0  0
  2  3  2  0  0  0  0
  3  4  1  0  0  0  0
  4  9  2  0  0  0  0
  4  5  1  0  0  0  0
  5  6  2  0  0  0  0
  5 23  1  0  0  0  0
  6  7  1  0  0  0  0
  6 24  1  0  0  0  0
  7  8  2  0  0  0  0
  7 25  1  0  0  0  0
  8  9  1  0  0  0  0
  8 26  1  0  0  0  0
  9 10  1  0  0  0  0
 10 11  1  0  0  0  0
 11 12  1  0  0  0  0
 11 27  1  0  0  0  0
 11 28  1  0  0  0  0
 12 13  1  0  0  0  0
 12 14  1  0  0  0  0
 12 29  1  0  0  0  0
 13 30  1  0  0  0  0
 14 19  1  0  0  0  0
 14 15  2  0  0  0  0
 15 16  1  0  0  0  0
 15 31  1  0  0  0  0
 16 17  2  0  0  0  0
 16 32  1  0  0  0  0
 17 18  1  0  0  0  0
 17 33  1  0  0  0  0
 18 19  2  0  0  0  0
 18 34  1  0  0  0  0
 19 35  1  0  0  0  0
M  END
> <s_m_source_file>
AV-unprocessed.smi

> <i_m_source_file_index>
530

> <i_lp_mmshare_version>
43012

> <i_f3d_flags>
0

> <s_epik_input>
W2NIXTFbY0hdW2NIXVtjSF1jKGMxMiluKGMobjIpW0NIM10pW0NIMl1bQ0BIXShbT0hdKWMzW2NIXVtjSF1bY0hdW2NIXVtjSF0z

> <s_epik_cmdline>
J2VwaWtfcHl0aG9uJywgJy1waCcsICc3LjAnLCAnLXRuJywgJzgnLCAnLW1hJywgJzIwMCcsICctbWV0YWxfYmluZGluZycsICctaW1hZScsICc8aW5maWxlLm1hZT4nLCAnLW9tYWUnLCAnPG91dGZpbGUubWFlPic=

> <r_epik_Ionization_Penalty>
0.129663

> <r_epik_Ionization_Penalty_Charging>
0

> <r_epik_Ionization_Penalty_Neutral>
0.129663

> <r_epik_State_Penalty>
0.119073

> <r_epik_Charging_Adjusted_Penalty>
0.119073

> <i_epik_Tot_Q>
0

> <i_epik_Tot_abs_Q>
0

> <r_epik_Metal_State_Penalty>
0.000131867

> <b_epik_Metal_Only>
0

> <s_lp_Force_Field>
OPLS_2005

> <r_lp_Energy>
11.6946

> <b_lp_Chiralities_Consistent>
1

> <s_lp_Variant>
AV-unprocessed.smi:530-1

> <Gold.Version>
5.8.1

> <Gold.Id.Protein>
6NUR|6NUR_protein|mol2

> <Gold.PLP.Fitness>
44.1437

> <Gold.PLP.PLP>
-39.7554

> <Gold.PLP.part.hbond>
-2.0000

> <Gold.PLP.part.metal>
0.0000

> <Gold.PLP.part.buried>
-3.8577

> <Gold.PLP.part.nonpolar>
-34.3048

> <Gold.PLP.part.repulsive>
0.0000

> <Gold.PLP.ligand.clash>
0.0000

> <Gold.PLP.ligand.torsion>
0.3514

> <Gold.PLP.Chemscore.Hbond>
1.6880

> <Gold.PLP.Chemscore.CHOScore>
0.0000

> <Gold.PLP.Chemscore.Metal>
0.0000

> <Gold.Chemscore.Hbonds>
donor molecule, donor type, donor heavy atom, donor atom, acceptor molecule, acceptor atom, score
      L1  H    13    30       P1  8028  0.70
      P1  H  7997  8009       L1     3  1.00

> <Gold.PLP.Chemscore.Internal.Correction>
0.0271

> <Gold.Rescore>
     Score         DG    S(hbond)    S(metal)    S(lipo)     H(rot)  DE(clash)    DE(int)     intcor
     17.89     -18.32       1.12        0.00     114.86       1.70       0.04       0.38       ----

> <Gold.Chemscore.Fitness>
17.8929

> <Gold.Chemscore.DG>
-18.3200

> <Gold.Chemscore.ZeroCoef>
-5.4800

> <Gold.Chemscore.Hbond>
1.1247

> <Gold.Chemscore.Metal>
0.0000

> <Gold.Chemscore.Lipo>
114.8612

> <Gold.Chemscore.Internal_Hbond>
0.0000

> <Gold.Chemscore.DEClash>
0.0450

> <Gold.Chemscore.DEInternal>
0.3820

> <Gold.Chemscore.Rot>
1.7013

> <Gold.Chemscore.Internal.Correction>
   9.000000E+99

> <Gold.Chemscore.Hbonds>
donor molecule, donor type, donor heavy atom, donor atom, acceptor molecule, acceptor atom, score
      L1  H    13    30       P1  8028  0.67
      P1  H  7997  8009       L1     3  0.15

> <Gold.Chemscore.Hbond.Weighted>
-3.7566

> <Gold.Chemscore.Metal.Weighted>
-0.0000

> <Gold.Chemscore.Lipo.Weighted>
-13.4388

> <Gold.Chemscore.Internal_Hbond.Weighted>
0.0000

> <Gold.Chemscore.DEClash.Weighted>
0.0450

> <Gold.Chemscore.DEInternal.Weighted>
0.3820

> <Gold.Chemscore.Rot.Weighted>
4.3554

> <Gold.Chemscore.Internal.Correction.Weighted>
   9.000000E+99

> <Gold.Protein.RotatedTorsions>
[ 6907 6896 6895 6894 ] final    0.29 input  -60.11 | X-H torsion
[ 7974 7965 7964 7962 ] final  106.57 input  175.53 | X-H torsion
[ 8008 7997 7996 7995 ] final  133.75 input   59.86 | X-H torsion
[ 10167 10162 10161 10158 ] final -114.82 input  -65.29 | X-H torsion
[ 10718 10713 10712 10709 ] final  -89.99 input   66.30 | X-H torsion
[ 10763 10752 10751 10750 ] final   39.63 input  -60.55 | X-H torsion
[ 11005 11000 10999 10996 ] final   88.85 input  -57.11 | X-H torsion

> <Gold.Protein.ActiveResidues>
 VAL166  LYS551  ARG553  GLY616  TRP617  ASP618  TYR619  PRO620  LYS621  CYS622 
 ASP623  PHE694  ASN695  SER759  ASP760  ASP761  ALA762  ILE779  LEU786  VAL792 
 PHE793  MET794  SER795  GLU796  ALA797  LYS798  CYS799  TRP800  GLU811  SER814 

> <Gold.Protein.RotatedAtoms>
  151.5740  135.1061  160.0001 H   0  0  0  0  0  0  0  0  0  0  0  0  # atno 6907 bound_to 6896
  152.4387  133.7403  159.6648 H   0  0  0  0  0  0  0  0  0  0  0  0  # atno 6908 bound_to 6896
  150.8288  133.8056  159.3130 H   0  0  0  0  0  0  0  0  0  0  0  0  # atno 6909 bound_to 6896
  145.3049  139.2558  143.3794 H   0  0  0  0  0  0  0  0  0  0  0  0  # atno 7974 bound_to 7965
  156.2994  140.2513  156.3305 H   0  0  0  0  0  0  0  0  0  0  0  0  # atno 8008 bound_to 7997
  154.9149  140.0402  157.1986 H   0  0  0  0  0  0  0  0  0  0  0  0  # atno 8009 bound_to 7997
  154.8368  140.2884  155.5690 H   0  0  0  0  0  0  0  0  0  0  0  0  # atno 8010 bound_to 7997
  140.0968  143.4649  152.1836 H   0  0  0  0  0  0  0  0  0  0  0  0  # atno 10167 bound_to 10162
  155.9986  130.4893  150.5255 H   0  0  0  0  0  0  0  0  0  0  0  0  # atno 10718 bound_to 10713
  152.9961  135.6215  154.2497 H   0  0  0  0  0  0  0  0  0  0  0  0  # atno 10763 bound_to 10752
  154.2235  135.2795  155.2918 H   0  0  0  0  0  0  0  0  0  0  0  0  # atno 10764 bound_to 10752
  154.5508  135.5734  153.6979 H   0  0  0  0  0  0  0  0  0  0  0  0  # atno 10765 bound_to 10752
  139.8887  134.8514  156.3059 H   0  0  0  0  0  0  0  0  0  0  0  0  # atno 11005 bound_to 11000
  146.3139  140.3571  142.8661 LP  0  0  0  0  0  0  0  0  0  0  0  0  # atno 17320 bound_to 7965
  144.9063  140.7704  143.5835 LP  0  0  0  0  0  0  0  0  0  0  0  0  # atno 17321 bound_to 7965
  139.5693  144.7453  151.3934 LP  0  0  0  0  0  0  0  0  0  0  0  0  # atno 17342 bound_to 10162
  140.6999  143.7657  150.7386 LP  0  0  0  0  0  0  0  0  0  0  0  0  # atno 17343 bound_to 10162
  157.3211  131.0682  151.1931 LP  0  0  0  0  0  0  0  0  0  0  0  0  # atno 17370 bound_to 10713
  157.2844  130.6765  149.6082 LP  0  0  0  0  0  0  0  0  0  0  0  0  # atno 17371 bound_to 10713
  140.9882  133.7225  156.0774 LP  0  0  0  0  0  0  0  0  0  0  0  0  # atno 17394 bound_to 11000
  140.7660  134.3886  157.5517 LP  0  0  0  0  0  0  0  0  0  0  0  0  # atno 17395 bound_to 11000

$$$$
