AV-unprocessed.smi:407|AV-procd|sdf|2501|dock6
  -GOLD-   2262022453D 1   1.00000     0.00000
 Structure written by MMmdl.
 45 47  0  0  0  0  0  0  0  0  1 V2000
  143.8238  143.4249  155.3338 C   0  0  0  0  0  0  0  0  0  0  0  0
  144.8020  142.7162  156.2693 C   0  0  0  0  0  0  0  0  0  0  0  0
  144.4929  142.5776  157.4525 O   0  0  0  0  0  0  0  0  0  0  0  0
  146.0883  142.2314  155.6930 C   0  0  0  0  0  0  0  0  0  0  0  0
  147.0882  141.7253  156.5530 C   0  0  0  0  0  0  0  0  0  0  0  0
  148.3122  141.2621  156.0343 C   0  0  0  0  0  0  0  0  0  0  0  0
  148.5680  141.2919  154.6497 C   0  0  0  0  0  0  0  0  0  0  0  0
  149.7936  140.8225  154.2289 O   0  0  0  0  0  0  0  0  0  0  0  0
  150.4272  139.8076  154.9969 C   0  0  0  0  0  0  0  0  0  0  0  0
  151.4161  140.4696  155.9710 C   0  0  2  0  0  0  0  0  0  0  0  0
  152.6841  139.8871  155.7424 O   0  0  0  0  0  0  0  0  0  0  0  0
  151.0361  140.2059  157.4423 C   0  0  0  0  0  0  0  0  0  0  0  0
  151.5203  141.2656  158.3265 N   0  0  0  0  0  0  0  0  0  0  0  0
  151.1103  142.5565  158.3365 C   0  0  0  0  0  0  0  0  0  0  0  0
  150.2550  143.0471  157.6000 O   0  0  0  0  0  0  0  0  0  0  0  0
  151.8069  143.2103  159.2953 N   0  0  0  0  0  0  0  0  0  0  0  0
  151.6924  144.6179  159.6566 C   0  0  0  0  0  0  0  0  0  0  0  0
  152.6837  142.3138  159.9188 C   0  0  0  0  0  0  0  0  0  0  0  0
  153.6066  142.5015  160.9619 C   0  0  0  0  0  0  0  0  0  0  0  0
  154.3602  141.3751  161.3676 C   0  0  0  0  0  0  0  0  0  0  0  0
  154.1812  140.1159  160.7382 C   0  0  0  0  0  0  0  0  0  0  0  0
  153.2439  139.9552  159.6909 C   0  0  0  0  0  0  0  0  0  0  0  0
  152.5063  141.0897  159.3087 C   0  0  0  0  0  0  0  0  0  0  0  0
  147.5654  141.7947  153.7844 C   0  0  0  0  0  0  0  0  0  0  0  0
  146.3401  142.2585  154.3015 C   0  0  0  0  0  0  0  0  0  0  0  0
  144.2920  144.3002  154.8832 H   0  0  0  0  0  0  0  0  0  0  0  0
  142.9425  143.7561  155.8837 H   0  0  0  0  0  0  0  0  0  0  0  0
  143.4973  142.7519  154.5407 H   0  0  0  0  0  0  0  0  0  0  0  0
  146.9289  141.6880  157.6212 H   0  0  0  0  0  0  0  0  0  0  0  0
  149.0647  140.8808  156.7089 H   0  0  0  0  0  0  0  0  0  0  0  0
  149.6570  139.2798  155.5617 H   0  0  0  0  0  0  0  0  0  0  0  0
  150.9360  139.0775  154.3645 H   0  0  0  0  0  0  0  0  0  0  0  0
  151.4556  141.5424  155.7764 H   0  0  0  0  0  0  0  0  0  0  0  0
  152.6026  139.2581  155.0421 H   0  0  0  0  0  0  0  0  0  0  0  0
  149.9501  140.1695  157.5404 H   0  0  0  0  0  0  0  0  0  0  0  0
  151.3904  139.2283  157.7708 H   0  0  0  0  0  0  0  0  0  0  0  0
  152.6796  145.0772  159.7134 H   0  0  0  0  0  0  0  0  0  0  0  0
  151.2118  144.7172  160.6301 H   0  0  0  0  0  0  0  0  0  0  0  0
  151.1055  145.1798  158.9287 H   0  0  0  0  0  0  0  0  0  0  0  0
  153.7379  143.4635  161.4348 H   0  0  0  0  0  0  0  0  0  0  0  0
  155.0813  141.4748  162.1656 H   0  0  0  0  0  0  0  0  0  0  0  0
  154.7682  139.2693  161.0627 H   0  0  0  0  0  0  0  0  0  0  0  0
  153.1064  138.9989  159.2085 H   0  0  0  0  0  0  0  0  0  0  0  0
  147.7109  141.8357  152.7157 H   0  0  0  0  0  0  0  0  0  0  0  0
  145.6038  142.6328  153.6061 H   0  0  0  0  0  0  0  0  0  0  0  0
  1  2  1  0  0  0  0
  1 26  1  0  0  0  0
  1 27  1  0  0  0  0
  1 28  1  0  0  0  0
  2  3  2  0  0  0  0
  2  4  1  0  0  0  0
  4 25  1  0  0  0  0
  4  5  2  0  0  0  0
  5  6  1  0  0  0  0
  5 29  1  0  0  0  0
  6  7  2  0  0  0  0
  6 30  1  0  0  0  0
  7  8  1  0  0  0  0
  7 24  1  0  0  0  0
  8  9  1  0  0  0  0
  9 10  1  0  0  0  0
  9 31  1  0  0  0  0
  9 32  1  0  0  0  0
 10 11  1  0  0  0  0
 10 12  1  0  0  0  0
 10 33  1  0  0  0  0
 11 34  1  0  0  0  0
 12 13  1  0  0  0  0
 12 35  1  0  0  0  0
 12 36  1  0  0  0  0
 13 23  1  0  0  0  0
 13 14  1  0  0  0  0
 14 15  2  0  0  0  0
 14 16  1  0  0  0  0
 16 17  1  0  0  0  0
 16 18  1  0  0  0  0
 17 37  1  0  0  0  0
 17 38  1  0  0  0  0
 17 39  1  0  0  0  0
 18 23  2  0  0  0  0
 18 19  1  0  0  0  0
 19 20  2  0  0  0  0
 19 40  1  0  0  0  0
 20 21  1  0  0  0  0
 20 41  1  0  0  0  0
 21 22  2  0  0  0  0
 21 42  1  0  0  0  0
 22 23  1  0  0  0  0
 22 43  1  0  0  0  0
 24 25  2  0  0  0  0
 24 44  1  0  0  0  0
 25 45  1  0  0  0  0
M  END
> <s_m_source_file>
AV-unprocessed.smi

> <i_m_source_file_index>
407

> <i_lp_mmshare_version>
43012

> <i_f3d_flags>
0

> <s_epik_input>
W0NIM11DKD1PKWMxW2NIXVtjSF1jKFtjSF1bY0hdMSlPW0NIMl1bQ0BIXShbT0hdKVtDSDJdbihjKD1PKW4yW0NIM10pYyhjMjMpW2NIXVtjSF1bY0hdW2NIXTM=

> <s_epik_cmdline>
J2VwaWtfcHl0aG9uJywgJy1waCcsICc3LjAnLCAnLXRuJywgJzgnLCAnLW1hJywgJzIwMCcsICctbWV0YWxfYmluZGluZycsICctaW1hZScsICc8aW5maWxlLm1hZT4nLCAnLW9tYWUnLCAnPG91dGZpbGUubWFlPic=

> <r_lp_tautomer_probability>
1

> <r_epik_Ionization_Penalty>
2.40123e-06

> <r_epik_Ionization_Penalty_Charging>
1.9356e-09

> <r_epik_Ionization_Penalty_Neutral>
2.3993e-06

> <r_epik_State_Penalty>
-0

> <r_epik_Charging_Adjusted_Penalty>
1.9356e-09

> <i_epik_Tot_Q>
0

> <i_epik_Tot_abs_Q>
0

> <r_epik_Metal_State_Penalty>
-0

> <b_epik_Metal_Only>
0

> <s_lp_Force_Field>
OPLS_2005

> <r_lp_Energy>
53.6429

> <b_lp_Chiralities_Consistent>
1

> <s_lp_Variant>
AV-unprocessed.smi:407-1

> <Gold.Version>
5.8.1

> <Gold.Id.Protein>
6NUR|6NUR_protein|mol2

> <Gold.PLP.Fitness>
53.0046

> <Gold.PLP.PLP>
-52.5590

> <Gold.PLP.part.hbond>
-2.0000

> <Gold.PLP.part.metal>
0.0000

> <Gold.PLP.part.buried>
-6.8944

> <Gold.PLP.part.nonpolar>
-44.4691

> <Gold.PLP.part.repulsive>
1.0346

> <Gold.PLP.ligand.clash>
0.0000

> <Gold.PLP.ligand.torsion>
1.7598

> <Gold.PLP.Chemscore.Hbond>
1.3024

> <Gold.PLP.Chemscore.CHOScore>
0.0000

> <Gold.PLP.Chemscore.Metal>
0.0000

> <Gold.Chemscore.Hbonds>
donor molecule, donor type, donor heavy atom, donor atom, acceptor molecule, acceptor atom, score
      P1  H  7997  8009       L1    11  1.00

> <Gold.PLP.Chemscore.Internal.Correction>
0.0580

> <Gold.Rescore>
     Score         DG    S(hbond)    S(metal)    S(lipo)     H(rot)  DE(clash)    DE(int)     intcor
     17.14     -18.99       1.65        0.00     118.75       2.30       0.10       1.76       ----

> <Gold.Chemscore.Fitness>
17.1365

> <Gold.Chemscore.DG>
-18.9931

> <Gold.Chemscore.ZeroCoef>
-5.4800

> <Gold.Chemscore.Hbond>
1.6478

> <Gold.Chemscore.Metal>
0.0000

> <Gold.Chemscore.Lipo>
118.7461

> <Gold.Chemscore.Internal_Hbond>
0.0000

> <Gold.Chemscore.DEClash>
0.0974

> <Gold.Chemscore.DEInternal>
1.7592

> <Gold.Chemscore.Rot>
2.2984

> <Gold.Chemscore.Internal.Correction>
   9.000000E+99

> <Gold.Chemscore.Hbonds>
donor molecule, donor type, donor heavy atom, donor atom, acceptor molecule, acceptor atom, score
      P1  H  7997  8009       L1    11  0.78

> <Gold.Chemscore.Hbond.Weighted>
-5.5037

> <Gold.Chemscore.Metal.Weighted>
-0.0000

> <Gold.Chemscore.Lipo.Weighted>
-13.8933

> <Gold.Chemscore.Internal_Hbond.Weighted>
0.0000

> <Gold.Chemscore.DEClash.Weighted>
0.0974

> <Gold.Chemscore.DEInternal.Weighted>
1.7592

> <Gold.Chemscore.Rot.Weighted>
5.8839

> <Gold.Chemscore.Internal.Correction.Weighted>
   9.000000E+99

> <Gold.Protein.RotatedTorsions>
[ 6907 6896 6895 6894 ] final   21.74 input  -60.11 | X-H torsion
[ 7974 7965 7964 7962 ] final   33.49 input  175.53 | X-H torsion
[ 8008 7997 7996 7995 ] final -151.66 input   59.86 | X-H torsion
[ 10167 10162 10161 10158 ] final  -52.39 input  -65.29 | X-H torsion
[ 10718 10713 10712 10709 ] final  179.77 input   66.30 | X-H torsion
[ 10763 10752 10751 10750 ] final   80.76 input  -60.55 | X-H torsion
[ 11005 11000 10999 10996 ] final  148.54 input  -57.11 | X-H torsion

> <Gold.Protein.ActiveResidues>
 VAL166  LYS551  ARG553  GLY616  TRP617  ASP618  TYR619  PRO620  LYS621  CYS622 
 ASP623  PHE694  ASN695  SER759  ASP760  ASP761  ALA762  ILE779  LEU786  VAL792 
 PHE793  MET794  SER795  GLU796  ALA797  LYS798  CYS799  TRP800  GLU811  SER814 

> <Gold.Protein.RotatedAtoms>
  151.9165  135.0317  160.0518 H   0  0  0  0  0  0  0  0  0  0  0  0  # atno 6907 bound_to 6896
  152.2236  133.4998  159.5184 H   0  0  0  0  0  0  0  0  0  0  0  0  # atno 6908 bound_to 6896
  150.7006  134.1227  159.4083 H   0  0  0  0  0  0  0  0  0  0  0  0  # atno 6909 bound_to 6896
  146.1417  139.6390  142.9158 H   0  0  0  0  0  0  0  0  0  0  0  0  # atno 7974 bound_to 7965
  155.6429  140.0703  157.2612 H   0  0  0  0  0  0  0  0  0  0  0  0  # atno 8008 bound_to 7997
  154.4179  140.1747  156.1641 H   0  0  0  0  0  0  0  0  0  0  0  0  # atno 8009 bound_to 7997
  155.9841  140.3351  155.6694 H   0  0  0  0  0  0  0  0  0  0  0  0  # atno 8010 bound_to 7997
  140.6539  143.2585  151.4642 H   0  0  0  0  0  0  0  0  0  0  0  0  # atno 10167 bound_to 10162
  156.8708  130.9783  151.3073 H   0  0  0  0  0  0  0  0  0  0  0  0  # atno 10718 bound_to 10713
  153.1060  135.4790  154.8952 H   0  0  0  0  0  0  0  0  0  0  0  0  # atno 10763 bound_to 10752
  154.7431  135.3087  154.8696 H   0  0  0  0  0  0  0  0  0  0  0  0  # atno 10764 bound_to 10752
  153.9298  135.6846  153.4799 H   0  0  0  0  0  0  0  0  0  0  0  0  # atno 10765 bound_to 10752
  140.0969  134.9007  157.1736 H   0  0  0  0  0  0  0  0  0  0  0  0  # atno 11005 bound_to 11000
  145.5032  141.0437  143.2529 LP  0  0  0  0  0  0  0  0  0  0  0  0  # atno 17320 bound_to 7965
  144.7800  139.6547  143.7158 LP  0  0  0  0  0  0  0  0  0  0  0  0  # atno 17321 bound_to 7965
  139.5759  144.1821  152.1902 LP  0  0  0  0  0  0  0  0  0  0  0  0  # atno 17342 bound_to 10162
  140.1131  144.5439  150.6912 LP  0  0  0  0  0  0  0  0  0  0  0  0  # atno 17343 bound_to 10162
  157.6196  130.8645  149.9087 LP  0  0  0  0  0  0  0  0  0  0  0  0  # atno 17370 bound_to 10713
  156.0727  130.3683  150.0742 LP  0  0  0  0  0  0  0  0  0  0  0  0  # atno 17371 bound_to 10713
  140.3274  134.2848  155.7234 LP  0  0  0  0  0  0  0  0  0  0  0  0  # atno 17394 bound_to 11000
  141.2094  133.7749  156.9996 LP  0  0  0  0  0  0  0  0  0  0  0  0  # atno 17395 bound_to 11000

$$$$
