#       Name:                AV-unprocessed.smi:1355
#       Creating user name   scv26
#       Creation time:       Fri Mar 27 05:13:06 2020


#       File generated by GOLD software.
#

@<TRIPOS>MOLECULE
AV-unprocessed.smi:1355
    37    38     1
SMALL
NO_CHARGES


@<TRIPOS>ATOM
      1 ****        -2.2930   2.8408  -1.2581 C.3            1 S1                 0.0000
      2 ****        -1.7611   1.5310  -1.1701 O.3            1 S1                 0.0000
      3 ****        -2.2872   0.8018  -0.0732 C.3            1 S1                 0.0000
      4 ****        -1.6403  -0.5894  -0.0111 C.3            1 S1                 0.0000
      5 ****        -0.1768  -0.5179   0.1193 N.pl3          1 S1                 0.0000
      6 ****         0.6038  -0.4264   1.2347 C.2            1 S1                 0.0000
      7 ****         0.1385  -0.3931   2.6573 C.3            1 S1                 0.0000
      8 ****         0.0898  -1.8078   3.2481 C.3            1 S1                 0.0000
      9 ****         0.9684   0.4091   3.4717 O.3            1 S1                 0.0000
     10 ****         1.9013  -0.3979   0.8159 N.pl3          1 S1                 1.0000
     11 ****         1.9513  -0.4525  -0.5769 C.ar           1 S1                 0.0000
     12 ****         3.0344  -0.4399  -1.4502 C.ar           1 S1                 0.0000
     13 ****         2.7375  -0.5071  -2.8274 C.ar           1 S1                 0.0000
     14 ****         1.4072  -0.5822  -3.2885 C.ar           1 S1                 0.0000
     15 ****         0.3176  -0.5940  -2.3929 C.ar           1 S1                 0.0000
     16 ****         0.6194  -0.5293  -1.0326 C.ar           1 S1                 0.0000
     17 ****        -1.8593   3.3545  -2.1159 H              1 S1                 0.0000
     18 ****        -2.0595   3.4215  -0.3648 H              1 S1                 0.0000
     19 ****        -3.3755   2.8193  -1.3900 H              1 S1                 0.0000
     20 ****        -2.0963   1.3401   0.8564 H              1 S1                 0.0000
     21 ****        -3.3687   0.7022  -0.1759 H              1 S1                 0.0000
     22 ****        -2.0244  -1.1424   0.8465 H              1 S1                 0.0000
     23 ****        -1.8955  -1.1794  -0.8914 H              1 S1                 0.0000
     24 ****        -0.8609   0.0413   2.6894 H              1 S1                 0.0000
     25 ****        -0.5784  -2.4495   2.6731 H              1 S1                 0.0000
     26 ****        -0.2733  -1.7924   4.2762 H              1 S1                 0.0000
     27 ****         1.0766  -2.2721   3.2505 H              1 S1                 0.0000
     28 ****         0.8910   1.3071   3.1870 H              1 S1                 0.0000
     29 ****         4.0540  -0.3801  -1.0987 H              1 S1                 0.0000
     30 ****         3.5460  -0.4991  -3.5440 H              1 S1                 0.0000
     31 ****         1.2175  -0.6300  -4.3511 H              1 S1                 0.0000
     32 ****        -0.6973  -0.6446  -2.7584 H              1 S1                 0.0000
     33 ****         2.6922  -0.3416   1.4448 H              1 S1                 0.0000
     34 ****        -0.7685   1.5946  -1.0660 LP             1 S1                 0.0000
     35 ****        -1.9769   1.0402  -2.0142 LP             1 S1                 0.0000
     36 ****         1.9182   0.1085   3.3849 LP             1 S1                 0.0000
     37 ****         0.6803   0.3319   4.4262 LP             1 S1                 0.0000
@<TRIPOS>BOND
    1    1    2 1     
    2    1   17 1     
    3    1   18 1     
    4    1   19 1     
    5    2    3 1     
    6    3    4 1     
    7    3   20 1     
    8    3   21 1     
    9    4    5 1     
   10    4   22 1     
   11    4   23 1     
   12    5   16 1     
   13    5    6 1     
   14    6    7 1     
   15    6   10 2     
   16    7    8 1     
   17    7    9 1     
   18    7   24 1     
   19    8   25 1     
   20    8   26 1     
   21    8   27 1     
   22    9   28 1     
   23   10   11 1     
   24   10   33 1     
   25   11   16 ar    
   26   11   12 ar    
   27   12   13 ar    
   28   12   29 1     
   29   13   14 ar    
   30   13   30 1     
   31   14   15 ar    
   32   14   31 1     
   33   15   16 ar    
   34   15   32 1     
   35    2   34 1     
   36    2   35 1     
   37    9   36 1     
   38    9   37 1     
@<TRIPOS>SUBSTRUCTURE
      1 S1             1
@<TRIPOS>SET
LONE_PAIRS      STATIC     ATOMS    <user>   **** ""
4 34 35 36 37
DONOR_HYDROGENS      STATIC     ATOMS    <user>   **** ""
2 28 33
ATOM$BLUE        STATIC     ATOMS    COLORGROUP SYSTEM
4 34 35 36 37
ATOM$RED        STATIC     ATOMS    COLORGROUP SYSTEM
2 28 33
