AV-unprocessed.smi:3061|AV-procd|sdf|11680|dock8
  -GOLD-   2272017 83D 1   1.00000     0.00000
 Structure written by MMmdl.
 35 36  0  0  0  0  0  0  0  0  1 V2000
  145.5165  134.1156  152.9375 C   0  0  0  0  0  0  0  0  0  0  0  0
  146.4397  132.9539  152.5406 C   0  0  1  0  0  0  0  0  0  0  0  0
  146.5926  132.8474  151.0112 C   0  0  0  0  0  0  0  0  0  0  0  0
  145.3264  132.5872  150.3497 N   0  0  0  0  0  0  0  0  0  0  0  0
  145.0635  132.2287  149.0923 C   0  0  0  0  0  0  0  0  0  0  0  0
  143.7704  132.0920  148.8339 N   0  0  0  0  0  0  0  0  0  0  0  0
  143.2583  132.4028  150.0619 C   0  0  0  0  0  0  0  0  0  0  0  0
  144.1484  132.7059  151.0068 N   0  0  0  0  0  0  0  0  0  0  0  0
  147.7500  133.1275  153.1638 N   0  0  0  0  0  0  0  0  0  0  0  0
  148.3989  132.2028  153.8871 C   0  0  0  0  0  0  0  0  0  0  0  0
  147.9333  131.0909  154.1394 O   0  0  0  0  0  0  0  0  0  0  0  0
  149.7919  132.5951  154.4033 C   0  0  2  0  0  0  0  0  0  0  0  0
  149.9743  132.2074  155.8852 C   0  0  0  0  0  0  0  0  0  0  0  0
  150.0708  133.5418  156.6057 C   0  0  0  0  0  0  0  0  0  0  0  0
  150.1311  133.6371  157.8305 O   0  0  0  0  0  0  0  0  0  0  0  0
  150.0720  134.5559  155.7364 N   0  0  0  0  0  0  0  0  0  0  0  0
  150.1433  135.9702  156.0773 C   0  0  0  0  0  0  0  0  0  0  0  0
  150.0314  134.1201  154.3513 C   0  0  0  0  0  0  0  0  0  0  0  0
  144.5261  133.9961  152.4978 H   0  0  0  0  0  0  0  0  0  0  0  0
  145.9166  135.0731  152.6027 H   0  0  0  0  0  0  0  0  0  0  0  0
  145.3898  134.1669  154.0195 H   0  0  0  0  0  0  0  0  0  0  0  0
  145.9868  132.0263  152.8965 H   0  0  0  0  0  0  0  0  0  0  0  0
  146.9931  133.7790  150.6093 H   0  0  0  0  0  0  0  0  0  0  0  0
  147.3036  132.0629  150.7459 H   0  0  0  0  0  0  0  0  0  0  0  0
  145.8326  132.0694  148.3505 H   0  0  0  0  0  0  0  0  0  0  0  0
  142.1977  132.4050  150.2658 H   0  0  0  0  0  0  0  0  0  0  0  0
  148.2118  134.0116  153.0063 H   0  0  0  0  0  0  0  0  0  0  0  0
  150.5489  132.0913  153.7993 H   0  0  0  0  0  0  0  0  0  0  0  0
  149.1517  131.6149  156.2894 H   0  0  0  0  0  0  0  0  0  0  0  0
  150.8973  131.6463  156.0344 H   0  0  0  0  0  0  0  0  0  0  0  0
  149.2633  136.2692  156.6481 H   0  0  0  0  0  0  0  0  0  0  0  0
  150.1915  136.5884  155.1803 H   0  0  0  0  0  0  0  0  0  0  0  0
  151.0305  136.1764  156.6777 H   0  0  0  0  0  0  0  0  0  0  0  0
  150.9852  134.3463  153.8732 H   0  0  0  0  0  0  0  0  0  0  0  0
  149.2541  134.6574  153.8052 H   0  0  0  0  0  0  0  0  0  0  0  0
  1  2  1  0  0  0  0
  1 19  1  0  0  0  0
  1 20  1  0  0  0  0
  1 21  1  0  0  0  0
  2  3  1  0  0  0  0
  2  9  1  0  0  0  0
  2 22  1  0  0  0  0
  3  4  1  0  0  0  0
  3 23  1  0  0  0  0
  3 24  1  0  0  0  0
  4  8  1  0  0  0  0
  4  5  1  0  0  0  0
  5  6  2  0  0  0  0
  5 25  1  0  0  0  0
  6  7  1  0  0  0  0
  7  8  2  0  0  0  0
  7 26  1  0  0  0  0
  9 10  1  0  0  0  0
  9 27  1  0  0  0  0
 10 11  2  0  0  0  0
 10 12  1  0  0  0  0
 12 18  1  0  0  0  0
 12 13  1  0  0  0  0
 12 28  1  0  0  0  0
 13 14  1  0  0  0  0
 13 29  1  0  0  0  0
 13 30  1  0  0  0  0
 14 15  2  0  0  0  0
 14 16  1  0  0  0  0
 16 17  1  0  0  0  0
 16 18  1  0  0  0  0
 17 31  1  0  0  0  0
 17 32  1  0  0  0  0
 17 33  1  0  0  0  0
 18 34  1  0  0  0  0
 18 35  1  0  0  0  0
M  END
> <s_m_source_file>
AV-unprocessed.smi

> <i_m_source_file_index>
3061

> <i_lp_mmshare_version>
43012

> <i_f3d_flags>
0

> <s_epik_input>
bjFbY0hdbltjSF1uMVtDSDJdW0NAQEhdKFtDSDNdKVtOSF1DKD1PKVtDQEBIXTJbQ0gyXUMoPU8pTihbQ0gzXSlbQ0gyXTI=

> <s_epik_cmdline>
J2VwaWtfcHl0aG9uJywgJy1waCcsICc3LjAnLCAnLXRuJywgJzgnLCAnLW1hJywgJzIwMCcsICctbWV0YWxfYmluZGluZycsICctaW1hZScsICc8aW5maWxlLm1hZT4nLCAnLW9tYWUnLCAnPG91dGZpbGUubWFlPic=

> <r_lp_tautomer_probability>
1

> <r_epik_Ionization_Penalty>
4.97611e-05

> <r_epik_Ionization_Penalty_Charging>
0

> <r_epik_Ionization_Penalty_Neutral>
4.97611e-05

> <r_epik_State_Penalty>
-0

> <r_epik_Charging_Adjusted_Penalty>
0

> <i_epik_Tot_Q>
0

> <i_epik_Tot_abs_Q>
0

> <r_epik_Metal_State_Penalty>
-0

> <b_epik_Metal_Only>
0

> <s_lp_Force_Field>
OPLS_2005

> <r_lp_Energy>
12.6192

> <b_lp_Chiralities_Consistent>
1

> <s_lp_Variant>
AV-unprocessed.smi:3061-2

> <Gold.Version>
5.8.1

> <Gold.Id.Protein>
6NUR|6NUR_protein|mol2

> <Gold.PLP.Fitness>
35.5629

> <Gold.PLP.PLP>
-27.2612

> <Gold.PLP.part.hbond>
-2.0000

> <Gold.PLP.part.metal>
0.0000

> <Gold.PLP.part.buried>
-3.0738

> <Gold.PLP.part.nonpolar>
-23.7747

> <Gold.PLP.part.repulsive>
0.4810

> <Gold.PLP.ligand.clash>
0.0000

> <Gold.PLP.ligand.torsion>
0.6283

> <Gold.PLP.Chemscore.Hbond>
1.7200

> <Gold.PLP.Chemscore.CHOScore>
1.4600

> <Gold.PLP.Chemscore.Metal>
0.0000

> <Gold.Chemscore.Hbonds>
donor molecule, donor type, donor heavy atom, donor atom, acceptor molecule, acceptor atom, score
      P1  H  6896  6909       L1    15  1.00
      P1  H 10785 10796       L1     6  0.72
      L1  C     7    26       P1 10186  0.72
      L1  C     7    26       P1 10952  0.73

> <Gold.PLP.Chemscore.Internal.Correction>
0.0183

> <Gold.Rescore>
     Score         DG    S(hbond)    S(metal)    S(lipo)     H(rot)  DE(clash)    DE(int)     intcor
      6.31      -8.63       1.55        0.00      35.64       2.42       0.20       2.12       ----

> <Gold.Chemscore.Fitness>
6.3070

> <Gold.Chemscore.DG>
-8.6347

> <Gold.Chemscore.ZeroCoef>
-5.4800

> <Gold.Chemscore.Hbond>
1.5507

> <Gold.Chemscore.Metal>
0.0000

> <Gold.Chemscore.Lipo>
35.6405

> <Gold.Chemscore.Internal_Hbond>
0.0000

> <Gold.Chemscore.DEClash>
0.2041

> <Gold.Chemscore.DEInternal>
2.1235

> <Gold.Chemscore.Rot>
2.4197

> <Gold.Chemscore.Internal.Correction>
   9.000000E+99

> <Gold.Chemscore.Hbonds>
donor molecule, donor type, donor heavy atom, donor atom, acceptor molecule, acceptor atom, score
      P1  H  6896  6909       L1    15  0.93
      P1  H 10785 10796       L1     6  0.14

> <Gold.Chemscore.Hbond.Weighted>
-5.1792

> <Gold.Chemscore.Metal.Weighted>
-0.0000

> <Gold.Chemscore.Lipo.Weighted>
-4.1699

> <Gold.Chemscore.Internal_Hbond.Weighted>
0.0000

> <Gold.Chemscore.DEClash.Weighted>
0.2041

> <Gold.Chemscore.DEInternal.Weighted>
2.1235

> <Gold.Chemscore.Rot.Weighted>
6.1945

> <Gold.Chemscore.Internal.Correction.Weighted>
   9.000000E+99

> <Gold.Protein.RotatedTorsions>
[ 6907 6896 6895 6894 ] final  -14.29 input  -60.11 | X-H torsion
[ 7974 7965 7964 7962 ] final    7.22 input  175.53 | X-H torsion
[ 8008 7997 7996 7995 ] final  -46.20 input   59.86 | X-H torsion
[ 10167 10162 10161 10158 ] final  -51.18 input  -65.29 | X-H torsion
[ 10718 10713 10712 10709 ] final   37.50 input   66.30 | X-H torsion
[ 10763 10752 10751 10750 ] final  -38.72 input  -60.55 | X-H torsion
[ 11005 11000 10999 10996 ] final   35.06 input  -57.11 | X-H torsion

> <Gold.Protein.ActiveResidues>
 VAL166  LYS551  ARG553  GLY616  TRP617  ASP618  TYR619  PRO620  LYS621  CYS622 
 ASP623  PHE694  ASN695  SER759  ASP760  ASP761  ALA762  ILE779  LEU786  VAL792 
 PHE793  MET794  SER795  GLU796  ALA797  LYS798  CYS799  TRP800  GLU811  SER814 

> <Gold.Protein.RotatedAtoms>
  151.3416  135.0865  159.9372 H   0  0  0  0  0  0  0  0  0  0  0  0  # atno 6907 bound_to 6896
  152.5210  133.9441  159.7651 H   0  0  0  0  0  0  0  0  0  0  0  0  # atno 6908 bound_to 6896
  150.9799  133.6203  159.2754 H   0  0  0  0  0  0  0  0  0  0  0  0  # atno 6909 bound_to 6896
  146.2428  140.0117  142.8406 H   0  0  0  0  0  0  0  0  0  0  0  0  # atno 7974 bound_to 7965
  154.4005  140.1377  156.3972 H   0  0  0  0  0  0  0  0  0  0  0  0  # atno 8008 bound_to 7997
  155.7859  140.3480  155.5302 H   0  0  0  0  0  0  0  0  0  0  0  0  # atno 8009 bound_to 7997
  155.8628  140.0959  157.1592 H   0  0  0  0  0  0  0  0  0  0  0  0  # atno 8010 bound_to 7997
  140.6601  143.2629  151.4466 H   0  0  0  0  0  0  0  0  0  0  0  0  # atno 10167 bound_to 10162
  157.3477  130.7581  149.6956 H   0  0  0  0  0  0  0  0  0  0  0  0  # atno 10718 bound_to 10713
  153.9176  135.6786  153.4749 H   0  0  0  0  0  0  0  0  0  0  0  0  # atno 10763 bound_to 10752
  153.1046  135.4812  154.8925 H   0  0  0  0  0  0  0  0  0  0  0  0  # atno 10764 bound_to 10752
  154.7495  135.3181  154.8540 H   0  0  0  0  0  0  0  0  0  0  0  0  # atno 10765 bound_to 10752
  140.2465  134.3353  155.7906 H   0  0  0  0  0  0  0  0  0  0  0  0  # atno 11005 bound_to 11000
  145.1322  140.9524  143.4538 LP  0  0  0  0  0  0  0  0  0  0  0  0  # atno 17320 bound_to 7965
  145.0377  139.3287  143.5993 LP  0  0  0  0  0  0  0  0  0  0  0  0  # atno 17321 bound_to 7965
  139.5833  144.1661  152.1996 LP  0  0  0  0  0  0  0  0  0  0  0  0  # atno 17342 bound_to 10162
  140.0993  144.5554  150.7000 LP  0  0  0  0  0  0  0  0  0  0  0  0  # atno 17343 bound_to 10162
  155.9717  130.4149  150.4157 LP  0  0  0  0  0  0  0  0  0  0  0  0  # atno 17370 bound_to 10713
  157.2215  131.0483  151.2544 LP  0  0  0  0  0  0  0  0  0  0  0  0  # atno 17371 bound_to 10713
  141.2205  133.7329  156.8969 LP  0  0  0  0  0  0  0  0  0  0  0  0  # atno 17394 bound_to 11000
  140.1600  134.9172  157.2703 LP  0  0  0  0  0  0  0  0  0  0  0  0  # atno 17395 bound_to 11000

$$$$
