AV-unprocessed.smi:2528|AV-procd|sdf|9953|dock1
  -GOLD-   2272013593D 1   1.00000     0.00000
 Structure written by MMmdl.
 44 46  0  0  0  0  0  0  0  0  2 V2000
  144.7755  137.4979  152.4763 O   0  0  0  0  0  0  0  0  0  0  0  0
  145.9564  137.1996  152.2941 C   0  0  0  0  0  0  0  0  0  0  0  0
  146.9621  138.0793  152.4061 N   0  0  0  0  0  0  0  0  0  0  0  0
  146.8039  139.4834  152.7704 C   0  0  0  0  0  0  0  0  0  0  0  0
  147.6956  139.8739  153.9625 C   0  0  1  0  0  0  0  0  0  0  0  0
  147.8227  141.4069  154.1029 C   0  0  0  0  0  0  0  0  0  0  0  0
  148.5882  141.7808  155.3169 N   0  3  2  0  0  0  0  0  0  0  0  0
  150.0589  141.6078  155.1650 C   0  0  0  0  0  0  0  0  0  0  0  0
  150.8093  142.0701  156.4221 C   0  0  0  0  0  0  0  0  0  0  0  0
  150.3059  141.3183  157.6592 C   0  0  0  0  0  0  0  0  0  0  0  0
  148.7903  141.5113  157.8041 C   0  0  0  0  0  0  0  0  0  0  0  0
  148.0198  141.1207  156.5248 C   0  0  2  0  0  0  0  0  0  0  0  0
  147.9002  139.5974  156.3084 C   0  0  0  0  0  0  0  0  0  0  0  0
  147.1111  139.3480  155.1510 O   0  0  0  0  0  0  0  0  0  0  0  0
  146.4098  135.9781  151.9624 N   0  0  0  0  0  0  0  0  0  0  0  0
  145.6593  134.7892  151.7593 C   0  0  0  0  0  0  0  0  0  0  0  0
  146.4262  133.6062  151.6611 C   0  0  0  0  0  0  0  0  0  0  0  0
  145.7754  132.3732  151.4611 C   0  0  0  0  0  0  0  0  0  0  0  0
  144.3725  132.3552  151.3637 C   0  0  0  0  0  0  0  0  0  0  0  0
  143.6847  133.5780  151.4702 C   0  0  0  0  0  0  0  0  0  0  0  0
  144.3063  134.7609  151.6616 N   0  0  0  0  0  0  0  0  0  0  0  0
  147.9030  137.7550  152.2364 H   0  0  0  0  0  0  0  0  0  0  0  0
  147.0321  140.1087  151.9054 H   0  0  0  0  0  0  0  0  0  0  0  0
  145.7554  139.6609  153.0110 H   0  0  0  0  0  0  0  0  0  0  0  0
  148.6844  139.4353  153.8231 H   0  0  0  0  0  0  0  0  0  0  0  0
  148.2891  141.8405  153.2174 H   0  0  0  0  0  0  0  0  0  0  0  0
  146.8285  141.8501  154.1763 H   0  0  0  0  0  0  0  0  0  0  0  0
  150.3048  140.5661  154.9592 H   0  0  0  0  0  0  0  0  0  0  0  0
  150.4020  142.1845  154.3054 H   0  0  0  0  0  0  0  0  0  0  0  0
  151.8803  141.9069  156.2975 H   0  0  0  0  0  0  0  0  0  0  0  0
  150.6726  143.1435  156.5605 H   0  0  0  0  0  0  0  0  0  0  0  0
  150.5444  140.2576  157.5735 H   0  0  0  0  0  0  0  0  0  0  0  0
  150.8168  141.6801  158.5520 H   0  0  0  0  0  0  0  0  0  0  0  0
  148.4192  140.9429  158.6577 H   0  0  0  0  0  0  0  0  0  0  0  0
  148.5912  142.5596  158.0316 H   0  0  0  0  0  0  0  0  0  0  0  0
  147.0038  141.5016  156.6413 H   0  0  0  0  0  0  0  0  0  0  0  0
  148.8761  139.1210  156.2075 H   0  0  0  0  0  0  0  0  0  0  0  0
  147.4107  139.1340  157.1651 H   0  0  0  0  0  0  0  0  0  0  0  0
  147.4087  135.8847  151.8508 H   0  0  0  0  0  0  0  0  0  0  0  0
  147.5033  133.6378  151.7397 H   0  0  0  0  0  0  0  0  0  0  0  0
  146.3436  131.4579  151.3844 H   0  0  0  0  0  0  0  0  0  0  0  0
  143.8377  131.4295  151.2107 H   0  0  0  0  0  0  0  0  0  0  0  0
  142.6073  133.6083  151.3993 H   0  0  0  0  0  0  0  0  0  0  0  0
  148.4496  142.7733  155.4454 H   0  0  0  0  0  0  0  0  0  0  0  0
  1  2  2  0  0  0  0
  2  3  1  0  0  0  0
  2 15  1  0  0  0  0
  3  4  1  0  0  0  0
  3 22  1  0  0  0  0
  4  5  1  0  0  0  0
  4 23  1  0  0  0  0
  4 24  1  0  0  0  0
  5 14  1  0  0  0  0
  5  6  1  0  0  0  0
  5 25  1  0  0  0  0
  6  7  1  0  0  0  0
  6 26  1  0  0  0  0
  6 27  1  0  0  0  0
  7 12  1  0  0  0  0
  7  8  1  0  0  0  0
  7 44  1  0  0  0  0
  8  9  1  0  0  0  0
  8 28  1  0  0  0  0
  8 29  1  0  0  0  0
  9 10  1  0  0  0  0
  9 30  1  0  0  0  0
  9 31  1  0  0  0  0
 10 11  1  0  0  0  0
 10 32  1  0  0  0  0
 10 33  1  0  0  0  0
 11 12  1  0  0  0  0
 11 34  1  0  0  0  0
 11 35  1  0  0  0  0
 12 13  1  0  0  0  0
 12 36  1  0  0  0  0
 13 14  1  0  0  0  0
 13 37  1  0  0  0  0
 13 38  1  0  0  0  0
 15 16  1  0  0  0  0
 15 39  1  0  0  0  0
 16 21  1  0  0  0  0
 16 17  2  0  0  0  0
 17 18  1  0  0  0  0
 17 40  1  0  0  0  0
 18 19  2  0  0  0  0
 18 41  1  0  0  0  0
 19 20  1  0  0  0  0
 19 42  1  0  0  0  0
 20 21  2  0  0  0  0
 20 43  1  0  0  0  0
M  CHG  1   7   1
M  END
> <s_m_source_file>
AV-unprocessed.smi

> <i_m_source_file_index>
2528

> <i_lp_mmshare_version>
43012

> <i_f3d_flags>
0

> <s_epik_input>
bjFbY0hdW2NIXVtjSF1bY0hdYzFbTkhdQyg9TylbTkhdW0NIMl1bQ0BIXShbQ0gyXTIpT1tDSDJdW0NAQEhdKE4yMylbQ0gyXVtDSDJdW0NIMl1bQ0gyXTM=

> <s_epik_cmdline>
J2VwaWtfcHl0aG9uJywgJy1waCcsICc3LjAnLCAnLXRuJywgJzgnLCAnLW1hJywgJzIwMCcsICctbWV0YWxfYmluZGluZycsICctaW1hZScsICc8aW5maWxlLm1hZT4nLCAnLW9tYWUnLCAnPG91dGZpbGUubWFlPic=

> <r_epik_Ionization_Penalty>
0.0932337

> <r_epik_Ionization_Penalty_Charging>
0.0931942

> <r_epik_Ionization_Penalty_Neutral>
3.9565e-05

> <r_epik_State_Penalty>
0.0834605

> <r_epik_Charging_Adjusted_Penalty>
0.176655

> <i_epik_Tot_Q>
1

> <i_epik_Tot_abs_Q>
1

> <r_epik_Metal_State_Penalty>
0.0834607

> <b_epik_Metal_Only>
0

> <s_lp_Force_Field>
OPLS_2005

> <r_lp_Energy>
28.0088

> <b_lp_Chiralities_Consistent>
1

> <s_lp_Variant>
AV-unprocessed.smi:2528-6

> <Gold.Version>
5.8.1

> <Gold.Id.Protein>
6NUR|6NUR_protein|mol2

> <Gold.PLP.Fitness>
45.8497

> <Gold.PLP.PLP>
-31.5348

> <Gold.PLP.part.hbond>
-2.9601

> <Gold.PLP.part.metal>
0.0000

> <Gold.PLP.part.buried>
-5.3474

> <Gold.PLP.part.nonpolar>
-25.4578

> <Gold.PLP.part.repulsive>
1.7341

> <Gold.PLP.ligand.clash>
0.0000

> <Gold.PLP.ligand.torsion>
0.1651

> <Gold.PLP.Chemscore.Hbond>
3.8785

> <Gold.PLP.Chemscore.CHOScore>
1.0000

> <Gold.PLP.Chemscore.Metal>
0.0000

> <Gold.Chemscore.Hbonds>
donor molecule, donor type, donor heavy atom, donor atom, acceptor molecule, acceptor atom, score
      L1  H     3    22       P1  7948  0.90
      L1  H     7    44       P1  8028  2.00
      L1  H    15    39       P1  7948  1.00
      L1  C    20    43       P1 10186  0.91

> <Gold.PLP.Chemscore.Internal.Correction>
0.0097

> <Gold.Rescore>
     Score         DG    S(hbond)    S(metal)    S(lipo)     H(rot)  DE(clash)    DE(int)     intcor
     18.29     -20.00       2.87        0.00      70.24       1.29       0.29       1.41       ----

> <Gold.Chemscore.Fitness>
18.2920

> <Gold.Chemscore.DG>
-19.9990

> <Gold.Chemscore.ZeroCoef>
-5.4800

> <Gold.Chemscore.Hbond>
2.8729

> <Gold.Chemscore.Metal>
0.0000

> <Gold.Chemscore.Lipo>
70.2417

> <Gold.Chemscore.Internal_Hbond>
0.0000

> <Gold.Chemscore.DEClash>
0.2933

> <Gold.Chemscore.DEInternal>
1.4137

> <Gold.Chemscore.Rot>
1.2870

> <Gold.Chemscore.Internal.Correction>
   9.000000E+99

> <Gold.Chemscore.Hbonds>
donor molecule, donor type, donor heavy atom, donor atom, acceptor molecule, acceptor atom, score
      L1  H     3    22       P1  7948  0.88
      L1  H     7    44       P1  8028  0.96
      L1  H    15    39       P1  7948  0.95

> <Gold.Chemscore.Hbond.Weighted>
-9.5956

> <Gold.Chemscore.Metal.Weighted>
-0.0000

> <Gold.Chemscore.Lipo.Weighted>
-8.2183

> <Gold.Chemscore.Internal_Hbond.Weighted>
0.0000

> <Gold.Chemscore.DEClash.Weighted>
0.2933

> <Gold.Chemscore.DEInternal.Weighted>
1.4137

> <Gold.Chemscore.Rot.Weighted>
3.2948

> <Gold.Chemscore.Internal.Correction.Weighted>
   9.000000E+99

> <Gold.Protein.RotatedTorsions>
[ 6907 6896 6895 6894 ] final   24.63 input  -60.11 | X-H torsion
[ 7974 7965 7964 7962 ] final  106.10 input  175.53 | X-H torsion
[ 8008 7997 7996 7995 ] final  -48.12 input   59.86 | X-H torsion
[ 10167 10162 10161 10158 ] final -173.00 input  -65.29 | X-H torsion
[ 10718 10713 10712 10709 ] final -142.66 input   66.30 | X-H torsion
[ 10763 10752 10751 10750 ] final -161.08 input  -60.55 | X-H torsion
[ 11005 11000 10999 10996 ] final   33.07 input  -57.11 | X-H torsion

> <Gold.Protein.ActiveResidues>
 VAL166  LYS551  ARG553  GLY616  TRP617  ASP618  TYR619  PRO620  LYS621  CYS622 
 ASP623  PHE694  ASN695  SER759  ASP760  ASP761  ALA762  ILE779  LEU786  VAL792 
 PHE793  MET794  SER795  GLU796  ALA797  LYS798  CYS799  TRP800  GLU811  SER814 

> <Gold.Protein.RotatedAtoms>
  151.9604  135.0126  160.0547 H   0  0  0  0  0  0  0  0  0  0  0  0  # atno 6907 bound_to 6896
  152.1874  133.4744  159.4998 H   0  0  0  0  0  0  0  0  0  0  0  0  # atno 6908 bound_to 6896
  150.6928  134.1674  159.4242 H   0  0  0  0  0  0  0  0  0  0  0  0  # atno 6909 bound_to 6896
  145.3111  139.2540  143.3762 H   0  0  0  0  0  0  0  0  0  0  0  0  # atno 7974 bound_to 7965
  154.4025  140.1329  156.4287 H   0  0  0  0  0  0  0  0  0  0  0  0  # atno 8008 bound_to 7997
  155.7572  140.3487  155.5160 H   0  0  0  0  0  0  0  0  0  0  0  0  # atno 8009 bound_to 7997
  155.8893  140.1000  157.1420 H   0  0  0  0  0  0  0  0  0  0  0  0  # atno 8010 bound_to 7997
  139.5713  144.1636  152.1387 H   0  0  0  0  0  0  0  0  0  0  0  0  # atno 10167 bound_to 10162
  156.3485  130.7675  151.1824 H   0  0  0  0  0  0  0  0  0  0  0  0  # atno 10718 bound_to 10713
  154.7335  135.3052  154.8851 H   0  0  0  0  0  0  0  0  0  0  0  0  # atno 10763 bound_to 10752
  153.9687  135.6744  153.4750 H   0  0  0  0  0  0  0  0  0  0  0  0  # atno 10764 bound_to 10752
  153.0940  135.4945  154.8666 H   0  0  0  0  0  0  0  0  0  0  0  0  # atno 10765 bound_to 10752
  140.2669  134.3127  155.7840 H   0  0  0  0  0  0  0  0  0  0  0  0  # atno 11005 bound_to 11000
  146.3117  140.3647  142.8668 LP  0  0  0  0  0  0  0  0  0  0  0  0  # atno 17320 bound_to 7965
  144.9015  140.7648  143.5864 LP  0  0  0  0  0  0  0  0  0  0  0  0  # atno 17321 bound_to 7965
  140.1169  144.5408  150.6888 LP  0  0  0  0  0  0  0  0  0  0  0  0  # atno 17342 bound_to 10162
  140.6997  143.2426  151.4900 LP  0  0  0  0  0  0  0  0  0  0  0  0  # atno 17343 bound_to 10162
  157.7458  131.0434  150.4743 LP  0  0  0  0  0  0  0  0  0  0  0  0  # atno 17370 bound_to 10713
  156.4934  130.4100  149.6394 LP  0  0  0  0  0  0  0  0  0  0  0  0  # atno 17371 bound_to 10713
  141.2183  133.7443  156.9274 LP  0  0  0  0  0  0  0  0  0  0  0  0  # atno 17394 bound_to 11000
  140.1411  134.9293  157.2467 LP  0  0  0  0  0  0  0  0  0  0  0  0  # atno 17395 bound_to 11000

$$$$
