AV-unprocessed.smi:234|AV-procd|sdf|1791|dock10
  -GOLD-   2262020353D 1   1.00000     0.00000
 Structure written by MMmdl.
 59 62  0  0  0  0  0  0  0  0  1 V2000
  152.9824  143.2689  158.9863 C   0  0  0  0  0  0  0  0  0  0  0  0
  153.4177  141.8918  159.5044 C   0  0  0  0  0  0  0  0  0  0  0  0
  152.9451  140.8326  158.6843 O   0  0  0  0  0  0  0  0  0  0  0  0
  151.5372  140.6383  158.7134 C   0  0  2  0  0  0  0  0  0  0  0  0
  151.1095  139.4580  157.8415 C   0  0  0  0  0  0  0  0  0  0  0  0
  149.8878  140.3107  157.4789 C   0  0  2  0  0  0  0  0  0  0  0  0
  149.4378  140.1668  156.0922 N   0  0  0  0  0  0  0  0  0  0  0  0
  150.3383  139.4802  155.1747 C   0  0  0  0  0  0  0  0  0  0  0  0
  148.9010  141.2658  155.5126 C   0  0  0  0  0  0  0  0  0  0  0  0
  149.3903  141.6220  154.2985 N   0  0  0  0  0  0  0  0  0  0  0  0
  148.9089  142.6991  153.6714 C   0  0  0  0  0  0  0  0  0  0  0  0
  147.9615  143.5473  154.0763 N   0  0  0  0  0  0  0  0  0  0  0  0
  147.4776  143.2012  155.3037 C   0  0  0  0  0  0  0  0  0  0  0  0
  147.8858  142.0845  156.0869 C   0  0  0  0  0  0  0  0  0  0  0  0
  147.1738  142.0615  157.2809 N   0  0  0  0  0  0  0  0  0  0  0  0
  146.3846  143.0975  157.2032 C   0  0  0  0  0  0  0  0  0  0  0  0
  146.5079  143.8438  156.0535 N   0  0  0  0  0  0  0  0  0  0  0  0
  145.7669  145.0479  155.7124 C   0  0  0  0  0  0  0  0  0  0  0  0
  145.1201  145.7392  156.9362 C   0  0  2  0  0  0  0  0  0  0  0  0
  146.1323  146.0079  157.8930 O   0  0  0  0  0  0  0  0  0  0  0  0
  144.0299  144.9179  157.6090 C   0  0  0  0  0  0  0  0  0  0  0  0
  143.1954  145.9847  158.3067 C   0  0  0  0  0  0  0  0  0  0  0  0
  143.2147  147.0960  157.4207 O   0  0  0  0  0  0  0  0  0  0  0  0
  144.3570  147.0311  156.5679 C   0  0  1  0  0  0  0  0  0  0  0  0
  145.1572  148.3424  156.6235 C   0  0  0  0  0  0  0  0  0  0  0  0
  150.7453  141.5749  157.7621 C   0  0  0  0  0  0  0  0  0  0  0  0
  150.0123  142.7375  158.4327 C   0  0  0  0  0  0  0  0  0  0  0  0
  151.5533  142.1622  156.5910 C   0  0  0  0  0  0  0  0  0  0  0  0
  153.4563  144.0641  159.5617 H   0  0  0  0  0  0  0  0  0  0  0  0
  151.9051  143.4063  159.0698 H   0  0  0  0  0  0  0  0  0  0  0  0
  153.2621  143.4009  157.9409 H   0  0  0  0  0  0  0  0  0  0  0  0
  154.5066  141.8422  159.5066 H   0  0  0  0  0  0  0  0  0  0  0  0
  153.0993  141.7449  160.5374 H   0  0  0  0  0  0  0  0  0  0  0  0
  151.1047  140.5664  159.7146 H   0  0  0  0  0  0  0  0  0  0  0  0
  151.7854  139.2684  157.0056 H   0  0  0  0  0  0  0  0  0  0  0  0
  150.8823  138.5450  158.3920 H   0  0  0  0  0  0  0  0  0  0  0  0
  149.0869  140.2027  158.2128 H   0  0  0  0  0  0  0  0  0  0  0  0
  149.8759  139.3364  154.1974 H   0  0  0  0  0  0  0  0  0  0  0  0
  150.6087  138.4969  155.5554 H   0  0  0  0  0  0  0  0  0  0  0  0
  151.2551  140.0546  155.0382 H   0  0  0  0  0  0  0  0  0  0  0  0
  149.3463  142.9129  152.7073 H   0  0  0  0  0  0  0  0  0  0  0  0
  145.6918  143.3520  157.9919 H   0  0  0  0  0  0  0  0  0  0  0  0
  146.4406  145.7372  155.2016 H   0  0  0  0  0  0  0  0  0  0  0  0
  145.0019  144.7747  154.9843 H   0  0  0  0  0  0  0  0  0  0  0  0
  146.0224  145.4138  158.6195 H   0  0  0  0  0  0  0  0  0  0  0  0
  143.4168  144.4187  156.8576 H   0  0  0  0  0  0  0  0  0  0  0  0
  144.4094  144.1564  158.2917 H   0  0  0  0  0  0  0  0  0  0  0  0
  142.1772  145.6547  158.5129 H   0  0  0  0  0  0  0  0  0  0  0  0
  143.6565  146.2764  159.2511 H   0  0  0  0  0  0  0  0  0  0  0  0
  143.9566  146.9222  155.5589 H   0  0  0  0  0  0  0  0  0  0  0  0
  146.0385  148.2908  155.9841 H   0  0  0  0  0  0  0  0  0  0  0  0
  145.4873  148.5710  157.6371 H   0  0  0  0  0  0  0  0  0  0  0  0
  144.5488  149.1800  156.2824 H   0  0  0  0  0  0  0  0  0  0  0  0
  149.2770  143.1872  157.7661 H   0  0  0  0  0  0  0  0  0  0  0  0
  150.7000  143.5272  158.7348 H   0  0  0  0  0  0  0  0  0  0  0  0
  149.4793  142.4119  159.3263 H   0  0  0  0  0  0  0  0  0  0  0  0
  150.9190  142.7106  155.8949 H   0  0  0  0  0  0  0  0  0  0  0  0
  152.0667  141.3908  156.0168 H   0  0  0  0  0  0  0  0  0  0  0  0
  152.3162  142.8560  156.9449 H   0  0  0  0  0  0  0  0  0  0  0  0
  1  2  1  0  0  0  0
  1 29  1  0  0  0  0
  1 30  1  0  0  0  0
  1 31  1  0  0  0  0
  2  3  1  0  0  0  0
  2 32  1  0  0  0  0
  2 33  1  0  0  0  0
  3  4  1  0  0  0  0
  4 26  1  0  0  0  0
  4  5  1  0  0  0  0
  4 34  1  0  0  0  0
  5  6  1  0  0  0  0
  5 35  1  0  0  0  0
  5 36  1  0  0  0  0
  6  7  1  0  0  0  0
  6 26  1  0  0  0  0
  6 37  1  0  0  0  0
  7  8  1  0  0  0  0
  7  9  1  0  0  0  0
  8 38  1  0  0  0  0
  8 39  1  0  0  0  0
  8 40  1  0  0  0  0
  9 14  1  0  0  0  0
  9 10  2  0  0  0  0
 10 11  1  0  0  0  0
 11 12  2  0  0  0  0
 11 41  1  0  0  0  0
 12 13  1  0  0  0  0
 13 17  1  0  0  0  0
 13 14  2  0  0  0  0
 14 15  1  0  0  0  0
 15 16  2  0  0  0  0
 16 17  1  0  0  0  0
 16 42  1  0  0  0  0
 17 18  1  0  0  0  0
 18 19  1  0  0  0  0
 18 43  1  0  0  0  0
 18 44  1  0  0  0  0
 19 24  1  0  0  0  0
 19 20  1  0  0  0  0
 19 21  1  0  0  0  0
 20 45  1  0  0  0  0
 21 22  1  0  0  0  0
 21 46  1  0  0  0  0
 21 47  1  0  0  0  0
 22 23  1  0  0  0  0
 22 48  1  0  0  0  0
 22 49  1  0  0  0  0
 23 24  1  0  0  0  0
 24 25  1  0  0  0  0
 24 50  1  0  0  0  0
 25 51  1  0  0  0  0
 25 52  1  0  0  0  0
 25 53  1  0  0  0  0
 26 27  1  0  0  0  0
 26 28  1  0  0  0  0
 27 54  1  0  0  0  0
 27 55  1  0  0  0  0
 27 56  1  0  0  0  0
 28 57  1  0  0  0  0
 28 58  1  0  0  0  0
 28 59  1  0  0  0  0
M  END
> <s_m_source_file>
AV-unprocessed.smi

> <i_m_source_file_index>
234

> <i_lp_mmshare_version>
43012

> <i_f3d_flags>
0

> <s_epik_input>
W0NIM11bQ0gyXU9bQ0BASF0oQzEoW0NIM10pW0NIM10pW0NIMl1bQ0BIXTFOKFtDSDNdKWMobltjSF1uMiljKGMyMyluW2NIXW4zW0NIMl1bQ0BAXTQoW09IXSlbQ0gyXVtDSDJdT1tDQEhdNFtDSDNd

> <s_epik_cmdline>
J2VwaWtfcHl0aG9uJywgJy1waCcsICc3LjAnLCAnLXRuJywgJzgnLCAnLW1hJywgJzIwMCcsICctbWV0YWxfYmluZGluZycsICctaW1hZScsICc8aW5maWxlLm1hZT4nLCAnLW9tYWUnLCAnPG91dGZpbGUubWFlPic=

> <r_lp_tautomer_probability>
1

> <r_epik_Ionization_Penalty>
0.00349132

> <r_epik_Ionization_Penalty_Charging>
0

> <r_epik_Ionization_Penalty_Neutral>
0.00349132

> <r_epik_State_Penalty>
0.00242418

> <r_epik_Charging_Adjusted_Penalty>
0.00242418

> <i_epik_Tot_Q>
0

> <i_epik_Tot_abs_Q>
0

> <r_epik_Metal_State_Penalty>
-0

> <b_epik_Metal_Only>
0

> <s_lp_Force_Field>
OPLS_2005

> <r_lp_Energy>
50.4374

> <b_lp_Chiralities_Consistent>
1

> <s_lp_Variant>
AV-unprocessed.smi:234-7

> <Gold.Version>
5.8.1

> <Gold.Id.Protein>
6NUR|6NUR_protein|mol2

> <Gold.PLP.Fitness>
38.6593

> <Gold.PLP.PLP>
-37.5435

> <Gold.PLP.part.hbond>
-1.0000

> <Gold.PLP.part.metal>
0.0000

> <Gold.PLP.part.buried>
-5.2583

> <Gold.PLP.part.nonpolar>
-31.2581

> <Gold.PLP.part.repulsive>
0.3468

> <Gold.PLP.ligand.clash>
0.0000

> <Gold.PLP.ligand.torsion>
1.3228

> <Gold.PLP.Chemscore.Hbond>
0.0000

> <Gold.PLP.Chemscore.CHOScore>
1.0000

> <Gold.PLP.Chemscore.Metal>
0.0000

> <Gold.Chemscore.Hbonds>
donor molecule, donor type, donor heavy atom, donor atom, acceptor molecule, acceptor atom, score
      P1  H  8022  8030       L1    12  0.57

> <Gold.PLP.Chemscore.Internal.Correction>
0.7614

> <Gold.Rescore>
     Score         DG    S(hbond)    S(metal)    S(lipo)     H(rot)  DE(clash)    DE(int)     intcor
      5.77      -8.47       0.00        0.00      82.91       2.62       0.11       2.58       ----

> <Gold.Chemscore.Fitness>
5.7728

> <Gold.Chemscore.DG>
-8.4679

> <Gold.Chemscore.ZeroCoef>
-5.4800

> <Gold.Chemscore.Hbond>
0.0000

> <Gold.Chemscore.Metal>
0.0000

> <Gold.Chemscore.Lipo>
82.9060

> <Gold.Chemscore.Internal_Hbond>
0.0000

> <Gold.Chemscore.DEClash>
0.1144

> <Gold.Chemscore.DEInternal>
2.5806

> <Gold.Chemscore.Rot>
2.6219

> <Gold.Chemscore.Internal.Correction>
   9.000000E+99

> <Gold.Chemscore.Hbonds>
donor molecule, donor type, donor heavy atom, donor atom, acceptor molecule, acceptor atom, score
      P1  H  7989  7998       L1    10  0.01
      P1  H  7997  8010       L1     3  0.03
      P1  H  8022  8030       L1    12  0.11

> <Gold.Chemscore.Hbond.Weighted>
-0.0000

> <Gold.Chemscore.Metal.Weighted>
-0.0000

> <Gold.Chemscore.Lipo.Weighted>
-9.7000

> <Gold.Chemscore.Internal_Hbond.Weighted>
0.0000

> <Gold.Chemscore.DEClash.Weighted>
0.1144

> <Gold.Chemscore.DEInternal.Weighted>
2.5806

> <Gold.Chemscore.Rot.Weighted>
6.7121

> <Gold.Chemscore.Internal.Correction.Weighted>
   9.000000E+99

> <Gold.Protein.RotatedTorsions>
[ 6907 6896 6895 6894 ] final  157.58 input  -60.11 | X-H torsion
[ 7974 7965 7964 7962 ] final  -26.57 input  175.53 | X-H torsion
[ 8008 7997 7996 7995 ] final   30.98 input   59.86 | X-H torsion
[ 10167 10162 10161 10158 ] final -133.79 input  -65.29 | X-H torsion
[ 10718 10713 10712 10709 ] final  178.61 input   66.30 | X-H torsion
[ 10763 10752 10751 10750 ] final  -14.76 input  -60.55 | X-H torsion
[ 11005 11000 10999 10996 ] final   98.68 input  -57.11 | X-H torsion

> <Gold.Protein.ActiveResidues>
 VAL166  LYS551  ARG553  GLY616  TRP617  ASP618  TYR619  PRO620  LYS621  CYS622 
 ASP623  PHE694  ASN695  SER759  ASP760  ASP761  ALA762  ILE779  LEU786  VAL792 
 PHE793  MET794  SER795  GLU796  ALA797  LYS798  CYS799  TRP800  GLU811  SER814 

> <Gold.Protein.RotatedAtoms>
  152.0130  133.3869  159.4227 H   0  0  0  0  0  0  0  0  0  0  0  0  # atno 6907 bound_to 6896
  150.6897  134.3709  159.5001 H   0  0  0  0  0  0  0  0  0  0  0  0  # atno 6908 bound_to 6896
  152.1472  134.9016  160.0601 H   0  0  0  0  0  0  0  0  0  0  0  0  # atno 6909 bound_to 6896
  146.1417  140.5037  142.8649 H   0  0  0  0  0  0  0  0  0  0  0  0  # atno 7974 bound_to 7965
  155.0990  140.3227  155.4552 H   0  0  0  0  0  0  0  0  0  0  0  0  # atno 8008 bound_to 7997
  156.2722  140.2064  156.6063 H   0  0  0  0  0  0  0  0  0  0  0  0  # atno 8009 bound_to 7997
  154.6844  140.0523  157.0286 H   0  0  0  0  0  0  0  0  0  0  0  0  # atno 8010 bound_to 7997
  139.8947  143.6680  152.2606 H   0  0  0  0  0  0  0  0  0  0  0  0  # atno 10167 bound_to 10162
  156.8880  130.9838  151.3053 H   0  0  0  0  0  0  0  0  0  0  0  0  # atno 10718 bound_to 10713
  153.5331  135.7014  153.5673 H   0  0  0  0  0  0  0  0  0  0  0  0  # atno 10763 bound_to 10752
  153.3672  135.3954  155.1762 H   0  0  0  0  0  0  0  0  0  0  0  0  # atno 10764 bound_to 10752
  154.8682  135.3803  154.4829 H   0  0  0  0  0  0  0  0  0  0  0  0  # atno 10765 bound_to 10752
  139.8772  134.9060  156.4492 H   0  0  0  0  0  0  0  0  0  0  0  0  # atno 11005 bound_to 11000
  144.7799  140.5819  143.6612 LP  0  0  0  0  0  0  0  0  0  0  0  0  # atno 17320 bound_to 7965
  145.5032  139.1482  143.3645 LP  0  0  0  0  0  0  0  0  0  0  0  0  # atno 17321 bound_to 7965
  139.7079  144.7625  151.1162 LP  0  0  0  0  0  0  0  0  0  0  0  0  # atno 17342 bound_to 10162
  140.7719  143.5370  150.9356 LP  0  0  0  0  0  0  0  0  0  0  0  0  # atno 17343 bound_to 10162
  157.6101  130.8576  149.8937 LP  0  0  0  0  0  0  0  0  0  0  0  0  # atno 17370 bound_to 10713
  156.0643  130.3694  150.0912 LP  0  0  0  0  0  0  0  0  0  0  0  0  # atno 17371 bound_to 10713
  140.8944  133.7825  155.9608 LP  0  0  0  0  0  0  0  0  0  0  0  0  # atno 17394 bound_to 11000
  140.8719  134.2716  157.5186 LP  0  0  0  0  0  0  0  0  0  0  0  0  # atno 17395 bound_to 11000

$$$$
