#       Name:                AV-unprocessed.smi:2510
#       Creating user name   scv26
#       Creation time:       Fri Mar 27 13:51:40 2020


#       File generated by GOLD software.
#

@<TRIPOS>MOLECULE
AV-unprocessed.smi:2510
    53    54     1
SMALL
NO_CHARGES


@<TRIPOS>ATOM
      1 ****        -3.3711   1.8353  -0.6580 C.3            1 S1                 0.0000
      2 ****        -3.0553   0.3877  -0.2461 C.3            1 S1                 0.0000
      3 ****        -1.5573   0.0925   0.0128 C.3            1 S1                 0.0000
      4 ****        -0.7576   0.3420  -1.2900 C.3            1 S1                 0.0000
      5 ****        -1.1710  -0.5310  -2.4849 C.3            1 S1                 0.0000
      6 ****        -1.0269   0.7299   1.3336 C.3            1 S1                 0.0000
      7 ****         0.3995   1.0525   1.3034 N.am           1 S1                 0.0000
      8 ****         0.9040   2.2606   1.0108 C.2            1 S1                 0.0000
      9 ****         0.2096   3.2577   0.8159 O.2            1 S1                 0.0000
     10 ****         2.4255   2.3490   0.8908 C.3            1 S1                 0.0000
     11 ****         2.9120   1.5077  -0.2462 C.2            1 S1                 0.0000
     12 ****         3.4395   0.2469  -0.2743 C.2            1 S1                 0.0000
     13 ****         3.6729  -0.0068  -1.6575 C.2            1 S1                 0.0000
     14 ****         4.2370  -1.2450  -2.2891 C.3            1 S1                 0.0000
     15 ****         3.3262   1.0155  -2.4250 N.2            1 S1                 0.0000
     16 ****         2.8662   1.9329  -1.5548 N.pl3          1 S1                 0.0000
     17 ****        -1.3010  -0.5945   2.0694 C.3            1 S1                 0.0000
     18 ****        -0.3713  -1.0720   3.1823 C.3            1 S1                 0.0000
     19 ****        -1.2575  -1.2679   0.6904 C.3            1 S1                 0.0000
     20 ****        -2.2713  -2.2347   0.4578 O.3            1 S1                 0.0000
     21 ****        -1.9944  -3.4873   1.0586 C.3            1 S1                 0.0000
     22 ****         2.5195   2.8297  -1.8645 H              1 S1                 0.0000
     23 ****        -4.4488   1.9918  -0.7040 H              1 S1                 0.0000
     24 ****        -2.9712   2.0729  -1.6432 H              1 S1                 0.0000
     25 ****        -2.9654   2.5550   0.0527 H              1 S1                 0.0000
     26 ****        -3.6319   0.1768   0.6547 H              1 S1                 0.0000
     27 ****        -3.4640  -0.2932  -0.9920 H              1 S1                 0.0000
     28 ****        -0.7919   1.3933  -1.5745 H              1 S1                 0.0000
     29 ****         0.2990   0.1360  -1.1205 H              1 S1                 0.0000
     30 ****        -0.4790  -0.3914  -3.3155 H              1 S1                 0.0000
     31 ****        -2.1653  -0.2775  -2.8511 H              1 S1                 0.0000
     32 ****        -1.1637  -1.5896  -2.2248 H              1 S1                 0.0000
     33 ****        -1.6469   1.5412   1.7181 H              1 S1                 0.0000
     34 ****         1.0448   0.2901   1.4504 H              1 S1                 0.0000
     35 ****         2.7240   3.3880   0.7451 H              1 S1                 0.0000
     36 ****         2.8792   2.0191   1.8260 H              1 S1                 0.0000
     37 ****         3.6220  -0.4035   0.5682 H              1 S1                 0.0000
     38 ****         4.2597  -2.0727  -1.5801 H              1 S1                 0.0000
     39 ****         5.2565  -1.0768  -2.6365 H              1 S1                 0.0000
     40 ****         3.6392  -1.5597  -3.1449 H              1 S1                 0.0000
     41 ****        -2.3316  -0.5780   2.4281 H              1 S1                 0.0000
     42 ****         0.6335  -1.2744   2.8109 H              1 S1                 0.0000
     43 ****        -0.7401  -1.9896   3.6398 H              1 S1                 0.0000
     44 ****        -0.2885  -0.3252   3.9718 H              1 S1                 0.0000
     45 ****        -0.2600  -1.6344   0.4372 H              1 S1                 0.0000
     46 ****        -2.7847  -4.1943   0.8067 H              1 S1                 0.0000
     47 ****        -1.9529  -3.4071   2.1446 H              1 S1                 0.0000
     48 ****        -1.0497  -3.8977   0.6997 H              1 S1                 0.0000
     49 ****        -0.7866   3.1920   0.8724 LP             1 S1                 0.0000
     50 ****         0.6416   4.1336   0.6009 LP             1 S1                 0.0000
     51 ****         3.3912   1.0886  -3.4203 LP             1 S1                 0.0000
     52 ****        -2.3628  -2.3685  -0.5290 LP             1 S1                 0.0000
     53 ****        -3.1328  -1.8877   0.8284 LP             1 S1                 0.0000
@<TRIPOS>BOND
    1    1    2 1     
    2    1   23 1     
    3    1   24 1     
    4    1   25 1     
    5    2    3 1     
    6    2   26 1     
    7    2   27 1     
    8    3   19 1     
    9    3    4 1     
   10    3    6 1     
   11    4    5 1     
   12    4   28 1     
   13    4   29 1     
   14    5   30 1     
   15    5   31 1     
   16    5   32 1     
   17    6    7 1     
   18    6   17 1     
   19    6   33 1     
   20    7    8 am    
   21    7   34 1     
   22    8    9 2     
   23    8   10 1     
   24   10   35 1     
   25   10   36 1     
   26   10   11 1     
   27   11   16 1     
   28   11   12 2     
   29   12   13 1     
   30   12   37 1     
   31   13   14 1     
   32   13   15 2     
   33   14   38 1     
   34   14   39 1     
   35   14   40 1     
   36   15   16 1     
   37   16   22 1     
   38   17   18 1     
   39   17   19 1     
   40   17   41 1     
   41   18   42 1     
   42   18   43 1     
   43   18   44 1     
   44   19   20 1     
   45   19   45 1     
   46   20   21 1     
   47   21   46 1     
   48   21   47 1     
   49   21   48 1     
   50    9   49 1     
   51    9   50 1     
   52   15   51 1     
   53   20   52 1     
   54   20   53 1     
@<TRIPOS>SUBSTRUCTURE
      1 S1             1
@<TRIPOS>SET
LONE_PAIRS      STATIC     ATOMS    <user>   **** ""
5 49 50 51 52 53
DONOR_HYDROGENS      STATIC     ATOMS    <user>   **** ""
2 34 22
ATOM$BLUE        STATIC     ATOMS    COLORGROUP SYSTEM
5 49 50 51 52 53
ATOM$RED        STATIC     ATOMS    COLORGROUP SYSTEM
2 34 22
