#       Name:                AV-unprocessed.smi:2790
#       Creating user name   scv26
#       Creation time:       Fri Mar 27 15:20:39 2020


#       File generated by GOLD software.
#

@<TRIPOS>MOLECULE
AV-unprocessed.smi:2790
    49    50     1
SMALL
NO_CHARGES


@<TRIPOS>ATOM
      1 ****        -3.2740   2.2982  -0.4279 C.3            1 S1                 0.0000
      2 ****        -2.7946   2.0060  -1.7972 N.4            1 S1                 1.0000
      3 ****        -3.6667   2.5993  -2.8337 C.3            1 S1                 0.0000
      4 ****        -2.5209   0.5639  -2.0227 C.3            1 S1                 0.0000
      5 ****        -1.0105   0.3441  -2.1475 C.2            1 S1                 0.0000
      6 ****        -0.5439   0.0959  -3.2631 O.2            1 S1                 0.0000
      7 ****        -0.3977   0.4684  -0.9392 N.pl3          1 S1                -1.0000
      8 ****         1.0468   0.3422  -0.7321 C.3            1 S1                 0.0000
      9 ****         1.3787  -0.4465   0.5939 C.3            1 S1                 0.0000
     10 ****         0.7732  -1.8776   0.4915 C.ar           1 S1                 0.0000
     11 ****         1.4297  -2.9076  -0.2382 C.ar           1 S1                 0.0000
     12 ****         0.8593  -4.1927  -0.3258 C.ar           1 S1                 0.0000
     13 ****        -0.3165  -4.4497   0.2816 N.pl3          1 S1                 1.0000
     14 ****        -0.9901  -3.5154   0.9820 C.ar           1 S1                 0.0000
     15 ****        -0.4666  -2.2129   1.1031 C.ar           1 S1                 0.0000
     16 ****         2.9330  -0.5810   0.7929 C.3            1 S1                 0.0000
     17 ****         3.6840   0.6951   1.2357 C.3            1 S1                 0.0000
     18 ****         3.0755   1.2975   2.5039 C.3            1 S1                 0.0000
     19 ****         1.5838   1.5699   2.2997 C.3            1 S1                 0.0000
     20 ****         0.8332   0.2895   1.8745 C.3            1 S1                 0.0000
     21 ****        -4.2459   1.8375  -0.2470 H              1 S1                 0.0000
     22 ****        -3.3709   3.3734  -0.2759 H              1 S1                 0.0000
     23 ****        -2.5721   1.9217   0.3169 H              1 S1                 0.0000
     24 ****        -4.6592   2.1473  -2.8146 H              1 S1                 0.0000
     25 ****        -3.2389   2.4506  -3.8258 H              1 S1                 0.0000
     26 ****        -3.7754   3.6730  -2.6774 H              1 S1                 0.0000
     27 ****        -2.9280  -0.0524  -1.2184 H              1 S1                 0.0000
     28 ****        -3.0017   0.2151  -2.9384 H              1 S1                 0.0000
     29 ****         1.5371  -0.1659  -1.5640 H              1 S1                 0.0000
     30 ****         1.5115   1.3268  -0.6900 H              1 S1                 0.0000
     31 ****         2.3613  -2.7256  -0.7508 H              1 S1                 0.0000
     32 ****         1.3040  -5.0153  -0.8666 H              1 S1                 0.0000
     33 ****        -1.9256  -3.8333   1.4188 H              1 S1                 0.0000
     34 ****        -1.0402  -1.4863   1.6562 H              1 S1                 0.0000
     35 ****         3.1106  -1.3292   1.5673 H              1 S1                 0.0000
     36 ****         3.4326  -0.9695  -0.0962 H              1 S1                 0.0000
     37 ****         4.7324   0.4558   1.4156 H              1 S1                 0.0000
     38 ****         3.6810   1.4374   0.4370 H              1 S1                 0.0000
     39 ****         3.2144   0.6127   3.3413 H              1 S1                 0.0000
     40 ****         3.5931   2.2207   2.7658 H              1 S1                 0.0000
     41 ****         1.1545   1.9525   3.2259 H              1 S1                 0.0000
     42 ****         1.4477   2.3584   1.5590 H              1 S1                 0.0000
     43 ****        -0.2282   0.5309   1.7928 H              1 S1                 0.0000
     44 ****         0.9044  -0.3988   2.7182 H              1 S1                 0.0000
     45 ****        -1.8976   2.4629  -1.8850 H              1 S1                 0.0000
     46 ****        -0.7146  -5.3857   0.2031 H              1 S1                 0.0000
     47 ****        -1.1489   0.0426  -4.0575 LP             1 S1                 0.0000
     48 ****         0.4390  -0.0519  -3.3724 LP             1 S1                 0.0000
     49 ****        -0.9701   0.6580  -0.1414 LP             1 S1                 0.0000
@<TRIPOS>BOND
    1    1    2 1     
    2    1   21 1     
    3    1   22 1     
    4    1   23 1     
    5    2    3 1     
    6    2    4 1     
    7    2   45 1     
    8    3   24 1     
    9    3   25 1     
   10    3   26 1     
   11    4    5 1     
   12    4   27 1     
   13    4   28 1     
   14    5    6 2     
   15    5    7 1     
   16    7    8 1     
   17    8    9 1     
   18    8   29 1     
   19    8   30 1     
   20    9   20 1     
   21    9   10 1     
   22    9   16 1     
   23   10   15 ar    
   24   10   11 ar    
   25   11   12 ar    
   26   11   31 1     
   27   12   13 ar    
   28   12   32 1     
   29   13   14 ar    
   30   13   46 1     
   31   14   15 ar    
   32   14   33 1     
   33   15   34 1     
   34   16   17 1     
   35   16   35 1     
   36   16   36 1     
   37   17   18 1     
   38   17   37 1     
   39   17   38 1     
   40   18   19 1     
   41   18   39 1     
   42   18   40 1     
   43   19   20 1     
   44   19   41 1     
   45   19   42 1     
   46   20   43 1     
   47   20   44 1     
   48    6   47 1     
   49    6   48 1     
   50    7   49 1     
@<TRIPOS>SUBSTRUCTURE
      1 S1             1
@<TRIPOS>SET
LONE_PAIRS      STATIC     ATOMS    <user>   **** ""
3 47 48 49
DONOR_HYDROGENS      STATIC     ATOMS    <user>   **** ""
2 45 46
ATOM$BLUE        STATIC     ATOMS    COLORGROUP SYSTEM
3 47 48 49
ATOM$RED        STATIC     ATOMS    COLORGROUP SYSTEM
2 45 46
