AV-unprocessed.smi:2495|AV-procd|sdf|9823|dock5
  -GOLD-   2272013453D 1   1.00000     0.00000
 Structure written by MMmdl.
 33 34  0  0  0  0  0  0  0  0  1 V2000
  146.4108  142.3881  154.4797 C   0  0  0  0  0  0  0  0  0  0  0  0
  147.4876  141.7508  155.2216 N   0  0  0  0  0  0  0  0  0  0  0  0
  148.5955  141.2412  154.6622 C   0  0  0  0  0  0  0  0  0  0  0  0
  148.8088  141.2806  153.4498 O   0  0  0  0  0  0  0  0  0  0  0  0
  149.6235  140.6147  155.6164 C   0  0  2  0  0  0  0  0  0  0  0  0
  150.2765  141.6607  156.5493 C   0  0  0  0  0  0  0  0  0  0  0  0
  151.3329  141.0513  157.3547 N   0  0  0  0  0  0  0  0  0  0  0  0
  151.8205  141.8363  158.4223 C   0  0  0  0  0  0  0  0  0  0  0  0
  151.4354  143.1914  158.5663 C   0  0  0  0  0  0  0  0  0  0  0  0
  151.9743  143.8961  159.6629 C   0  0  0  0  0  0  0  0  0  0  0  0
  151.6309  145.3499  159.9103 C   0  0  0  0  0  0  0  0  0  0  0  0
  152.8203  143.3133  160.5385 N   0  0  0  0  0  0  0  0  0  0  0  0
  153.1159  142.0311  160.3183 C   0  0  0  0  0  0  0  0  0  0  0  0
  152.6644  141.2685  159.3199 N   0  0  0  0  0  0  0  0  0  0  0  0
  152.3034  140.2939  156.5679 C   0  0  0  0  0  0  0  0  0  0  0  0
  151.5837  139.2883  155.6565 C   0  0  0  0  0  0  0  0  0  0  0  0
  150.6393  139.9748  154.8436 O   0  0  0  0  0  0  0  0  0  0  0  0
  145.6646  142.7803  155.1703 H   0  0  0  0  0  0  0  0  0  0  0  0
  145.9216  141.6718  153.8188 H   0  0  0  0  0  0  0  0  0  0  0  0
  146.7871  143.2166  153.8782 H   0  0  0  0  0  0  0  0  0  0  0  0
  147.3838  141.6817  156.2240 H   0  0  0  0  0  0  0  0  0  0  0  0
  149.1010  139.8644  156.2125 H   0  0  0  0  0  0  0  0  0  0  0  0
  150.7107  142.4722  155.9633 H   0  0  0  0  0  0  0  0  0  0  0  0
  149.5060  142.1026  157.1795 H   0  0  0  0  0  0  0  0  0  0  0  0
  150.7502  143.6730  157.8848 H   0  0  0  0  0  0  0  0  0  0  0  0
  150.6758  145.6072  159.4516 H   0  0  0  0  0  0  0  0  0  0  0  0
  152.4006  145.9948  159.4859 H   0  0  0  0  0  0  0  0  0  0  0  0
  151.5589  145.5563  160.9787 H   0  0  0  0  0  0  0  0  0  0  0  0
  153.7898  141.5618  161.0195 H   0  0  0  0  0  0  0  0  0  0  0  0
  152.8991  140.9833  155.9678 H   0  0  0  0  0  0  0  0  0  0  0  0
  152.9881  139.7566  157.2254 H   0  0  0  0  0  0  0  0  0  0  0  0
  152.3040  138.7825  155.0136 H   0  0  0  0  0  0  0  0  0  0  0  0
  151.0836  138.5166  156.2439 H   0  0  0  0  0  0  0  0  0  0  0  0
  1  2  1  0  0  0  0
  1 18  1  0  0  0  0
  1 19  1  0  0  0  0
  1 20  1  0  0  0  0
  2  3  1  0  0  0  0
  2 21  1  0  0  0  0
  3  4  2  0  0  0  0
  3  5  1  0  0  0  0
  5 17  1  0  0  0  0
  5  6  1  0  0  0  0
  5 22  1  0  0  0  0
  6  7  1  0  0  0  0
  6 23  1  0  0  0  0
  6 24  1  0  0  0  0
  7  8  1  0  0  0  0
  7 15  1  0  0  0  0
  8 14  1  0  0  0  0
  8  9  2  0  0  0  0
  9 10  1  0  0  0  0
  9 25  1  0  0  0  0
 10 11  1  0  0  0  0
 10 12  2  0  0  0  0
 11 26  1  0  0  0  0
 11 27  1  0  0  0  0
 11 28  1  0  0  0  0
 12 13  1  0  0  0  0
 13 14  2  0  0  0  0
 13 29  1  0  0  0  0
 15 16  1  0  0  0  0
 15 30  1  0  0  0  0
 15 31  1  0  0  0  0
 16 17  1  0  0  0  0
 16 32  1  0  0  0  0
 16 33  1  0  0  0  0
M  END
> <s_m_source_file>
AV-unprocessed.smi

> <i_m_source_file_index>
2495

> <i_lp_mmshare_version>
43012

> <i_f3d_flags>
0

> <s_epik_input>
W0NIM11bTkhdQyg9TylbQ0BASF0xW0NIMl1OKFtDSDJdW0NIMl1PMSljMltjSF1jKFtDSDNdKW5bY0hdbjI=

> <s_epik_cmdline>
J2VwaWtfcHl0aG9uJywgJy1waCcsICc3LjAnLCAnLXRuJywgJzgnLCAnLW1hJywgJzIwMCcsICctbWV0YWxfYmluZGluZycsICctaW1hZScsICc8aW5maWxlLm1hZT4nLCAnLW9tYWUnLCAnPG91dGZpbGUubWFlPic=

> <r_lp_tautomer_probability>
1

> <r_epik_Ionization_Penalty>
0.000466083

> <r_epik_Ionization_Penalty_Charging>
0

> <r_epik_Ionization_Penalty_Neutral>
0.000466083

> <r_epik_State_Penalty>
0.000259726

> <r_epik_Charging_Adjusted_Penalty>
0.000259726

> <i_epik_Tot_Q>
0

> <i_epik_Tot_abs_Q>
0

> <r_epik_Metal_State_Penalty>
-0

> <b_epik_Metal_Only>
0

> <s_lp_Force_Field>
OPLS_2005

> <r_lp_Energy>
12.0364

> <b_lp_Chiralities_Consistent>
1

> <s_lp_Variant>
AV-unprocessed.smi:2495-1

> <Gold.Version>
5.8.1

> <Gold.Id.Protein>
6NUR|6NUR_protein|mol2

> <Gold.PLP.Fitness>
39.4681

> <Gold.PLP.PLP>
-33.7591

> <Gold.PLP.part.hbond>
-3.8774

> <Gold.PLP.part.metal>
0.0000

> <Gold.PLP.part.buried>
-4.5883

> <Gold.PLP.part.nonpolar>
-29.1606

> <Gold.PLP.part.repulsive>
3.8990

> <Gold.PLP.ligand.clash>
0.0000

> <Gold.PLP.ligand.torsion>
0.2826

> <Gold.PLP.Chemscore.Hbond>
1.9760

> <Gold.PLP.Chemscore.CHOScore>
0.0000

> <Gold.PLP.Chemscore.Metal>
0.0000

> <Gold.Chemscore.Hbonds>
donor molecule, donor type, donor heavy atom, donor atom, acceptor molecule, acceptor atom, score
      P1  H  7989  7998       L1    17  1.00
      P1  H  8011  8017       L1     4  0.91

> <Gold.PLP.Chemscore.Internal.Correction>
0.3462

> <Gold.Rescore>
     Score         DG    S(hbond)    S(metal)    S(lipo)     H(rot)  DE(clash)    DE(int)     intcor
     13.35     -15.33       1.68        0.00      66.25       1.37       1.54       0.44       ----

> <Gold.Chemscore.Fitness>
13.3494

> <Gold.Chemscore.DG>
-15.3277

> <Gold.Chemscore.ZeroCoef>
-5.4800

> <Gold.Chemscore.Hbond>
1.6783

> <Gold.Chemscore.Metal>
0.0000

> <Gold.Chemscore.Lipo>
66.2475

> <Gold.Chemscore.Internal_Hbond>
0.0000

> <Gold.Chemscore.DEClash>
1.5371

> <Gold.Chemscore.DEInternal>
0.4411

> <Gold.Chemscore.Rot>
1.3706

> <Gold.Chemscore.Internal.Correction>
   9.000000E+99

> <Gold.Chemscore.Hbonds>
donor molecule, donor type, donor heavy atom, donor atom, acceptor molecule, acceptor atom, score
      P1  H  7989  7998       L1    17  0.60
      P1  H  8011  8017       L1     4  0.90

> <Gold.Chemscore.Hbond.Weighted>
-5.6054

> <Gold.Chemscore.Metal.Weighted>
-0.0000

> <Gold.Chemscore.Lipo.Weighted>
-7.7510

> <Gold.Chemscore.Internal_Hbond.Weighted>
0.0000

> <Gold.Chemscore.DEClash.Weighted>
1.5371

> <Gold.Chemscore.DEInternal.Weighted>
0.4411

> <Gold.Chemscore.Rot.Weighted>
3.5087

> <Gold.Chemscore.Internal.Correction.Weighted>
   9.000000E+99

> <Gold.Protein.RotatedTorsions>
[ 6907 6896 6895 6894 ] final    4.81 input  -60.11 | X-H torsion
[ 7974 7965 7964 7962 ] final   -9.88 input  175.53 | X-H torsion
[ 8008 7997 7996 7995 ] final  -74.36 input   59.86 | X-H torsion
[ 10167 10162 10161 10158 ] final   53.88 input  -65.29 | X-H torsion
[ 10718 10713 10712 10709 ] final   48.00 input   66.30 | X-H torsion
[ 10763 10752 10751 10750 ] final  -49.57 input  -60.55 | X-H torsion
[ 11005 11000 10999 10996 ] final  101.17 input  -57.11 | X-H torsion

> <Gold.Protein.ActiveResidues>
 VAL166  LYS551  ARG553  GLY616  TRP617  ASP618  TYR619  PRO620  LYS621  CYS622 
 ASP623  PHE694  ASN695  SER759  ASP760  ASP761  ALA762  ILE779  LEU786  VAL792 
 PHE793  MET794  SER795  GLU796  ALA797  LYS798  CYS799  TRP800  GLU811  SER814 

> <Gold.Protein.RotatedAtoms>
  151.6474  135.1005  160.0153 H   0  0  0  0  0  0  0  0  0  0  0  0  # atno 6907 bound_to 6896
  152.4020  133.6828  159.6333 H   0  0  0  0  0  0  0  0  0  0  0  0  # atno 6908 bound_to 6896
  150.7919  133.8691  159.3294 H   0  0  0  0  0  0  0  0  0  0  0  0  # atno 6909 bound_to 6896
  146.2238  140.2682  142.8355 H   0  0  0  0  0  0  0  0  0  0  0  0  # atno 7974 bound_to 7965
  154.5324  140.0763  156.8368 H   0  0  0  0  0  0  0  0  0  0  0  0  # atno 8008 bound_to 7997
  155.3348  140.3404  155.4221 H   0  0  0  0  0  0  0  0  0  0  0  0  # atno 8009 bound_to 7997
  156.1794  140.1647  156.8288 H   0  0  0  0  0  0  0  0  0  0  0  0  # atno 8010 bound_to 7997
  140.2361  144.3635  150.6397 H   0  0  0  0  0  0  0  0  0  0  0  0  # atno 10167 bound_to 10162
  157.4642  130.8215  149.7919 H   0  0  0  0  0  0  0  0  0  0  0  0  # atno 10718 bound_to 10713
  154.0963  135.6570  153.4861 H   0  0  0  0  0  0  0  0  0  0  0  0  # atno 10763 bound_to 10752
  153.0304  135.5214  154.7331 H   0  0  0  0  0  0  0  0  0  0  0  0  # atno 10764 bound_to 10752
  154.6469  135.2996  155.0003 H   0  0  0  0  0  0  0  0  0  0  0  0  # atno 10765 bound_to 10752
  139.8772  134.9172  156.4866 H   0  0  0  0  0  0  0  0  0  0  0  0  # atno 11005 bound_to 11000
  144.9288  140.7951  143.5702 LP  0  0  0  0  0  0  0  0  0  0  0  0  # atno 17320 bound_to 7965
  145.2624  139.1987  143.4885 LP  0  0  0  0  0  0  0  0  0  0  0  0  # atno 17321 bound_to 7965
  140.6149  143.2171  151.6812 LP  0  0  0  0  0  0  0  0  0  0  0  0  # atno 17342 bound_to 10162
  139.5093  144.3581  152.0589 LP  0  0  0  0  0  0  0  0  0  0  0  0  # atno 17343 bound_to 10162
  156.0043  130.3864  150.2490 LP  0  0  0  0  0  0  0  0  0  0  0  0  # atno 17370 bound_to 10713
  157.0669  131.0106  151.3203 LP  0  0  0  0  0  0  0  0  0  0  0  0  # atno 17371 bound_to 10713
  140.8688  133.8004  155.9343 LP  0  0  0  0  0  0  0  0  0  0  0  0  # atno 17394 bound_to 11000
  140.8974  134.2421  157.5061 LP  0  0  0  0  0  0  0  0  0  0  0  0  # atno 17395 bound_to 11000

$$$$
