AV-unprocessed.smi:2002|AV-procd|sdf|8114|dock4
  -GOLD-   2272010343D 1   1.00000     0.00000
 Structure written by MMmdl.
 39 40  0  0  0  0  0  0  0  0  2 V2000
  144.5387  131.5026  151.2871 C   0  0  0  0  0  0  0  0  0  0  0  0
  143.2373  132.2992  151.1218 C   0  0  0  0  0  0  0  0  0  0  0  0
  143.4802  133.7603  151.0889 N   0  3  2  0  0  0  0  0  0  0  0  0
  144.4845  134.1834  150.0896 C   0  0  0  0  0  0  0  0  0  0  0  0
  145.1115  135.4532  150.6584 C   0  0  0  0  0  0  0  0  0  0  0  0
  145.1566  135.1568  152.1544 C   0  0  1  0  0  0  0  0  0  0  0  0
  145.3327  136.4085  153.0356 C   0  0  0  0  0  0  0  0  0  0  0  0
  146.7255  136.8430  153.0978 N   0  0  0  0  0  0  0  0  0  0  0  0
  147.1721  137.9448  153.7185 C   0  0  0  0  0  0  0  0  0  0  0  0
  146.4383  138.7251  154.3247 O   0  0  0  0  0  0  0  0  0  0  0  0
  148.5043  138.0673  153.5931 N   0  0  0  0  0  0  0  0  0  0  0  0
  149.3501  139.0773  154.1206 C   0  0  0  0  0  0  0  0  0  0  0  0
  148.9321  140.3040  154.7140 C   0  0  0  0  0  0  0  0  0  0  0  0
  150.1148  140.9006  155.0487 C   0  0  0  0  0  0  0  0  0  0  0  0
  150.4462  142.1980  155.7024 C   0  0  0  0  0  0  0  0  0  0  0  0
  151.1624  140.1092  154.6932 O   0  0  0  0  0  0  0  0  0  0  0  0
  150.6634  138.9440  154.0994 N   0  0  0  0  0  0  0  0  0  0  0  0
  143.8591  134.3657  152.3891 C   0  0  0  0  0  0  0  0  0  0  0  0
  144.3305  130.4346  151.3523 H   0  0  0  0  0  0  0  0  0  0  0  0
  145.0659  131.7928  152.1964 H   0  0  0  0  0  0  0  0  0  0  0  0
  145.2147  131.6530  150.4453 H   0  0  0  0  0  0  0  0  0  0  0  0
  142.7092  131.9890  150.2190 H   0  0  0  0  0  0  0  0  0  0  0  0
  142.5815  132.0720  151.9634 H   0  0  0  0  0  0  0  0  0  0  0  0
  145.2530  133.4147  149.9878 H   0  0  0  0  0  0  0  0  0  0  0  0
  144.0339  134.3396  149.1090 H   0  0  0  0  0  0  0  0  0  0  0  0
  146.0955  135.6627  150.2375 H   0  0  0  0  0  0  0  0  0  0  0  0
  144.4671  136.3107  150.4584 H   0  0  0  0  0  0  0  0  0  0  0  0
  145.9988  134.4845  152.3290 H   0  0  0  0  0  0  0  0  0  0  0  0
  144.7526  137.2309  152.6167 H   0  0  0  0  0  0  0  0  0  0  0  0
  144.9339  136.2362  154.0368 H   0  0  0  0  0  0  0  0  0  0  0  0
  147.4011  136.2621  152.6224 H   0  0  0  0  0  0  0  0  0  0  0  0
  148.9739  137.3485  153.0624 H   0  0  0  0  0  0  0  0  0  0  0  0
  147.9401  140.6977  154.8751 H   0  0  0  0  0  0  0  0  0  0  0  0
  149.5597  142.8259  155.7926 H   0  0  0  0  0  0  0  0  0  0  0  0
  151.1899  142.7451  155.1228 H   0  0  0  0  0  0  0  0  0  0  0  0
  150.8484  142.0342  156.7020 H   0  0  0  0  0  0  0  0  0  0  0  0
  143.0458  135.0271  152.6882 H   0  0  0  0  0  0  0  0  0  0  0  0
  143.9908  133.6271  153.1811 H   0  0  0  0  0  0  0  0  0  0  0  0
  142.6118  134.1986  150.8164 H   0  0  0  0  0  0  0  0  0  0  0  0
  1  2  1  0  0  0  0
  1 19  1  0  0  0  0
  1 20  1  0  0  0  0
  1 21  1  0  0  0  0
  2  3  1  0  0  0  0
  2 22  1  0  0  0  0
  2 23  1  0  0  0  0
  3 18  1  0  0  0  0
  3  4  1  0  0  0  0
  3 39  1  0  0  0  0
  4  5  1  0  0  0  0
  4 24  1  0  0  0  0
  4 25  1  0  0  0  0
  5  6  1  0  0  0  0
  5 26  1  0  0  0  0
  5 27  1  0  0  0  0
  6  7  1  0  0  0  0
  6 18  1  0  0  0  0
  6 28  1  0  0  0  0
  7  8  1  0  0  0  0
  7 29  1  0  0  0  0
  7 30  1  0  0  0  0
  8  9  1  0  0  0  0
  8 31  1  0  0  0  0
  9 10  2  0  0  0  0
  9 11  1  0  0  0  0
 11 12  1  0  0  0  0
 11 32  1  0  0  0  0
 12 17  2  0  0  0  0
 12 13  1  0  0  0  0
 13 14  2  0  0  0  0
 13 33  1  0  0  0  0
 14 15  1  0  0  0  0
 14 16  1  0  0  0  0
 15 34  1  0  0  0  0
 15 35  1  0  0  0  0
 15 36  1  0  0  0  0
 16 17  1  0  0  0  0
 18 37  1  0  0  0  0
 18 38  1  0  0  0  0
M  CHG  1   3   1
M  END
> <s_m_source_file>
AV-unprocessed.smi

> <i_m_source_file_index>
2002

> <i_lp_mmshare_version>
43012

> <i_f3d_flags>
0

> <s_epik_input>
W0NIM11bQ0gyXU4xW0NIMl1bQ0gyXVtDQEhdKFtDSDJdMSlbQ0gyXVtOSF1DKD1PKVtOSF1jMltjSF1jKFtDSDNdKW9uMg==

> <s_epik_cmdline>
J2VwaWtfcHl0aG9uJywgJy1waCcsICc3LjAnLCAnLXRuJywgJzgnLCAnLW1hJywgJzIwMCcsICctbWV0YWxfYmluZGluZycsICctaW1hZScsICc8aW5maWxlLm1hZT4nLCAnLW9tYWUnLCAnPG91dGZpbGUubWFlPic=

> <r_epik_Ionization_Penalty>
0.000632871

> <r_epik_Ionization_Penalty_Charging>
0.000610951

> <r_epik_Ionization_Penalty_Neutral>
2.19198e-05

> <r_epik_State_Penalty>
0.000385263

> <r_epik_Charging_Adjusted_Penalty>
0.000996214

> <i_epik_Tot_Q>
1

> <i_epik_Tot_abs_Q>
1

> <r_epik_Metal_State_Penalty>
-0

> <b_epik_Metal_Only>
0

> <s_lp_Force_Field>
OPLS_2005

> <r_lp_Energy>
27.554

> <b_lp_Chiralities_Consistent>
1

> <s_lp_Variant>
AV-unprocessed.smi:2002-2

> <Gold.Version>
5.8.1

> <Gold.Id.Protein>
6NUR|6NUR_protein|mol2

> <Gold.PLP.Fitness>
42.7405

> <Gold.PLP.PLP>
-28.7387

> <Gold.PLP.part.hbond>
-4.2152

> <Gold.PLP.part.metal>
0.0000

> <Gold.PLP.part.buried>
-0.6425

> <Gold.PLP.part.nonpolar>
-23.8214

> <Gold.PLP.part.repulsive>
0.3903

> <Gold.PLP.ligand.clash>
0.0000

> <Gold.PLP.ligand.torsion>
0.2701

> <Gold.PLP.Chemscore.Hbond>
4.8440

> <Gold.PLP.Chemscore.CHOScore>
0.0000

> <Gold.PLP.Chemscore.Metal>
0.0000

> <Gold.Chemscore.Hbonds>
donor molecule, donor type, donor heavy atom, donor atom, acceptor molecule, acceptor atom, score
      L1  H     3    39       P1 10186  1.92
      L1  H     8    31       P1  7948  0.91
      L1  H    11    32       P1  7948  1.00
      P1  H  7989  7998       L1    16  0.86

> <Gold.PLP.Chemscore.Internal.Correction>
0.0101

> <Gold.Rescore>
     Score         DG    S(hbond)    S(metal)    S(lipo)     H(rot)  DE(clash)    DE(int)     intcor
     16.12     -18.60       2.79        0.00      65.72       1.52       0.97       1.51       ----

> <Gold.Chemscore.Fitness>
16.1242

> <Gold.Chemscore.DG>
-18.6036

> <Gold.Chemscore.ZeroCoef>
-5.4800

> <Gold.Chemscore.Hbond>
2.7940

> <Gold.Chemscore.Metal>
0.0000

> <Gold.Chemscore.Lipo>
65.7167

> <Gold.Chemscore.Internal_Hbond>
0.0000

> <Gold.Chemscore.DEClash>
0.9682

> <Gold.Chemscore.DEInternal>
1.5112

> <Gold.Chemscore.Rot>
1.5223

> <Gold.Chemscore.Internal.Correction>
   9.000000E+99

> <Gold.Chemscore.Hbonds>
donor molecule, donor type, donor heavy atom, donor atom, acceptor molecule, acceptor atom, score
      L1  H     3    39       P1 10186  0.40
      L1  H     8    31       P1  7948  0.90
      L1  H    11    32       P1  7948  0.95
      P1  H  7989  7998       L1    16  0.07

> <Gold.Chemscore.Hbond.Weighted>
-9.3318

> <Gold.Chemscore.Metal.Weighted>
-0.0000

> <Gold.Chemscore.Lipo.Weighted>
-7.6889

> <Gold.Chemscore.Internal_Hbond.Weighted>
0.0000

> <Gold.Chemscore.DEClash.Weighted>
0.9682

> <Gold.Chemscore.DEInternal.Weighted>
1.5112

> <Gold.Chemscore.Rot.Weighted>
3.8971

> <Gold.Chemscore.Internal.Correction.Weighted>
   9.000000E+99

> <Gold.Protein.RotatedTorsions>
[ 6907 6896 6895 6894 ] final -104.97 input  -60.11 | X-H torsion
[ 7974 7965 7964 7962 ] final   14.37 input  175.53 | X-H torsion
[ 8008 7997 7996 7995 ] final   34.84 input   59.86 | X-H torsion
[ 10167 10162 10161 10158 ] final   93.27 input  -65.29 | X-H torsion
[ 10718 10713 10712 10709 ] final  116.66 input   66.30 | X-H torsion
[ 10763 10752 10751 10750 ] final   74.70 input  -60.55 | X-H torsion
[ 11005 11000 10999 10996 ] final  174.08 input  -57.11 | X-H torsion

> <Gold.Protein.ActiveResidues>
 VAL166  LYS551  ARG553  GLY616  TRP617  ASP618  TYR619  PRO620  LYS621  CYS622 
 ASP623  PHE694  ASN695  SER759  ASP760  ASP761  ALA762  ILE779  LEU786  VAL792 
 PHE793  MET794  SER795  GLU796  ALA797  LYS798  CYS799  TRP800  GLU811  SER814 

> <Gold.Protein.RotatedAtoms>
  150.7313  134.0197  159.3696 H   0  0  0  0  0  0  0  0  0  0  0  0  # atno 6907 bound_to 6896
  151.8161  135.0664  160.0428 H   0  0  0  0  0  0  0  0  0  0  0  0  # atno 6908 bound_to 6896
  152.3037  133.5645  159.5672 H   0  0  0  0  0  0  0  0  0  0  0  0  # atno 6909 bound_to 6896
  146.2306  139.9051  142.8533 H   0  0  0  0  0  0  0  0  0  0  0  0  # atno 7974 bound_to 7965
  155.1613  140.3283  155.4411 H   0  0  0  0  0  0  0  0  0  0  0  0  # atno 8008 bound_to 7997
  156.2541  140.1959  156.6671 H   0  0  0  0  0  0  0  0  0  0  0  0  # atno 8009 bound_to 7997
  154.6403  140.0571  156.9823 H   0  0  0  0  0  0  0  0  0  0  0  0  # atno 8010 bound_to 7997
  139.8196  144.6737  150.9536 H   0  0  0  0  0  0  0  0  0  0  0  0  # atno 10167 bound_to 10162
  157.6146  131.1028  150.7504 H   0  0  0  0  0  0  0  0  0  0  0  0  # atno 10718 bound_to 10713
  153.0605  135.5016  154.8081 H   0  0  0  0  0  0  0  0  0  0  0  0  # atno 10763 bound_to 10752
  154.6874  135.2978  154.9530 H   0  0  0  0  0  0  0  0  0  0  0  0  # atno 10764 bound_to 10752
  154.0295  135.6731  153.4832 H   0  0  0  0  0  0  0  0  0  0  0  0  # atno 10765 bound_to 10752
  140.3474  134.7224  157.4244 H   0  0  0  0  0  0  0  0  0  0  0  0  # atno 11005 bound_to 11000
  145.2285  140.9963  143.4004 LP  0  0  0  0  0  0  0  0  0  0  0  0  # atno 17320 bound_to 7965
  144.9550  139.4041  143.6383 LP  0  0  0  0  0  0  0  0  0  0  0  0  # atno 17321 bound_to 7965
  140.7814  143.4105  151.1001 LP  0  0  0  0  0  0  0  0  0  0  0  0  # atno 17342 bound_to 10162
  139.7766  143.8416  152.3130 LP  0  0  0  0  0  0  0  0  0  0  0  0  # atno 17343 bound_to 10162
  156.7874  130.4879  149.5390 LP  0  0  0  0  0  0  0  0  0  0  0  0  # atno 17370 bound_to 10713
  156.1263  130.6146  151.0268 LP  0  0  0  0  0  0  0  0  0  0  0  0  # atno 17371 bound_to 10713
  140.0731  134.5835  155.8620 LP  0  0  0  0  0  0  0  0  0  0  0  0  # atno 17394 bound_to 11000
  141.2022  133.6623  156.5991 LP  0  0  0  0  0  0  0  0  0  0  0  0  # atno 17395 bound_to 11000

$$$$
