AV-unprocessed.smi:94|AV-procd|sdf|852|dock8
  -GOLD-   2262017293D 1   1.00000     0.00000
 Structure written by MMmdl.
 53 55  0  0  0  0  0  0  0  0  1 V2000
  148.3897  141.4438  156.6202 C   0  0  0  0  0  0  0  0  0  0  0  0
  149.5815  140.8918  156.0801 O   0  0  0  0  0  0  0  0  0  0  0  0
  150.7767  141.1477  156.7216 C   0  0  0  0  0  0  0  0  0  0  0  0
  150.9793  142.2697  157.5655 C   0  0  0  0  0  0  0  0  0  0  0  0
  152.2235  142.4898  158.1833 C   0  0  0  0  0  0  0  0  0  0  0  0
  153.2880  141.5967  157.9650 C   0  0  0  0  0  0  0  0  0  0  0  0
  154.6307  141.8357  158.6240 C   0  0  0  0  0  0  0  0  0  0  0  0
  153.0970  140.4777  157.1329 C   0  0  0  0  0  0  0  0  0  0  0  0
  151.8465  140.2394  156.5153 C   0  0  0  0  0  0  0  0  0  0  0  0
  151.6559  139.0267  155.6023 C   0  0  1  0  0  0  0  0  0  0  0  0
  152.6278  139.0813  154.4115 C   0  0  0  0  0  0  0  0  0  0  0  0
  151.8019  137.7577  156.3155 N   0  0  0  0  0  0  0  0  0  0  0  0
  151.6403  136.5378  155.7805 C   0  0  0  0  0  0  0  0  0  0  0  0
  151.3368  136.3526  154.6011 O   0  0  0  0  0  0  0  0  0  0  0  0
  151.8452  135.3501  156.7325 C   0  0  0  0  0  0  0  0  0  0  0  0
  151.3453  134.0762  156.1714 N   0  0  0  0  0  0  0  0  0  0  0  0
  149.9727  133.9607  155.8390 C   0  0  0  0  0  0  0  0  0  0  0  0
  149.1893  134.8930  156.0238 O   0  0  0  0  0  0  0  0  0  0  0  0
  149.5691  132.6807  155.2675 C   0  0  0  0  0  0  0  0  0  0  0  0
  148.2823  132.4753  154.9394 F   0  0  0  0  0  0  0  0  0  0  0  0
  150.4680  131.6958  155.0624 C   0  0  0  0  0  0  0  0  0  0  0  0
  151.8100  131.8306  155.3712 N   0  0  0  0  0  0  0  0  0  0  0  0
  152.8101  130.7190  155.1276 C   0  0  2  0  0  0  0  0  0  0  0  0
  153.8958  131.1732  154.1313 C   0  0  0  0  0  0  0  0  0  0  0  0
  153.8693  130.0808  153.0807 C   0  0  0  0  0  0  0  0  0  0  0  0
  152.4262  129.6064  153.1541 C   0  0  0  0  0  0  0  0  0  0  0  0
  152.1675  129.6174  154.5515 O   0  0  0  0  0  0  0  0  0  0  0  0
  152.2736  133.0315  155.9506 C   0  0  0  0  0  0  0  0  0  0  0  0
  153.4628  133.1656  156.2491 O   0  0  0  0  0  0  0  0  0  0  0  0
  147.5439  141.1442  156.0017 H   0  0  0  0  0  0  0  0  0  0  0  0
  148.4225  142.5340  156.6275 H   0  0  0  0  0  0  0  0  0  0  0  0
  148.2034  141.0789  157.6312 H   0  0  0  0  0  0  0  0  0  0  0  0
  150.1932  142.9843  157.7552 H   0  0  0  0  0  0  0  0  0  0  0  0
  152.3583  143.3502  158.8222 H   0  0  0  0  0  0  0  0  0  0  0  0
  155.4429  141.4731  157.9932 H   0  0  0  0  0  0  0  0  0  0  0  0
  154.6778  141.3137  159.5798 H   0  0  0  0  0  0  0  0  0  0  0  0
  154.7930  142.8989  158.8042 H   0  0  0  0  0  0  0  0  0  0  0  0
  153.9256  139.8050  156.9674 H   0  0  0  0  0  0  0  0  0  0  0  0
  150.6361  139.0611  155.2159 H   0  0  0  0  0  0  0  0  0  0  0  0
  152.4928  139.9990  153.8382 H   0  0  0  0  0  0  0  0  0  0  0  0
  152.4706  138.2455  153.7288 H   0  0  0  0  0  0  0  0  0  0  0  0
  153.6656  139.0477  154.7451 H   0  0  0  0  0  0  0  0  0  0  0  0
  152.0452  137.8150  157.2936 H   0  0  0  0  0  0  0  0  0  0  0  0
  152.9035  135.2635  156.9863 H   0  0  0  0  0  0  0  0  0  0  0  0
  151.3645  135.5909  157.6815 H   0  0  0  0  0  0  0  0  0  0  0  0
  150.1021  130.7729  154.6392 H   0  0  0  0  0  0  0  0  0  0  0  0
  153.1912  130.4479  156.1137 H   0  0  0  0  0  0  0  0  0  0  0  0
  153.6270  132.1334  153.6877 H   0  0  0  0  0  0  0  0  0  0  0  0
  154.8633  131.2695  154.6248 H   0  0  0  0  0  0  0  0  0  0  0  0
  154.1535  130.4338  152.0891 H   0  0  0  0  0  0  0  0  0  0  0  0
  154.5435  129.2712  153.3635 H   0  0  0  0  0  0  0  0  0  0  0  0
  151.7611  130.3027  152.6412 H   0  0  0  0  0  0  0  0  0  0  0  0
  152.2850  128.6138  152.7263 H   0  0  0  0  0  0  0  0  0  0  0  0
  1  2  1  0  0  0  0
  1 30  1  0  0  0  0
  1 31  1  0  0  0  0
  1 32  1  0  0  0  0
  2  3  1  0  0  0  0
  3  9  1  0  0  0  0
  3  4  2  0  0  0  0
  4  5  1  0  0  0  0
  4 33  1  0  0  0  0
  5  6  2  0  0  0  0
  5 34  1  0  0  0  0
  6  7  1  0  0  0  0
  6  8  1  0  0  0  0
  7 35  1  0  0  0  0
  7 36  1  0  0  0  0
  7 37  1  0  0  0  0
  8  9  2  0  0  0  0
  8 38  1  0  0  0  0
  9 10  1  0  0  0  0
 10 11  1  0  0  0  0
 10 12  1  0  0  0  0
 10 39  1  0  0  0  0
 11 40  1  0  0  0  0
 11 41  1  0  0  0  0
 11 42  1  0  0  0  0
 12 13  1  0  0  0  0
 12 43  1  0  0  0  0
 13 14  2  0  0  0  0
 13 15  1  0  0  0  0
 15 16  1  0  0  0  0
 15 44  1  0  0  0  0
 15 45  1  0  0  0  0
 16 28  1  0  0  0  0
 16 17  1  0  0  0  0
 17 18  2  0  0  0  0
 17 19  1  0  0  0  0
 19 20  1  0  0  0  0
 19 21  2  0  0  0  0
 21 22  1  0  0  0  0
 21 46  1  0  0  0  0
 22 23  1  0  0  0  0
 22 28  1  0  0  0  0
 23 27  1  0  0  0  0
 23 24  1  0  0  0  0
 23 47  1  0  0  0  0
 24 25  1  0  0  0  0
 24 48  1  0  0  0  0
 24 49  1  0  0  0  0
 25 26  1  0  0  0  0
 25 50  1  0  0  0  0
 25 51  1  0  0  0  0
 26 27  1  0  0  0  0
 26 52  1  0  0  0  0
 26 53  1  0  0  0  0
 28 29  2  0  0  0  0
M  END
> <s_m_source_file>
AV-unprocessed.smi

> <i_m_source_file_index>
94

> <i_lp_mmshare_version>
43012

> <i_f3d_flags>
0

> <s_epik_input>
W0NIM11PYzFbY0hdW2NIXWMoW0NIM10pW2NIXWMxW0NASF0oW0NIM10pW05IXUMoPU8pW0NIMl1uMmMoPU8pYyhGKVtjSF1uKGMyPU8pW0NAQEhdM1tDSDJdW0NIMl1bQ0gyXU8z

> <s_epik_cmdline>
J2VwaWtfcHl0aG9uJywgJy1waCcsICc3LjAnLCAnLXRuJywgJzgnLCAnLW1hJywgJzIwMCcsICctbWV0YWxfYmluZGluZycsICctaW1hZScsICc8aW5maWxlLm1hZT4nLCAnLW9tYWUnLCAnPG91dGZpbGUubWFlPic=

> <r_lp_tautomer_probability>
1

> <r_epik_Ionization_Penalty>
3.37009e-08

> <r_epik_Ionization_Penalty_Charging>
3.59856e-09

> <r_epik_Ionization_Penalty_Neutral>
3.01024e-08

> <r_epik_State_Penalty>
-0

> <r_epik_Charging_Adjusted_Penalty>
3.59856e-09

> <i_epik_Tot_Q>
0

> <i_epik_Tot_abs_Q>
0

> <r_epik_Metal_State_Penalty>
-0

> <b_epik_Metal_Only>
0

> <s_epik_Chemistry_Notes>
This compound contains an acetal/aminal-like group ( X-CH(R)-Y where X, Y are N, S, or O) that may be acid/base labile, releasing an aldehyde.

> <s_lp_Force_Field>
OPLS_2005

> <r_lp_Energy>
32.1562

> <b_lp_Chiralities_Consistent>
1

> <s_lp_Variant>
AV-unprocessed.smi:94-2

> <Gold.Version>
5.8.1

> <Gold.Id.Protein>
6NUR|6NUR_protein|mol2

> <Gold.PLP.Fitness>
55.6700

> <Gold.PLP.PLP>
-50.2339

> <Gold.PLP.part.hbond>
-2.8508

> <Gold.PLP.part.metal>
0.0000

> <Gold.PLP.part.buried>
1.0658

> <Gold.PLP.part.nonpolar>
-49.0607

> <Gold.PLP.part.repulsive>
1.1633

> <Gold.PLP.ligand.clash>
0.0000

> <Gold.PLP.ligand.torsion>
0.5108

> <Gold.PLP.Chemscore.Hbond>
2.1212

> <Gold.PLP.Chemscore.CHOScore>
0.0000

> <Gold.PLP.Chemscore.Metal>
0.0000

> <Gold.Chemscore.Hbonds>
donor molecule, donor type, donor heavy atom, donor atom, acceptor molecule, acceptor atom, score
      P1  H 10752 10763       L1    29  0.03
      P1  H 10752 10765       L1    14  0.72

> <Gold.PLP.Chemscore.Internal.Correction>
0.0940

> <Gold.Rescore>
     Score         DG    S(hbond)    S(metal)    S(lipo)     H(rot)  DE(clash)    DE(int)     intcor
     10.49     -17.32       1.80        0.00     100.84       2.34       0.08       6.75       ----

> <Gold.Chemscore.Fitness>
10.4903

> <Gold.Chemscore.DG>
-17.3184

> <Gold.Chemscore.ZeroCoef>
-5.4800

> <Gold.Chemscore.Hbond>
1.8032

> <Gold.Chemscore.Metal>
0.0000

> <Gold.Chemscore.Lipo>
100.8401

> <Gold.Chemscore.Internal_Hbond>
0.0000

> <Gold.Chemscore.DEClash>
0.0800

> <Gold.Chemscore.DEInternal>
6.7481

> <Gold.Chemscore.Rot>
2.3370

> <Gold.Chemscore.Internal.Correction>
   9.000000E+99

> <Gold.Chemscore.Hbonds>
donor molecule, donor type, donor heavy atom, donor atom, acceptor molecule, acceptor atom, score
      P1  H 10752 10763       L1    29  0.01
      P1  H 10752 10765       L1    14  0.12

> <Gold.Chemscore.Hbond.Weighted>
-6.0227

> <Gold.Chemscore.Metal.Weighted>
-0.0000

> <Gold.Chemscore.Lipo.Weighted>
-11.7983

> <Gold.Chemscore.Internal_Hbond.Weighted>
0.0000

> <Gold.Chemscore.DEClash.Weighted>
0.0800

> <Gold.Chemscore.DEInternal.Weighted>
6.7481

> <Gold.Chemscore.Rot.Weighted>
5.9827

> <Gold.Chemscore.Internal.Correction.Weighted>
   9.000000E+99

> <Gold.Protein.RotatedTorsions>
[ 6907 6896 6895 6894 ] final   67.50 input  -60.11 | X-H torsion
[ 7974 7965 7964 7962 ] final   -4.89 input  175.53 | X-H torsion
[ 8008 7997 7996 7995 ] final  144.64 input   59.86 | X-H torsion
[ 10167 10162 10161 10158 ] final   38.74 input  -65.29 | X-H torsion
[ 10718 10713 10712 10709 ] final   12.69 input   66.30 | X-H torsion
[ 10763 10752 10751 10750 ] final  144.49 input  -60.55 | X-H torsion
[ 11005 11000 10999 10996 ] final  122.70 input  -57.11 | X-H torsion

> <Gold.Protein.ActiveResidues>
 VAL166  LYS551  ARG553  GLY616  TRP617  ASP618  TYR619  PRO620  LYS621  CYS622 
 ASP623  PHE694  ASN695  SER759  ASP760  ASP761  ALA762  ILE779  LEU786  VAL792 
 PHE793  MET794  SER795  GLU796  ALA797  LYS798  CYS799  TRP800  GLU811  SER814 

> <Gold.Protein.RotatedAtoms>
  152.4556  134.5298  159.9807 H   0  0  0  0  0  0  0  0  0  0  0  0  # atno 6907 bound_to 6896
  151.5359  133.3435  159.2934 H   0  0  0  0  0  0  0  0  0  0  0  0  # atno 6908 bound_to 6896
  150.8500  134.7852  159.7064 H   0  0  0  0  0  0  0  0  0  0  0  0  # atno 6909 bound_to 6896
  146.2364  140.1938  142.8333 H   0  0  0  0  0  0  0  0  0  0  0  0  # atno 7974 bound_to 7965
  156.2903  140.2230  156.5085 H   0  0  0  0  0  0  0  0  0  0  0  0  # atno 8008 bound_to 7997
  154.7629  140.0472  157.1010 H   0  0  0  0  0  0  0  0  0  0  0  0  # atno 8009 bound_to 7997
  154.9969  140.3097  155.4886 H   0  0  0  0  0  0  0  0  0  0  0  0  # atno 8010 bound_to 7997
  140.3907  144.1856  150.6131 H   0  0  0  0  0  0  0  0  0  0  0  0  # atno 10167 bound_to 10162
  157.0138  130.6128  149.5711 H   0  0  0  0  0  0  0  0  0  0  0  0  # atno 10718 bound_to 10713
  153.9897  135.2933  155.3413 H   0  0  0  0  0  0  0  0  0  0  0  0  # atno 10763 bound_to 10752
  154.7222  135.5104  153.8833 H   0  0  0  0  0  0  0  0  0  0  0  0  # atno 10764 bound_to 10752
  153.0816  135.6680  154.0150 H   0  0  0  0  0  0  0  0  0  0  0  0  # atno 10765 bound_to 10752
  139.9279  134.9641  156.8148 H   0  0  0  0  0  0  0  0  0  0  0  0  # atno 11005 bound_to 11000
  144.9836  140.8482  143.5382 LP  0  0  0  0  0  0  0  0  0  0  0  0  # atno 17320 bound_to 7965
  145.1935  139.2289  143.5230 LP  0  0  0  0  0  0  0  0  0  0  0  0  # atno 17321 bound_to 7965
  140.4842  143.2369  151.8912 LP  0  0  0  0  0  0  0  0  0  0  0  0  # atno 17342 bound_to 10162
  139.4789  144.5236  151.8766 LP  0  0  0  0  0  0  0  0  0  0  0  0  # atno 17343 bound_to 10162
  156.0126  130.5219  150.8037 LP  0  0  0  0  0  0  0  0  0  0  0  0  # atno 17370 bound_to 10713
  157.5300  131.0936  150.9967 LP  0  0  0  0  0  0  0  0  0  0  0  0  # atno 17371 bound_to 10713
  140.6283  133.9930  155.7650 LP  0  0  0  0  0  0  0  0  0  0  0  0  # atno 17394 bound_to 11000
  141.0850  134.0005  157.3328 LP  0  0  0  0  0  0  0  0  0  0  0  0  # atno 17395 bound_to 11000

$$$$
