AV-unprocessed.smi:1703|AV-procd|sdf|6854|dock1
  -GOLD-   22720 8 33D 1   1.00000     0.00000
 Structure written by MMmdl.
 48 50  0  0  0  0  0  0  0  0  1 V2000
  145.2564  144.7570  152.7104 C   0  0  0  0  0  0  0  0  0  0  0  0
  145.6546  144.1329  154.0520 C   0  0  2  0  0  0  0  0  0  0  0  0
  146.7642  143.0755  153.8971 C   0  0  0  0  0  0  0  0  0  0  0  0
  147.0885  142.4303  155.1643 N   0  0  0  0  0  0  0  0  0  0  0  0
  148.1551  141.4427  154.9876 C   0  0  0  0  0  0  0  0  0  0  0  0
  149.1507  141.3235  156.1584 C   0  0  2  0  0  0  0  0  0  0  0  0
  149.0455  142.4847  156.9581 O   0  0  0  0  0  0  0  0  0  0  0  0
  150.6008  141.1781  155.6574 C   0  0  0  0  0  0  0  0  0  0  0  0
  151.4947  140.6590  156.6847 N   0  0  0  0  0  0  0  0  0  0  0  0
  152.0530  139.4253  156.7755 C   0  0  0  0  0  0  0  0  0  0  0  0
  151.7869  138.3650  155.7449 C   0  0  0  0  0  0  0  0  0  0  0  0
  152.3731  137.1149  156.0455 O   0  0  0  0  0  0  0  0  0  0  0  0
  152.8422  139.2269  157.8345 N   0  0  0  0  0  0  0  0  0  0  0  0
  152.7865  140.4407  158.4907 C   0  0  0  0  0  0  0  0  0  0  0  0
  153.4087  140.8698  159.6849 C   0  0  0  0  0  0  0  0  0  0  0  0
  153.1986  142.1778  160.1689 C   0  0  0  0  0  0  0  0  0  0  0  0
  152.3661  143.0737  159.4671 C   0  0  0  0  0  0  0  0  0  0  0  0
  151.7367  142.6661  158.2752 C   0  0  0  0  0  0  0  0  0  0  0  0
  151.9496  141.3593  157.7970 C   0  0  0  0  0  0  0  0  0  0  0  0
  145.8678  141.8553  155.7262 C   0  0  0  0  0  0  0  0  0  0  0  0
  144.7541  142.9086  155.8832 C   0  0  2  0  0  0  0  0  0  0  0  0
  143.4459  142.2962  156.3944 C   0  0  0  0  0  0  0  0  0  0  0  0
  144.5023  143.5157  154.6190 O   0  0  0  0  0  0  0  0  0  0  0  0
  146.1068  145.2507  152.2395 H   0  0  0  0  0  0  0  0  0  0  0  0
  144.4721  145.5022  152.8451 H   0  0  0  0  0  0  0  0  0  0  0  0
  144.8824  144.0013  152.0190 H   0  0  0  0  0  0  0  0  0  0  0  0
  145.9966  144.9257  154.7195 H   0  0  0  0  0  0  0  0  0  0  0  0
  146.4507  142.3235  153.1709 H   0  0  0  0  0  0  0  0  0  0  0  0
  147.6568  143.5498  153.4873 H   0  0  0  0  0  0  0  0  0  0  0  0
  147.7069  140.4659  154.7985 H   0  0  0  0  0  0  0  0  0  0  0  0
  148.7229  141.6851  154.0878 H   0  0  0  0  0  0  0  0  0  0  0  0
  148.9141  140.4585  156.7763 H   0  0  0  0  0  0  0  0  0  0  0  0
  149.2193  143.2368  156.4124 H   0  0  0  0  0  0  0  0  0  0  0  0
  150.6321  140.4916  154.8106 H   0  0  0  0  0  0  0  0  0  0  0  0
  150.9773  142.1311  155.2855 H   0  0  0  0  0  0  0  0  0  0  0  0
  150.7097  138.2276  155.6477 H   0  0  0  0  0  0  0  0  0  0  0  0
  152.1641  138.6965  154.7776 H   0  0  0  0  0  0  0  0  0  0  0  0
  152.4343  137.0350  156.9853 H   0  0  0  0  0  0  0  0  0  0  0  0
  154.0482  140.1909  160.2295 H   0  0  0  0  0  0  0  0  0  0  0  0
  153.6785  142.4950  161.0830 H   0  0  0  0  0  0  0  0  0  0  0  0
  152.2105  144.0739  159.8444 H   0  0  0  0  0  0  0  0  0  0  0  0
  151.0987  143.3493  157.7347 H   0  0  0  0  0  0  0  0  0  0  0  0
  145.5148  141.0433  155.0883 H   0  0  0  0  0  0  0  0  0  0  0  0
  146.0678  141.4201  156.7043 H   0  0  0  0  0  0  0  0  0  0  0  0
  145.0772  143.6785  156.5862 H   0  0  0  0  0  0  0  0  0  0  0  0
  143.5869  141.8259  157.3679 H   0  0  0  0  0  0  0  0  0  0  0  0
  143.0695  141.5381  155.7070 H   0  0  0  0  0  0  0  0  0  0  0  0
  142.6752  143.0597  156.5030 H   0  0  0  0  0  0  0  0  0  0  0  0
  1  2  1  0  0  0  0
  1 24  1  0  0  0  0
  1 25  1  0  0  0  0
  1 26  1  0  0  0  0
  2 23  1  0  0  0  0
  2  3  1  0  0  0  0
  2 27  1  0  0  0  0
  3  4  1  0  0  0  0
  3 28  1  0  0  0  0
  3 29  1  0  0  0  0
  4  5  1  0  0  0  0
  4 20  1  0  0  0  0
  5  6  1  0  0  0  0
  5 30  1  0  0  0  0
  5 31  1  0  0  0  0
  6  7  1  0  0  0  0
  6  8  1  0  0  0  0
  6 32  1  0  0  0  0
  7 33  1  0  0  0  0
  8  9  1  0  0  0  0
  8 34  1  0  0  0  0
  8 35  1  0  0  0  0
  9 19  1  0  0  0  0
  9 10  1  0  0  0  0
 10 11  1  0  0  0  0
 10 13  2  0  0  0  0
 11 12  1  0  0  0  0
 11 36  1  0  0  0  0
 11 37  1  0  0  0  0
 12 38  1  0  0  0  0
 13 14  1  0  0  0  0
 14 19  2  0  0  0  0
 14 15  1  0  0  0  0
 15 16  2  0  0  0  0
 15 39  1  0  0  0  0
 16 17  1  0  0  0  0
 16 40  1  0  0  0  0
 17 18  2  0  0  0  0
 17 41  1  0  0  0  0
 18 19  1  0  0  0  0
 18 42  1  0  0  0  0
 20 21  1  0  0  0  0
 20 43  1  0  0  0  0
 20 44  1  0  0  0  0
 21 22  1  0  0  0  0
 21 23  1  0  0  0  0
 21 45  1  0  0  0  0
 22 46  1  0  0  0  0
 22 47  1  0  0  0  0
 22 48  1  0  0  0  0
M  END
> <s_m_source_file>
AV-unprocessed.smi

> <i_m_source_file_index>
1703

> <i_lp_mmshare_version>
43012

> <i_f3d_flags>
0

> <s_epik_input>
W0NIM11bQ0BASF0xW0NIMl1OKFtDSDJdW0NASF0oTzEpW0NIM10pW0NIMl1bQ0BIXShbT0hdKVtDSDJdbihjKG4yKVtDSDJdW09IXSljKGMyMylbY0hdW2NIXVtjSF1bY0hdMw==

> <s_epik_cmdline>
J2VwaWtfcHl0aG9uJywgJy1waCcsICc3LjAnLCAnLXRuJywgJzgnLCAnLW1hJywgJzIwMCcsICctbWV0YWxfYmluZGluZycsICctaW1hZScsICc8aW5maWxlLm1hZT4nLCAnLW9tYWUnLCAnPG91dGZpbGUubWFlPic=

> <r_epik_Ionization_Penalty>
0.307685

> <r_epik_Ionization_Penalty_Charging>
0

> <r_epik_Ionization_Penalty_Neutral>
0.307685

> <r_epik_State_Penalty>
0.277856

> <r_epik_Charging_Adjusted_Penalty>
0.277856

> <i_epik_Tot_Q>
0

> <i_epik_Tot_abs_Q>
0

> <r_epik_Metal_State_Penalty>
0.238959

> <b_epik_Metal_Only>
0

> <s_lp_Force_Field>
OPLS_2005

> <r_lp_Energy>
28.9256

> <b_lp_Chiralities_Consistent>
1

> <s_lp_Variant>
AV-unprocessed.smi:1703-2

> <Gold.Version>
5.8.1

> <Gold.Id.Protein>
6NUR|6NUR_protein|mol2

> <Gold.PLP.Fitness>
45.9281

> <Gold.PLP.PLP>
-42.4059

> <Gold.PLP.part.hbond>
-3.0000

> <Gold.PLP.part.metal>
0.0000

> <Gold.PLP.part.buried>
-4.5929

> <Gold.PLP.part.nonpolar>
-35.0838

> <Gold.PLP.part.repulsive>
0.6295

> <Gold.PLP.ligand.clash>
0.0000

> <Gold.PLP.ligand.torsion>
1.3623

> <Gold.PLP.Chemscore.Hbond>
2.0403

> <Gold.PLP.Chemscore.CHOScore>
0.0000

> <Gold.PLP.Chemscore.Metal>
0.0000

> <Gold.Chemscore.Hbonds>
donor molecule, donor type, donor heavy atom, donor atom, acceptor molecule, acceptor atom, score
      L1  H     7    33       P1  8028  1.00
      P1  H  7997  8008       L1    13  0.12
      P1  H 10752 10765       L1    12  0.84

> <Gold.PLP.Chemscore.Internal.Correction>
0.1260

> <Gold.Rescore>
     Score         DG    S(hbond)    S(metal)    S(lipo)     H(rot)  DE(clash)    DE(int)     intcor
     14.96     -16.35       1.73        0.00     106.52       2.88       0.08       1.30       ----

> <Gold.Chemscore.Fitness>
14.9618

> <Gold.Chemscore.DG>
-16.3472

> <Gold.Chemscore.ZeroCoef>
-5.4800

> <Gold.Chemscore.Hbond>
1.7281

> <Gold.Chemscore.Metal>
0.0000

> <Gold.Chemscore.Lipo>
106.5168

> <Gold.Chemscore.Internal_Hbond>
0.0000

> <Gold.Chemscore.DEClash>
0.0820

> <Gold.Chemscore.DEInternal>
1.3034

> <Gold.Chemscore.Rot>
2.8778

> <Gold.Chemscore.Internal.Correction>
   9.000000E+99

> <Gold.Chemscore.Hbonds>
donor molecule, donor type, donor heavy atom, donor atom, acceptor molecule, acceptor atom, score
      L1  H     7    33       P1  8028  0.98
      P1  H 10752 10765       L1    12  0.73

> <Gold.Chemscore.Hbond.Weighted>
-5.7718

> <Gold.Chemscore.Metal.Weighted>
-0.0000

> <Gold.Chemscore.Lipo.Weighted>
-12.4625

> <Gold.Chemscore.Internal_Hbond.Weighted>
0.0000

> <Gold.Chemscore.DEClash.Weighted>
0.0820

> <Gold.Chemscore.DEInternal.Weighted>
1.3034

> <Gold.Chemscore.Rot.Weighted>
7.3671

> <Gold.Chemscore.Internal.Correction.Weighted>
   9.000000E+99

> <Gold.Protein.RotatedTorsions>
[ 6907 6896 6895 6894 ] final   61.86 input  -60.11 | X-H torsion
[ 7974 7965 7964 7962 ] final   96.14 input  175.53 | X-H torsion
[ 8008 7997 7996 7995 ] final  -66.39 input   59.86 | X-H torsion
[ 10167 10162 10161 10158 ] final -171.89 input  -65.29 | X-H torsion
[ 10718 10713 10712 10709 ] final   -1.35 input   66.30 | X-H torsion
[ 10763 10752 10751 10750 ] final -156.29 input  -60.55 | X-H torsion
[ 11005 11000 10999 10996 ] final  114.15 input  -57.11 | X-H torsion

> <Gold.Protein.ActiveResidues>
 VAL166  LYS551  ARG553  GLY616  TRP617  ASP618  TYR619  PRO620  LYS621  CYS622 
 ASP623  PHE694  ASN695  SER759  ASP760  ASP761  ALA762  ILE779  LEU786  VAL792 
 PHE793  MET794  SER795  GLU796  ALA797  LYS798  CYS799  TRP800  GLU811  SER814 

> <Gold.Protein.RotatedAtoms>
  152.4124  134.6101  160.0022 H   0  0  0  0  0  0  0  0  0  0  0  0  # atno 6907 bound_to 6896
  151.6274  133.3329  159.3109 H   0  0  0  0  0  0  0  0  0  0  0  0  # atno 6908 bound_to 6896
  150.8014  134.7151  159.6670 H   0  0  0  0  0  0  0  0  0  0  0  0  # atno 6909 bound_to 6896
  145.4429  139.2299  143.3082 H   0  0  0  0  0  0  0  0  0  0  0  0  # atno 7974 bound_to 7965
  154.4731  140.0913  156.7196 H   0  0  0  0  0  0  0  0  0  0  0  0  # atno 8008 bound_to 7997
  155.4668  140.3463  155.4302 H   0  0  0  0  0  0  0  0  0  0  0  0  # atno 8009 bound_to 7997
  156.1073  140.1438  156.9375 H   0  0  0  0  0  0  0  0  0  0  0  0  # atno 8010 bound_to 7997
  139.5776  144.1497  152.1471 H   0  0  0  0  0  0  0  0  0  0  0  0  # atno 10167 bound_to 10162
  156.8070  130.5412  149.5714 H   0  0  0  0  0  0  0  0  0  0  0  0  # atno 10718 bound_to 10713
  154.7724  135.3149  154.8162 H   0  0  0  0  0  0  0  0  0  0  0  0  # atno 10763 bound_to 10752
  153.8894  135.6827  153.4766 H   0  0  0  0  0  0  0  0  0  0  0  0  # atno 10764 bound_to 10752
  153.1340  135.4767  154.9329 H   0  0  0  0  0  0  0  0  0  0  0  0  # atno 10765 bound_to 10752
  139.8972  134.9563  156.6848 H   0  0  0  0  0  0  0  0  0  0  0  0  # atno 11005 bound_to 11000
  146.2547  140.5179  142.8879 LP  0  0  0  0  0  0  0  0  0  0  0  0  # atno 17320 bound_to 7965
  144.8110  140.6386  143.6415 LP  0  0  0  0  0  0  0  0  0  0  0  0  # atno 17321 bound_to 7965
  140.1043  144.5512  150.6968 LP  0  0  0  0  0  0  0  0  0  0  0  0  # atno 17342 bound_to 10162
  140.7057  143.2466  151.4732 LP  0  0  0  0  0  0  0  0  0  0  0  0  # atno 17343 bound_to 10162
  156.1067  130.6010  150.9982 LP  0  0  0  0  0  0  0  0  0  0  0  0  # atno 17370 bound_to 10713
  157.6525  131.0894  150.8019 LP  0  0  0  0  0  0  0  0  0  0  0  0  # atno 17371 bound_to 10713
  140.7271  133.9091  155.8186 LP  0  0  0  0  0  0  0  0  0  0  0  0  # atno 17394 bound_to 11000
  141.0182  134.0925  157.4149 LP  0  0  0  0  0  0  0  0  0  0  0  0  # atno 17395 bound_to 11000

$$$$
