AV-unprocessed.smi:1784|AV-procd|sdf|7199|dock2
  -GOLD-   22720 8443D 1   1.00000     0.00000
 Structure written by MMmdl.
 44 46  0  0  0  0  0  0  0  0  2 V2000
  150.7616  140.8126  156.1873 O   0  0  0  0  0  0  0  0  0  0  0  0
  150.0773  141.8353  156.2178 C   0  0  0  0  0  0  0  0  0  0  0  0
  150.4196  142.9402  156.8945 N   0  0  0  0  0  0  0  0  0  0  0  0
  151.6553  143.1096  157.6511 C   0  0  0  0  0  0  0  0  0  0  0  0
  151.3716  143.3138  159.1486 C   0  0  1  0  0  0  0  0  0  0  0  0
  152.5009  142.8294  160.0575 C   0  0  0  0  0  0  0  0  0  0  0  0
  152.2903  143.6800  161.2889 C   0  0  0  0  0  0  0  0  0  0  0  0
  151.8922  145.0165  160.6719 C   0  0  0  0  0  0  0  0  0  0  0  0
  151.2166  144.6980  159.4585 O   0  0  0  0  0  0  0  0  0  0  0  0
  148.9133  142.0035  155.5687 N   0  0  0  0  0  0  0  0  0  0  0  0
  148.2585  141.0852  154.7003 C   0  0  0  0  0  0  0  0  0  0  0  0
  148.9147  139.9137  154.2424 C   0  0  0  0  0  0  0  0  0  0  0  0
  148.2521  139.0335  153.3667 C   0  0  0  0  0  0  0  0  0  0  0  0
  146.9401  139.3353  152.9639 C   0  0  0  0  0  0  0  0  0  0  0  0
  146.3357  140.4467  153.4327 N   0  3  0  0  0  0  0  0  0  0  0  0
  146.9148  141.3246  154.2896 C   0  0  0  0  0  0  0  0  0  0  0  0
  146.1520  142.4395  154.7062 N   0  0  0  0  0  0  0  0  0  0  0  0
  145.7180  143.4418  153.7397 C   0  0  0  0  0  0  0  0  0  0  0  0
  144.6572  144.2612  154.4693 C   0  0  0  0  0  0  0  0  0  0  0  0
  143.9747  143.2107  155.3403 C   0  0  0  0  0  0  0  0  0  0  0  0
  145.1114  142.2527  155.7121 C   0  0  0  0  0  0  0  0  0  0  0  0
  149.7956  143.7330  156.8635 H   0  0  0  0  0  0  0  0  0  0  0  0
  152.2527  142.2082  157.5127 H   0  0  0  0  0  0  0  0  0  0  0  0
  152.2481  143.9356  157.2539 H   0  0  0  0  0  0  0  0  0  0  0  0
  150.4488  142.8041  159.4303 H   0  0  0  0  0  0  0  0  0  0  0  0
  152.4532  141.7596  160.2626 H   0  0  0  0  0  0  0  0  0  0  0  0
  153.4740  143.0504  159.6164 H   0  0  0  0  0  0  0  0  0  0  0  0
  151.4695  143.2801  161.8858 H   0  0  0  0  0  0  0  0  0  0  0  0
  153.1750  143.7482  161.9224 H   0  0  0  0  0  0  0  0  0  0  0  0
  151.2637  145.6111  161.3352 H   0  0  0  0  0  0  0  0  0  0  0  0
  152.7792  145.6029  160.4294 H   0  0  0  0  0  0  0  0  0  0  0  0
  148.5155  142.9302  155.6057 H   0  0  0  0  0  0  0  0  0  0  0  0
  149.9198  139.6736  154.5548 H   0  0  0  0  0  0  0  0  0  0  0  0
  148.7455  138.1417  153.0084 H   0  0  0  0  0  0  0  0  0  0  0  0
  146.3558  138.7224  152.2929 H   0  0  0  0  0  0  0  0  0  0  0  0
  146.5504  144.0623  153.4066 H   0  0  0  0  0  0  0  0  0  0  0  0
  145.2731  142.9634  152.8662 H   0  0  0  0  0  0  0  0  0  0  0  0
  145.1335  145.0147  155.0986 H   0  0  0  0  0  0  0  0  0  0  0  0
  143.9704  144.7690  153.7914 H   0  0  0  0  0  0  0  0  0  0  0  0
  143.4772  143.6368  156.2119 H   0  0  0  0  0  0  0  0  0  0  0  0
  143.2252  142.6796  154.7520 H   0  0  0  0  0  0  0  0  0  0  0  0
  144.7613  141.2204  155.7564 H   0  0  0  0  0  0  0  0  0  0  0  0
  145.5163  142.5184  156.6888 H   0  0  0  0  0  0  0  0  0  0  0  0
  145.3799  140.6332  153.1293 H   0  0  0  0  0  0  0  0  0  0  0  0
  1  2  2  0  0  0  0
  2  3  1  0  0  0  0
  2 10  1  0  0  0  0
  3  4  1  0  0  0  0
  3 22  1  0  0  0  0
  4  5  1  0  0  0  0
  4 23  1  0  0  0  0
  4 24  1  0  0  0  0
  5  9  1  0  0  0  0
  5  6  1  0  0  0  0
  5 25  1  0  0  0  0
  6  7  1  0  0  0  0
  6 26  1  0  0  0  0
  6 27  1  0  0  0  0
  7  8  1  0  0  0  0
  7 28  1  0  0  0  0
  7 29  1  0  0  0  0
  8  9  1  0  0  0  0
  8 30  1  0  0  0  0
  8 31  1  0  0  0  0
 10 11  1  0  0  0  0
 10 32  1  0  0  0  0
 11 16  1  0  0  0  0
 11 12  2  0  0  0  0
 12 13  1  0  0  0  0
 12 33  1  0  0  0  0
 13 14  2  0  0  0  0
 13 34  1  0  0  0  0
 14 15  1  0  0  0  0
 14 35  1  0  0  0  0
 15 16  2  0  0  0  0
 15 44  1  0  0  0  0
 16 17  1  0  0  0  0
 17 21  1  0  0  0  0
 17 18  1  0  0  0  0
 18 19  1  0  0  0  0
 18 36  1  0  0  0  0
 18 37  1  0  0  0  0
 19 20  1  0  0  0  0
 19 38  1  0  0  0  0
 19 39  1  0  0  0  0
 20 21  1  0  0  0  0
 20 40  1  0  0  0  0
 20 41  1  0  0  0  0
 21 42  1  0  0  0  0
 21 43  1  0  0  0  0
M  CHG  1  15   1
M  END
> <s_m_source_file>
AV-unprocessed.smi

> <i_m_source_file_index>
1784

> <i_lp_mmshare_version>
43012

> <i_f3d_flags>
0

> <s_epik_input>
TzFbQ0gyXVtDSDJdW0NIMl1bQ0BIXTFbQ0gyXVtOSF1DKD1PKVtOSF1jMltjSF1bY0hdW2NIXW5jMk4zW0NIMl1bQ0gyXVtDSDJdW0NIMl0z

> <s_epik_cmdline>
J2VwaWtfcHl0aG9uJywgJy1waCcsICc3LjAnLCAnLXRuJywgJzgnLCAnLW1hJywgJzIwMCcsICctbWV0YWxfYmluZGluZycsICctaW1hZScsICc8aW5maWxlLm1hZT4nLCAnLW9tYWUnLCAnPG91dGZpbGUubWFlPic=

> <r_lp_tautomer_probability>
0.999994

> <r_epik_Ionization_Penalty>
1.11624

> <r_epik_Ionization_Penalty_Charging>
1.11622

> <r_epik_Ionization_Penalty_Neutral>
1.90191e-05

> <r_epik_State_Penalty>
1.17466

> <r_epik_Charging_Adjusted_Penalty>
2.29088

> <i_epik_Tot_Q>
1

> <i_epik_Tot_abs_Q>
1

> <r_epik_Metal_State_Penalty>
1.25978

> <b_epik_Metal_Only>
0

> <s_lp_Force_Field>
OPLS_2005

> <r_lp_Energy>
50.8632

> <b_lp_Chiralities_Consistent>
1

> <s_lp_Variant>
AV-unprocessed.smi:1784-4

> <Gold.Version>
5.8.1

> <Gold.Id.Protein>
6NUR|6NUR_protein|mol2

> <Gold.PLP.Fitness>
52.9245

> <Gold.PLP.PLP>
-42.1014

> <Gold.PLP.part.hbond>
-2.8401

> <Gold.PLP.part.metal>
0.0000

> <Gold.PLP.part.buried>
-6.5056

> <Gold.PLP.part.nonpolar>
-33.9221

> <Gold.PLP.part.repulsive>
0.5437

> <Gold.PLP.ligand.clash>
0.0000

> <Gold.PLP.ligand.torsion>
0.6197

> <Gold.PLP.Chemscore.Hbond>
3.8880

> <Gold.PLP.Chemscore.CHOScore>
0.0000

> <Gold.PLP.Chemscore.Metal>
0.0000

> <Gold.Chemscore.Hbonds>
donor molecule, donor type, donor heavy atom, donor atom, acceptor molecule, acceptor atom, score
      L1  H     3    22       P1  8028  0.82
      L1  H    10    32       P1  8028  0.93
      L1  H    15    44       P1 10175  2.00

> <Gold.PLP.Chemscore.Internal.Correction>
0.3985

> <Gold.Rescore>
     Score         DG    S(hbond)    S(metal)    S(lipo)     H(rot)  DE(clash)    DE(int)     intcor
     21.39     -23.38       2.86        0.00     101.97       1.40       0.03       1.96       ----

> <Gold.Chemscore.Fitness>
21.3879

> <Gold.Chemscore.DG>
-23.3767

> <Gold.Chemscore.ZeroCoef>
-5.4800

> <Gold.Chemscore.Hbond>
2.8611

> <Gold.Chemscore.Metal>
0.0000

> <Gold.Chemscore.Lipo>
101.9692

> <Gold.Chemscore.Internal_Hbond>
0.0000

> <Gold.Chemscore.DEClash>
0.0337

> <Gold.Chemscore.DEInternal>
1.9551

> <Gold.Chemscore.Rot>
1.4023

> <Gold.Chemscore.Internal.Correction>
   9.000000E+99

> <Gold.Chemscore.Hbonds>
donor molecule, donor type, donor heavy atom, donor atom, acceptor molecule, acceptor atom, score
      L1  H     3    22       P1  8028  0.80
      L1  H    10    32       P1  8028  0.89
      L1  H    15    44       P1 10175  0.82

> <Gold.Chemscore.Hbond.Weighted>
-9.5562

> <Gold.Chemscore.Metal.Weighted>
-0.0000

> <Gold.Chemscore.Lipo.Weighted>
-11.9304

> <Gold.Chemscore.Internal_Hbond.Weighted>
0.0000

> <Gold.Chemscore.DEClash.Weighted>
0.0337

> <Gold.Chemscore.DEInternal.Weighted>
1.9551

> <Gold.Chemscore.Rot.Weighted>
3.5898

> <Gold.Chemscore.Internal.Correction.Weighted>
   9.000000E+99

> <Gold.Protein.RotatedTorsions>
[ 6907 6896 6895 6894 ] final -161.59 input  -60.11 | X-H torsion
[ 7974 7965 7964 7962 ] final  -11.26 input  175.53 | X-H torsion
[ 8008 7997 7996 7995 ] final   12.49 input   59.86 | X-H torsion
[ 10167 10162 10161 10158 ] final  -16.43 input  -65.29 | X-H torsion
[ 10718 10713 10712 10709 ] final   73.35 input   66.30 | X-H torsion
[ 10763 10752 10751 10750 ] final -175.61 input  -60.55 | X-H torsion
[ 11005 11000 10999 10996 ] final  158.47 input  -57.11 | X-H torsion

> <Gold.Protein.ActiveResidues>
 VAL166  LYS551  ARG553  GLY616  TRP617  ASP618  TYR619  PRO620  LYS621  CYS622 
 ASP623  PHE694  ASN695  SER759  ASP760  ASP761  ALA762  ILE779  LEU786  VAL792 
 PHE793  MET794  SER795  GLU796  ALA797  LYS798  CYS799  TRP800  GLU811  SER814 

> <Gold.Protein.RotatedAtoms>
  151.3670  133.3868  159.2695 H   0  0  0  0  0  0  0  0  0  0  0  0  # atno 6907 bound_to 6896
  150.9681  134.9059  159.7781 H   0  0  0  0  0  0  0  0  0  0  0  0  # atno 6908 bound_to 6896
  152.5174  134.3631  159.9344 H   0  0  0  0  0  0  0  0  0  0  0  0  # atno 6909 bound_to 6896
  146.2193  140.2884  142.8367 H   0  0  0  0  0  0  0  0  0  0  0  0  # atno 7974 bound_to 7965
  154.8214  140.2884  155.5784 H   0  0  0  0  0  0  0  0  0  0  0  0  # atno 8008 bound_to 7997
  156.2998  140.2549  156.3052 H   0  0  0  0  0  0  0  0  0  0  0  0  # atno 8009 bound_to 7997
  154.9334  140.0383  157.2049 H   0  0  0  0  0  0  0  0  0  0  0  0  # atno 8010 bound_to 7997
  140.7233  143.5117  150.9742 H   0  0  0  0  0  0  0  0  0  0  0  0  # atno 10167 bound_to 10162
  157.6544  130.9624  150.1057 H   0  0  0  0  0  0  0  0  0  0  0  0  # atno 10718 bound_to 10713
  154.5823  135.2837  155.0720 H   0  0  0  0  0  0  0  0  0  0  0  0  # atno 10763 bound_to 10752
  154.2051  135.6417  153.5102 H   0  0  0  0  0  0  0  0  0  0  0  0  # atno 10764 bound_to 10752
  153.0092  135.5478  154.6482 H   0  0  0  0  0  0  0  0  0  0  0  0  # atno 10765 bound_to 10752
  140.1869  134.8436  157.2867 H   0  0  0  0  0  0  0  0  0  0  0  0  # atno 11005 bound_to 11000
  144.9145  140.7796  143.5787 LP  0  0  0  0  0  0  0  0  0  0  0  0  # atno 17320 bound_to 7965
  145.2817  139.1916  143.4787 LP  0  0  0  0  0  0  0  0  0  0  0  0  # atno 17321 bound_to 7965
  139.8831  143.7047  152.3154 LP  0  0  0  0  0  0  0  0  0  0  0  0  # atno 17342 bound_to 10162
  139.7336  144.7576  151.0762 LP  0  0  0  0  0  0  0  0  0  0  0  0  # atno 17343 bound_to 10162
  156.1967  130.3658  149.8840 LP  0  0  0  0  0  0  0  0  0  0  0  0  # atno 17370 bound_to 10713
  156.6754  130.8837  151.3568 LP  0  0  0  0  0  0  0  0  0  0  0  0  # atno 17371 bound_to 10713
  140.2204  134.4030  155.7568 LP  0  0  0  0  0  0  0  0  0  0  0  0  # atno 17394 bound_to 11000
  141.2225  133.7163  156.8481 LP  0  0  0  0  0  0  0  0  0  0  0  0  # atno 17395 bound_to 11000

$$$$
