AV-unprocessed.smi:1600|AV-procd|sdf|6430|dock5
  -GOLD-   22720 7 73D 1   1.00000     0.00000
 Structure written by MMmdl.
 46 47  0  0  0  0  0  0  0  0  2 V2000
  152.2398  139.5818  156.2267 C   0  0  0  0  0  0  0  0  0  0  0  0
  150.9982  139.4767  155.3913 C   0  0  0  0  0  0  0  0  0  0  0  0
  150.4297  138.3067  154.8088 C   0  0  0  0  0  0  0  0  0  0  0  0
  149.3238  138.7961  154.1688 C   0  0  0  0  0  0  0  0  0  0  0  0
  148.3902  138.1265  153.4417 N   0  0  0  0  0  0  0  0  0  0  0  0
  147.0503  138.1874  153.5353 C   0  0  0  0  0  0  0  0  0  0  0  0
  146.4212  138.8875  154.3287 O   0  0  0  0  0  0  0  0  0  0  0  0
  146.4653  137.3790  152.6394 N   0  0  0  0  0  0  0  0  0  0  0  0
  145.0264  137.1895  152.4784 C   0  0  0  0  0  0  0  0  0  0  0  0
  144.6419  135.6986  152.4229 C   0  0  1  0  0  0  0  0  0  0  0  0
  143.2269  135.4070  152.9114 C   0  0  0  0  0  0  0  0  0  0  0  0
  142.9450  134.0383  152.3020 C   0  0  0  0  0  0  0  0  0  0  0  0
  143.5647  134.0762  150.9585 N   0  3  2  0  0  0  0  0  0  0  0  0
  143.9212  132.7527  150.3733 C   0  0  0  0  0  0  0  0  0  0  0  0
  145.2142  132.1988  151.0020 C   0  0  0  0  0  0  0  0  0  0  0  0
  144.0907  132.8315  148.8435 C   0  0  0  0  0  0  0  0  0  0  0  0
  144.6732  135.0631  151.0217 C   0  0  0  0  0  0  0  0  0  0  0  0
  149.2597  140.1572  154.3692 N   0  0  0  0  0  0  0  0  0  0  0  0
  148.2765  141.1130  153.8975 C   0  0  0  0  0  0  0  0  0  0  0  0
  150.2978  140.5738  155.1258 N   0  0  0  0  0  0  0  0  0  0  0  0
  152.5830  138.5976  156.5469 H   0  0  0  0  0  0  0  0  0  0  0  0
  152.0645  140.1784  157.1225 H   0  0  0  0  0  0  0  0  0  0  0  0
  153.0495  140.0496  155.6662 H   0  0  0  0  0  0  0  0  0  0  0  0
  150.7895  137.2905  154.8655 H   0  0  0  0  0  0  0  0  0  0  0  0
  148.7601  137.4963  152.7455 H   0  0  0  0  0  0  0  0  0  0  0  0
  147.0626  136.8393  152.0297 H   0  0  0  0  0  0  0  0  0  0  0  0
  144.5380  137.6579  153.3332 H   0  0  0  0  0  0  0  0  0  0  0  0
  144.6599  137.7151  151.5951 H   0  0  0  0  0  0  0  0  0  0  0  0
  145.3271  135.1380  153.0613 H   0  0  0  0  0  0  0  0  0  0  0  0
  143.1437  135.4100  153.9987 H   0  0  0  0  0  0  0  0  0  0  0  0
  142.5255  136.1431  152.5149 H   0  0  0  0  0  0  0  0  0  0  0  0
  143.4220  133.2660  152.9082 H   0  0  0  0  0  0  0  0  0  0  0  0
  141.8774  133.8215  152.2509 H   0  0  0  0  0  0  0  0  0  0  0  0
  143.1079  132.0576  150.5877 H   0  0  0  0  0  0  0  0  0  0  0  0
  145.4833  131.2398  150.5579 H   0  0  0  0  0  0  0  0  0  0  0  0
  145.1162  132.0329  152.0745 H   0  0  0  0  0  0  0  0  0  0  0  0
  146.0520  132.8796  150.8468 H   0  0  0  0  0  0  0  0  0  0  0  0
  144.4025  131.8693  148.4359 H   0  0  0  0  0  0  0  0  0  0  0  0
  144.8466  133.5670  148.5655 H   0  0  0  0  0  0  0  0  0  0  0  0
  143.1614  133.0983  148.3404 H   0  0  0  0  0  0  0  0  0  0  0  0
  144.4987  135.8039  150.2414 H   0  0  0  0  0  0  0  0  0  0  0  0
  145.6500  134.6134  150.8395 H   0  0  0  0  0  0  0  0  0  0  0  0
  147.3267  140.9396  154.4040 H   0  0  0  0  0  0  0  0  0  0  0  0
  148.1347  140.9951  152.8230 H   0  0  0  0  0  0  0  0  0  0  0  0
  148.6052  142.1334  154.0986 H   0  0  0  0  0  0  0  0  0  0  0  0
  142.8700  134.4852  150.3498 H   0  0  0  0  0  0  0  0  0  0  0  0
  1  2  1  0  0  0  0
  1 21  1  0  0  0  0
  1 22  1  0  0  0  0
  1 23  1  0  0  0  0
  2 20  2  0  0  0  0
  2  3  1  0  0  0  0
  3  4  2  0  0  0  0
  3 24  1  0  0  0  0
  4  5  1  0  0  0  0
  4 18  1  0  0  0  0
  5  6  1  0  0  0  0
  5 25  1  0  0  0  0
  6  7  2  0  0  0  0
  6  8  1  0  0  0  0
  8  9  1  0  0  0  0
  8 26  1  0  0  0  0
  9 10  1  0  0  0  0
  9 27  1  0  0  0  0
  9 28  1  0  0  0  0
 10 17  1  0  0  0  0
 10 11  1  0  0  0  0
 10 29  1  0  0  0  0
 11 12  1  0  0  0  0
 11 30  1  0  0  0  0
 11 31  1  0  0  0  0
 12 13  1  0  0  0  0
 12 32  1  0  0  0  0
 12 33  1  0  0  0  0
 13 14  1  0  0  0  0
 13 17  1  0  0  0  0
 13 46  1  0  0  0  0
 14 15  1  0  0  0  0
 14 16  1  0  0  0  0
 14 34  1  0  0  0  0
 15 35  1  0  0  0  0
 15 36  1  0  0  0  0
 15 37  1  0  0  0  0
 16 38  1  0  0  0  0
 16 39  1  0  0  0  0
 16 40  1  0  0  0  0
 17 41  1  0  0  0  0
 17 42  1  0  0  0  0
 18 19  1  0  0  0  0
 18 20  1  0  0  0  0
 19 43  1  0  0  0  0
 19 44  1  0  0  0  0
 19 45  1  0  0  0  0
M  CHG  1  13   1
M  END
> <s_m_source_file>
AV-unprocessed.smi

> <i_m_source_file_index>
1600

> <i_lp_mmshare_version>
43012

> <i_f3d_flags>
0

> <s_epik_input>
W0NIM11jMVtjSF1jKG4objEpW0NIM10pW05IXUMoPU8pW05IXVtDSDJdW0NAQEhdMltDSDJdW0NIMl1OKFtDSDJdMilbQ0hdKFtDSDNdKVtDSDNd

> <s_epik_cmdline>
J2VwaWtfcHl0aG9uJywgJy1waCcsICc3LjAnLCAnLXRuJywgJzgnLCAnLW1hJywgJzIwMCcsICctbWV0YWxfYmluZGluZycsICctaW1hZScsICc8aW5maWxlLm1hZT4nLCAnLW9tYWUnLCAnPG91dGZpbGUubWFlPic=

> <r_lp_tautomer_probability>
1

> <r_epik_Ionization_Penalty>
0.000297652

> <r_epik_Ionization_Penalty_Charging>
0.000213653

> <r_epik_Ionization_Penalty_Neutral>
8.3999e-05

> <r_epik_State_Penalty>
-0

> <r_epik_Charging_Adjusted_Penalty>
0.000213653

> <i_epik_Tot_Q>
1

> <i_epik_Tot_abs_Q>
1

> <r_epik_Metal_State_Penalty>
-0

> <b_epik_Metal_Only>
0

> <s_lp_Force_Field>
OPLS_2005

> <r_lp_Energy>
32.7515

> <b_lp_Chiralities_Consistent>
1

> <s_lp_Variant>
AV-unprocessed.smi:1600-4

> <Gold.Version>
5.8.1

> <Gold.Id.Protein>
6NUR|6NUR_protein|mol2

> <Gold.PLP.Fitness>
49.3302

> <Gold.PLP.PLP>
-39.3648

> <Gold.PLP.part.hbond>
-4.6098

> <Gold.PLP.part.metal>
0.0000

> <Gold.PLP.part.buried>
-1.4402

> <Gold.PLP.part.nonpolar>
-33.5338

> <Gold.PLP.part.repulsive>
0.2806

> <Gold.PLP.ligand.clash>
0.0000

> <Gold.PLP.ligand.torsion>
1.0654

> <Gold.PLP.Chemscore.Hbond>
4.0187

> <Gold.PLP.Chemscore.CHOScore>
0.0000

> <Gold.PLP.Chemscore.Metal>
0.0000

> <Gold.Chemscore.Hbonds>
donor molecule, donor type, donor heavy atom, donor atom, acceptor molecule, acceptor atom, score
      L1  H     5    25       P1  7948  1.00
      L1  H     8    26       P1  7948  0.83
      L1  H    13    46       P1 10186  1.98
      P1  H  7989  7998       L1    20  0.21

> <Gold.PLP.Chemscore.Internal.Correction>
0.0400

> <Gold.Rescore>
     Score         DG    S(hbond)    S(metal)    S(lipo)     H(rot)  DE(clash)    DE(int)     intcor
     18.88     -20.33       2.57        0.00      84.87       1.44       0.27       1.17       ----

> <Gold.Chemscore.Fitness>
18.8799

> <Gold.Chemscore.DG>
-20.3258

> <Gold.Chemscore.ZeroCoef>
-5.4800

> <Gold.Chemscore.Hbond>
2.5734

> <Gold.Chemscore.Metal>
0.0000

> <Gold.Chemscore.Lipo>
84.8657

> <Gold.Chemscore.Internal_Hbond>
0.0000

> <Gold.Chemscore.DEClash>
0.2740

> <Gold.Chemscore.DEInternal>
1.1720

> <Gold.Chemscore.Rot>
1.4369

> <Gold.Chemscore.Internal.Correction>
   9.000000E+99

> <Gold.Chemscore.Hbonds>
donor molecule, donor type, donor heavy atom, donor atom, acceptor molecule, acceptor atom, score
      L1  H     5    25       P1  7948  0.93
      L1  H     8    26       P1  7948  0.81
      L1  H    13    46       P1 10186  0.58

> <Gold.Chemscore.Hbond.Weighted>
-8.5951

> <Gold.Chemscore.Metal.Weighted>
-0.0000

> <Gold.Chemscore.Lipo.Weighted>
-9.9293

> <Gold.Chemscore.Internal_Hbond.Weighted>
0.0000

> <Gold.Chemscore.DEClash.Weighted>
0.2740

> <Gold.Chemscore.DEInternal.Weighted>
1.1720

> <Gold.Chemscore.Rot.Weighted>
3.6785

> <Gold.Chemscore.Internal.Correction.Weighted>
   9.000000E+99

> <Gold.Protein.RotatedTorsions>
[ 6907 6896 6895 6894 ] final  -58.23 input  -60.11 | X-H torsion
[ 7974 7965 7964 7962 ] final  -41.27 input  175.53 | X-H torsion
[ 8008 7997 7996 7995 ] final  -14.68 input   59.86 | X-H torsion
[ 10167 10162 10161 10158 ] final  -21.61 input  -65.29 | X-H torsion
[ 10718 10713 10712 10709 ] final  -86.25 input   66.30 | X-H torsion
[ 10763 10752 10751 10750 ] final   25.42 input  -60.55 | X-H torsion
[ 11005 11000 10999 10996 ] final  -37.41 input  -57.11 | X-H torsion

> <Gold.Protein.ActiveResidues>
 VAL166  LYS551  ARG553  GLY616  TRP617  ASP618  TYR619  PRO620  LYS621  CYS622 
 ASP623  PHE694  ASN695  SER759  ASP760  ASP761  ALA762  ILE779  LEU786  VAL792 
 PHE793  MET794  SER795  GLU796  ALA797  LYS798  CYS799  TRP800  GLU811  SER814 

> <Gold.Protein.RotatedAtoms>
  150.8023  134.7125  159.6611 H   0  0  0  0  0  0  0  0  0  0  0  0  # atno 6907 bound_to 6896
  152.4140  134.6070  160.0025 H   0  0  0  0  0  0  0  0  0  0  0  0  # atno 6908 bound_to 6896
  151.6305  133.3295  159.3144 H   0  0  0  0  0  0  0  0  0  0  0  0  # atno 6909 bound_to 6896
  146.0227  140.6830  142.9171 H   0  0  0  0  0  0  0  0  0  0  0  0  # atno 7974 bound_to 7965
  154.5191  140.2216  155.9010 H   0  0  0  0  0  0  0  0  0  0  0  0  # atno 8008 bound_to 7997
  156.1641  140.3136  155.8824 H   0  0  0  0  0  0  0  0  0  0  0  0  # atno 8009 bound_to 7997
  155.3691  140.0465  157.3036 H   0  0  0  0  0  0  0  0  0  0  0  0  # atno 8010 bound_to 7997
  140.7283  143.4612  151.0377 H   0  0  0  0  0  0  0  0  0  0  0  0  # atno 10167 bound_to 10162
  155.9991  130.4758  150.4686 H   0  0  0  0  0  0  0  0  0  0  0  0  # atno 10718 bound_to 10713
  153.0693  135.6583  154.0284 H   0  0  0  0  0  0  0  0  0  0  0  0  # atno 10763 bound_to 10752
  153.9933  135.2944  155.3411 H   0  0  0  0  0  0  0  0  0  0  0  0  # atno 10764 bound_to 10752
  154.7062  135.5224  153.8668 H   0  0  0  0  0  0  0  0  0  0  0  0  # atno 10765 bound_to 10752
  140.9950  133.6985  156.1918 H   0  0  0  0  0  0  0  0  0  0  0  0  # atno 11005 bound_to 11000
  144.6996  140.3594  143.7166 LP  0  0  0  0  0  0  0  0  0  0  0  0  # atno 17320 bound_to 7965
  145.7168  139.1699  143.2507 LP  0  0  0  0  0  0  0  0  0  0  0  0  # atno 17321 bound_to 7965
  139.8296  143.7708  152.3179 LP  0  0  0  0  0  0  0  0  0  0  0  0  # atno 17342 bound_to 10162
  139.7820  144.7441  151.0075 LP  0  0  0  0  0  0  0  0  0  0  0  0  # atno 17343 bound_to 10162
  157.2703  131.0585  151.2264 LP  0  0  0  0  0  0  0  0  0  0  0  0  # atno 17370 bound_to 10713
  157.3346  130.7002  149.6345 LP  0  0  0  0  0  0  0  0  0  0  0  0  # atno 17371 bound_to 10713
  140.6980  134.4594  157.5587 LP  0  0  0  0  0  0  0  0  0  0  0  0  # atno 17394 bound_to 11000
  139.9010  134.8556  156.1896 LP  0  0  0  0  0  0  0  0  0  0  0  0  # atno 17395 bound_to 11000

$$$$
