#       Name:                AV-unprocessed.smi:1484
#       Creating user name   scv26
#       Creation time:       Fri Mar 27 06:09:33 2020


#       File generated by GOLD software.
#

@<TRIPOS>MOLECULE
AV-unprocessed.smi:1484
    45    46     1
SMALL
NO_CHARGES


@<TRIPOS>ATOM
      1 ****        -2.1521  -0.7589   2.1788 C.3            1 S1                 0.0000
      2 ****        -1.6030  -0.9404   0.7571 C.3            1 S1                 0.0000
      3 ****        -1.8682  -2.3624   0.2266 C.3            1 S1                 0.0000
      4 ****        -1.3262  -2.5469  -1.2002 C.3            1 S1                 0.0000
      5 ****        -1.8902  -1.4836  -2.1602 C.3            1 S1                 0.0000
      6 ****        -1.6413  -0.0510  -1.6499 C.3            1 S1                 0.0000
      7 ****        -0.2154   0.2604  -1.7170 N.am           1 S1                 0.0000
      8 ****         0.3255   1.4846  -1.6297 C.2            1 S1                 0.0000
      9 ****        -0.3370   2.5196  -1.5642 O.2            1 S1                 0.0000
     10 ****         1.8552   1.5417  -1.5966 C.3            1 S1                 0.0000
     11 ****         2.3448   1.6221  -0.2145 N.am           1 S1                 0.0000
     12 ****         2.5813   0.3845   0.3666 N.2            1 S1                 0.0000
     13 ****         2.9700   0.3112   1.5942 C.2            1 S1                 0.0000
     14 ****         3.1846  -0.9348   2.1298 O.3            1 S1                 0.0000
     15 ****         3.1746   1.5035   2.3864 C.2            1 S1                 0.0000
     16 ****         2.9461   2.7044   1.8114 C.2            1 S1                 0.0000
     17 ****         2.4980   2.8237   0.4226 C.2            1 S1                 0.0000
     18 ****         2.2732   3.9046  -0.1208 O.2            1 S1                 0.0000
     19 ****        -2.1850   0.1105  -0.2116 C.3            1 S1                 0.0000
     20 ****         2.9928  -1.5436   1.4332 H              1 S1                 0.0000
     21 ****        -3.2338  -0.8942   2.2077 H              1 S1                 0.0000
     22 ****        -1.9303   0.2384   2.5598 H              1 S1                 0.0000
     23 ****        -1.7072  -1.4794   2.8657 H              1 S1                 0.0000
     24 ****        -0.5228  -0.7954   0.8094 H              1 S1                 0.0000
     25 ****        -1.4107  -3.0989   0.8881 H              1 S1                 0.0000
     26 ****        -2.9401  -2.5645   0.2352 H              1 S1                 0.0000
     27 ****        -0.2370  -2.4935  -1.1865 H              1 S1                 0.0000
     28 ****        -1.5783  -3.5433  -1.5642 H              1 S1                 0.0000
     29 ****        -1.4599  -1.6112  -3.1544 H              1 S1                 0.0000
     30 ****        -2.9636  -1.6408  -2.2728 H              1 S1                 0.0000
     31 ****        -2.1689   0.6421  -2.3077 H              1 S1                 0.0000
     32 ****         0.4147  -0.5263  -1.7751 H              1 S1                 0.0000
     33 ****         2.2687   0.6612  -2.0925 H              1 S1                 0.0000
     34 ****         2.1966   2.3936  -2.1871 H              1 S1                 0.0000
     35 ****         3.5029   1.4255   3.4125 H              1 S1                 0.0000
     36 ****         3.0955   3.6030   2.3917 H              1 S1                 0.0000
     37 ****        -3.2718   0.0180  -0.2322 H              1 S1                 0.0000
     38 ****        -1.9810   1.1150   0.1606 H              1 S1                 0.0000
     39 ****        -1.3360   2.4754  -1.5746 LP             1 S1                 0.0000
     40 ****         0.1236   3.4050  -1.5006 LP             1 S1                 0.0000
     41 ****         2.4503  -0.4511  -0.1668 LP             1 S1                 0.0000
     42 ****         2.5763  -1.0906   2.9081 LP             1 S1                 0.0000
     43 ****         4.1351  -1.0295   2.4255 LP             1 S1                 0.0000
     44 ****         1.9633   3.9316  -1.0712 LP             1 S1                 0.0000
     45 ****         2.4004   4.7561   0.3880 LP             1 S1                 0.0000
@<TRIPOS>BOND
    1    1    2 1     
    2    1   21 1     
    3    1   22 1     
    4    1   23 1     
    5    2   19 1     
    6    2    3 1     
    7    2   24 1     
    8    3    4 1     
    9    3   25 1     
   10    3   26 1     
   11    4    5 1     
   12    4   27 1     
   13    4   28 1     
   14    5    6 1     
   15    5   29 1     
   16    5   30 1     
   17    6    7 1     
   18    6   19 1     
   19    6   31 1     
   20    7    8 am    
   21    7   32 1     
   22    8    9 2     
   23    8   10 1     
   24   10   33 1     
   25   10   34 1     
   26   10   11 1     
   27   11   12 1     
   28   11   17 am    
   29   12   13 2     
   30   13   14 1     
   31   13   15 1     
   32   14   20 1     
   33   15   35 1     
   34   15   16 2     
   35   16   36 1     
   36   16   17 1     
   37   17   18 2     
   38   19   37 1     
   39   19   38 1     
   40    9   39 1     
   41    9   40 1     
   42   12   41 1     
   43   14   42 1     
   44   14   43 1     
   45   18   44 1     
   46   18   45 1     
@<TRIPOS>SUBSTRUCTURE
      1 S1             1
@<TRIPOS>SET
LONE_PAIRS      STATIC     ATOMS    <user>   **** ""
7 39 40 41 42 43 44 45
DONOR_HYDROGENS      STATIC     ATOMS    <user>   **** ""
2 32 20
ATOM$BLUE        STATIC     ATOMS    COLORGROUP SYSTEM
7 39 40 41 42 43 44 45
ATOM$RED        STATIC     ATOMS    COLORGROUP SYSTEM
2 32 20
