AV-unprocessed.smi:3303|AV-procd|sdf|12667|dock7
  -GOLD-   2272019 03D 1   1.00000     0.00000
 Structure written by MMmdl.
 45 46  0  0  0  0  0  0  0  0  3 V2000
  148.3505  133.0868  152.9612 C   0  0  0  0  0  0  0  0  0  0  0  0
  146.8273  132.9241  153.1503 C   0  0  2  0  0  0  0  0  0  0  0  0
  146.4122  131.4411  153.0547 C   0  0  0  0  0  0  0  0  0  0  0  0
  146.5116  130.9363  151.6603 N   0  3  1  0  0  0  0  0  0  0  0  0
  146.3334  129.4693  151.5672 C   0  0  0  0  0  0  0  0  0  0  0  0
  145.6980  131.7163  150.6824 C   0  0  1  0  0  0  0  0  0  0  0  0
  144.1776  131.4821  150.8184 C   0  0  0  0  0  0  0  0  0  0  0  0
  146.0662  133.2152  150.7471 C   0  0  0  0  0  0  0  0  0  0  0  0
  145.9724  133.7764  152.1830 C   0  0  2  0  0  0  0  0  0  0  0  0
  146.3477  135.2081  152.2581 N   0  3  0  0  0  0  0  0  0  0  0  0
  146.3633  135.7906  153.6164 C   0  0  0  0  0  0  0  0  0  0  0  0
  145.4156  136.9947  153.7061 C   0  0  0  0  0  0  0  0  0  0  0  0
  143.9580  136.5875  153.6036 C   0  0  0  0  0  0  0  0  0  0  0  0
  142.9400  137.5615  153.5242 C   0  0  0  0  0  0  0  0  0  0  0  0
  141.6032  137.1275  153.4311 C   0  0  0  0  0  0  0  0  0  0  0  0
  141.3381  135.7446  153.4236 C   0  0  0  0  0  0  0  0  0  0  0  0
  142.4256  134.8528  153.5088 C   0  0  0  0  0  0  0  0  0  0  0  0
  143.7111  135.2583  153.5979 N   0  0  0  0  0  0  0  0  0  0  0  0
  148.6786  132.7665  151.9726 H   0  0  0  0  0  0  0  0  0  0  0  0
  148.8969  132.4906  153.6925 H   0  0  0  0  0  0  0  0  0  0  0  0
  148.6665  134.1210  153.0966 H   0  0  0  0  0  0  0  0  0  0  0  0
  146.6046  133.2563  154.1655 H   0  0  0  0  0  0  0  0  0  0  0  0
  147.0491  130.8402  153.7057 H   0  0  0  0  0  0  0  0  0  0  0  0
  145.3942  131.3090  153.4231 H   0  0  0  0  0  0  0  0  0  0  0  0
  145.3565  129.1591  151.9397 H   0  0  0  0  0  0  0  0  0  0  0  0
  147.0936  128.9579  152.1586 H   0  0  0  0  0  0  0  0  0  0  0  0
  146.4349  129.1303  150.5357 H   0  0  0  0  0  0  0  0  0  0  0  0
  145.9807  131.3657  149.6887 H   0  0  0  0  0  0  0  0  0  0  0  0
  143.6303  132.0794  150.0888 H   0  0  0  0  0  0  0  0  0  0  0  0
  143.7996  131.7502  151.8043 H   0  0  0  0  0  0  0  0  0  0  0  0
  143.9106  130.4420  150.6324 H   0  0  0  0  0  0  0  0  0  0  0  0
  147.0775  133.3547  150.3638 H   0  0  0  0  0  0  0  0  0  0  0  0
  145.4169  133.7716  150.0713 H   0  0  0  0  0  0  0  0  0  0  0  0
  144.9367  133.7035  152.5177 H   0  0  0  0  0  0  0  0  0  0  0  0
  147.2820  135.3000  151.8850 H   0  0  0  0  0  0  0  0  0  0  0  0
  146.0672  135.0358  154.3448 H   0  0  0  0  0  0  0  0  0  0  0  0
  147.3789  136.1006  153.8660 H   0  0  0  0  0  0  0  0  0  0  0  0
  145.5745  137.5251  154.6462 H   0  0  0  0  0  0  0  0  0  0  0  0
  145.6378  137.7077  152.9106 H   0  0  0  0  0  0  0  0  0  0  0  0
  143.1731  138.6160  153.5318 H   0  0  0  0  0  0  0  0  0  0  0  0
  140.7962  137.8424  153.3664 H   0  0  0  0  0  0  0  0  0  0  0  0
  140.3254  135.3759  153.3524 H   0  0  0  0  0  0  0  0  0  0  0  0
  142.2586  133.7859  153.5058 H   0  0  0  0  0  0  0  0  0  0  0  0
  145.7194  135.7436  151.6758 H   0  0  0  0  0  0  0  0  0  0  0  0
  147.4712  131.0980  151.3886 H   0  0  0  0  0  0  0  0  0  0  0  0
  1  2  1  0  0  0  0
  1 19  1  0  0  0  0
  1 20  1  0  0  0  0
  1 21  1  0  0  0  0
  2  9  1  0  0  0  0
  2  3  1  0  0  0  0
  2 22  1  0  0  0  0
  3  4  1  0  0  0  0
  3 23  1  0  0  0  0
  3 24  1  0  0  0  0
  4  5  1  0  0  0  0
  4  6  1  0  0  0  0
  4 45  1  0  0  0  0
  5 25  1  0  0  0  0
  5 26  1  0  0  0  0
  5 27  1  0  0  0  0
  6  7  1  0  0  0  0
  6  8  1  0  0  0  0
  6 28  1  0  0  0  0
  7 29  1  0  0  0  0
  7 30  1  0  0  0  0
  7 31  1  0  0  0  0
  8  9  1  0  0  0  0
  8 32  1  0  0  0  0
  8 33  1  0  0  0  0
  9 10  1  0  0  0  0
  9 34  1  0  0  0  0
 10 11  1  0  0  0  0
 10 35  1  0  0  0  0
 10 44  1  0  0  0  0
 11 12  1  0  0  0  0
 11 36  1  0  0  0  0
 11 37  1  0  0  0  0
 12 13  1  0  0  0  0
 12 38  1  0  0  0  0
 12 39  1  0  0  0  0
 13 18  1  0  0  0  0
 13 14  2  0  0  0  0
 14 15  1  0  0  0  0
 14 40  1  0  0  0  0
 15 16  2  0  0  0  0
 15 41  1  0  0  0  0
 16 17  1  0  0  0  0
 16 42  1  0  0  0  0
 17 18  2  0  0  0  0
 17 43  1  0  0  0  0
M  CHG  1   4   1
M  CHG  1  10   1
M  END
> <s_m_source_file>
AV-unprocessed.smi

> <i_m_source_file_index>
3303

> <i_lp_mmshare_version>
43012

> <i_f3d_flags>
0

> <s_epik_input>
W0NIM11bQ0BASF0xW0NIMl1OKFtDSDNdKVtDQEBIXShbQ0gzXSlbQ0gyXVtDQEhdMVtOSF1bQ0gyXVtDSDJdYzJbY0hdW2NIXVtjSF1bY0hdbjI=

> <s_epik_cmdline>
J2VwaWtfcHl0aG9uJywgJy1waCcsICc3LjAnLCAnLXRuJywgJzgnLCAnLW1hJywgJzIwMCcsICctbWV0YWxfYmluZGluZycsICctaW1hZScsICc8aW5maWxlLm1hZT4nLCAnLW9tYWUnLCAnPG91dGZpbGUubWFlPic=

> <r_epik_Ionization_Penalty>
0.0769462

> <r_epik_Ionization_Penalty_Charging>
0.0759813

> <r_epik_Ionization_Penalty_Neutral>
0.000964829

> <r_epik_State_Penalty>
0.0654373

> <r_epik_Charging_Adjusted_Penalty>
0.141419

> <i_epik_Tot_Q>
2

> <i_epik_Tot_abs_Q>
2

> <r_epik_Metal_State_Penalty>
0.0656439

> <b_epik_Metal_Only>
0

> <s_lp_Force_Field>
OPLS_2005

> <r_lp_Energy>
31.612

> <b_lp_Chiralities_Consistent>
1

> <s_lp_Variant>
AV-unprocessed.smi:3303-11

> <Gold.Version>
5.8.1

> <Gold.Id.Protein>
6NUR|6NUR_protein|mol2

> <Gold.PLP.Fitness>
42.3832

> <Gold.PLP.PLP>
-31.2796

> <Gold.PLP.part.hbond>
-2.0000

> <Gold.PLP.part.metal>
0.0000

> <Gold.PLP.part.buried>
-4.2318

> <Gold.PLP.part.nonpolar>
-25.7455

> <Gold.PLP.part.repulsive>
0.0810

> <Gold.PLP.ligand.clash>
0.0000

> <Gold.PLP.ligand.torsion>
0.4565

> <Gold.PLP.Chemscore.Hbond>
3.0000

> <Gold.PLP.Chemscore.CHOScore>
1.0000

> <Gold.PLP.Chemscore.Metal>
0.0000

> <Gold.Chemscore.Hbonds>
donor molecule, donor type, donor heavy atom, donor atom, acceptor molecule, acceptor atom, score
      L1  H     4    45       P1 10747  1.00
      L1  H    10    35       P1  7948  2.00
      L1  C    17    43       P1 10957  1.00

> <Gold.PLP.Chemscore.Internal.Correction>
0.0166

> <Gold.Rescore>
     Score         DG    S(hbond)    S(metal)    S(lipo)     H(rot)  DE(clash)    DE(int)     intcor
     17.49     -18.04       1.94        0.00      82.09       1.37       0.01       0.55       ----

> <Gold.Chemscore.Fitness>
17.4855

> <Gold.Chemscore.DG>
-18.0445

> <Gold.Chemscore.ZeroCoef>
-5.4800

> <Gold.Chemscore.Hbond>
1.9398

> <Gold.Chemscore.Metal>
0.0000

> <Gold.Chemscore.Lipo>
82.0851

> <Gold.Chemscore.Internal_Hbond>
0.0000

> <Gold.Chemscore.DEClash>
0.0126

> <Gold.Chemscore.DEInternal>
0.5464

> <Gold.Chemscore.Rot>
1.3744

> <Gold.Chemscore.Internal.Correction>
   9.000000E+99

> <Gold.Chemscore.Hbonds>
donor molecule, donor type, donor heavy atom, donor atom, acceptor molecule, acceptor atom, score
      L1  H     4    45       P1 10747  0.97
      L1  H    10    35       P1  7948  0.94

> <Gold.Chemscore.Hbond.Weighted>
-6.4790

> <Gold.Chemscore.Metal.Weighted>
-0.0000

> <Gold.Chemscore.Lipo.Weighted>
-9.6040

> <Gold.Chemscore.Internal_Hbond.Weighted>
0.0000

> <Gold.Chemscore.DEClash.Weighted>
0.0126

> <Gold.Chemscore.DEInternal.Weighted>
0.5464

> <Gold.Chemscore.Rot.Weighted>
3.5185

> <Gold.Chemscore.Internal.Correction.Weighted>
   9.000000E+99

> <Gold.Protein.RotatedTorsions>
[ 6907 6896 6895 6894 ] final   -1.35 input  -60.11 | X-H torsion
[ 7974 7965 7964 7962 ] final  134.83 input  175.53 | X-H torsion
[ 8008 7997 7996 7995 ] final  -80.31 input   59.86 | X-H torsion
[ 10167 10162 10161 10158 ] final  177.18 input  -65.29 | X-H torsion
[ 10718 10713 10712 10709 ] final   52.68 input   66.30 | X-H torsion
[ 10763 10752 10751 10750 ] final    5.71 input  -60.55 | X-H torsion
[ 11005 11000 10999 10996 ] final  106.56 input  -57.11 | X-H torsion

> <Gold.Protein.ActiveResidues>
 VAL166  LYS551  ARG553  GLY616  TRP617  ASP618  TYR619  PRO620  LYS621  CYS622 
 ASP623  PHE694  ASN695  SER759  ASP760  ASP761  ALA762  ILE779  LEU786  VAL792 
 PHE793  MET794  SER795  GLU796  ALA797  LYS798  CYS799  TRP800  GLU811  SER814 

> <Gold.Protein.RotatedAtoms>
  151.5476  135.1068  159.9941 H   0  0  0  0  0  0  0  0  0  0  0  0  # atno 6907 bound_to 6896
  152.4507  133.7619  159.6762 H   0  0  0  0  0  0  0  0  0  0  0  0  # atno 6908 bound_to 6896
  150.8434  133.7833  159.3076 H   0  0  0  0  0  0  0  0  0  0  0  0  # atno 6909 bound_to 6896
  144.9724  139.4591  143.5426 H   0  0  0  0  0  0  0  0  0  0  0  0  # atno 7974 bound_to 7965
  154.5871  140.0665  156.9186 H   0  0  0  0  0  0  0  0  0  0  0  0  # atno 8008 bound_to 7997
  155.2360  140.3341  155.4279 H   0  0  0  0  0  0  0  0  0  0  0  0  # atno 8009 bound_to 7997
  156.2230  140.1807  156.7416 H   0  0  0  0  0  0  0  0  0  0  0  0  # atno 8010 bound_to 7997
  139.5243  144.2828  152.0531 H   0  0  0  0  0  0  0  0  0  0  0  0  # atno 10167 bound_to 10162
  157.5097  130.8492  149.8419 H   0  0  0  0  0  0  0  0  0  0  0  0  # atno 10718 bound_to 10713
  153.2562  135.6918  153.7627 H   0  0  0  0  0  0  0  0  0  0  0  0  # atno 10763 bound_to 10752
  153.6703  135.3345  155.3152 H   0  0  0  0  0  0  0  0  0  0  0  0  # atno 10764 bound_to 10752
  154.8413  135.4498  154.1536 H   0  0  0  0  0  0  0  0  0  0  0  0  # atno 10765 bound_to 10752
  139.8816  134.9373  156.5685 H   0  0  0  0  0  0  0  0  0  0  0  0  # atno 11005 bound_to 11000
  146.3386  139.8944  142.8804 LP  0  0  0  0  0  0  0  0  0  0  0  0  # atno 17320 bound_to 7965
  145.2540  141.0054  143.3865 LP  0  0  0  0  0  0  0  0  0  0  0  0  # atno 17321 bound_to 7965
  140.2283  144.4395  150.6311 LP  0  0  0  0  0  0  0  0  0  0  0  0  # atno 17342 bound_to 10162
  140.6373  143.2197  151.6368 LP  0  0  0  0  0  0  0  0  0  0  0  0  # atno 17343 bound_to 10162
  156.0281  130.3773  150.1765 LP  0  0  0  0  0  0  0  0  0  0  0  0  # atno 17370 bound_to 10713
  156.9955  130.9906  151.3404 LP  0  0  0  0  0  0  0  0  0  0  0  0  # atno 17371 bound_to 10713
  140.8116  133.8425  155.8815 LP  0  0  0  0  0  0  0  0  0  0  0  0  # atno 17394 bound_to 11000
  140.9501  134.1790  157.4734 LP  0  0  0  0  0  0  0  0  0  0  0  0  # atno 17395 bound_to 11000

$$$$
