AV-unprocessed.smi:801|AV-procd|sdf|3789|dock2
  -GOLD-   22720 1223D 1   1.00000     0.00000
 Structure written by MMmdl.
 44 45  0  0  0  0  0  0  0  0  1 V2000
  155.3658  141.8932  171.1015 C   0  0  0  0  0  0  0  0  0  0  0  0
  156.1850  142.2994  170.0162 O   0  0  0  0  0  0  0  0  0  0  0  0
  155.8204  141.7246  168.7699 C   0  0  0  0  0  0  0  0  0  0  0  0
  157.0517  141.4635  167.8833 C   0  0  0  0  0  0  0  0  0  0  0  0
  156.7058  140.8050  166.6394 N   0  0  0  0  0  0  0  0  0  0  0  0
  156.0453  141.4449  165.5867 C   0  0  0  0  0  0  0  0  0  0  0  0
  155.6611  142.7824  165.7713 N   0  0  0  0  0  0  0  0  0  0  0  0
  156.2953  143.8404  165.2362 C   0  0  0  0  0  0  0  0  0  0  0  0
  155.7794  145.2133  165.6527 C   0  0  0  0  0  0  0  0  0  0  0  0
  157.2438  143.7498  164.4572 O   0  0  0  0  0  0  0  0  0  0  0  0
  155.7281  140.8025  164.4189 C   0  0  0  0  0  0  0  0  0  0  0  0
  155.0288  141.4539  163.4009 N   0  0  0  0  0  0  0  0  0  0  0  0
  154.5836  140.9935  162.0940 C   0  0  0  0  0  0  0  0  0  0  0  0
  153.7891  142.0361  161.3281 C   0  0  0  0  0  0  0  0  0  0  0  0
  153.5562  141.8835  159.9435 C   0  0  0  0  0  0  0  0  0  0  0  0
  152.8231  142.8558  159.2359 C   0  0  0  0  0  0  0  0  0  0  0  0
  152.3225  143.9877  159.9074 C   0  0  0  0  0  0  0  0  0  0  0  0
  152.5568  144.1476  161.2867 C   0  0  0  0  0  0  0  0  0  0  0  0
  153.2896  143.1751  161.9950 C   0  0  0  0  0  0  0  0  0  0  0  0
  156.1003  139.3870  164.2446 C   0  0  0  0  0  0  0  0  0  0  0  0
  155.9031  138.6914  163.2497 O   0  0  0  0  0  0  0  0  0  0  0  0
  156.7312  138.8022  165.3402 N   0  0  0  0  0  0  0  0  0  0  0  0
  157.0387  139.4361  166.5369 C   0  0  0  0  0  0  0  0  0  0  0  0
  157.5756  138.7947  167.4407 O   0  0  0  0  0  0  0  0  0  0  0  0
  156.9821  137.8277  165.2588 H   0  0  0  0  0  0  0  0  0  0  0  0
  155.7380  142.3403  172.0230 H   0  0  0  0  0  0  0  0  0  0  0  0
  155.3839  140.8097  171.2260 H   0  0  0  0  0  0  0  0  0  0  0  0
  154.3318  142.2132  170.9740 H   0  0  0  0  0  0  0  0  0  0  0  0
  155.3226  140.7777  168.9807 H   0  0  0  0  0  0  0  0  0  0  0  0
  155.0876  142.3504  168.2578 H   0  0  0  0  0  0  0  0  0  0  0  0
  157.5691  142.3817  167.6107 H   0  0  0  0  0  0  0  0  0  0  0  0
  157.8033  140.8626  168.3981 H   0  0  0  0  0  0  0  0  0  0  0  0
  154.9521  142.9558  166.4688 H   0  0  0  0  0  0  0  0  0  0  0  0
  154.8844  145.4675  165.0848 H   0  0  0  0  0  0  0  0  0  0  0  0
  156.5321  145.9805  165.4689 H   0  0  0  0  0  0  0  0  0  0  0  0
  155.5319  145.2285  166.7147 H   0  0  0  0  0  0  0  0  0  0  0  0
  154.8362  142.4312  163.5665 H   0  0  0  0  0  0  0  0  0  0  0  0
  155.4540  140.6950  161.5083 H   0  0  0  0  0  0  0  0  0  0  0  0
  153.9529  140.1124  162.2160 H   0  0  0  0  0  0  0  0  0  0  0  0
  153.9403  141.0211  159.4186 H   0  0  0  0  0  0  0  0  0  0  0  0
  152.6463  142.7336  158.1775 H   0  0  0  0  0  0  0  0  0  0  0  0
  151.7612  144.7337  159.3642 H   0  0  0  0  0  0  0  0  0  0  0  0
  152.1747  145.0164  161.8022 H   0  0  0  0  0  0  0  0  0  0  0  0
  153.4651  143.3073  163.0528 H   0  0  0  0  0  0  0  0  0  0  0  0
  1  2  1  0  0  0  0
  1 26  1  0  0  0  0
  1 27  1  0  0  0  0
  1 28  1  0  0  0  0
  2  3  1  0  0  0  0
  3  4  1  0  0  0  0
  3 29  1  0  0  0  0
  3 30  1  0  0  0  0
  4  5  1  0  0  0  0
  4 31  1  0  0  0  0
  4 32  1  0  0  0  0
  5 23  1  0  0  0  0
  5  6  1  0  0  0  0
  6  7  1  0  0  0  0
  6 11  2  0  0  0  0
  7  8  1  0  0  0  0
  7 33  1  0  0  0  0
  8  9  1  0  0  0  0
  8 10  2  0  0  0  0
  9 34  1  0  0  0  0
  9 35  1  0  0  0  0
  9 36  1  0  0  0  0
 11 12  1  0  0  0  0
 11 20  1  0  0  0  0
 12 13  1  0  0  0  0
 12 37  1  0  0  0  0
 13 14  1  0  0  0  0
 13 38  1  0  0  0  0
 13 39  1  0  0  0  0
 14 19  1  0  0  0  0
 14 15  2  0  0  0  0
 15 16  1  0  0  0  0
 15 40  1  0  0  0  0
 16 17  2  0  0  0  0
 16 41  1  0  0  0  0
 17 18  1  0  0  0  0
 17 42  1  0  0  0  0
 18 19  2  0  0  0  0
 18 43  1  0  0  0  0
 19 44  1  0  0  0  0
 20 21  2  0  0  0  0
 20 22  1  0  0  0  0
 22 25  1  0  0  0  0
 22 23  1  0  0  0  0
 23 24  2  0  0  0  0
M  END
> <s_m_source_file>
AV-unprocessed.smi

> <i_m_source_file_index>
801

> <i_lp_mmshare_version>
43012

> <i_f3d_flags>
0

> <s_epik_input>
W0NIM11PW0NIMl1bQ0gyXW4xYyhbTkhdQyg9TylbQ0gzXSljKGMoPU8pW25IXWMxPU8pW05IXVtDSDJdYzJbY0hdW2NIXVtjSF1bY0hdW2NIXTI=

> <s_epik_cmdline>
J2VwaWtfcHl0aG9uJywgJy1waCcsICc3LjAnLCAnLXRuJywgJzgnLCAnLW1hJywgJzIwMCcsICctbWV0YWxfYmluZGluZycsICctaW1hZScsICc8aW5maWxlLm1hZT4nLCAnLW9tYWUnLCAnPG91dGZpbGUubWFlPic=

> <r_lp_tautomer_probability>
0.999901

> <r_epik_Ionization_Penalty>
0.000786563

> <r_epik_Ionization_Penalty_Charging>
0.000779429

> <r_epik_Ionization_Penalty_Neutral>
7.13436e-06

> <r_epik_State_Penalty>
0.00049961

> <r_epik_Charging_Adjusted_Penalty>
0.00127904

> <i_epik_Tot_Q>
0

> <i_epik_Tot_abs_Q>
0

> <r_epik_Metal_State_Penalty>
0.266924

> <b_epik_Metal_Only>
0

> <s_lp_Force_Field>
OPLS_2005

> <r_lp_Energy>
22.7844

> <b_lp_Chiralities_Consistent>
1

> <s_lp_Variant>
AV-unprocessed.smi:801-1

> <Gold.Version>
5.8.1

> <Gold.Id.Protein>
6NUR|6NUR_protein|mol2

> <Gold.PLP.Fitness>
47.3743

> <Gold.PLP.PLP>
-48.7035

> <Gold.PLP.part.hbond>
-3.9565

> <Gold.PLP.part.metal>
0.0000

> <Gold.PLP.part.buried>
-4.3337

> <Gold.PLP.part.nonpolar>
-39.8271

> <Gold.PLP.part.repulsive>
0.3940

> <Gold.PLP.ligand.clash>
0.0000

> <Gold.PLP.ligand.torsion>
1.2895

> <Gold.PLP.Chemscore.Hbond>
0.0000

> <Gold.PLP.Chemscore.CHOScore>
0.0000

> <Gold.PLP.Chemscore.Metal>
0.0000

> <Gold.PLP.Chemscore.Internal.Correction>
1.2499

> <Gold.Rescore>
     Score         DG    S(hbond)    S(metal)    S(lipo)     H(rot)  DE(clash)    DE(int)     intcor
      8.85     -12.66       0.00        0.00     105.46       2.02       1.43       2.37       ----

> <Gold.Chemscore.Fitness>
8.8509

> <Gold.Chemscore.DG>
-12.6550

> <Gold.Chemscore.ZeroCoef>
-5.4800

> <Gold.Chemscore.Hbond>
0.0000

> <Gold.Chemscore.Metal>
0.0000

> <Gold.Chemscore.Lipo>
105.4582

> <Gold.Chemscore.Internal_Hbond>
0.0000

> <Gold.Chemscore.DEClash>
1.4313

> <Gold.Chemscore.DEInternal>
2.3728

> <Gold.Chemscore.Rot>
2.0170

> <Gold.Chemscore.Internal.Correction>
   9.000000E+99

> <Gold.Chemscore.Hbond.Weighted>
-0.0000

> <Gold.Chemscore.Metal.Weighted>
-0.0000

> <Gold.Chemscore.Lipo.Weighted>
-12.3386

> <Gold.Chemscore.Internal_Hbond.Weighted>
0.0000

> <Gold.Chemscore.DEClash.Weighted>
1.4313

> <Gold.Chemscore.DEInternal.Weighted>
2.3728

> <Gold.Chemscore.Rot.Weighted>
5.1636

> <Gold.Chemscore.Internal.Correction.Weighted>
   9.000000E+99

> <Gold.Protein.RotatedTorsions>
[ 6907 6896 6895 6894 ] final  -31.05 input  -60.11 | X-H torsion
[ 7974 7965 7964 7962 ] final  127.09 input  175.53 | X-H torsion
[ 8008 7997 7996 7995 ] final  104.03 input   59.86 | X-H torsion
[ 10167 10162 10161 10158 ] final   64.97 input  -65.29 | X-H torsion
[ 10718 10713 10712 10709 ] final  156.42 input   66.30 | X-H torsion
[ 10763 10752 10751 10750 ] final -165.66 input  -60.55 | X-H torsion
[ 11005 11000 10999 10996 ] final   81.98 input  -57.11 | X-H torsion

> <Gold.Protein.ActiveResidues>
 VAL166  LYS551  ARG553  GLY616  TRP617  ASP618  TYR619  PRO620  LYS621  CYS622 
 ASP623  PHE694  ASN695  SER759  ASP760  ASP761  ALA762  ILE779  LEU786  VAL792 
 PHE793  MET794  SER795  GLU796  ALA797  LYS798  CYS799  TRP800  GLU811  SER814 

> <Gold.Protein.RotatedAtoms>
  151.0973  134.9951  159.8431 H   0  0  0  0  0  0  0  0  0  0  0  0  # atno 6907 bound_to 6896
  152.5434  134.1993  159.8715 H   0  0  0  0  0  0  0  0  0  0  0  0  # atno 6908 bound_to 6896
  151.2033  133.4554  159.2630 H   0  0  0  0  0  0  0  0  0  0  0  0  # atno 6909 bound_to 6896
  145.0545  139.3856  143.5037 H   0  0  0  0  0  0  0  0  0  0  0  0  # atno 7974 bound_to 7965
  156.1536  140.3155  155.8689 H   0  0  0  0  0  0  0  0  0  0  0  0  # atno 8008 bound_to 7997
  155.3921  140.0494  157.3057 H   0  0  0  0  0  0  0  0  0  0  0  0  # atno 8009 bound_to 7997
  154.5081  140.2154  155.9222 H   0  0  0  0  0  0  0  0  0  0  0  0  # atno 8010 bound_to 7997
  140.1164  144.4772  150.6947 H   0  0  0  0  0  0  0  0  0  0  0  0  # atno 10167 bound_to 10162
  157.2051  131.0685  151.2002 H   0  0  0  0  0  0  0  0  0  0  0  0  # atno 10718 bound_to 10713
  154.6910  135.2970  154.9480 H   0  0  0  0  0  0  0  0  0  0  0  0  # atno 10763 bound_to 10752
  154.0443  135.6653  153.4797 H   0  0  0  0  0  0  0  0  0  0  0  0  # atno 10764 bound_to 10752
  153.0612  135.5115  154.8002 H   0  0  0  0  0  0  0  0  0  0  0  0  # atno 10765 bound_to 10752
  139.9079  134.8037  156.2114 H   0  0  0  0  0  0  0  0  0  0  0  0  # atno 11005 bound_to 11000
  146.3520  140.0212  142.8658 LP  0  0  0  0  0  0  0  0  0  0  0  0  # atno 17320 bound_to 7965
  145.1486  140.9610  143.4446 LP  0  0  0  0  0  0  0  0  0  0  0  0  # atno 17321 bound_to 7965
  140.6897  143.2369  151.5164 LP  0  0  0  0  0  0  0  0  0  0  0  0  # atno 17342 bound_to 10162
  139.5592  144.2199  152.1663 LP  0  0  0  0  0  0  0  0  0  0  0  0  # atno 17343 bound_to 10162
  157.3728  130.7190  149.6576 LP  0  0  0  0  0  0  0  0  0  0  0  0  # atno 17370 bound_to 10713
  155.9696  130.4194  150.4374 LP  0  0  0  0  0  0  0  0  0  0  0  0  # atno 17371 bound_to 10713
  141.0463  133.6911  156.1689 LP  0  0  0  0  0  0  0  0  0  0  0  0  # atno 17394 bound_to 11000
  140.6879  134.4697  157.5589 LP  0  0  0  0  0  0  0  0  0  0  0  0  # atno 17395 bound_to 11000

$$$$
