AV-unprocessed.smi:3015|AV-procd|sdf|11473|dock2
  -GOLD-   2272016413D 1   1.00000     0.00000
 Structure written by MMmdl.
 23 23  0  0  0  0  0  0  0  0  1 V2000
  148.9420  142.1020  156.6499 N   0  0  0  0  0  0  0  0  0  0  0  0
  150.2413  141.5357  157.0491 C   0  0  1  0  0  0  0  0  0  0  0  0
  150.5258  140.2365  156.2732 C   0  0  0  0  0  0  0  0  0  0  0  0
  150.5933  140.4812  154.8841 O   0  0  0  0  0  0  0  0  0  0  0  0
  151.3761  142.5678  156.8786 C   0  0  0  0  0  0  0  0  0  0  0  0
  151.5872  143.4267  158.1129 C   0  0  0  0  0  0  0  0  0  0  0  0
  152.1078  142.8761  159.3023 C   0  0  0  0  0  0  0  0  0  0  0  0
  152.2836  143.7159  160.4189 C   0  0  0  0  0  0  0  0  0  0  0  0
  151.9309  145.0748  160.2978 C   0  0  0  0  0  0  0  0  0  0  0  0
  151.4321  145.6134  159.1642 N   0  0  0  0  0  0  0  0  0  0  0  0
  151.2664  144.8008  158.0984 C   0  0  0  0  0  0  0  0  0  0  0  0
  148.2446  141.9361  157.3741 H   0  0  0  0  0  0  0  0  0  0  0  0
  149.0154  143.1119  156.5373 H   0  0  0  0  0  0  0  0  0  0  0  0
  150.1836  141.2727  158.1062 H   0  0  0  0  0  0  0  0  0  0  0  0
  151.4791  139.8086  156.5856 H   0  0  0  0  0  0  0  0  0  0  0  0
  149.7571  139.4883  156.4701 H   0  0  0  0  0  0  0  0  0  0  0  0
  149.7711  140.2268  154.4936 H   0  0  0  0  0  0  0  0  0  0  0  0
  152.3183  142.0627  156.6635 H   0  0  0  0  0  0  0  0  0  0  0  0
  151.1762  143.2094  156.0191 H   0  0  0  0  0  0  0  0  0  0  0  0
  152.3702  141.8299  159.3593 H   0  0  0  0  0  0  0  0  0  0  0  0
  152.6792  143.3284  161.3460 H   0  0  0  0  0  0  0  0  0  0  0  0
  152.0519  145.7467  161.1345 H   0  0  0  0  0  0  0  0  0  0  0  0
  150.8659  145.2615  157.2073 H   0  0  0  0  0  0  0  0  0  0  0  0
  1  2  1  0  0  0  0
  1 12  1  0  0  0  0
  1 13  1  0  0  0  0
  2  3  1  0  0  0  0
  2  5  1  0  0  0  0
  2 14  1  0  0  0  0
  3  4  1  0  0  0  0
  3 15  1  0  0  0  0
  3 16  1  0  0  0  0
  4 17  1  0  0  0  0
  5  6  1  0  0  0  0
  5 18  1  0  0  0  0
  5 19  1  0  0  0  0
  6 11  1  0  0  0  0
  6  7  2  0  0  0  0
  7  8  1  0  0  0  0
  7 20  1  0  0  0  0
  8  9  2  0  0  0  0
  8 21  1  0  0  0  0
  9 10  1  0  0  0  0
  9 22  1  0  0  0  0
 10 11  2  0  0  0  0
 11 23  1  0  0  0  0
M  END
> <s_m_source_file>
AV-unprocessed.smi

> <i_m_source_file_index>
3015

> <i_lp_mmshare_version>
43012

> <i_f3d_flags>
0

> <s_epik_input>
W09IXVtDSDJdW0NAQEhdKFtOSDJdKVtDSDJdYzFbY0hdW2NIXVtjSF1uW2NIXTE=

> <s_epik_cmdline>
J2VwaWtfcHl0aG9uJywgJy1waCcsICc3LjAnLCAnLXRuJywgJzgnLCAnLW1hJywgJzIwMCcsICctbWV0YWxfYmluZGluZycsICctaW1hZScsICc8aW5maWxlLm1hZT4nLCAnLW9tYWUnLCAnPG91dGZpbGUubWFlPic=

> <r_epik_Ionization_Penalty>
2.0687

> <r_epik_Ionization_Penalty_Charging>
0

> <r_epik_Ionization_Penalty_Neutral>
2.0687

> <r_epik_State_Penalty>
2.52199

> <r_epik_Charging_Adjusted_Penalty>
2.52199

> <i_epik_Tot_Q>
0

> <i_epik_Tot_abs_Q>
0

> <r_epik_Metal_State_Penalty>
2.50694

> <b_epik_Metal_Only>
0

> <s_lp_Force_Field>
OPLS_2005

> <r_lp_Energy>
7.66909

> <b_lp_Chiralities_Consistent>
1

> <s_lp_Variant>
AV-unprocessed.smi:3015-4

> <Gold.Version>
5.8.1

> <Gold.Id.Protein>
6NUR|6NUR_protein|mol2

> <Gold.PLP.Fitness>
34.2856

> <Gold.PLP.PLP>
-26.2209

> <Gold.PLP.part.hbond>
-3.0000

> <Gold.PLP.part.metal>
0.0000

> <Gold.PLP.part.buried>
-4.5480

> <Gold.PLP.part.nonpolar>
-19.2288

> <Gold.PLP.part.repulsive>
0.1509

> <Gold.PLP.ligand.clash>
0.0000

> <Gold.PLP.ligand.torsion>
0.4725

> <Gold.PLP.Chemscore.Hbond>
2.0000

> <Gold.PLP.Chemscore.CHOScore>
0.9976

> <Gold.PLP.Chemscore.Metal>
0.0000

> <Gold.Chemscore.Hbonds>
donor molecule, donor type, donor heavy atom, donor atom, acceptor molecule, acceptor atom, score
      L1  H     1    13       P1  8028  1.00
      P1  H  7989  7998       L1     4  1.00
      L1  C    11    23       P1  8028  1.00

> <Gold.PLP.Chemscore.Internal.Correction>
0.0168

> <Gold.Rescore>
     Score         DG    S(hbond)    S(metal)    S(lipo)     H(rot)  DE(clash)    DE(int)     intcor
     14.86     -15.64       1.89        0.00      78.41       2.08       0.15       0.63       ----

> <Gold.Chemscore.Fitness>
14.8642

> <Gold.Chemscore.DG>
-15.6421

> <Gold.Chemscore.ZeroCoef>
-5.4800

> <Gold.Chemscore.Hbond>
1.8884

> <Gold.Chemscore.Metal>
0.0000

> <Gold.Chemscore.Lipo>
78.4111

> <Gold.Chemscore.Internal_Hbond>
0.0000

> <Gold.Chemscore.DEClash>
0.1490

> <Gold.Chemscore.DEInternal>
0.6289

> <Gold.Chemscore.Rot>
2.0778

> <Gold.Chemscore.Internal.Correction>
   9.000000E+99

> <Gold.Chemscore.Hbonds>
donor molecule, donor type, donor heavy atom, donor atom, acceptor molecule, acceptor atom, score
      L1  H     1    13       P1  8028  0.97
      P1  H  7989  7998       L1     4  0.43

> <Gold.Chemscore.Hbond.Weighted>
-6.3073

> <Gold.Chemscore.Metal.Weighted>
-0.0000

> <Gold.Chemscore.Lipo.Weighted>
-9.1741

> <Gold.Chemscore.Internal_Hbond.Weighted>
0.0000

> <Gold.Chemscore.DEClash.Weighted>
0.1490

> <Gold.Chemscore.DEInternal.Weighted>
0.6289

> <Gold.Chemscore.Rot.Weighted>
5.3193

> <Gold.Chemscore.Internal.Correction.Weighted>
   9.000000E+99

> <Gold.Protein.RotatedTorsions>
[ 6907 6896 6895 6894 ] final   92.96 input  -60.11 | X-H torsion
[ 7974 7965 7964 7962 ] final  -70.23 input  175.53 | X-H torsion
[ 8008 7997 7996 7995 ] final  -58.19 input   59.86 | X-H torsion
[ 10167 10162 10161 10158 ] final -110.51 input  -65.29 | X-H torsion
[ 10718 10713 10712 10709 ] final   95.72 input   66.30 | X-H torsion
[ 10763 10752 10751 10750 ] final  -56.08 input  -60.55 | X-H torsion
[ 11005 11000 10999 10996 ] final    7.55 input  -57.11 | X-H torsion

> <Gold.Protein.ActiveResidues>
 VAL166  LYS551  ARG553  GLY616  TRP617  ASP618  TYR619  PRO620  LYS621  CYS622 
 ASP623  PHE694  ASN695  SER759  ASP760  ASP761  ALA762  ILE779  LEU786  VAL792 
 PHE793  MET794  SER795  GLU796  ALA797  LYS798  CYS799  TRP800  GLU811  SER814 

> <Gold.Protein.RotatedAtoms>
  152.5453  134.1421  159.8483 H   0  0  0  0  0  0  0  0  0  0  0  0  # atno 6907 bound_to 6896
  151.1456  133.4934  159.2603 H   0  0  0  0  0  0  0  0  0  0  0  0  # atno 6908 bound_to 6896
  151.1526  135.0245  159.8730 H   0  0  0  0  0  0  0  0  0  0  0  0  # atno 6909 bound_to 6896
  145.6936  140.9143  143.0768 H   0  0  0  0  0  0  0  0  0  0  0  0  # atno 7974 bound_to 7965
  154.4298  140.1089  156.5918 H   0  0  0  0  0  0  0  0  0  0  0  0  # atno 8008 bound_to 7997
  155.6004  140.3493  155.4573 H   0  0  0  0  0  0  0  0  0  0  0  0  # atno 8009 bound_to 7997
  156.0177  140.1233  157.0378 H   0  0  0  0  0  0  0  0  0  0  0  0  # atno 8010 bound_to 7997
  140.1436  143.4258  152.1544 H   0  0  0  0  0  0  0  0  0  0  0  0  # atno 10167 bound_to 10162
  157.6935  131.0555  150.4382 H   0  0  0  0  0  0  0  0  0  0  0  0  # atno 10718 bound_to 10713
  154.2009  135.6411  153.5087 H   0  0  0  0  0  0  0  0  0  0  0  0  # atno 10763 bound_to 10752
  153.0012  135.5451  154.6316 H   0  0  0  0  0  0  0  0  0  0  0  0  # atno 10764 bound_to 10752
  154.5729  135.2918  155.0783 H   0  0  0  0  0  0  0  0  0  0  0  0  # atno 10765 bound_to 10752
  140.5470  134.0320  155.7923 H   0  0  0  0  0  0  0  0  0  0  0  0  # atno 11005 bound_to 11000
  144.6989  139.8854  143.7450 LP  0  0  0  0  0  0  0  0  0  0  0  0  # atno 17320 bound_to 7965
  146.0860  139.3848  143.0435 LP  0  0  0  0  0  0  0  0  0  0  0  0  # atno 17321 bound_to 7965
  139.5460  144.7298  151.4583 LP  0  0  0  0  0  0  0  0  0  0  0  0  # atno 17342 bound_to 10162
  140.6745  143.8220  150.7041 LP  0  0  0  0  0  0  0  0  0  0  0  0  # atno 17343 bound_to 10162
  156.4743  130.4059  149.6499 LP  0  0  0  0  0  0  0  0  0  0  0  0  # atno 17370 bound_to 10713
  156.3568  130.7461  151.2428 LP  0  0  0  0  0  0  0  0  0  0  0  0  # atno 17371 bound_to 10713
  141.1194  133.9486  157.2759 LP  0  0  0  0  0  0  0  0  0  0  0  0  # atno 17394 bound_to 11000
  139.9475  135.0181  156.8895 LP  0  0  0  0  0  0  0  0  0  0  0  0  # atno 17395 bound_to 11000

$$$$
