AV-unprocessed.smi:2640|AV-procd|sdf|10268|dock10
  -GOLD-   2272014283D 1   1.00000     0.00000
 Structure written by MMmdl.
 42 43  0  0  0  0  0  0  0  0  2 V2000
  146.3728  139.7575  153.8278 O   0  0  0  0  0  0  0  0  0  0  0  0
  147.1799  139.3222  153.0059 C   0  0  0  0  0  0  0  0  0  0  0  0
  146.6961  138.7339  151.6803 C   0  0  0  0  0  0  0  0  0  0  0  0
  145.2786  138.3250  151.7470 N   0  3  0  0  0  0  0  0  0  0  0  0
  145.0692  136.9423  152.2164 C   0  0  0  0  0  0  0  0  0  0  0  0
  144.6139  136.0348  151.0641 C   0  0  0  0  0  0  0  0  0  0  0  0
  145.0215  134.6578  151.2662 N   0  0  0  0  0  0  0  0  0  0  0  0
  144.2735  133.6012  151.7413 C   0  0  0  0  0  0  0  0  0  0  0  0
  145.0826  132.5014  151.7471 C   0  0  0  0  0  0  0  0  0  0  0  0
  146.3216  132.9901  151.2468 C   0  0  0  0  0  0  0  0  0  0  0  0
  146.2814  134.2814  150.9592 N   0  0  0  0  0  0  0  0  0  0  0  0
  148.5088  139.3378  153.1991 N   0  0  0  0  0  0  0  0  0  0  0  0
  149.1855  139.8303  154.4017 C   0  0  2  0  0  0  0  0  0  0  0  0
  148.6084  139.0614  155.6121 C   0  0  0  0  0  0  0  0  0  0  0  0
  149.5392  139.0442  156.8372 C   0  0  0  0  0  0  0  0  0  0  0  0
  149.7957  140.4168  157.4778 C   0  0  0  0  0  0  0  0  0  0  0  0
  150.5025  141.4141  156.5440 C   0  0  0  0  0  0  0  0  0  0  0  0
  149.5891  141.9937  155.5679 N   0  0  0  0  0  0  0  0  0  0  0  0
  148.9346  141.3451  154.5928 C   0  0  0  0  0  0  0  0  0  0  0  0
  148.1455  141.9481  153.8648 O   0  0  0  0  0  0  0  0  0  0  0  0
  146.8256  139.4822  150.8974 H   0  0  0  0  0  0  0  0  0  0  0  0
  147.3086  137.8707  151.4153 H   0  0  0  0  0  0  0  0  0  0  0  0
  144.7958  138.9567  152.3700 H   0  0  0  0  0  0  0  0  0  0  0  0
  145.9995  136.5690  152.6467 H   0  0  0  0  0  0  0  0  0  0  0  0
  144.3216  136.9408  153.0107 H   0  0  0  0  0  0  0  0  0  0  0  0
  143.5278  136.0637  150.9648 H   0  0  0  0  0  0  0  0  0  0  0  0
  145.0281  136.3816  150.1161 H   0  0  0  0  0  0  0  0  0  0  0  0
  143.2399  133.7169  152.0325 H   0  0  0  0  0  0  0  0  0  0  0  0
  144.8278  131.4993  152.0588 H   0  0  0  0  0  0  0  0  0  0  0  0
  147.2419  132.4485  151.0845 H   0  0  0  0  0  0  0  0  0  0  0  0
  149.1000  138.9600  152.4728 H   0  0  0  0  0  0  0  0  0  0  0  0
  150.2557  139.6362  154.3097 H   0  0  0  0  0  0  0  0  0  0  0  0
  147.6263  139.4488  155.8896 H   0  0  0  0  0  0  0  0  0  0  0  0
  148.4407  138.0216  155.3261 H   0  0  0  0  0  0  0  0  0  0  0  0
  149.1059  138.3873  157.5921 H   0  0  0  0  0  0  0  0  0  0  0  0
  150.4915  138.5898  156.5616 H   0  0  0  0  0  0  0  0  0  0  0  0
  148.8610  140.8424  157.8453 H   0  0  0  0  0  0  0  0  0  0  0  0
  150.4214  140.2666  158.3582 H   0  0  0  0  0  0  0  0  0  0  0  0
  150.9022  142.2374  157.1363 H   0  0  0  0  0  0  0  0  0  0  0  0
  151.3562  140.9534  156.0451 H   0  0  0  0  0  0  0  0  0  0  0  0
  149.4105  142.9834  155.6593 H   0  0  0  0  0  0  0  0  0  0  0  0
  144.8789  138.4185  150.8240 H   0  0  0  0  0  0  0  0  0  0  0  0
  1  2  2  0  0  0  0
  2  3  1  0  0  0  0
  2 12  1  0  0  0  0
  3  4  1  0  0  0  0
  3 21  1  0  0  0  0
  3 22  1  0  0  0  0
  4  5  1  0  0  0  0
  4 23  1  0  0  0  0
  4 42  1  0  0  0  0
  5  6  1  0  0  0  0
  5 24  1  0  0  0  0
  5 25  1  0  0  0  0
  6  7  1  0  0  0  0
  6 26  1  0  0  0  0
  6 27  1  0  0  0  0
  7 11  1  0  0  0  0
  7  8  1  0  0  0  0
  8  9  2  0  0  0  0
  8 28  1  0  0  0  0
  9 10  1  0  0  0  0
  9 29  1  0  0  0  0
 10 11  2  0  0  0  0
 10 30  1  0  0  0  0
 12 13  1  0  0  0  0
 12 31  1  0  0  0  0
 13 19  1  0  0  0  0
 13 14  1  0  0  0  0
 13 32  1  0  0  0  0
 14 15  1  0  0  0  0
 14 33  1  0  0  0  0
 14 34  1  0  0  0  0
 15 16  1  0  0  0  0
 15 35  1  0  0  0  0
 15 36  1  0  0  0  0
 16 17  1  0  0  0  0
 16 37  1  0  0  0  0
 16 38  1  0  0  0  0
 17 18  1  0  0  0  0
 17 39  1  0  0  0  0
 17 40  1  0  0  0  0
 18 19  1  0  0  0  0
 18 41  1  0  0  0  0
 19 20  2  0  0  0  0
M  CHG  1   4   1
M  END
> <s_m_source_file>
AV-unprocessed.smi

> <i_m_source_file_index>
2640

> <i_lp_mmshare_version>
43012

> <i_f3d_flags>
0

> <s_epik_input>
Tz1DMVtOSF1bQ0gyXVtDSDJdW0NIMl1bQ0gyXVtDQEhdMVtOSF1DKD1PKVtDSDJdW05IXVtDSDJdW0NIMl1uMltjSF1bY0hdW2NIXW4y

> <s_epik_cmdline>
J2VwaWtfcHl0aG9uJywgJy1waCcsICc3LjAnLCAnLXRuJywgJzgnLCAnLW1hJywgJzIwMCcsICctbWV0YWxfYmluZGluZycsICctaW1hZScsICc8aW5maWxlLm1hZT4nLCAnLW9tYWUnLCAnPG91dGZpbGUubWFlPic=

> <r_lp_tautomer_probability>
1

> <r_epik_Ionization_Penalty>
0.245908

> <r_epik_Ionization_Penalty_Charging>
0.245903

> <r_epik_Ionization_Penalty_Neutral>
5.38378e-06

> <r_epik_State_Penalty>
0.237496

> <r_epik_Charging_Adjusted_Penalty>
0.483398

> <i_epik_Tot_Q>
1

> <i_epik_Tot_abs_Q>
1

> <r_epik_Metal_State_Penalty>
0.237698

> <b_epik_Metal_Only>
0

> <s_lp_Force_Field>
OPLS_2005

> <r_lp_Energy>
8.65948

> <b_lp_Chiralities_Consistent>
1

> <s_lp_Variant>
AV-unprocessed.smi:2640-1

> <Gold.Version>
5.8.1

> <Gold.Id.Protein>
6NUR|6NUR_protein|mol2

> <Gold.PLP.Fitness>
47.2100

> <Gold.PLP.PLP>
-33.8534

> <Gold.PLP.part.hbond>
-4.4590

> <Gold.PLP.part.metal>
0.0000

> <Gold.PLP.part.buried>
-1.1552

> <Gold.PLP.part.nonpolar>
-27.0359

> <Gold.PLP.part.repulsive>
0.8617

> <Gold.PLP.ligand.clash>
0.0000

> <Gold.PLP.ligand.torsion>
1.2841

> <Gold.PLP.Chemscore.Hbond>
4.2933

> <Gold.PLP.Chemscore.CHOScore>
1.0000

> <Gold.PLP.Chemscore.Metal>
0.0000

> <Gold.Chemscore.Hbonds>
donor molecule, donor type, donor heavy atom, donor atom, acceptor molecule, acceptor atom, score
      L1  H     4    23       P1 10175  1.76
      L1  H     4    42       P1 10171  0.75
      L1  H    12    31       P1  7957  0.38
      L1  H    18    41       P1  8028  1.00
      P1  H  8011  8017       L1    20  0.10
      L1  C    10    30       P1 10747  1.00

> <Gold.PLP.Chemscore.Internal.Correction>
0.0449

> <Gold.Rescore>
     Score         DG    S(hbond)    S(metal)    S(lipo)     H(rot)  DE(clash)    DE(int)     intcor
     11.33     -17.06       3.31        0.00      58.04       2.45       0.03       5.69       ----

> <Gold.Chemscore.Fitness>
11.3319

> <Gold.Chemscore.DG>
-17.0585

> <Gold.Chemscore.ZeroCoef>
-5.4800

> <Gold.Chemscore.Hbond>
3.3085

> <Gold.Chemscore.Metal>
0.0000

> <Gold.Chemscore.Lipo>
58.0381

> <Gold.Chemscore.Internal_Hbond>
0.0000

> <Gold.Chemscore.DEClash>
0.0333

> <Gold.Chemscore.DEInternal>
5.6932

> <Gold.Chemscore.Rot>
2.4462

> <Gold.Chemscore.Internal.Correction>
   9.000000E+99

> <Gold.Chemscore.Hbonds>
donor molecule, donor type, donor heavy atom, donor atom, acceptor molecule, acceptor atom, score
      L1  H     4    23       P1 10175  0.86
      L1  H     4    42       P1 10171  0.74
      L1  H    12    31       P1  7957  0.37
      L1  H    18    41       P1  8028  1.00
      P1  H  8011  8017       L1    20  0.01

> <Gold.Chemscore.Hbond.Weighted>
-11.0503

> <Gold.Chemscore.Metal.Weighted>
-0.0000

> <Gold.Chemscore.Lipo.Weighted>
-6.7905

> <Gold.Chemscore.Internal_Hbond.Weighted>
0.0000

> <Gold.Chemscore.DEClash.Weighted>
0.0333

> <Gold.Chemscore.DEInternal.Weighted>
5.6932

> <Gold.Chemscore.Rot.Weighted>
6.2623

> <Gold.Chemscore.Internal.Correction.Weighted>
   9.000000E+99

> <Gold.Protein.RotatedTorsions>
[ 6907 6896 6895 6894 ] final   64.94 input  -60.11 | X-H torsion
[ 7974 7965 7964 7962 ] final  -31.84 input  175.53 | X-H torsion
[ 8008 7997 7996 7995 ] final  178.44 input   59.86 | X-H torsion
[ 10167 10162 10161 10158 ] final   82.22 input  -65.29 | X-H torsion
[ 10718 10713 10712 10709 ] final -140.19 input   66.30 | X-H torsion
[ 10763 10752 10751 10750 ] final   -2.91 input  -60.55 | X-H torsion
[ 11005 11000 10999 10996 ] final   91.76 input  -57.11 | X-H torsion

> <Gold.Protein.ActiveResidues>
 VAL166  LYS551  ARG553  GLY616  TRP617  ASP618  TYR619  PRO620  LYS621  CYS622 
 ASP623  PHE694  ASN695  SER759  ASP760  ASP761  ALA762  ILE779  LEU786  VAL792 
 PHE793  MET794  SER795  GLU796  ALA797  LYS798  CYS799  TRP800  GLU811  SER814 

> <Gold.Protein.RotatedAtoms>
  152.4370  134.5667  159.9909 H   0  0  0  0  0  0  0  0  0  0  0  0  # atno 6907 bound_to 6896
  151.5775  133.3376  159.3009 H   0  0  0  0  0  0  0  0  0  0  0  0  # atno 6908 bound_to 6896
  150.8270  134.7540  159.6885 H   0  0  0  0  0  0  0  0  0  0  0  0  # atno 6909 bound_to 6896
  146.1036  140.5717  142.8809 H   0  0  0  0  0  0  0  0  0  0  0  0  # atno 7974 bound_to 7965
  156.0546  140.1333  157.0011 H   0  0  0  0  0  0  0  0  0  0  0  0  # atno 8008 bound_to 7997
  154.4451  140.1004  156.6497 H   0  0  0  0  0  0  0  0  0  0  0  0  # atno 8009 bound_to 7997
  155.5471  140.3462  155.4462 H   0  0  0  0  0  0  0  0  0  0  0  0  # atno 8010 bound_to 7997
  139.9311  144.6151  150.8344 H   0  0  0  0  0  0  0  0  0  0  0  0  # atno 10167 bound_to 10162
  156.3195  130.7526  151.1620 H   0  0  0  0  0  0  0  0  0  0  0  0  # atno 10718 bound_to 10713
  153.3644  135.6992  153.6687 H   0  0  0  0  0  0  0  0  0  0  0  0  # atno 10763 bound_to 10752
  153.5363  135.3582  155.2699 H   0  0  0  0  0  0  0  0  0  0  0  0  # atno 10764 bound_to 10752
  154.8672  135.4193  154.2908 H   0  0  0  0  0  0  0  0  0  0  0  0  # atno 10765 bound_to 10752
  139.8833  134.8693  156.3475 H   0  0  0  0  0  0  0  0  0  0  0  0  # atno 11005 bound_to 11000
  144.7453  140.5051  143.6840 LP  0  0  0  0  0  0  0  0  0  0  0  0  # atno 17320 bound_to 7965
  145.5805  139.1488  143.3238 LP  0  0  0  0  0  0  0  0  0  0  0  0  # atno 17321 bound_to 7965
  140.7637  143.3230  151.2580 LP  0  0  0  0  0  0  0  0  0  0  0  0  # atno 17342 bound_to 10162
  139.6782  143.9901  152.2793 LP  0  0  0  0  0  0  0  0  0  0  0  0  # atno 17343 bound_to 10162
  157.7408  131.0511  150.5137 LP  0  0  0  0  0  0  0  0  0  0  0  0  # atno 17370 bound_to 10713
  156.5287  130.4179  149.6212 LP  0  0  0  0  0  0  0  0  0  0  0  0  # atno 17371 bound_to 10713
  140.9616  133.7384  156.0410 LP  0  0  0  0  0  0  0  0  0  0  0  0  # atno 17394 bound_to 11000
  140.7982  134.3539  157.5447 LP  0  0  0  0  0  0  0  0  0  0  0  0  # atno 17395 bound_to 11000

$$$$
