AV-unprocessed.smi:2764|AV-procd|sdf|10643|dock2
  -GOLD-   2272015 93D 1   1.00000     0.00000
 Structure written by MMmdl.
 47 49  0  0  0  0  0  0  0  0  2 V2000
  150.6648  141.6125  155.2053 O   0  0  0  0  0  0  0  0  0  0  0  0
  151.0567  140.7374  155.9776 C   0  0  0  0  0  0  0  0  0  0  0  0
  151.4606  140.9399  157.2443 N   0  0  0  0  0  0  0  0  0  0  0  0
  151.5133  142.1636  157.9638 C   0  0  0  0  0  0  0  0  0  0  0  0
  152.4401  142.1906  159.0308 C   0  0  0  0  0  0  0  0  0  0  0  0
  152.5692  143.3587  159.8074 C   0  0  0  0  0  0  0  0  0  0  0  0
  151.7662  144.4699  159.4948 C   0  0  0  0  0  0  0  0  0  0  0  0
  151.8556  145.6148  160.2122 F   0  0  0  0  0  0  0  0  0  0  0  0
  150.8679  144.3613  158.4172 C   0  0  0  0  0  0  0  0  0  0  0  0
  150.7430  143.2420  157.6724 N   0  0  0  0  0  0  0  0  0  0  0  0
  151.1297  139.4398  155.6456 N   0  0  0  0  0  0  0  0  0  0  0  0
  150.7777  138.8799  154.3406 C   0  0  2  0  0  0  0  0  0  0  0  0
  149.2566  138.9007  154.0939 C   0  0  0  0  0  0  0  0  0  0  0  0
  148.5137  137.8917  154.9867 C   0  0  0  0  0  0  0  0  0  0  0  0
  149.0470  136.5151  154.8094 N   0  3  2  0  0  0  0  0  0  0  0  0
  148.2524  135.5056  155.5589 C   0  0  0  0  0  0  0  0  0  0  0  0
  147.9821  134.2217  154.7460 C   0  0  1  0  0  0  0  0  0  0  0  0
  149.2151  133.5124  154.1908 C   0  0  0  0  0  0  0  0  0  0  0  0
  148.9084  132.0189  154.3438 C   0  0  0  0  0  0  0  0  0  0  0  0
  147.5662  131.9554  154.8009 O   0  0  0  0  0  0  0  0  0  0  0  0
  147.3320  133.1162  155.5766 C   0  0  0  0  0  0  0  0  0  0  0  0
  150.5042  136.4574  155.1014 C   0  0  0  0  0  0  0  0  0  0  0  0
  151.2961  137.4374  154.2159 C   0  0  0  0  0  0  0  0  0  0  0  0
  151.7629  140.1244  157.7560 H   0  0  0  0  0  0  0  0  0  0  0  0
  153.0496  141.3273  159.2559 H   0  0  0  0  0  0  0  0  0  0  0  0
  153.2716  143.4000  160.6267 H   0  0  0  0  0  0  0  0  0  0  0  0
  150.2342  145.1924  158.1448 H   0  0  0  0  0  0  0  0  0  0  0  0
  151.4707  138.7931  156.3417 H   0  0  0  0  0  0  0  0  0  0  0  0
  151.2678  139.4838  153.5746 H   0  0  0  0  0  0  0  0  0  0  0  0
  148.8537  139.9025  154.2470 H   0  0  0  0  0  0  0  0  0  0  0  0
  149.0627  138.6583  153.0481 H   0  0  0  0  0  0  0  0  0  0  0  0
  148.5906  138.1828  156.0356 H   0  0  0  0  0  0  0  0  0  0  0  0
  147.4538  137.9131  154.7303 H   0  0  0  0  0  0  0  0  0  0  0  0
  148.7138  135.2836  156.5222 H   0  0  0  0  0  0  0  0  0  0  0  0
  147.2798  135.9412  155.7930 H   0  0  0  0  0  0  0  0  0  0  0  0
  147.3052  134.4476  153.9201 H   0  0  0  0  0  0  0  0  0  0  0  0
  149.3848  133.7787  153.1473 H   0  0  0  0  0  0  0  0  0  0  0  0
  150.1160  133.7622  154.7523 H   0  0  0  0  0  0  0  0  0  0  0  0
  149.0271  131.4690  153.4099 H   0  0  0  0  0  0  0  0  0  0  0  0
  149.5646  131.5679  155.0893 H   0  0  0  0  0  0  0  0  0  0  0  0
  147.8148  133.0105  156.5499 H   0  0  0  0  0  0  0  0  0  0  0  0
  146.2662  133.2817  155.7361 H   0  0  0  0  0  0  0  0  0  0  0  0
  150.6743  136.6782  156.1562 H   0  0  0  0  0  0  0  0  0  0  0  0
  150.8867  135.4544  154.9273 H   0  0  0  0  0  0  0  0  0  0  0  0
  151.2167  137.1186  153.1757 H   0  0  0  0  0  0  0  0  0  0  0  0
  152.3574  137.3941  154.4640 H   0  0  0  0  0  0  0  0  0  0  0  0
  148.9318  136.2979  153.8298 H   0  0  0  0  0  0  0  0  0  0  0  0
  1  2  2  0  0  0  0
  2  3  1  0  0  0  0
  2 11  1  0  0  0  0
  3  4  1  0  0  0  0
  3 24  1  0  0  0  0
  4 10  1  0  0  0  0
  4  5  2  0  0  0  0
  5  6  1  0  0  0  0
  5 25  1  0  0  0  0
  6  7  2  0  0  0  0
  6 26  1  0  0  0  0
  7  8  1  0  0  0  0
  7  9  1  0  0  0  0
  9 10  2  0  0  0  0
  9 27  1  0  0  0  0
 11 12  1  0  0  0  0
 11 28  1  0  0  0  0
 12 23  1  0  0  0  0
 12 13  1  0  0  0  0
 12 29  1  0  0  0  0
 13 14  1  0  0  0  0
 13 30  1  0  0  0  0
 13 31  1  0  0  0  0
 14 15  1  0  0  0  0
 14 32  1  0  0  0  0
 14 33  1  0  0  0  0
 15 16  1  0  0  0  0
 15 22  1  0  0  0  0
 15 47  1  0  0  0  0
 16 17  1  0  0  0  0
 16 34  1  0  0  0  0
 16 35  1  0  0  0  0
 17 21  1  0  0  0  0
 17 18  1  0  0  0  0
 17 36  1  0  0  0  0
 18 19  1  0  0  0  0
 18 37  1  0  0  0  0
 18 38  1  0  0  0  0
 19 20  1  0  0  0  0
 19 39  1  0  0  0  0
 19 40  1  0  0  0  0
 20 21  1  0  0  0  0
 21 41  1  0  0  0  0
 21 42  1  0  0  0  0
 22 23  1  0  0  0  0
 22 43  1  0  0  0  0
 22 44  1  0  0  0  0
 23 45  1  0  0  0  0
 23 46  1  0  0  0  0
M  CHG  1  15   1
M  END
> <s_m_source_file>
AV-unprocessed.smi

> <i_m_source_file_index>
2764

> <i_lp_mmshare_version>
43012

> <i_f3d_flags>
0

> <s_epik_input>
bjFbY0hdYyhGKVtjSF1bY0hdYzFbTkhdQyg9TylbTkhdW0NIXTJbQ0gyXVtDSDJdTihbQ0gyXVtDSDJdMilbQ0gyXVtDQEBIXTNbQ0gyXVtDSDJdT1tDSDJdMw==

> <s_epik_cmdline>
J2VwaWtfcHl0aG9uJywgJy1waCcsICc3LjAnLCAnLXRuJywgJzgnLCAnLW1hJywgJzIwMCcsICctbWV0YWxfYmluZGluZycsICctaW1hZScsICc8aW5maWxlLm1hZT4nLCAnLW9tYWUnLCAnPG91dGZpbGUubWFlPic=

> <r_epik_Ionization_Penalty>
0.0075076

> <r_epik_Ionization_Penalty_Charging>
0.00747775

> <r_epik_Ionization_Penalty_Neutral>
2.98483e-05

> <r_epik_State_Penalty>
0.00558817

> <r_epik_Charging_Adjusted_Penalty>
0.0130659

> <i_epik_Tot_Q>
1

> <i_epik_Tot_abs_Q>
1

> <r_epik_Metal_State_Penalty>
-0

> <b_epik_Metal_Only>
0

> <s_lp_Force_Field>
OPLS_2005

> <r_lp_Energy>
38.1344

> <b_lp_Chiralities_Consistent>
1

> <s_lp_Variant>
AV-unprocessed.smi:2764-4

> <Gold.Version>
5.8.1

> <Gold.Id.Protein>
6NUR|6NUR_protein|mol2

> <Gold.PLP.Fitness>
48.3579

> <Gold.PLP.PLP>
-40.3512

> <Gold.PLP.part.hbond>
-2.0000

> <Gold.PLP.part.metal>
0.0000

> <Gold.PLP.part.buried>
-1.8552

> <Gold.PLP.part.nonpolar>
-37.9318

> <Gold.PLP.part.repulsive>
0.5922

> <Gold.PLP.ligand.clash>
0.0000

> <Gold.PLP.ligand.torsion>
0.8343

> <Gold.PLP.Chemscore.Hbond>
2.1774

> <Gold.PLP.Chemscore.CHOScore>
1.0279

> <Gold.PLP.Chemscore.Metal>
0.0000

> <Gold.Chemscore.Hbonds>
donor molecule, donor type, donor heavy atom, donor atom, acceptor molecule, acceptor atom, score
      L1  H    15    47       P1  7948  2.00
      P1  H  7989  7998       L1     1  0.31
      L1  C     9    27       P1  8028  0.06
      L1  C     9    27       P1  8029  0.73

> <Gold.PLP.Chemscore.Internal.Correction>
0.0591

> <Gold.Rescore>
     Score         DG    S(hbond)    S(metal)    S(lipo)     H(rot)  DE(clash)    DE(int)     intcor
     14.64     -16.62       1.27        0.00      91.62       1.49       0.13       1.86       ----

> <Gold.Chemscore.Fitness>
14.6366

> <Gold.Chemscore.DG>
-16.6224

> <Gold.Chemscore.ZeroCoef>
-5.4800

> <Gold.Chemscore.Hbond>
1.2680

> <Gold.Chemscore.Metal>
0.0000

> <Gold.Chemscore.Lipo>
91.6185

> <Gold.Chemscore.Internal_Hbond>
0.0000

> <Gold.Chemscore.DEClash>
0.1292

> <Gold.Chemscore.DEInternal>
1.8566

> <Gold.Chemscore.Rot>
1.4891

> <Gold.Chemscore.Internal.Correction>
   9.000000E+99

> <Gold.Chemscore.Hbonds>
donor molecule, donor type, donor heavy atom, donor atom, acceptor molecule, acceptor atom, score
      L1  H    15    47       P1  7948  0.98
      P1  H  7989  7998       L1     1  0.06

> <Gold.Chemscore.Hbond.Weighted>
-4.2351

> <Gold.Chemscore.Metal.Weighted>
-0.0000

> <Gold.Chemscore.Lipo.Weighted>
-10.7194

> <Gold.Chemscore.Internal_Hbond.Weighted>
0.0000

> <Gold.Chemscore.DEClash.Weighted>
0.1292

> <Gold.Chemscore.DEInternal.Weighted>
1.8566

> <Gold.Chemscore.Rot.Weighted>
3.8121

> <Gold.Chemscore.Internal.Correction.Weighted>
   9.000000E+99

> <Gold.Protein.RotatedTorsions>
[ 6907 6896 6895 6894 ] final   -7.55 input  -60.11 | X-H torsion
[ 7974 7965 7964 7962 ] final   30.52 input  175.53 | X-H torsion
[ 8008 7997 7996 7995 ] final  -78.89 input   59.86 | X-H torsion
[ 10167 10162 10161 10158 ] final  -62.14 input  -65.29 | X-H torsion
[ 10718 10713 10712 10709 ] final -108.57 input   66.30 | X-H torsion
[ 10763 10752 10751 10750 ] final -103.81 input  -60.55 | X-H torsion
[ 11005 11000 10999 10996 ] final  116.29 input  -57.11 | X-H torsion

> <Gold.Protein.ActiveResidues>
 VAL166  LYS551  ARG553  GLY616  TRP617  ASP618  TYR619  PRO620  LYS621  CYS622 
 ASP623  PHE694  ASN695  SER759  ASP760  ASP761  ALA762  ILE779  LEU786  VAL792 
 PHE793  MET794  SER795  GLU796  ALA797  LYS798  CYS799  TRP800  GLU811  SER814 

> <Gold.Protein.RotatedAtoms>
  151.4478  135.1027  159.9688 H   0  0  0  0  0  0  0  0  0  0  0  0  # atno 6907 bound_to 6896
  152.4899  133.8468  159.7192 H   0  0  0  0  0  0  0  0  0  0  0  0  # atno 6908 bound_to 6896
  150.9043  133.7019  159.2898 H   0  0  0  0  0  0  0  0  0  0  0  0  # atno 6909 bound_to 6896
  146.1607  139.6778  142.9036 H   0  0  0  0  0  0  0  0  0  0  0  0  # atno 7974 bound_to 7965
  154.5732  140.0687  156.8996 H   0  0  0  0  0  0  0  0  0  0  0  0  # atno 8008 bound_to 7997
  155.2596  140.3357  155.4256 H   0  0  0  0  0  0  0  0  0  0  0  0  # atno 8009 bound_to 7997
  156.2134  140.1768  156.7628 H   0  0  0  0  0  0  0  0  0  0  0  0  # atno 8010 bound_to 7997
  140.5959  143.2351  151.6036 H   0  0  0  0  0  0  0  0  0  0  0  0  # atno 10167 bound_to 10162
  156.0492  130.5720  150.7980 H   0  0  0  0  0  0  0  0  0  0  0  0  # atno 10718 bound_to 10713
  154.7834  135.4809  153.9893 H   0  0  0  0  0  0  0  0  0  0  0  0  # atno 10763 bound_to 10752
  153.1525  135.6794  153.8868 H   0  0  0  0  0  0  0  0  0  0  0  0  # atno 10764 bound_to 10752
  153.8508  135.3167  155.3410 H   0  0  0  0  0  0  0  0  0  0  0  0  # atno 10765 bound_to 10752
  139.9036  134.9596  156.7176 H   0  0  0  0  0  0  0  0  0  0  0  0  # atno 11005 bound_to 11000
  145.4596  141.0432  143.2759 LP  0  0  0  0  0  0  0  0  0  0  0  0  # atno 17320 bound_to 7965
  144.8023  139.6118  143.7066 LP  0  0  0  0  0  0  0  0  0  0  0  0  # atno 17321 bound_to 7965
  139.5258  144.3064  152.1030 LP  0  0  0  0  0  0  0  0  0  0  0  0  # atno 17342 bound_to 10162
  140.2236  144.4441  150.6331 LP  0  0  0  0  0  0  0  0  0  0  0  0  # atno 17343 bound_to 10162
  157.5401  131.0940  150.9838 LP  0  0  0  0  0  0  0  0  0  0  0  0  # atno 17370 bound_to 10713
  157.0123  130.5641  149.5322 LP  0  0  0  0  0  0  0  0  0  0  0  0  # atno 17371 bound_to 10713
  140.7026  133.9293  155.8034 LP  0  0  0  0  0  0  0  0  0  0  0  0  # atno 17394 bound_to 11000
  141.0360  134.0689  157.3959 LP  0  0  0  0  0  0  0  0  0  0  0  0  # atno 17395 bound_to 11000

$$$$
