#       Name:                AV-unprocessed.smi:2738
#       Creating user name   scv26
#       Creation time:       Fri Mar 27 15:00:03 2020


#       File generated by GOLD software.
#

@<TRIPOS>MOLECULE
AV-unprocessed.smi:2738
    36    37     1
SMALL
NO_CHARGES


@<TRIPOS>ATOM
      1 ****        -2.8902   1.9750  -1.9099 C.3            1 S1                 0.0000
      2 ****        -2.4731   1.7662  -0.4487 C.3            1 S1                 0.0000
      3 ****        -1.2755   0.9351  -0.3538 N.am           1 S1                 0.0000
      4 ****         0.0074   1.3673  -0.3546 C.2            1 S1                 0.0000
      5 ****         0.3757   2.5397  -0.4262 O.2            1 S1                 0.0000
      6 ****         0.8164   0.2851  -0.2680 N.am           1 S1                 0.0000
      7 ****         2.2787   0.2987  -0.2388 C.3            1 S1                 0.0000
      8 ****         2.8297   0.6910   1.1463 C.3            1 S1                 0.0000
      9 ****         2.4778  -0.3133   2.2541 C.3            1 S1                 0.0000
     10 ****         4.2354   0.7843   1.0574 O.3            1 S1                 0.0000
     11 ****         0.0279  -0.8748  -0.2194 C.ar           1 S1                 0.0000
     12 ****         0.3799  -2.2334  -0.1282 C.ar           1 S1                 0.0000
     13 ****        -0.6751  -3.1751  -0.0996 C.ar           1 S1                 0.0000
     14 ****        -2.0285  -2.7529  -0.1613 C.ar           1 S1                 0.0000
     15 ****        -2.3554  -1.3797  -0.2507 C.ar           1 S1                 0.0000
     16 ****        -1.2882  -0.4648  -0.2748 C.ar           1 S1                 0.0000
     17 ****        -3.7867   2.5917  -1.9720 H              1 S1                 0.0000
     18 ****        -3.1060   1.0243  -2.3984 H              1 S1                 0.0000
     19 ****        -2.1039   2.4736  -2.4776 H              1 S1                 0.0000
     20 ****        -2.2922   2.7318   0.0257 H              1 S1                 0.0000
     21 ****        -3.2872   1.3039   0.1103 H              1 S1                 0.0000
     22 ****         2.6707  -0.6726  -0.5416 H              1 S1                 0.0000
     23 ****         2.6320   1.0065  -0.9907 H              1 S1                 0.0000
     24 ****         2.4548   1.6766   1.4250 H              1 S1                 0.0000
     25 ****         1.4004  -0.3724   2.4082 H              1 S1                 0.0000
     26 ****         2.9259  -0.0223   3.2047 H              1 S1                 0.0000
     27 ****         2.8349  -1.3141   2.0096 H              1 S1                 0.0000
     28 ****         4.4524   1.4466   0.4188 H              1 S1                 0.0000
     29 ****         1.4104  -2.5523  -0.0793 H              1 S1                 0.0000
     30 ****        -0.4473  -4.2287  -0.0299 H              1 S1                 0.0000
     31 ****        -2.8189  -3.4886  -0.1385 H              1 S1                 0.0000
     32 ****        -3.3837  -1.0534  -0.2980 H              1 S1                 0.0000
     33 ****        -0.3008   3.2733  -0.4912 LP             1 S1                 0.0000
     34 ****         1.3515   2.7586  -0.4193 LP             1 S1                 0.0000
     35 ****         4.6146  -0.0960   0.7724 LP             1 S1                 0.0000
     36 ****         4.6136   1.0376   1.9478 LP             1 S1                 0.0000
@<TRIPOS>BOND
    1    1    2 1     
    2    1   17 1     
    3    1   18 1     
    4    1   19 1     
    5    2    3 1     
    6    2   20 1     
    7    2   21 1     
    8    3   16 1     
    9    3    4 am    
   10    4    5 2     
   11    4    6 am    
   12    6    7 1     
   13    6   11 1     
   14    7    8 1     
   15    7   22 1     
   16    7   23 1     
   17    8    9 1     
   18    8   10 1     
   19    8   24 1     
   20    9   25 1     
   21    9   26 1     
   22    9   27 1     
   23   10   28 1     
   24   11   16 ar    
   25   11   12 ar    
   26   12   13 ar    
   27   12   29 1     
   28   13   14 ar    
   29   13   30 1     
   30   14   15 ar    
   31   14   31 1     
   32   15   16 ar    
   33   15   32 1     
   34    5   33 1     
   35    5   34 1     
   36   10   35 1     
   37   10   36 1     
@<TRIPOS>SUBSTRUCTURE
      1 S1             1
@<TRIPOS>SET
LONE_PAIRS      STATIC     ATOMS    <user>   **** ""
4 33 34 35 36
DONOR_HYDROGENS      STATIC     ATOMS    <user>   **** ""
1 28
ATOM$BLUE        STATIC     ATOMS    COLORGROUP SYSTEM
4 33 34 35 36
ATOM$RED        STATIC     ATOMS    COLORGROUP SYSTEM
1 28
