AV-unprocessed.smi:967|AV-procd|sdf|4287|dock2
  -GOLD-   22720 2193D 1   1.00000     0.00000
 Structure written by MMmdl.
 42 43  0  0  0  0  0  0  0  0  1 V2000
  150.9403  137.4493  158.9741 C   0  0  0  0  0  0  0  0  0  0  0  0
  151.6397  136.4627  158.1653 N   0  0  0  0  0  0  0  0  0  0  0  0
  152.9991  136.7981  157.7715 C   0  0  0  0  0  0  0  0  0  0  0  0
  150.8694  135.9790  157.0999 C   0  0  0  0  0  0  0  0  0  0  0  0
  149.6198  135.3558  157.3191 C   0  0  0  0  0  0  0  0  0  0  0  0
  148.8895  134.8910  156.2084 C   0  0  0  0  0  0  0  0  0  0  0  0
  149.4289  135.0705  154.9124 C   0  0  0  0  0  0  0  0  0  0  0  0
  148.8028  134.6263  153.7169 N   0  0  0  0  0  0  0  0  0  0  0  0
  147.6811  133.8989  153.5802 C   0  0  0  0  0  0  0  0  0  0  0  0
  146.9691  133.5100  154.5056 O   0  0  0  0  0  0  0  0  0  0  0  0
  147.4172  133.6639  152.2867 N   0  0  0  0  0  0  0  0  0  0  0  0
  146.2692  132.9286  151.7632 C   0  0  2  0  0  0  0  0  0  0  0  0
  146.4731  132.6507  150.2612 C   0  0  0  0  0  0  0  0  0  0  0  0
  145.2440  131.9658  149.6420 C   0  0  0  0  0  0  0  0  0  0  0  0
  143.9704  132.7943  149.8812 C   0  0  1  0  0  0  0  0  0  0  0  0
  142.8543  132.1078  149.3553 O   0  0  0  0  0  0  0  0  0  0  0  0
  143.7549  133.0547  151.3818 C   0  0  0  0  0  0  0  0  0  0  0  0
  144.9813  133.7393  152.0064 C   0  0  0  0  0  0  0  0  0  0  0  0
  150.6897  135.6929  154.8066 C   0  0  0  0  0  0  0  0  0  0  0  0
  151.3940  136.1429  155.8664 N   0  0  0  0  0  0  0  0  0  0  0  0
  149.9391  137.1009  159.2303 H   0  0  0  0  0  0  0  0  0  0  0  0
  150.8510  138.3988  158.4450 H   0  0  0  0  0  0  0  0  0  0  0  0
  151.4826  137.6262  159.9031 H   0  0  0  0  0  0  0  0  0  0  0  0
  153.4379  136.0010  157.1699 H   0  0  0  0  0  0  0  0  0  0  0  0
  153.6233  136.9347  158.6548 H   0  0  0  0  0  0  0  0  0  0  0  0
  153.0217  137.7209  157.1909 H   0  0  0  0  0  0  0  0  0  0  0  0
  149.2269  135.2307  158.3175 H   0  0  0  0  0  0  0  0  0  0  0  0
  147.9451  134.3965  156.3740 H   0  0  0  0  0  0  0  0  0  0  0  0
  149.2310  134.9466  152.8606 H   0  0  0  0  0  0  0  0  0  0  0  0
  148.0614  134.0329  151.6027 H   0  0  0  0  0  0  0  0  0  0  0  0
  146.1679  131.9682  152.2720 H   0  0  0  0  0  0  0  0  0  0  0  0
  146.6664  133.5863  149.7340 H   0  0  0  0  0  0  0  0  0  0  0  0
  147.3545  132.0254  150.1132 H   0  0  0  0  0  0  0  0  0  0  0  0
  145.4025  131.8210  148.5728 H   0  0  0  0  0  0  0  0  0  0  0  0
  145.1278  130.9716  150.0761 H   0  0  0  0  0  0  0  0  0  0  0  0
  144.0553  133.7475  149.3575 H   0  0  0  0  0  0  0  0  0  0  0  0
  142.1383  132.7188  149.2703 H   0  0  0  0  0  0  0  0  0  0  0  0
  142.8708  133.6754  151.5319 H   0  0  0  0  0  0  0  0  0  0  0  0
  143.5649  132.1130  151.8991 H   0  0  0  0  0  0  0  0  0  0  0  0
  144.8210  133.8732  153.0769 H   0  0  0  0  0  0  0  0  0  0  0  0
  145.0883  134.7389  151.5826 H   0  0  0  0  0  0  0  0  0  0  0  0
  151.1486  135.8402  153.8399 H   0  0  0  0  0  0  0  0  0  0  0  0
  1  2  1  0  0  0  0
  1 21  1  0  0  0  0
  1 22  1  0  0  0  0
  1 23  1  0  0  0  0
  2  3  1  0  0  0  0
  2  4  1  0  0  0  0
  3 24  1  0  0  0  0
  3 25  1  0  0  0  0
  3 26  1  0  0  0  0
  4 20  1  0  0  0  0
  4  5  2  0  0  0  0
  5  6  1  0  0  0  0
  5 27  1  0  0  0  0
  6  7  2  0  0  0  0
  6 28  1  0  0  0  0
  7  8  1  0  0  0  0
  7 19  1  0  0  0  0
  8  9  1  0  0  0  0
  8 29  1  0  0  0  0
  9 10  2  0  0  0  0
  9 11  1  0  0  0  0
 11 12  1  0  0  0  0
 11 30  1  0  0  0  0
 12 18  1  0  0  0  0
 12 13  1  0  0  0  0
 12 31  1  0  0  0  0
 13 14  1  0  0  0  0
 13 32  1  0  0  0  0
 13 33  1  0  0  0  0
 14 15  1  0  0  0  0
 14 34  1  0  0  0  0
 14 35  1  0  0  0  0
 15 16  1  0  0  0  0
 15 17  1  0  0  0  0
 15 36  1  0  0  0  0
 16 37  1  0  0  0  0
 17 18  1  0  0  0  0
 17 38  1  0  0  0  0
 17 39  1  0  0  0  0
 18 40  1  0  0  0  0
 18 41  1  0  0  0  0
 19 20  2  0  0  0  0
 19 42  1  0  0  0  0
M  END
> <s_m_source_file>
AV-unprocessed.smi

> <i_m_source_file_index>
967

> <i_lp_mmshare_version>
43012

> <i_f3d_flags>
0

> <s_epik_input>
W0NIM11OKFtDSDNdKWMxW2NIXVtjSF1jKFtjSF1uMSlbTkhdQyg9TylbTkhdW0NAQEhdMltDSDJdW0NIMl1bQ0BASF0oW09IXSlbQ0gyXVtDSDJdMg==

> <s_epik_cmdline>
J2VwaWtfcHl0aG9uJywgJy1waCcsICc3LjAnLCAnLXRuJywgJzgnLCAnLW1hJywgJzIwMCcsICctbWV0YWxfYmluZGluZycsICctaW1hZScsICc8aW5maWxlLm1hZT4nLCAnLW9tYWUnLCAnPG91dGZpbGUubWFlPic=

> <r_lp_tautomer_probability>
1

> <r_epik_Ionization_Penalty>
0.629464

> <r_epik_Ionization_Penalty_Charging>
0

> <r_epik_Ionization_Penalty_Neutral>
0.629464

> <r_epik_State_Penalty>
0.645019

> <r_epik_Charging_Adjusted_Penalty>
0.645019

> <i_epik_Tot_Q>
0

> <i_epik_Tot_abs_Q>
0

> <r_epik_Metal_State_Penalty>
0.308581

> <b_epik_Metal_Only>
0

> <s_lp_Force_Field>
OPLS_2005

> <r_lp_Energy>
16.3049

> <b_lp_Chiralities_Consistent>
1

> <s_lp_Variant>
AV-unprocessed.smi:967-3

> <Gold.Version>
5.8.1

> <Gold.Id.Protein>
6NUR|6NUR_protein|mol2

> <Gold.PLP.Fitness>
40.9390

> <Gold.PLP.PLP>
-30.0840

> <Gold.PLP.part.hbond>
-6.5030

> <Gold.PLP.part.metal>
0.0000

> <Gold.PLP.part.buried>
-1.0406

> <Gold.PLP.part.nonpolar>
-22.4529

> <Gold.PLP.part.repulsive>
0.1232

> <Gold.PLP.ligand.clash>
0.0000

> <Gold.PLP.ligand.torsion>
0.2396

> <Gold.PLP.Chemscore.Hbond>
2.7072

> <Gold.PLP.Chemscore.CHOScore>
1.0000

> <Gold.PLP.Chemscore.Metal>
0.0000

> <Gold.Chemscore.Hbonds>
donor molecule, donor type, donor heavy atom, donor atom, acceptor molecule, acceptor atom, score
      L1  H     8    29       P1  7948  0.25
      L1  H    11    30       P1  7948  0.04
      L1  H    16    37       P1 10186  0.96
      P1  H 10752 10765       L1    20  0.60
      P1  H 10785 10796       L1    16  0.86
      L1  C    19    42       P1  7949  1.00

> <Gold.PLP.Chemscore.Internal.Correction>
0.2127

> <Gold.Rescore>
     Score         DG    S(hbond)    S(metal)    S(lipo)     H(rot)  DE(clash)    DE(int)     intcor
     14.30     -15.84       1.88        0.00      72.25       1.71       0.10       1.44       ----

> <Gold.Chemscore.Fitness>
14.2984

> <Gold.Chemscore.DG>
-15.8366

> <Gold.Chemscore.ZeroCoef>
-5.4800

> <Gold.Chemscore.Hbond>
1.8794

> <Gold.Chemscore.Metal>
0.0000

> <Gold.Chemscore.Lipo>
72.2472

> <Gold.Chemscore.Internal_Hbond>
0.0000

> <Gold.Chemscore.DEClash>
0.1022

> <Gold.Chemscore.DEInternal>
1.4361

> <Gold.Chemscore.Rot>
1.7084

> <Gold.Chemscore.Internal.Correction>
   9.000000E+99

> <Gold.Chemscore.Hbonds>
donor molecule, donor type, donor heavy atom, donor atom, acceptor molecule, acceptor atom, score
      L1  H     8    29       P1  7948  0.01
      L1  H    16    37       P1 10186  0.90
      P1  H 10752 10765       L1    20  0.06
      P1  H 10785 10796       L1    16  0.78

> <Gold.Chemscore.Hbond.Weighted>
-6.2773

> <Gold.Chemscore.Metal.Weighted>
-0.0000

> <Gold.Chemscore.Lipo.Weighted>
-8.4529

> <Gold.Chemscore.Internal_Hbond.Weighted>
0.0000

> <Gold.Chemscore.DEClash.Weighted>
0.1022

> <Gold.Chemscore.DEInternal.Weighted>
1.4361

> <Gold.Chemscore.Rot.Weighted>
4.3735

> <Gold.Chemscore.Internal.Correction.Weighted>
   9.000000E+99

> <Gold.Protein.RotatedTorsions>
[ 6907 6896 6895 6894 ] final   43.60 input  -60.11 | X-H torsion
[ 7974 7965 7964 7962 ] final  121.04 input  175.53 | X-H torsion
[ 8008 7997 7996 7995 ] final  -69.38 input   59.86 | X-H torsion
[ 10167 10162 10161 10158 ] final -122.81 input  -65.29 | X-H torsion
[ 10718 10713 10712 10709 ] final -174.14 input   66.30 | X-H torsion
[ 10763 10752 10751 10750 ] final -143.05 input  -60.55 | X-H torsion
[ 11005 11000 10999 10996 ] final -171.36 input  -57.11 | X-H torsion

> <Gold.Protein.ActiveResidues>
 VAL166  LYS551  ARG553  GLY616  TRP617  ASP618  TYR619  PRO620  LYS621  CYS622 
 ASP623  PHE694  ASN695  SER759  ASP760  ASP761  ALA762  ILE779  LEU786  VAL792 
 PHE793  MET794  SER795  GLU796  ALA797  LYS798  CYS799  TRP800  GLU811  SER814 

> <Gold.Protein.RotatedAtoms>
  152.2223  134.8401  160.0484 H   0  0  0  0  0  0  0  0  0  0  0  0  # atno 6907 bound_to 6896
  151.9180  133.3573  159.3895 H   0  0  0  0  0  0  0  0  0  0  0  0  # atno 6908 bound_to 6896
  150.7003  134.4589  159.5415 H   0  0  0  0  0  0  0  0  0  0  0  0  # atno 6909 bound_to 6896
  145.1240  139.3370  143.4699 H   0  0  0  0  0  0  0  0  0  0  0  0  # atno 7974 bound_to 7965
  154.4935  140.0854  156.7646 H   0  0  0  0  0  0  0  0  0  0  0  0  # atno 8008 bound_to 7997
  155.4173  140.3444  155.4250 H   0  0  0  0  0  0  0  0  0  0  0  0  # atno 8009 bound_to 7997
  156.1362  140.1516  156.8979 H   0  0  0  0  0  0  0  0  0  0  0  0  # atno 8010 bound_to 7997
  140.0102  143.5450  152.2266 H   0  0  0  0  0  0  0  0  0  0  0  0  # atno 10167 bound_to 10162
  156.7806  130.9482  151.3120 H   0  0  0  0  0  0  0  0  0  0  0  0  # atno 10718 bound_to 10713
  154.8485  135.3478  154.6126 H   0  0  0  0  0  0  0  0  0  0  0  0  # atno 10763 bound_to 10752
  153.6735  135.6984  153.5144 H   0  0  0  0  0  0  0  0  0  0  0  0  # atno 10764 bound_to 10752
  153.2724  135.4289  155.0957 H   0  0  0  0  0  0  0  0  0  0  0  0  # atno 10765 bound_to 10752
  140.5091  134.5819  157.5013 H   0  0  0  0  0  0  0  0  0  0  0  0  # atno 11005 bound_to 11000
  146.3519  140.1211  142.8600 LP  0  0  0  0  0  0  0  0  0  0  0  0  # atno 17320 bound_to 7965
  145.0709  140.9155  143.4882 LP  0  0  0  0  0  0  0  0  0  0  0  0  # atno 17321 bound_to 7965
  139.6210  144.7629  151.2740 LP  0  0  0  0  0  0  0  0  0  0  0  0  # atno 17342 bound_to 10162
  140.7384  143.6648  150.8132 LP  0  0  0  0  0  0  0  0  0  0  0  0  # atno 17343 bound_to 10162
  157.6648  130.8998  149.9908 LP  0  0  0  0  0  0  0  0  0  0  0  0  # atno 17370 bound_to 10713
  156.1220  130.3645  149.9871 LP  0  0  0  0  0  0  0  0  0  0  0  0  # atno 17371 bound_to 10713
  139.9669  134.7358  156.0120 LP  0  0  0  0  0  0  0  0  0  0  0  0  # atno 17394 bound_to 11000
  141.1395  133.6568  156.3689 LP  0  0  0  0  0  0  0  0  0  0  0  0  # atno 17395 bound_to 11000

$$$$
