#       Name:                AV-unprocessed.smi:1005
#       Creating user name   scv26
#       Creation time:       Fri Mar 27 02:31:15 2020


#       File generated by GOLD software.
#

@<TRIPOS>MOLECULE
AV-unprocessed.smi:1005
    62    64     1
SMALL
NO_CHARGES


@<TRIPOS>ATOM
      1 ****        -3.2386   1.3652  -5.6069 C.3            1 S1                 0.0000
      2 ****        -2.7691   1.7489  -4.2145 C.ar           1 S1                 0.0000
      3 ****        -1.8236   2.7892  -4.0704 C.ar           1 S1                 0.0000
      4 ****        -1.3605   3.1754  -2.7936 C.ar           1 S1                 0.0000
      5 ****        -0.4527   4.1535  -2.4250 N.2            1 S1                 0.0000
      6 ****        -0.4456   4.0268  -1.1014 C.2            1 S1                 0.0000
      7 ****        -1.2363   3.0753  -0.5680 N.pl3          1 S1                 0.0000
      8 ****        -1.3936   2.7522   0.8392 C.3            1 S1                 0.0000
      9 ****        -0.7657   1.3943   1.2139 C.3            1 S1                 0.0000
     10 ****        -1.0381   1.1747   2.5832 O.3            1 S1                 0.0000
     11 ****         0.7628   1.3293   0.9862 C.3            1 S1                 0.0000
     12 ****         1.2704   0.0261   0.5593 N.3            1 S1                 0.0000
     13 ****         2.6695   0.1150   0.1571 C.3            1 S1                 0.0000
     14 ****         3.2213  -1.2430  -0.3073 C.3            1 S1                 0.0000
     15 ****         3.0638  -2.2045   0.7310 O.3            1 S1                 0.0000
     16 ****         1.7102  -2.3549   1.1529 C.3            1 S1                 0.0000
     17 ****         1.5935  -3.4509   2.2337 C.3            1 S1                 0.0000
     18 ****         2.0974  -3.1228   3.5712 N.3            1 S1                 0.0000
     19 ****         3.5430  -2.9361   3.6039 C.3            1 S1                 0.0000
     20 ****         1.7043  -4.1465   4.5294 C.3            1 S1                 0.0000
     21 ****         1.1389  -0.9921   1.5985 C.3            1 S1                 0.0000
     22 ****        -1.8722   2.4862  -1.6555 C.ar           1 S1                 0.0000
     23 ****        -2.8154   1.4515  -1.7858 C.ar           1 S1                 0.0000
     24 ****        -3.2671   1.0778  -3.0688 C.ar           1 S1                 0.0000
     25 ****        -4.2830  -0.0433  -3.1992 C.3            1 S1                 0.0000
     26 ****        -2.7698   1.9865  -6.3705 H              1 S1                 0.0000
     27 ****        -4.3184   1.4875  -5.6935 H              1 S1                 0.0000
     28 ****        -2.9887   0.3258  -5.8210 H              1 S1                 0.0000
     29 ****        -1.4446   3.3013  -4.9427 H              1 S1                 0.0000
     30 ****         0.1758   4.6583  -0.4833 H              1 S1                 0.0000
     31 ****        -0.9517   3.5533   1.4338 H              1 S1                 0.0000
     32 ****        -2.4613   2.7484   1.0636 H              1 S1                 0.0000
     33 ****        -1.2603   0.6107   0.6386 H              1 S1                 0.0000
     34 ****        -0.6026   1.8445   3.0878 H              1 S1                 0.0000
     35 ****         1.0213   2.0460   0.2077 H              1 S1                 0.0000
     36 ****         1.2958   1.6742   1.8738 H              1 S1                 0.0000
     37 ****         2.7774   0.8400  -0.6505 H              1 S1                 0.0000
     38 ****         3.2714   0.4833   0.9893 H              1 S1                 0.0000
     39 ****         2.7063  -1.5815  -1.2076 H              1 S1                 0.0000
     40 ****         4.2790  -1.1577  -0.5567 H              1 S1                 0.0000
     41 ****         1.1413  -2.6988   0.2870 H              1 S1                 0.0000
     42 ****         0.5332  -3.6929   2.3199 H              1 S1                 0.0000
     43 ****         2.0721  -4.3626   1.8733 H              1 S1                 0.0000
     44 ****         3.8861  -2.7603   4.6238 H              1 S1                 0.0000
     45 ****         3.8438  -2.0690   3.0179 H              1 S1                 0.0000
     46 ****         4.0637  -3.8133   3.2182 H              1 S1                 0.0000
     47 ****         2.0331  -3.8834   5.5352 H              1 S1                 0.0000
     48 ****         2.1377  -5.1138   4.2721 H              1 S1                 0.0000
     49 ****         0.6198  -4.2563   4.5571 H              1 S1                 0.0000
     50 ****         1.6494  -0.6567   2.5024 H              1 S1                 0.0000
     51 ****         0.0900  -1.1235   1.8635 H              1 S1                 0.0000
     52 ****        -3.1864   0.9486  -0.9049 H              1 S1                 0.0000
     53 ****        -4.5725  -0.4334  -2.2229 H              1 S1                 0.0000
     54 ****        -3.8688  -0.8677  -3.7799 H              1 S1                 0.0000
     55 ****        -5.1850   0.3134  -3.6970 H              1 S1                 0.0000
     56 ****         0.0618   4.7879  -3.0019 LP             1 S1                 0.0000
     57 ****        -0.6983   0.2741   2.8543 LP             1 S1                 0.0000
     58 ****        -2.0243   1.2206   2.7423 LP             1 S1                 0.0000
     59 ****         0.7097  -0.2479  -0.2220 LP             1 S1                 0.0000
     60 ****         3.6120  -1.9174   1.5166 LP             1 S1                 0.0000
     61 ****         3.3939  -3.0882   0.3993 LP             1 S1                 0.0000
     62 ****         1.6836  -2.2484   3.8248 LP             1 S1                 0.0000
@<TRIPOS>BOND
    1    1    2 1     
    2    1   26 1     
    3    1   27 1     
    4    1   28 1     
    5    2   24 ar    
    6    2    3 ar    
    7    3    4 ar    
    8    3   29 1     
    9    4   22 ar    
   10    4    5 1     
   11    5    6 2     
   12    6    7 1     
   13    6   30 1     
   14    7    8 1     
   15    7   22 1     
   16    8    9 1     
   17    8   31 1     
   18    8   32 1     
   19    9   10 1     
   20    9   11 1     
   21    9   33 1     
   22   10   34 1     
   23   11   12 1     
   24   11   35 1     
   25   11   36 1     
   26   12   21 1     
   27   12   13 1     
   28   13   14 1     
   29   13   37 1     
   30   13   38 1     
   31   14   15 1     
   32   14   39 1     
   33   14   40 1     
   34   15   16 1     
   35   16   17 1     
   36   16   21 1     
   37   16   41 1     
   38   17   18 1     
   39   17   42 1     
   40   17   43 1     
   41   18   19 1     
   42   18   20 1     
   43   19   44 1     
   44   19   45 1     
   45   19   46 1     
   46   20   47 1     
   47   20   48 1     
   48   20   49 1     
   49   21   50 1     
   50   21   51 1     
   51   22   23 ar    
   52   23   24 ar    
   53   23   52 1     
   54   24   25 1     
   55   25   53 1     
   56   25   54 1     
   57   25   55 1     
   58    5   56 1     
   59   10   57 1     
   60   10   58 1     
   61   12   59 1     
   62   15   60 1     
   63   15   61 1     
   64   18   62 1     
@<TRIPOS>SUBSTRUCTURE
      1 S1             1
@<TRIPOS>SET
LONE_PAIRS      STATIC     ATOMS    <user>   **** ""
7 56 57 58 59 60 61 62
DONOR_HYDROGENS      STATIC     ATOMS    <user>   **** ""
1 34
ATOM$BLUE        STATIC     ATOMS    COLORGROUP SYSTEM
7 56 57 58 59 60 61 62
ATOM$RED        STATIC     ATOMS    COLORGROUP SYSTEM
1 34
