AV-unprocessed.smi:421|AV-procd|sdf|2534|dock4
  -GOLD-   2262022493D 1   1.00000     0.00000
 Structure written by MMmdl.
 43 45  0  0  0  0  0  0  0  0  1 V2000
  149.7265  142.0700  157.3255 C   0  0  0  0  0  0  0  0  0  0  0  0
  150.7082  141.2203  157.9882 N   0  0  0  0  0  0  0  0  0  0  0  0
  150.8722  139.8863  157.8278 C   0  0  0  0  0  0  0  0  0  0  0  0
  150.2122  139.1583  157.0865 O   0  0  0  0  0  0  0  0  0  0  0  0
  151.8871  139.4885  158.6318 N   0  0  0  0  0  0  0  0  0  0  0  0
  152.4004  138.1265  158.7743 C   0  0  0  0  0  0  0  0  0  0  0  0
  153.8204  137.9859  158.1887 C   0  0  2  0  0  0  0  0  0  0  0  0
  153.7851  138.4543  156.8551 O   0  0  0  0  0  0  0  0  0  0  0  0
  154.2814  136.5194  158.1462 C   0  0  0  0  0  0  0  0  0  0  0  0
  153.8466  135.8683  159.3283 O   0  0  0  0  0  0  0  0  0  0  0  0
  154.9166  135.4901  160.1795 C   0  0  0  0  0  0  0  0  0  0  0  0
  154.5994  135.7492  161.6405 C   0  0  0  0  0  0  0  0  0  0  0  0
  154.7726  134.7289  162.6003 C   0  0  0  0  0  0  0  0  0  0  0  0
  154.4629  134.9682  163.9534 C   0  0  0  0  0  0  0  0  0  0  0  0
  153.9709  136.2261  164.3518 C   0  0  0  0  0  0  0  0  0  0  0  0
  153.7855  137.2434  163.3958 C   0  0  0  0  0  0  0  0  0  0  0  0
  154.0963  137.0049  162.0427 C   0  0  0  0  0  0  0  0  0  0  0  0
  152.3788  140.5991  159.3338 C   0  0  0  0  0  0  0  0  0  0  0  0
  153.4062  140.7145  160.2868 C   0  0  0  0  0  0  0  0  0  0  0  0
  153.6548  142.0024  160.8170 C   0  0  0  0  0  0  0  0  0  0  0  0
  152.8906  143.1222  160.3968 C   0  0  0  0  0  0  0  0  0  0  0  0
  151.8604  142.9776  159.4382 C   0  0  0  0  0  0  0  0  0  0  0  0
  151.6357  141.6876  158.9277 C   0  0  0  0  0  0  0  0  0  0  0  0
  149.2199  141.5509  156.5108 H   0  0  0  0  0  0  0  0  0  0  0  0
  150.2097  142.9536  156.9081 H   0  0  0  0  0  0  0  0  0  0  0  0
  148.9715  142.3988  158.0401 H   0  0  0  0  0  0  0  0  0  0  0  0
  152.4183  137.8955  159.8406 H   0  0  0  0  0  0  0  0  0  0  0  0
  151.7168  137.4007  158.3318 H   0  0  0  0  0  0  0  0  0  0  0  0
  154.5310  138.5725  158.7729 H   0  0  0  0  0  0  0  0  0  0  0  0
  153.4297  137.7713  156.3074 H   0  0  0  0  0  0  0  0  0  0  0  0
  153.8261  136.0120  157.2944 H   0  0  0  0  0  0  0  0  0  0  0  0
  155.3640  136.4466  158.0244 H   0  0  0  0  0  0  0  0  0  0  0  0
  155.1385  134.4310  160.0389 H   0  0  0  0  0  0  0  0  0  0  0  0
  155.8167  136.0495  159.9202 H   0  0  0  0  0  0  0  0  0  0  0  0
  155.1438  133.7588  162.3029 H   0  0  0  0  0  0  0  0  0  0  0  0
  154.6011  134.1858  164.6848 H   0  0  0  0  0  0  0  0  0  0  0  0
  153.7325  136.4088  165.3893 H   0  0  0  0  0  0  0  0  0  0  0  0
  153.4032  138.2067  163.6999 H   0  0  0  0  0  0  0  0  0  0  0  0
  153.9483  137.7897  161.3153 H   0  0  0  0  0  0  0  0  0  0  0  0
  153.9838  139.8596  160.6059 H   0  0  0  0  0  0  0  0  0  0  0  0
  154.4361  142.1349  161.5510 H   0  0  0  0  0  0  0  0  0  0  0  0
  153.0970  144.0967  160.8145 H   0  0  0  0  0  0  0  0  0  0  0  0
  151.2730  143.8239  159.1139 H   0  0  0  0  0  0  0  0  0  0  0  0
  1  2  1  0  0  0  0
  1 24  1  0  0  0  0
  1 25  1  0  0  0  0
  1 26  1  0  0  0  0
  2 23  1  0  0  0  0
  2  3  1  0  0  0  0
  3  4  2  0  0  0  0
  3  5  1  0  0  0  0
  5  6  1  0  0  0  0
  5 18  1  0  0  0  0
  6  7  1  0  0  0  0
  6 27  1  0  0  0  0
  6 28  1  0  0  0  0
  7  8  1  0  0  0  0
  7  9  1  0  0  0  0
  7 29  1  0  0  0  0
  8 30  1  0  0  0  0
  9 10  1  0  0  0  0
  9 31  1  0  0  0  0
  9 32  1  0  0  0  0
 10 11  1  0  0  0  0
 11 12  1  0  0  0  0
 11 33  1  0  0  0  0
 11 34  1  0  0  0  0
 12 17  1  0  0  0  0
 12 13  2  0  0  0  0
 13 14  1  0  0  0  0
 13 35  1  0  0  0  0
 14 15  2  0  0  0  0
 14 36  1  0  0  0  0
 15 16  1  0  0  0  0
 15 37  1  0  0  0  0
 16 17  2  0  0  0  0
 16 38  1  0  0  0  0
 17 39  1  0  0  0  0
 18 23  2  0  0  0  0
 18 19  1  0  0  0  0
 19 20  2  0  0  0  0
 19 40  1  0  0  0  0
 20 21  1  0  0  0  0
 20 41  1  0  0  0  0
 21 22  2  0  0  0  0
 21 42  1  0  0  0  0
 22 23  1  0  0  0  0
 22 43  1  0  0  0  0
M  END
> <s_m_source_file>
AV-unprocessed.smi

> <i_m_source_file_index>
421

> <i_lp_mmshare_version>
43012

> <i_f3d_flags>
0

> <s_epik_input>
W2NIXTFbY0hdW2NIXVtjSF1jKGMxMiluKFtDSDNdKWMoPU8pbjJbQ0gyXVtDQEhdKFtPSF0pW0NIMl1PW0NIMl1jM1tjSF1bY0hdW2NIXVtjSF1bY0hdMw==

> <s_epik_cmdline>
J2VwaWtfcHl0aG9uJywgJy1waCcsICc3LjAnLCAnLXRuJywgJzgnLCAnLW1hJywgJzIwMCcsICctbWV0YWxfYmluZGluZycsICctaW1hZScsICc8aW5maWxlLm1hZT4nLCAnLW9tYWUnLCAnPG91dGZpbGUubWFlPic=

> <r_lp_tautomer_probability>
1

> <r_epik_Ionization_Penalty>
1.0795e-06

> <r_epik_Ionization_Penalty_Charging>
2.82452e-09

> <r_epik_Ionization_Penalty_Neutral>
1.07667e-06

> <r_epik_State_Penalty>
-0

> <r_epik_Charging_Adjusted_Penalty>
2.82452e-09

> <i_epik_Tot_Q>
0

> <i_epik_Tot_abs_Q>
0

> <r_epik_Metal_State_Penalty>
-0

> <b_epik_Metal_Only>
0

> <s_lp_Force_Field>
OPLS_2005

> <r_lp_Energy>
47.1421

> <b_lp_Chiralities_Consistent>
1

> <s_lp_Variant>
AV-unprocessed.smi:421-1

> <Gold.Version>
5.8.1

> <Gold.Id.Protein>
6NUR|6NUR_protein|mol2

> <Gold.PLP.Fitness>
48.8702

> <Gold.PLP.PLP>
-45.4504

> <Gold.PLP.part.hbond>
-2.0000

> <Gold.PLP.part.metal>
0.0000

> <Gold.PLP.part.buried>
-5.3557

> <Gold.PLP.part.nonpolar>
-37.8831

> <Gold.PLP.part.repulsive>
0.0000

> <Gold.PLP.ligand.clash>
0.0000

> <Gold.PLP.ligand.torsion>
1.0617

> <Gold.PLP.Chemscore.Hbond>
1.7840

> <Gold.PLP.Chemscore.CHOScore>
0.0000

> <Gold.PLP.Chemscore.Metal>
0.0000

> <Gold.Chemscore.Hbonds>
donor molecule, donor type, donor heavy atom, donor atom, acceptor molecule, acceptor atom, score
      P1  H  6896  6909       L1    10  1.00
      P1  H  7997  8008       L1     8  0.77

> <Gold.PLP.Chemscore.Internal.Correction>
0.1912

> <Gold.Rescore>
     Score         DG    S(hbond)    S(metal)    S(lipo)     H(rot)  DE(clash)    DE(int)     intcor
     18.63     -19.72       1.57        0.00     125.24       2.21       0.04       1.05       ----

> <Gold.Chemscore.Fitness>
18.6313

> <Gold.Chemscore.DG>
-19.7173

> <Gold.Chemscore.ZeroCoef>
-5.4800

> <Gold.Chemscore.Hbond>
1.5710

> <Gold.Chemscore.Metal>
0.0000

> <Gold.Chemscore.Lipo>
125.2360

> <Gold.Chemscore.Internal_Hbond>
0.0000

> <Gold.Chemscore.DEClash>
0.0396

> <Gold.Chemscore.DEInternal>
1.0464

> <Gold.Chemscore.Rot>
2.2119

> <Gold.Chemscore.Internal.Correction>
   9.000000E+99

> <Gold.Chemscore.Hbonds>
donor molecule, donor type, donor heavy atom, donor atom, acceptor molecule, acceptor atom, score
      P1  H  6896  6909       L1    10  0.38
      P1  H  7997  8008       L1     8  0.59

> <Gold.Chemscore.Hbond.Weighted>
-5.2470

> <Gold.Chemscore.Metal.Weighted>
-0.0000

> <Gold.Chemscore.Lipo.Weighted>
-14.6526

> <Gold.Chemscore.Internal_Hbond.Weighted>
0.0000

> <Gold.Chemscore.DEClash.Weighted>
0.0396

> <Gold.Chemscore.DEInternal.Weighted>
1.0464

> <Gold.Chemscore.Rot.Weighted>
5.6623

> <Gold.Chemscore.Internal.Correction.Weighted>
   9.000000E+99

> <Gold.Protein.RotatedTorsions>
[ 6907 6896 6895 6894 ] final  168.80 input  -60.11 | X-H torsion
[ 7974 7965 7964 7962 ] final   64.89 input  175.53 | X-H torsion
[ 8008 7997 7996 7995 ] final  -66.95 input   59.86 | X-H torsion
[ 10167 10162 10161 10158 ] final  -19.60 input  -65.29 | X-H torsion
[ 10718 10713 10712 10709 ] final   89.25 input   66.30 | X-H torsion
[ 10763 10752 10751 10750 ] final  109.66 input  -60.55 | X-H torsion
[ 11005 11000 10999 10996 ] final -152.04 input  -57.11 | X-H torsion

> <Gold.Protein.ActiveResidues>
 VAL166  LYS551  ARG553  GLY616  TRP617  ASP618  TYR619  PRO620  LYS621  CYS622 
 ASP623  PHE694  ASN695  SER759  ASP760  ASP761  ALA762  ILE779  LEU786  VAL792 
 PHE793  MET794  SER795  GLU796  ALA797  LYS798  CYS799  TRP800  GLU811  SER814 

> <Gold.Protein.RotatedAtoms>
  151.8419  133.3425  159.3645 H   0  0  0  0  0  0  0  0  0  0  0  0  # atno 6907 bound_to 6896
  150.7232  134.5383  159.5744 H   0  0  0  0  0  0  0  0  0  0  0  0  # atno 6908 bound_to 6896
  152.2858  134.7778  160.0438 H   0  0  0  0  0  0  0  0  0  0  0  0  # atno 6909 bound_to 6896
  145.8449  139.3218  143.0909 H   0  0  0  0  0  0  0  0  0  0  0  0  # atno 7974 bound_to 7965
  154.4768  140.0902  156.7281 H   0  0  0  0  0  0  0  0  0  0  0  0  # atno 8008 bound_to 7997
  155.4576  140.3460  155.4290 H   0  0  0  0  0  0  0  0  0  0  0  0  # atno 8009 bound_to 7997
  156.1129  140.1452  156.9302 H   0  0  0  0  0  0  0  0  0  0  0  0  # atno 8010 bound_to 7997
  140.7269  143.4803  151.0127 H   0  0  0  0  0  0  0  0  0  0  0  0  # atno 10167 bound_to 10162
  157.6954  131.0326  150.3398 H   0  0  0  0  0  0  0  0  0  0  0  0  # atno 10718 bound_to 10713
  153.4379  135.3773  155.2210 H   0  0  0  0  0  0  0  0  0  0  0  0  # atno 10763 bound_to 10752
  154.8753  135.3856  154.4188 H   0  0  0  0  0  0  0  0  0  0  0  0  # atno 10764 bound_to 10752
  153.4730  135.7087  153.6046 H   0  0  0  0  0  0  0  0  0  0  0  0  # atno 10765 bound_to 10752
  140.7231  134.3704  157.5180 H   0  0  0  0  0  0  0  0  0  0  0  0  # atno 11005 bound_to 11000
  145.9423  140.8970  143.0301 LP  0  0  0  0  0  0  0  0  0  0  0  0  # atno 17320 bound_to 7965
  144.6731  140.1566  143.7426 LP  0  0  0  0  0  0  0  0  0  0  0  0  # atno 17321 bound_to 7965
  139.8501  143.7450  152.3178 LP  0  0  0  0  0  0  0  0  0  0  0  0  # atno 17342 bound_to 10162
  139.7629  144.7501  151.0338 LP  0  0  0  0  0  0  0  0  0  0  0  0  # atno 17343 bound_to 10162
  156.3860  130.3889  149.7065 LP  0  0  0  0  0  0  0  0  0  0  0  0  # atno 17370 bound_to 10713
  156.4432  130.7871  151.2892 LP  0  0  0  0  0  0  0  0  0  0  0  0  # atno 17371 bound_to 10713
  139.8843  134.8968  156.2710 LP  0  0  0  0  0  0  0  0  0  0  0  0  # atno 17394 bound_to 11000
  140.9986  133.7165  156.0924 LP  0  0  0  0  0  0  0  0  0  0  0  0  # atno 17395 bound_to 11000

$$$$
