AV-unprocessed.smi:219|AV-procd|sdf|1678|dock5
  -GOLD-   2262020113D 1   1.00000     0.00000
 Structure written by MMmdl.
 50 53  0  0  0  0  0  0  0  0  1 V2000
  153.7655  137.3811  160.2607 N   0  0  0  0  0  0  0  0  0  0  0  0
  153.8468  138.7090  160.1421 C   0  0  0  0  0  0  0  0  0  0  0  0
  154.7352  139.3610  160.6863 O   0  0  0  0  0  0  0  0  0  0  0  0
  152.7749  139.4005  159.2875 C   0  0  0  0  0  0  0  0  0  0  0  0
  152.9068  140.9488  159.1715 C   0  0  2  0  0  0  0  0  0  0  0  0
  152.9836  141.5530  160.5928 C   0  0  0  0  0  0  0  0  0  0  0  0
  153.1023  143.0830  160.5658 C   0  0  0  0  0  0  0  0  0  0  0  0
  151.9470  143.6825  159.7574 C   0  0  0  0  0  0  0  0  0  0  0  0
  151.9096  143.0688  158.3518 C   0  0  0  0  0  0  0  0  0  0  0  0
  151.8254  141.6080  158.4116 N   0  0  0  0  0  0  0  0  0  0  0  0
  151.5277  141.0742  157.2052 C   0  0  0  0  0  0  0  0  0  0  0  0
  152.3696  140.1738  156.6320 N   0  0  0  0  0  0  0  0  0  0  0  0
  152.0467  139.6108  155.4637 C   0  0  0  0  0  0  0  0  0  0  0  0
  150.9531  139.7968  154.7208 N   0  0  0  0  0  0  0  0  0  0  0  0
  150.1114  140.7041  155.2947 C   0  0  0  0  0  0  0  0  0  0  0  0
  150.3269  141.3936  156.5196 C   0  0  0  0  0  0  0  0  0  0  0  0
  149.2594  142.2403  156.7880 N   0  0  0  0  0  0  0  0  0  0  0  0
  148.4519  142.0565  155.7796 C   0  0  0  0  0  0  0  0  0  0  0  0
  148.8759  141.1367  154.8462 N   0  0  0  0  0  0  0  0  0  0  0  0
  148.1654  140.7175  153.6487 C   0  0  0  0  0  0  0  0  0  0  0  0
  147.8782  139.1979  153.6113 C   0  0  1  0  0  0  0  0  0  0  0  0
  149.0960  138.4983  153.4204 O   0  0  0  0  0  0  0  0  0  0  0  0
  147.2069  138.6591  154.8725 C   0  0  0  0  0  0  0  0  0  0  0  0
  146.3234  137.5404  154.3387 C   0  0  0  0  0  0  0  0  0  0  0  0
  145.8351  138.0891  153.1270 O   0  0  0  0  0  0  0  0  0  0  0  0
  146.8990  138.7907  152.4918 C   0  0  0  0  0  0  0  0  0  0  0  0
  154.4571  136.8846  160.8039 H   0  0  0  0  0  0  0  0  0  0  0  0
  153.0224  136.8771  159.7989 H   0  0  0  0  0  0  0  0  0  0  0  0
  152.7255  138.9515  158.2943 H   0  0  0  0  0  0  0  0  0  0  0  0
  151.8267  139.1555  159.7671 H   0  0  0  0  0  0  0  0  0  0  0  0
  153.8453  141.1862  158.6676 H   0  0  0  0  0  0  0  0  0  0  0  0
  152.0934  141.2718  161.1577 H   0  0  0  0  0  0  0  0  0  0  0  0
  153.8350  141.1368  161.1325 H   0  0  0  0  0  0  0  0  0  0  0  0
  153.0977  143.4797  161.5813 H   0  0  0  0  0  0  0  0  0  0  0  0
  154.0549  143.3717  160.1199 H   0  0  0  0  0  0  0  0  0  0  0  0
  151.0010  143.4940  160.2669 H   0  0  0  0  0  0  0  0  0  0  0  0
  152.0563  144.7652  159.6909 H   0  0  0  0  0  0  0  0  0  0  0  0
  151.0561  143.4681  157.8015 H   0  0  0  0  0  0  0  0  0  0  0  0
  152.8070  143.3607  157.8043 H   0  0  0  0  0  0  0  0  0  0  0  0
  152.7632  138.9038  155.0724 H   0  0  0  0  0  0  0  0  0  0  0  0
  147.5116  142.5817  155.6960 H   0  0  0  0  0  0  0  0  0  0  0  0
  147.2308  141.2776  153.5964 H   0  0  0  0  0  0  0  0  0  0  0  0
  148.7498  141.0147  152.7768 H   0  0  0  0  0  0  0  0  0  0  0  0
  148.9474  137.8003  152.8008 H   0  0  0  0  0  0  0  0  0  0  0  0
  147.9078  138.3267  155.6397 H   0  0  0  0  0  0  0  0  0  0  0  0
  146.5678  139.4237  155.3158 H   0  0  0  0  0  0  0  0  0  0  0  0
  146.9063  136.6419  154.1303 H   0  0  0  0  0  0  0  0  0  0  0  0
  145.5129  137.2793  155.0197 H   0  0  0  0  0  0  0  0  0  0  0  0
  146.4923  139.6513  151.9594 H   0  0  0  0  0  0  0  0  0  0  0  0
  147.3695  138.1420  151.7509 H   0  0  0  0  0  0  0  0  0  0  0  0
  1  2  1  0  0  0  0
  1 27  1  0  0  0  0
  1 28  1  0  0  0  0
  2  3  2  0  0  0  0
  2  4  1  0  0  0  0
  4  5  1  0  0  0  0
  4 29  1  0  0  0  0
  4 30  1  0  0  0  0
  5 10  1  0  0  0  0
  5  6  1  0  0  0  0
  5 31  1  0  0  0  0
  6  7  1  0  0  0  0
  6 32  1  0  0  0  0
  6 33  1  0  0  0  0
  7  8  1  0  0  0  0
  7 34  1  0  0  0  0
  7 35  1  0  0  0  0
  8  9  1  0  0  0  0
  8 36  1  0  0  0  0
  8 37  1  0  0  0  0
  9 10  1  0  0  0  0
  9 38  1  0  0  0  0
  9 39  1  0  0  0  0
 10 11  1  0  0  0  0
 11 16  1  0  0  0  0
 11 12  2  0  0  0  0
 12 13  1  0  0  0  0
 13 14  2  0  0  0  0
 13 40  1  0  0  0  0
 14 15  1  0  0  0  0
 15 19  1  0  0  0  0
 15 16  2  0  0  0  0
 16 17  1  0  0  0  0
 17 18  2  0  0  0  0
 18 19  1  0  0  0  0
 18 41  1  0  0  0  0
 19 20  1  0  0  0  0
 20 21  1  0  0  0  0
 20 42  1  0  0  0  0
 20 43  1  0  0  0  0
 21 26  1  0  0  0  0
 21 22  1  0  0  0  0
 21 23  1  0  0  0  0
 22 44  1  0  0  0  0
 23 24  1  0  0  0  0
 23 45  1  0  0  0  0
 23 46  1  0  0  0  0
 24 25  1  0  0  0  0
 24 47  1  0  0  0  0
 24 48  1  0  0  0  0
 25 26  1  0  0  0  0
 26 49  1  0  0  0  0
 26 50  1  0  0  0  0
M  END
> <s_m_source_file>
AV-unprocessed.smi

> <i_m_source_file_index>
219

> <i_lp_mmshare_version>
43012

> <i_f3d_flags>
0

> <s_epik_input>
W05IMl1DKD1PKVtDSDJdW0NAQEhdMVtDSDJdW0NIMl1bQ0gyXVtDSDJdTjFjKG5bY0hdbjIpYyhjMjMpbltjSF1uM1tDSDJdW0NAQF00KFtPSF0pW0NIMl1bQ0gyXU9bQ0gyXTQ=

> <s_epik_cmdline>
J2VwaWtfcHl0aG9uJywgJy1waCcsICc3LjAnLCAnLXRuJywgJzgnLCAnLW1hJywgJzIwMCcsICctbWV0YWxfYmluZGluZycsICctaW1hZScsICc8aW5maWxlLm1hZT4nLCAnLW9tYWUnLCAnPG91dGZpbGUubWFlPic=

> <r_lp_tautomer_probability>
1

> <r_epik_Ionization_Penalty>
0.00228532

> <r_epik_Ionization_Penalty_Charging>
0

> <r_epik_Ionization_Penalty_Neutral>
0.00228532

> <r_epik_State_Penalty>
0.00140978

> <r_epik_Charging_Adjusted_Penalty>
0.00140978

> <i_epik_Tot_Q>
0

> <i_epik_Tot_abs_Q>
0

> <r_epik_Metal_State_Penalty>
-0

> <b_epik_Metal_Only>
0

> <s_lp_Force_Field>
OPLS_2005

> <r_lp_Energy>
33.2766

> <b_lp_Chiralities_Consistent>
1

> <s_lp_Variant>
AV-unprocessed.smi:219-1

> <Gold.Version>
5.8.1

> <Gold.Id.Protein>
6NUR|6NUR_protein|mol2

> <Gold.PLP.Fitness>
48.9359

> <Gold.PLP.PLP>
-40.2477

> <Gold.PLP.part.hbond>
-4.0000

> <Gold.PLP.part.metal>
0.0000

> <Gold.PLP.part.buried>
-0.0813

> <Gold.PLP.part.nonpolar>
-37.9618

> <Gold.PLP.part.repulsive>
2.8843

> <Gold.PLP.ligand.clash>
0.0000

> <Gold.PLP.ligand.torsion>
0.2647

> <Gold.PLP.Chemscore.Hbond>
2.8500

> <Gold.PLP.Chemscore.CHOScore>
0.1249

> <Gold.PLP.Chemscore.Metal>
0.0000

> <Gold.Chemscore.Hbonds>
donor molecule, donor type, donor heavy atom, donor atom, acceptor molecule, acceptor atom, score
      L1  H    22    44       P1  7948  1.00
      P1  H  7989  7998       L1    14  0.81
      P1  H  7997  8010       L1    12  1.00
      L1  C    18    41       P1  8028  0.15

> <Gold.PLP.Chemscore.Internal.Correction>
0.2929

> <Gold.Rescore>
     Score         DG    S(hbond)    S(metal)    S(lipo)     H(rot)  DE(clash)    DE(int)     intcor
      8.52     -12.37       1.72        0.00      83.62       3.37       1.14       2.72       ----

> <Gold.Chemscore.Fitness>
8.5201

> <Gold.Chemscore.DG>
-12.3736

> <Gold.Chemscore.ZeroCoef>
-5.4800

> <Gold.Chemscore.Hbond>
1.7174

> <Gold.Chemscore.Metal>
0.0000

> <Gold.Chemscore.Lipo>
83.6237

> <Gold.Chemscore.Internal_Hbond>
0.0000

> <Gold.Chemscore.DEClash>
1.1359

> <Gold.Chemscore.DEInternal>
2.7177

> <Gold.Chemscore.Rot>
3.3697

> <Gold.Chemscore.Internal.Correction>
   9.000000E+99

> <Gold.Chemscore.Hbonds>
donor molecule, donor type, donor heavy atom, donor atom, acceptor molecule, acceptor atom, score
      L1  H    22    44       P1  7948  1.00
      P1  H  7989  7998       L1    14  0.03
      P1  H  7997  8010       L1    12  0.24

> <Gold.Chemscore.Hbond.Weighted>
-5.7361

> <Gold.Chemscore.Metal.Weighted>
-0.0000

> <Gold.Chemscore.Lipo.Weighted>
-9.7840

> <Gold.Chemscore.Internal_Hbond.Weighted>
0.0000

> <Gold.Chemscore.DEClash.Weighted>
1.1359

> <Gold.Chemscore.DEInternal.Weighted>
2.7177

> <Gold.Chemscore.Rot.Weighted>
8.6264

> <Gold.Chemscore.Internal.Correction.Weighted>
   9.000000E+99

> <Gold.Protein.RotatedTorsions>
[ 6907 6896 6895 6894 ] final  175.41 input  -60.11 | X-H torsion
[ 7974 7965 7964 7962 ] final   40.28 input  175.53 | X-H torsion
[ 8008 7997 7996 7995 ] final   66.71 input   59.86 | X-H torsion
[ 10167 10162 10161 10158 ] final -111.39 input  -65.29 | X-H torsion
[ 10718 10713 10712 10709 ] final   17.72 input   66.30 | X-H torsion
[ 10763 10752 10751 10750 ] final -104.78 input  -60.55 | X-H torsion
[ 11005 11000 10999 10996 ] final  142.69 input  -57.11 | X-H torsion

> <Gold.Protein.ActiveResidues>
 VAL166  LYS551  ARG553  GLY616  TRP617  ASP618  TYR619  PRO620  LYS621  CYS622 
 ASP623  PHE694  ASN695  SER759  ASP760  ASP761  ALA762  ILE779  LEU786  VAL792 
 PHE793  MET794  SER795  GLU796  ALA797  LYS798  CYS799  TRP800  GLU811  SER814 

> <Gold.Protein.RotatedAtoms>
  151.7367  133.3320  159.3354 H   0  0  0  0  0  0  0  0  0  0  0  0  # atno 6907 bound_to 6896
  150.7590  134.6315  159.6198 H   0  0  0  0  0  0  0  0  0  0  0  0  # atno 6908 bound_to 6896
  152.3557  134.6946  160.0274 H   0  0  0  0  0  0  0  0  0  0  0  0  # atno 6909 bound_to 6896
  146.0917  139.5552  142.9471 H   0  0  0  0  0  0  0  0  0  0  0  0  # atno 7974 bound_to 7965
  155.6817  140.3496  155.4858 H   0  0  0  0  0  0  0  0  0  0  0  0  # atno 8008 bound_to 7997
  155.9601  140.1135  157.0925 H   0  0  0  0  0  0  0  0  0  0  0  0  # atno 8009 bound_to 7997
  154.4141  140.1177  156.5154 H   0  0  0  0  0  0  0  0  0  0  0  0  # atno 8010 bound_to 7997
  140.1341  143.4335  152.1607 H   0  0  0  0  0  0  0  0  0  0  0  0  # atno 10167 bound_to 10162
  157.0861  130.6408  149.5837 H   0  0  0  0  0  0  0  0  0  0  0  0  # atno 10718 bound_to 10713
  154.7902  135.4773  154.0035 H   0  0  0  0  0  0  0  0  0  0  0  0  # atno 10763 bound_to 10752
  153.1619  135.6810  153.8737 H   0  0  0  0  0  0  0  0  0  0  0  0  # atno 10764 bound_to 10752
  153.8347  135.3187  155.3399 H   0  0  0  0  0  0  0  0  0  0  0  0  # atno 10765 bound_to 10752
  140.0496  134.9262  157.0993 H   0  0  0  0  0  0  0  0  0  0  0  0  # atno 11005 bound_to 11000
  145.6025  141.0353  143.2010 LP  0  0  0  0  0  0  0  0  0  0  0  0  # atno 17320 bound_to 7965
  144.7365  139.7570  143.7327 LP  0  0  0  0  0  0  0  0  0  0  0  0  # atno 17321 bound_to 7965
  139.5505  144.7333  151.4451 LP  0  0  0  0  0  0  0  0  0  0  0  0  # atno 17342 bound_to 10162
  140.6800  143.8104  150.7108 LP  0  0  0  0  0  0  0  0  0  0  0  0  # atno 17343 bound_to 10162
  155.9910  130.4964  150.7282 LP  0  0  0  0  0  0  0  0  0  0  0  0  # atno 17370 bound_to 10713
  157.4760  131.0898  151.0590 LP  0  0  0  0  0  0  0  0  0  0  0  0  # atno 17371 bound_to 10713
  140.3938  134.2156  155.7165 LP  0  0  0  0  0  0  0  0  0  0  0  0  # atno 17394 bound_to 11000
  141.1924  133.8174  157.0841 LP  0  0  0  0  0  0  0  0  0  0  0  0  # atno 17395 bound_to 11000

$$$$
