AV-unprocessed.smi:3056|AV-procd|sdf|11653|dock2
  -GOLD-   2272017 53D 1   1.00000     0.00000
 Structure written by MMmdl.
 47 48  0  0  0  0  0  0  0  0  1 V2000
  153.7029  142.1418  162.9618 C   0  0  0  0  0  0  0  0  0  0  0  0
  153.1048  142.2969  161.5934 C   0  0  0  0  0  0  0  0  0  0  0  0
  153.4810  141.6326  160.3917 C   0  0  0  0  0  0  0  0  0  0  0  0
  152.7481  141.9956  159.3520 N   0  0  0  0  0  0  0  0  0  0  0  0
  151.8772  142.9003  159.8490 N   0  0  0  0  0  0  0  0  0  0  0  0
  150.8991  143.5277  158.9692 C   0  0  2  0  0  0  0  0  0  0  0  0
  150.1316  144.6112  159.7502 C   0  0  0  0  0  0  0  0  0  0  0  0
  149.9609  142.4778  158.3161 C   0  0  2  0  0  0  0  0  0  0  0  0
  150.5948  141.7755  157.0964 C   0  0  0  0  0  0  0  0  0  0  0  0
  148.7352  143.1527  157.8842 N   0  0  0  0  0  0  0  0  0  0  0  0
  147.5936  142.2520  157.6363 C   0  0  0  0  0  0  0  0  0  0  0  0
  146.2535  142.9639  157.3586 C   0  0  0  0  0  0  0  0  0  0  0  0
  145.7434  143.6410  158.2533 O   0  0  0  0  0  0  0  0  0  0  0  0
  145.6719  142.8290  156.1428 N   0  0  0  0  0  0  0  0  0  0  0  0
  146.3250  142.1676  155.0111 C   0  0  0  0  0  0  0  0  0  0  0  0
  146.6113  143.2380  153.9423 C   0  0  0  0  0  0  0  0  0  0  0  0
  145.3952  143.8823  153.5643 O   0  0  0  0  0  0  0  0  0  0  0  0
  144.7071  144.4946  154.6557 C   0  0  1  0  0  0  0  0  0  0  0  0
  143.4347  145.1530  154.1119 C   0  0  0  0  0  0  0  0  0  0  0  0
  144.4005  143.4191  155.7166 C   0  0  0  0  0  0  0  0  0  0  0  0
  152.0754  143.1037  161.1999 C   0  0  0  0  0  0  0  0  0  0  0  0
  154.5599  141.4682  162.9559 H   0  0  0  0  0  0  0  0  0  0  0  0
  152.9810  141.7376  163.6715 H   0  0  0  0  0  0  0  0  0  0  0  0
  154.0475  143.0962  163.3604 H   0  0  0  0  0  0  0  0  0  0  0  0
  154.2616  140.9006  160.2454 H   0  0  0  0  0  0  0  0  0  0  0  0
  151.4528  144.0279  158.1716 H   0  0  0  0  0  0  0  0  0  0  0  0
  149.4697  145.1830  159.0998 H   0  0  0  0  0  0  0  0  0  0  0  0
  150.8193  145.3198  160.2127 H   0  0  0  0  0  0  0  0  0  0  0  0
  149.5212  144.1757  160.5419 H   0  0  0  0  0  0  0  0  0  0  0  0
  149.7385  141.7200  159.0677 H   0  0  0  0  0  0  0  0  0  0  0  0
  151.4924  141.2222  157.3718 H   0  0  0  0  0  0  0  0  0  0  0  0
  150.8761  142.4970  156.3286 H   0  0  0  0  0  0  0  0  0  0  0  0
  149.9164  141.0550  156.6404 H   0  0  0  0  0  0  0  0  0  0  0  0
  148.4899  143.8638  158.5586 H   0  0  0  0  0  0  0  0  0  0  0  0
  147.8283  141.6324  156.7705 H   0  0  0  0  0  0  0  0  0  0  0  0
  147.4926  141.5792  158.4867 H   0  0  0  0  0  0  0  0  0  0  0  0
  147.2528  141.6647  155.2864 H   0  0  0  0  0  0  0  0  0  0  0  0
  145.6687  141.3949  154.6082 H   0  0  0  0  0  0  0  0  0  0  0  0
  147.3222  143.9773  154.3153 H   0  0  0  0  0  0  0  0  0  0  0  0
  147.0587  142.7813  153.0595 H   0  0  0  0  0  0  0  0  0  0  0  0
  145.3435  145.2687  155.0888 H   0  0  0  0  0  0  0  0  0  0  0  0
  142.8776  145.6468  154.9084 H   0  0  0  0  0  0  0  0  0  0  0  0
  142.7771  144.4172  153.6485 H   0  0  0  0  0  0  0  0  0  0  0  0
  143.6762  145.9049  153.3603 H   0  0  0  0  0  0  0  0  0  0  0  0
  143.7717  142.6381  155.2860 H   0  0  0  0  0  0  0  0  0  0  0  0
  143.8154  143.8384  156.5335 H   0  0  0  0  0  0  0  0  0  0  0  0
  151.4701  143.7976  161.7648 H   0  0  0  0  0  0  0  0  0  0  0  0
  1  2  1  0  0  0  0
  1 22  1  0  0  0  0
  1 23  1  0  0  0  0
  1 24  1  0  0  0  0
  2 21  2  0  0  0  0
  2  3  1  0  0  0  0
  3  4  2  0  0  0  0
  3 25  1  0  0  0  0
  4  5  1  0  0  0  0
  5  6  1  0  0  0  0
  5 21  1  0  0  0  0
  6  7  1  0  0  0  0
  6  8  1  0  0  0  0
  6 26  1  0  0  0  0
  7 27  1  0  0  0  0
  7 28  1  0  0  0  0
  7 29  1  0  0  0  0
  8  9  1  0  0  0  0
  8 10  1  0  0  0  0
  8 30  1  0  0  0  0
  9 31  1  0  0  0  0
  9 32  1  0  0  0  0
  9 33  1  0  0  0  0
 10 11  1  0  0  0  0
 10 34  1  0  0  0  0
 11 12  1  0  0  0  0
 11 35  1  0  0  0  0
 11 36  1  0  0  0  0
 12 13  2  0  0  0  0
 12 14  1  0  0  0  0
 14 20  1  0  0  0  0
 14 15  1  0  0  0  0
 15 16  1  0  0  0  0
 15 37  1  0  0  0  0
 15 38  1  0  0  0  0
 16 17  1  0  0  0  0
 16 39  1  0  0  0  0
 16 40  1  0  0  0  0
 17 18  1  0  0  0  0
 18 19  1  0  0  0  0
 18 20  1  0  0  0  0
 18 41  1  0  0  0  0
 19 42  1  0  0  0  0
 19 43  1  0  0  0  0
 19 44  1  0  0  0  0
 20 45  1  0  0  0  0
 20 46  1  0  0  0  0
 21 47  1  0  0  0  0
M  END
> <s_m_source_file>
AV-unprocessed.smi

> <i_m_source_file_index>
3056

> <i_lp_mmshare_version>
43012

> <i_f3d_flags>
0

> <s_epik_input>
W0NIM11jMVtjSF1ubihbY0hdMSlbQ0BIXShbQ0gzXSlbQ0BIXShbQ0gzXSlbTkhdW0NIMl1DKD1PKU4yW0NIMl1bQ0gyXU9bQ0BASF0oW0NIM10pW0NIMl0y

> <s_epik_cmdline>
J2VwaWtfcHl0aG9uJywgJy1waCcsICc3LjAnLCAnLXRuJywgJzgnLCAnLW1hJywgJzIwMCcsICctbWV0YWxfYmluZGluZycsICctaW1hZScsICc8aW5maWxlLm1hZT4nLCAnLW9tYWUnLCAnPG91dGZpbGUubWFlPic=

> <r_lp_tautomer_probability>
1

> <r_epik_Ionization_Penalty>
0.667689

> <r_epik_Ionization_Penalty_Charging>
0

> <r_epik_Ionization_Penalty_Neutral>
0.667689

> <r_epik_State_Penalty>
0.684601

> <r_epik_Charging_Adjusted_Penalty>
0.684601

> <i_epik_Tot_Q>
0

> <i_epik_Tot_abs_Q>
0

> <r_epik_Metal_State_Penalty>
0.681448

> <b_epik_Metal_Only>
0

> <s_lp_Force_Field>
OPLS_2005

> <r_lp_Energy>
29.7123

> <b_lp_Chiralities_Consistent>
1

> <s_lp_Variant>
AV-unprocessed.smi:3056-9

> <Gold.Version>
5.8.1

> <Gold.Id.Protein>
6NUR|6NUR_protein|mol2

> <Gold.PLP.Fitness>
41.0127

> <Gold.PLP.PLP>
-42.3266

> <Gold.PLP.part.hbond>
-2.0000

> <Gold.PLP.part.metal>
0.0000

> <Gold.PLP.part.buried>
-5.5636

> <Gold.PLP.part.nonpolar>
-34.7407

> <Gold.PLP.part.repulsive>
0.3477

> <Gold.PLP.ligand.clash>
0.0222

> <Gold.PLP.ligand.torsion>
0.6850

> <Gold.PLP.Chemscore.Hbond>
0.0000

> <Gold.PLP.Chemscore.CHOScore>
0.0000

> <Gold.PLP.Chemscore.Metal>
0.0000

> <Gold.PLP.Chemscore.Internal.Correction>
0.0782

> <Gold.Rescore>
     Score         DG    S(hbond)    S(metal)    S(lipo)     H(rot)  DE(clash)    DE(int)     intcor
     11.57     -12.66       0.00        0.00      98.09       1.68       0.32       0.76       ----

> <Gold.Chemscore.Fitness>
11.5741

> <Gold.Chemscore.DG>
-12.6574

> <Gold.Chemscore.ZeroCoef>
-5.4800

> <Gold.Chemscore.Hbond>
0.0000

> <Gold.Chemscore.Metal>
0.0000

> <Gold.Chemscore.Lipo>
98.0895

> <Gold.Chemscore.Internal_Hbond>
0.0000

> <Gold.Chemscore.DEClash>
0.3194

> <Gold.Chemscore.DEInternal>
0.7639

> <Gold.Chemscore.Rot>
1.6793

> <Gold.Chemscore.Internal.Correction>
   9.000000E+99

> <Gold.Chemscore.Hbond.Weighted>
-0.0000

> <Gold.Chemscore.Metal.Weighted>
-0.0000

> <Gold.Chemscore.Lipo.Weighted>
-11.4765

> <Gold.Chemscore.Internal_Hbond.Weighted>
0.0000

> <Gold.Chemscore.DEClash.Weighted>
0.3194

> <Gold.Chemscore.DEInternal.Weighted>
0.7639

> <Gold.Chemscore.Rot.Weighted>
4.2990

> <Gold.Chemscore.Internal.Correction.Weighted>
   9.000000E+99

> <Gold.Protein.RotatedTorsions>
[ 6907 6896 6895 6894 ] final  113.77 input  -60.11 | X-H torsion
[ 7974 7965 7964 7962 ] final  -95.03 input  175.53 | X-H torsion
[ 8008 7997 7996 7995 ] final  167.15 input   59.86 | X-H torsion
[ 10167 10162 10161 10158 ] final  156.48 input  -65.29 | X-H torsion
[ 10718 10713 10712 10709 ] final  109.90 input   66.30 | X-H torsion
[ 10763 10752 10751 10750 ] final  122.12 input  -60.55 | X-H torsion
[ 11005 11000 10999 10996 ] final  171.61 input  -57.11 | X-H torsion

> <Gold.Protein.ActiveResidues>
 VAL166  LYS551  ARG553  GLY616  TRP617  ASP618  TYR619  PRO620  LYS621  CYS622 
 ASP623  PHE694  ASN695  SER759  ASP760  ASP761  ALA762  ILE779  LEU786  VAL792 
 PHE793  MET794  SER795  GLU796  ALA797  LYS798  CYS799  TRP800  GLU811  SER814 

> <Gold.Protein.RotatedAtoms>
  152.4841  133.8329  159.7112 H   0  0  0  0  0  0  0  0  0  0  0  0  # atno 6907 bound_to 6896
  150.8914  133.7229  159.2910 H   0  0  0  0  0  0  0  0  0  0  0  0  # atno 6908 bound_to 6896
  151.4700  135.1049  159.9801 H   0  0  0  0  0  0  0  0  0  0  0  0  # atno 6909 bound_to 6896
  145.3655  140.9498  143.2477 H   0  0  0  0  0  0  0  0  0  0  0  0  # atno 7974 bound_to 7965
  156.1658  140.1624  156.8534 H   0  0  0  0  0  0  0  0  0  0  0  0  # atno 8008 bound_to 7997
  154.5206  140.0779  156.8199 H   0  0  0  0  0  0  0  0  0  0  0  0  # atno 8009 bound_to 7997
  155.3615  140.3395  155.4243 H   0  0  0  0  0  0  0  0  0  0  0  0  # atno 8010 bound_to 7997
  139.4821  144.5005  151.8176 H   0  0  0  0  0  0  0  0  0  0  0  0  # atno 10167 bound_to 10162
  157.6520  131.0922  150.6522 H   0  0  0  0  0  0  0  0  0  0  0  0  # atno 10718 bound_to 10713
  153.6248  135.3406  155.3023 H   0  0  0  0  0  0  0  0  0  0  0  0  # atno 10763 bound_to 10752
  154.8592  135.4281  154.2168 H   0  0  0  0  0  0  0  0  0  0  0  0  # atno 10764 bound_to 10752
  153.3050  135.7027  153.7241 H   0  0  0  0  0  0  0  0  0  0  0  0  # atno 10765 bound_to 10752
  140.3209  134.7438  157.4063 H   0  0  0  0  0  0  0  0  0  0  0  0  # atno 11005 bound_to 11000
  144.8615  139.5170  143.6810 LP  0  0  0  0  0  0  0  0  0  0  0  0  # atno 17320 bound_to 7965
  146.2909  139.7136  142.9162 LP  0  0  0  0  0  0  0  0  0  0  0  0  # atno 17321 bound_to 7965
  140.4497  144.1872  150.5896 LP  0  0  0  0  0  0  0  0  0  0  0  0  # atno 17342 bound_to 10162
  140.4597  143.2453  151.9236 LP  0  0  0  0  0  0  0  0  0  0  0  0  # atno 17343 bound_to 10162
  156.6832  130.4573  149.5621 LP  0  0  0  0  0  0  0  0  0  0  0  0  # atno 17370 bound_to 10713
  156.1914  130.6562  151.1066 LP  0  0  0  0  0  0  0  0  0  0  0  0  # atno 17371 bound_to 10713
  140.0943  134.5559  155.8414 LP  0  0  0  0  0  0  0  0  0  0  0  0  # atno 17394 bound_to 11000
  141.2087  133.6676  156.6387 LP  0  0  0  0  0  0  0  0  0  0  0  0  # atno 17395 bound_to 11000

$$$$
