AV-unprocessed.smi:566|AV-procd|sdf|2955|dock4
  -GOLD-   2262023453D 1   1.00000     0.00000
 Structure written by MMmdl.
 39 40  0  0  0  0  0  0  0  0  1 V2000
  155.4816  140.6071  168.7135 C   0  0  0  0  0  0  0  0  0  0  0  0
  155.3523  140.7319  167.2003 C   0  0  0  0  0  0  0  0  0  0  0  0
  155.4127  139.5221  166.4134 C   0  0  0  0  0  0  0  0  0  0  0  0
  155.2591  139.5519  165.0800 C   0  0  0  0  0  0  0  0  0  0  0  0
  155.3135  138.2660  164.2621 C   0  0  0  0  0  0  0  0  0  0  0  0
  155.0508  140.7859  164.4046 N   0  0  0  0  0  0  0  0  0  0  0  0
  154.8737  140.7906  162.9335 C   0  0  0  0  0  0  0  0  0  0  0  0
  153.6208  141.5715  162.4923 C   0  0  0  0  0  0  0  0  0  0  0  0
  153.5911  141.6775  161.0757 O   0  0  0  0  0  0  0  0  0  0  0  0
  153.1035  142.8381  160.5154 C   0  0  0  0  0  0  0  0  0  0  0  0
  152.6572  143.8373  161.4048 C   0  0  0  0  0  0  0  0  0  0  0  0
  152.1444  145.0563  160.9212 C   0  0  0  0  0  0  0  0  0  0  0  0
  152.0701  145.2874  159.5352 C   0  0  0  0  0  0  0  0  0  0  0  0
  152.5094  144.2983  158.6358 C   0  0  0  0  0  0  0  0  0  0  0  0
  152.4370  144.5183  157.3016 F   0  0  0  0  0  0  0  0  0  0  0  0
  153.0244  143.0796  159.1202 C   0  0  0  0  0  0  0  0  0  0  0  0
  155.0162  141.9844  165.0720 C   0  0  0  0  0  0  0  0  0  0  0  0
  154.8988  143.0428  164.4461 O   0  0  0  0  0  0  0  0  0  0  0  0
  155.1470  141.9109  166.5535 C   0  0  0  0  0  0  0  0  0  0  0  0
  155.0698  143.1889  167.2882 C   0  0  0  0  0  0  0  0  0  0  0  0
  155.4091  144.2748  166.5796 N   0  0  0  0  0  0  0  0  0  0  0  0
  154.6531  143.3139  168.4387 O   0  0  0  0  0  0  0  0  0  0  0  0
  155.4572  139.5628  169.0265 H   0  0  0  0  0  0  0  0  0  0  0  0
  154.6628  141.1183  169.2209 H   0  0  0  0  0  0  0  0  0  0  0  0
  156.4261  141.0321  169.0541 H   0  0  0  0  0  0  0  0  0  0  0  0
  155.5748  138.5757  166.9090 H   0  0  0  0  0  0  0  0  0  0  0  0
  155.7008  137.4437  164.8643 H   0  0  0  0  0  0  0  0  0  0  0  0
  155.9651  138.3498  163.3942 H   0  0  0  0  0  0  0  0  0  0  0  0
  154.3143  137.9835  163.9299 H   0  0  0  0  0  0  0  0  0  0  0  0
  155.7513  141.2031  162.4389 H   0  0  0  0  0  0  0  0  0  0  0  0
  154.8282  139.7775  162.5303 H   0  0  0  0  0  0  0  0  0  0  0  0
  152.7153  141.0837  162.8542 H   0  0  0  0  0  0  0  0  0  0  0  0
  153.6588  142.5715  162.9267 H   0  0  0  0  0  0  0  0  0  0  0  0
  152.7111  143.6672  162.4703 H   0  0  0  0  0  0  0  0  0  0  0  0
  151.8083  145.8136  161.6138 H   0  0  0  0  0  0  0  0  0  0  0  0
  151.6762  146.2215  159.1626 H   0  0  0  0  0  0  0  0  0  0  0  0
  153.3501  142.3448  158.4001 H   0  0  0  0  0  0  0  0  0  0  0  0
  155.3676  145.1892  167.0059 H   0  0  0  0  0  0  0  0  0  0  0  0
  155.6908  144.1755  165.6150 H   0  0  0  0  0  0  0  0  0  0  0  0
  1  2  1  0  0  0  0
  1 23  1  0  0  0  0
  1 24  1  0  0  0  0
  1 25  1  0  0  0  0
  2 19  2  0  0  0  0
  2  3  1  0  0  0  0
  3  4  2  0  0  0  0
  3 26  1  0  0  0  0
  4  5  1  0  0  0  0
  4  6  1  0  0  0  0
  5 27  1  0  0  0  0
  5 28  1  0  0  0  0
  5 29  1  0  0  0  0
  6  7  1  0  0  0  0
  6 17  1  0  0  0  0
  7  8  1  0  0  0  0
  7 30  1  0  0  0  0
  7 31  1  0  0  0  0
  8  9  1  0  0  0  0
  8 32  1  0  0  0  0
  8 33  1  0  0  0  0
  9 10  1  0  0  0  0
 10 16  1  0  0  0  0
 10 11  2  0  0  0  0
 11 12  1  0  0  0  0
 11 34  1  0  0  0  0
 12 13  2  0  0  0  0
 12 35  1  0  0  0  0
 13 14  1  0  0  0  0
 13 36  1  0  0  0  0
 14 15  1  0  0  0  0
 14 16  2  0  0  0  0
 16 37  1  0  0  0  0
 17 18  2  0  0  0  0
 17 19  1  0  0  0  0
 19 20  1  0  0  0  0
 20 21  1  0  0  0  0
 20 22  2  0  0  0  0
 21 38  1  0  0  0  0
 21 39  1  0  0  0  0
M  END
> <s_m_source_file>
AV-unprocessed.smi

> <i_m_source_file_index>
566

> <i_lp_mmshare_version>
43012

> <i_f3d_flags>
0

> <s_epik_input>
W0NIM11jMVtjSF1jKFtDSDNdKW4oYyg9TyljMUMoPU8pW05IMl0pW0NIMl1bQ0gyXU9jMltjSF1bY0hdW2NIXWMoRilbY0hdMg==

> <s_epik_cmdline>
J2VwaWtfcHl0aG9uJywgJy1waCcsICc3LjAnLCAnLXRuJywgJzgnLCAnLW1hJywgJzIwMCcsICctbWV0YWxfYmluZGluZycsICctaW1hZScsICc8aW5maWxlLm1hZT4nLCAnLW9tYWUnLCAnPG91dGZpbGUubWFlPic=

> <r_lp_tautomer_probability>
1

> <r_epik_Ionization_Penalty>
1.93248e-07

> <r_epik_Ionization_Penalty_Charging>
2.77691e-08

> <r_epik_Ionization_Penalty_Neutral>
1.65479e-07

> <r_epik_State_Penalty>
-0

> <r_epik_Charging_Adjusted_Penalty>
2.77691e-08

> <i_epik_Tot_Q>
0

> <i_epik_Tot_abs_Q>
0

> <r_epik_Metal_State_Penalty>
-0

> <b_epik_Metal_Only>
0

> <s_lp_Force_Field>
OPLS_2005

> <r_lp_Energy>
41.2098

> <b_lp_Chiralities_Consistent>
1

> <s_lp_Variant>
AV-unprocessed.smi:566-1

> <Gold.Version>
5.8.1

> <Gold.Id.Protein>
6NUR|6NUR_protein|mol2

> <Gold.PLP.Fitness>
49.1300

> <Gold.PLP.PLP>
-52.2165

> <Gold.PLP.part.hbond>
-2.0000

> <Gold.PLP.part.metal>
0.0000

> <Gold.PLP.part.buried>
-3.6286

> <Gold.PLP.part.nonpolar>
-45.5360

> <Gold.PLP.part.repulsive>
0.1720

> <Gold.PLP.ligand.clash>
2.0977

> <Gold.PLP.ligand.torsion>
0.6567

> <Gold.PLP.Chemscore.Hbond>
0.0000

> <Gold.PLP.Chemscore.CHOScore>
0.0000

> <Gold.PLP.Chemscore.Metal>
0.0000

> <Gold.PLP.Chemscore.Internal.Correction>
0.3246

> <Gold.Rescore>
     Score         DG    S(hbond)    S(metal)    S(lipo)     H(rot)  DE(clash)    DE(int)     intcor
     10.13     -15.04       0.00        0.00     118.60       1.69       1.42       3.48       ----

> <Gold.Chemscore.Fitness>
10.1311

> <Gold.Chemscore.DG>
-15.0355

> <Gold.Chemscore.ZeroCoef>
-5.4800

> <Gold.Chemscore.Hbond>
0.0000

> <Gold.Chemscore.Metal>
0.0000

> <Gold.Chemscore.Lipo>
118.5998

> <Gold.Chemscore.Internal_Hbond>
0.0000

> <Gold.Chemscore.DEClash>
1.4210

> <Gold.Chemscore.DEInternal>
3.4834

> <Gold.Chemscore.Rot>
1.6878

> <Gold.Chemscore.Internal.Correction>
   9.000000E+99

> <Gold.Chemscore.Hbond.Weighted>
-0.0000

> <Gold.Chemscore.Metal.Weighted>
-0.0000

> <Gold.Chemscore.Lipo.Weighted>
-13.8762

> <Gold.Chemscore.Internal_Hbond.Weighted>
0.0000

> <Gold.Chemscore.DEClash.Weighted>
1.4210

> <Gold.Chemscore.DEInternal.Weighted>
3.4834

> <Gold.Chemscore.Rot.Weighted>
4.3207

> <Gold.Chemscore.Internal.Correction.Weighted>
   9.000000E+99

> <Gold.Protein.RotatedTorsions>
[ 6907 6896 6895 6894 ] final  -20.52 input  -60.11 | X-H torsion
[ 7974 7965 7964 7962 ] final  -59.61 input  175.53 | X-H torsion
[ 8008 7997 7996 7995 ] final   73.32 input   59.86 | X-H torsion
[ 10167 10162 10161 10158 ] final  -30.99 input  -65.29 | X-H torsion
[ 10718 10713 10712 10709 ] final -148.64 input   66.30 | X-H torsion
[ 10763 10752 10751 10750 ] final   27.97 input  -60.55 | X-H torsion
[ 11005 11000 10999 10996 ] final  -22.11 input  -57.11 | X-H torsion

> <Gold.Protein.ActiveResidues>
 VAL166  LYS551  ARG553  GLY616  TRP617  ASP618  TYR619  PRO620  LYS621  CYS622 
 ASP623  PHE694  ASN695  SER759  ASP760  ASP761  ALA762  ILE779  LEU786  VAL792 
 PHE793  MET794  SER795  GLU796  ALA797  LYS798  CYS799  TRP800  GLU811  SER814 

> <Gold.Protein.RotatedAtoms>
  151.2469  135.0608  159.9046 H   0  0  0  0  0  0  0  0  0  0  0  0  # atno 6907 bound_to 6896
  152.5385  134.0374  159.8062 H   0  0  0  0  0  0  0  0  0  0  0  0  # atno 6908 bound_to 6896
  151.0576  133.5522  159.2668 H   0  0  0  0  0  0  0  0  0  0  0  0  # atno 6909 bound_to 6896
  145.8254  140.8513  143.0111 H   0  0  0  0  0  0  0  0  0  0  0  0  # atno 7974 bound_to 7965
  155.7820  140.3481  155.5302 H   0  0  0  0  0  0  0  0  0  0  0  0  # atno 8008 bound_to 7997
  155.8719  140.0988  157.1565 H   0  0  0  0  0  0  0  0  0  0  0  0  # atno 8009 bound_to 7997
  154.4018  140.1339  156.4076 H   0  0  0  0  0  0  0  0  0  0  0  0  # atno 8010 bound_to 7997
  140.7242  143.3806  151.1609 H   0  0  0  0  0  0  0  0  0  0  0  0  # atno 10167 bound_to 10162
  156.4229  130.8037  151.2261 H   0  0  0  0  0  0  0  0  0  0  0  0  # atno 10718 bound_to 10713
  153.0522  135.6524  154.0666 H   0  0  0  0  0  0  0  0  0  0  0  0  # atno 10763 bound_to 10752
  154.0352  135.2908  155.3364 H   0  0  0  0  0  0  0  0  0  0  0  0  # atno 10764 bound_to 10752
  154.6816  135.5317  153.8338 H   0  0  0  0  0  0  0  0  0  0  0  0  # atno 10765 bound_to 10752
  140.8626  133.7777  156.0092 H   0  0  0  0  0  0  0  0  0  0  0  0  # atno 11005 bound_to 11000
  144.6744  140.0595  143.7476 LP  0  0  0  0  0  0  0  0  0  0  0  0  # atno 17320 bound_to 7965
  145.9629  139.2813  143.1145 LP  0  0  0  0  0  0  0  0  0  0  0  0  # atno 17321 bound_to 7965
  139.7394  143.8948  152.3045 LP  0  0  0  0  0  0  0  0  0  0  0  0  # atno 17342 bound_to 10162
  139.8764  144.7041  150.8928 LP  0  0  0  0  0  0  0  0  0  0  0  0  # atno 17343 bound_to 10162
  157.7508  131.0222  150.3784 LP  0  0  0  0  0  0  0  0  0  0  0  0  # atno 17370 bound_to 10713
  156.4105  130.3933  149.6895 LP  0  0  0  0  0  0  0  0  0  0  0  0  # atno 17371 bound_to 10713
  140.8665  134.2777  157.5210 LP  0  0  0  0  0  0  0  0  0  0  0  0  # atno 17394 bound_to 11000
  139.8707  134.9545  156.4179 LP  0  0  0  0  0  0  0  0  0  0  0  0  # atno 17395 bound_to 11000

$$$$
