#       Name:                AV-unprocessed.smi:2171
#       Creating user name   scv26
#       Creation time:       Fri Mar 27 12:02:08 2020


#       File generated by GOLD software.
#

@<TRIPOS>MOLECULE
AV-unprocessed.smi:2171
    42    44     1
SMALL
NO_CHARGES


@<TRIPOS>ATOM
      1 ****         0.5740   2.4157   0.6162 O.2            1 S1                 0.0000
      2 ****         1.3341   1.5046   0.9428 C.2            1 S1                 0.0000
      3 ****         2.8438   1.7425   0.9764 C.3            1 S1                 0.0000
      4 ****         3.4366   1.4817  -0.3234 N.pl3          1 S1                 0.0000
      5 ****         3.7880   0.2685  -0.8789 C.2            1 S1                 0.0000
      6 ****         4.3016   0.5218  -2.1184 C.2            1 S1                 0.0000
      7 ****         4.2237   1.9379  -2.2334 C.2            1 S1                 0.0000
      8 ****         3.7046   2.5090  -1.1586 N.2            1 S1                 0.0000
      9 ****         0.9150   0.2712   1.2662 N.am           1 S1                 0.0000
     10 ****        -0.4747  -0.1757   1.2527 C.3            1 S1                 0.0000
     11 ****        -0.7780  -1.2249   2.3308 C.3            1 S1                 0.0000
     12 ****        -1.7713  -2.2069   1.6772 C.3            1 S1                 0.0000
     13 ****        -2.0481  -1.6929   0.3156 N.4            1 S1                 1.0000
     14 ****        -3.3268  -0.9314   0.2551 C.3            1 S1                 0.0000
     15 ****        -3.5028  -0.1980  -1.0810 C.3            1 S1                 0.0000
     16 ****        -2.3254   0.7496  -1.3233 C.3            1 S1                 0.0000
     17 ****        -1.0200  -0.0517  -1.3180 C.3            1 S1                 0.0000
     18 ****        -0.8416  -0.9090  -0.0441 C.3            1 S1                 0.0000
     19 ****         3.0506   2.7722   1.2729 H              1 S1                 0.0000
     20 ****         3.3171   1.0951   1.7159 H              1 S1                 0.0000
     21 ****         3.6434  -0.6633  -0.3525 H              1 S1                 0.0000
     22 ****         4.6769  -0.1946  -2.8338 H              1 S1                 0.0000
     23 ****         4.5266   2.5632  -3.0603 H              1 S1                 0.0000
     24 ****         1.6125  -0.4107   1.5273 H              1 S1                 0.0000
     25 ****        -1.1479   0.6702   1.4035 H              1 S1                 0.0000
     26 ****         0.1239  -1.7600   2.6318 H              1 S1                 0.0000
     27 ****        -1.1955  -0.7599   3.2246 H              1 S1                 0.0000
     28 ****        -1.3087  -3.1904   1.5865 H              1 S1                 0.0000
     29 ****        -2.6799  -2.3324   2.2680 H              1 S1                 0.0000
     30 ****        -4.1575  -1.6209   0.4096 H              1 S1                 0.0000
     31 ****        -3.3681  -0.2077   1.0708 H              1 S1                 0.0000
     32 ****        -3.5768  -0.9194  -1.8959 H              1 S1                 0.0000
     33 ****        -4.4375   0.3637  -1.0764 H              1 S1                 0.0000
     34 ****        -2.4454   1.2635  -2.2776 H              1 S1                 0.0000
     35 ****        -2.2981   1.5222  -0.5541 H              1 S1                 0.0000
     36 ****        -1.0196  -0.7135  -2.1851 H              1 S1                 0.0000
     37 ****        -0.1677   0.6136  -1.4552 H              1 S1                 0.0000
     38 ****        -0.0504  -1.6334  -0.2491 H              1 S1                 0.0000
     39 ****        -2.1321  -2.4692  -0.3253 H              1 S1                 0.0000
     40 ****         0.9439   3.3123   0.3726 LP             1 S1                 0.0000
     41 ****        -0.4134   2.2594   0.5944 LP             1 S1                 0.0000
     42 ****         3.5461   3.4835  -1.0000 LP             1 S1                 0.0000
@<TRIPOS>BOND
    1    1    2 2     
    2    2    3 1     
    3    2    9 am    
    4    3    4 1     
    5    3   19 1     
    6    3   20 1     
    7    4    8 1     
    8    4    5 1     
    9    5    6 2     
   10    5   21 1     
   11    6    7 1     
   12    6   22 1     
   13    7    8 2     
   14    7   23 1     
   15    9   10 1     
   16    9   24 1     
   17   10   18 1     
   18   10   11 1     
   19   10   25 1     
   20   11   12 1     
   21   11   26 1     
   22   11   27 1     
   23   12   13 1     
   24   12   28 1     
   25   12   29 1     
   26   13   18 1     
   27   13   14 1     
   28   13   39 1     
   29   14   15 1     
   30   14   30 1     
   31   14   31 1     
   32   15   16 1     
   33   15   32 1     
   34   15   33 1     
   35   16   17 1     
   36   16   34 1     
   37   16   35 1     
   38   17   18 1     
   39   17   36 1     
   40   17   37 1     
   41   18   38 1     
   42    1   40 1     
   43    1   41 1     
   44    8   42 1     
@<TRIPOS>SUBSTRUCTURE
      1 S1             1
@<TRIPOS>SET
LONE_PAIRS      STATIC     ATOMS    <user>   **** ""
3 40 41 42
DONOR_HYDROGENS      STATIC     ATOMS    <user>   **** ""
2 24 39
ATOM$BLUE        STATIC     ATOMS    COLORGROUP SYSTEM
3 40 41 42
ATOM$RED        STATIC     ATOMS    COLORGROUP SYSTEM
2 24 39
