AV-unprocessed.smi:2783|AV-procd|sdf|10724|dock3
  -GOLD-   2272015163D 1   1.00000     0.00000
 Structure written by MMmdl.
 29 29  0  0  0  0  0  0  0  0  1 V2000
  149.7074  139.2605  154.6211 C   0  0  0  0  0  0  0  0  0  0  0  0
  151.1024  139.3622  154.3411 O   0  0  0  0  0  0  0  0  0  0  0  0
  152.0239  138.7691  155.2684 C   0  0  0  0  0  0  0  0  0  0  0  0
  151.5717  137.3394  155.6490 C   0  0  0  0  0  0  0  0  0  0  0  0
  153.3688  138.6950  154.5240 C   0  0  0  0  0  0  0  0  0  0  0  0
  152.1961  139.6625  156.5189 C   0  0  0  0  0  0  0  0  0  0  0  0
  153.0392  139.3668  157.3664 O   0  0  0  0  0  0  0  0  0  0  0  0
  151.4151  140.7582  156.5819 N   0  0  0  0  0  0  0  0  0  0  0  0
  151.3388  141.7510  157.5979 C   0  0  0  0  0  0  0  0  0  0  0  0
  152.2689  141.8613  158.6601 C   0  0  0  0  0  0  0  0  0  0  0  0
  152.0805  142.8736  159.6217 C   0  0  0  0  0  0  0  0  0  0  0  0
  151.0513  143.7456  159.5925 N   0  0  0  0  0  0  0  0  0  0  0  0
  150.1576  143.6291  158.5885 C   0  0  0  0  0  0  0  0  0  0  0  0
  150.2500  142.6528  157.5752 C   0  0  0  0  0  0  0  0  0  0  0  0
  149.2989  142.5955  156.5952 O   0  0  0  0  0  0  0  0  0  0  0  0
  149.1563  139.8608  153.8975 H   0  0  0  0  0  0  0  0  0  0  0  0
  149.4475  139.6251  155.6148 H   0  0  0  0  0  0  0  0  0  0  0  0
  149.3536  138.2343  154.5232 H   0  0  0  0  0  0  0  0  0  0  0  0
  152.3508  136.8076  156.1967 H   0  0  0  0  0  0  0  0  0  0  0  0
  151.3436  136.7517  154.7594 H   0  0  0  0  0  0  0  0  0  0  0  0
  150.6828  137.3442  156.2810 H   0  0  0  0  0  0  0  0  0  0  0  0
  154.1479  138.2508  155.1451 H   0  0  0  0  0  0  0  0  0  0  0  0
  153.7124  139.6846  154.2196 H   0  0  0  0  0  0  0  0  0  0  0  0
  153.2834  138.0891  153.6216 H   0  0  0  0  0  0  0  0  0  0  0  0
  150.8397  140.9312  155.7700 H   0  0  0  0  0  0  0  0  0  0  0  0
  153.1062  141.1891  158.7652 H   0  0  0  0  0  0  0  0  0  0  0  0
  152.7741  142.9808  160.4428 H   0  0  0  0  0  0  0  0  0  0  0  0
  149.3413  144.3363  158.5950 H   0  0  0  0  0  0  0  0  0  0  0  0
  149.0991  143.4415  156.2236 H   0  0  0  0  0  0  0  0  0  0  0  0
  1  2  1  0  0  0  0
  1 16  1  0  0  0  0
  1 17  1  0  0  0  0
  1 18  1  0  0  0  0
  2  3  1  0  0  0  0
  3  4  1  0  0  0  0
  3  5  1  0  0  0  0
  3  6  1  0  0  0  0
  4 19  1  0  0  0  0
  4 20  1  0  0  0  0
  4 21  1  0  0  0  0
  5 22  1  0  0  0  0
  5 23  1  0  0  0  0
  5 24  1  0  0  0  0
  6  7  2  0  0  0  0
  6  8  1  0  0  0  0
  8  9  1  0  0  0  0
  8 25  1  0  0  0  0
  9 14  1  0  0  0  0
  9 10  2  0  0  0  0
 10 11  1  0  0  0  0
 10 26  1  0  0  0  0
 11 12  2  0  0  0  0
 11 27  1  0  0  0  0
 12 13  1  0  0  0  0
 13 14  2  0  0  0  0
 13 28  1  0  0  0  0
 14 15  1  0  0  0  0
 15 29  1  0  0  0  0
M  END
> <s_m_source_file>
AV-unprocessed.smi

> <i_m_source_file_index>
2783

> <i_lp_mmshare_version>
43012

> <i_f3d_flags>
0

> <s_epik_input>
W0NIM11PQyhbQ0gzXSkoW0NIM10pQyg9TylbTkhdYzFbY0hdW2NIXW5bY0hdYzFbT0hd

> <s_epik_cmdline>
J2VwaWtfcHl0aG9uJywgJy1waCcsICc3LjAnLCAnLXRuJywgJzgnLCAnLW1hJywgJzIwMCcsICctbWV0YWxfYmluZGluZycsICctaW1hZScsICc8aW5maWxlLm1hZT4nLCAnLW9tYWUnLCAnPG91dGZpbGUubWFlPic=

> <r_lp_tautomer_probability>
0.43658

> <r_epik_Ionization_Penalty>
0.0236053

> <r_epik_Ionization_Penalty_Charging>
0

> <r_epik_Ionization_Penalty_Neutral>
0.0236053

> <r_epik_State_Penalty>
0.499983

> <r_epik_Charging_Adjusted_Penalty>
0.499983

> <i_epik_Tot_Q>
0

> <i_epik_Tot_abs_Q>
0

> <r_epik_Metal_State_Penalty>
0.746226

> <b_epik_Metal_Only>
0

> <s_lp_Force_Field>
OPLS_2005

> <r_lp_Energy>
14.4929

> <b_lp_Chiralities_Consistent>
1

> <s_lp_Variant>
AV-unprocessed.smi:2783-2

> <Gold.Version>
5.8.1

> <Gold.Id.Protein>
6NUR|6NUR_protein|mol2

> <Gold.PLP.Fitness>
36.7788

> <Gold.PLP.PLP>
-25.6096

> <Gold.PLP.part.hbond>
-2.7799

> <Gold.PLP.part.metal>
0.0000

> <Gold.PLP.part.buried>
-2.5771

> <Gold.PLP.part.nonpolar>
-19.6087

> <Gold.PLP.part.repulsive>
0.3189

> <Gold.PLP.ligand.clash>
0.0000

> <Gold.PLP.ligand.torsion>
0.2432

> <Gold.PLP.Chemscore.Hbond>
3.0000

> <Gold.PLP.Chemscore.CHOScore>
0.8735

> <Gold.PLP.Chemscore.Metal>
0.0000

> <Gold.Chemscore.Hbonds>
donor molecule, donor type, donor heavy atom, donor atom, acceptor molecule, acceptor atom, score
      L1  H    15    29       P1  8028  0.70
      P1  H  7989  7998       L1     2  1.00
      P1  H  7997  8009       L1     7  1.00
      L1  C    13    28       P1  8029  1.00

> <Gold.PLP.Chemscore.Internal.Correction>
0.0352

> <Gold.Rescore>
     Score         DG    S(hbond)    S(metal)    S(lipo)     H(rot)  DE(clash)    DE(int)     intcor
     16.61     -18.69       2.85        0.00      69.93       1.75       0.03       2.05       ----

> <Gold.Chemscore.Fitness>
16.6117

> <Gold.Chemscore.DG>
-18.6940

> <Gold.Chemscore.ZeroCoef>
-5.4800

> <Gold.Chemscore.Hbond>
2.8486

> <Gold.Chemscore.Metal>
0.0000

> <Gold.Chemscore.Lipo>
69.9263

> <Gold.Chemscore.Internal_Hbond>
0.0000

> <Gold.Chemscore.DEClash>
0.0281

> <Gold.Chemscore.DEInternal>
2.0543

> <Gold.Chemscore.Rot>
1.7507

> <Gold.Chemscore.Internal.Correction>
   9.000000E+99

> <Gold.Chemscore.Hbonds>
donor molecule, donor type, donor heavy atom, donor atom, acceptor molecule, acceptor atom, score
      L1  H    15    29       P1  8028  0.71
      P1  H  7989  7998       L1     2  0.89
      P1  H  7997  8009       L1     7  0.35

> <Gold.Chemscore.Hbond.Weighted>
-9.5143

> <Gold.Chemscore.Metal.Weighted>
-0.0000

> <Gold.Chemscore.Lipo.Weighted>
-8.1814

> <Gold.Chemscore.Internal_Hbond.Weighted>
0.0000

> <Gold.Chemscore.DEClash.Weighted>
0.0281

> <Gold.Chemscore.DEInternal.Weighted>
2.0543

> <Gold.Chemscore.Rot.Weighted>
4.4817

> <Gold.Chemscore.Internal.Correction.Weighted>
   9.000000E+99

> <Gold.Protein.RotatedTorsions>
[ 6907 6896 6895 6894 ] final   47.26 input  -60.11 | X-H torsion
[ 7974 7965 7964 7962 ] final  -11.61 input  175.53 | X-H torsion
[ 8008 7997 7996 7995 ] final  174.39 input   59.86 | X-H torsion
[ 10167 10162 10161 10158 ] final   75.34 input  -65.29 | X-H torsion
[ 10718 10713 10712 10709 ] final  -96.49 input   66.30 | X-H torsion
[ 10763 10752 10751 10750 ] final  -56.53 input  -60.55 | X-H torsion
[ 11005 11000 10999 10996 ] final  126.06 input  -57.11 | X-H torsion

> <Gold.Protein.ActiveResidues>
 VAL166  LYS551  ARG553  GLY616  TRP617  ASP618  TYR619  PRO620  LYS621  CYS622 
 ASP623  PHE694  ASN695  SER759  ASP760  ASP761  ALA762  ILE779  LEU786  VAL792 
 PHE793  MET794  SER795  GLU796  ALA797  LYS798  CYS799  TRP800  GLU811  SER814 

> <Gold.Protein.RotatedAtoms>
  152.2660  134.7983  160.0422 H   0  0  0  0  0  0  0  0  0  0  0  0  # atno 6907 bound_to 6896
  151.8613  133.3452  159.3713 H   0  0  0  0  0  0  0  0  0  0  0  0  # atno 6908 bound_to 6896
  150.7134  134.5131  159.5661 H   0  0  0  0  0  0  0  0  0  0  0  0  # atno 6909 bound_to 6896
  146.2181  140.2936  142.8370 H   0  0  0  0  0  0  0  0  0  0  0  0  # atno 7974 bound_to 7965
  156.0979  140.1435  156.9507 H   0  0  0  0  0  0  0  0  0  0  0  0  # atno 8008 bound_to 7997
  154.4683  140.0918  156.7124 H   0  0  0  0  0  0  0  0  0  0  0  0  # atno 8009 bound_to 7997
  155.4810  140.3445  155.4342 H   0  0  0  0  0  0  0  0  0  0  0  0  # atno 8010 bound_to 7997
  140.0040  144.5665  150.7714 H   0  0  0  0  0  0  0  0  0  0  0  0  # atno 10167 bound_to 10162
  156.0063  130.5154  150.6234 H   0  0  0  0  0  0  0  0  0  0  0  0  # atno 10718 bound_to 10713
  154.2081  135.6399  153.5107 H   0  0  0  0  0  0  0  0  0  0  0  0  # atno 10763 bound_to 10752
  152.9996  135.5467  154.6244 H   0  0  0  0  0  0  0  0  0  0  0  0  # atno 10764 bound_to 10752
  154.5674  135.2914  155.0834 H   0  0  0  0  0  0  0  0  0  0  0  0  # atno 10765 bound_to 10752
  139.9437  134.9632  156.8651 H   0  0  0  0  0  0  0  0  0  0  0  0  # atno 11005 bound_to 11000
  144.9109  140.7756  143.5808 LP  0  0  0  0  0  0  0  0  0  0  0  0  # atno 17320 bound_to 7965
  145.2866  139.1898  143.4762 LP  0  0  0  0  0  0  0  0  0  0  0  0  # atno 17321 bound_to 7965
  140.7408  143.2809  151.3602 LP  0  0  0  0  0  0  0  0  0  0  0  0  # atno 17342 bound_to 10162
  139.6252  144.0829  152.2427 LP  0  0  0  0  0  0  0  0  0  0  0  0  # atno 17343 bound_to 10162
  157.4045  131.0815  151.1278 LP  0  0  0  0  0  0  0  0  0  0  0  0  # atno 17370 bound_to 10713
  157.1929  130.6360  149.5711 LP  0  0  0  0  0  0  0  0  0  0  0  0  # atno 17371 bound_to 10713
  140.5887  134.0282  155.7491 LP  0  0  0  0  0  0  0  0  0  0  0  0  # atno 17394 bound_to 11000
  141.1081  133.9661  157.2961 LP  0  0  0  0  0  0  0  0  0  0  0  0  # atno 17395 bound_to 11000

$$$$
