AV-unprocessed.smi:2397|AV-procd|sdf|9494|dock9
  -GOLD-   2272013123D 1   1.00000     0.00000
 Structure written by MMmdl.
 36 37  0  0  0  0  0  0  0  0  1 V2000
  152.9547  144.0264  158.8518 C   0  0  0  0  0  0  0  0  0  0  0  0
  152.2683  142.7849  159.4424 C   0  0  0  0  0  0  0  0  0  0  0  0
  153.2660  141.7151  159.9135 C   0  0  0  0  0  0  0  0  0  0  0  0
  151.2221  142.2090  158.4972 C   0  0  0  0  0  0  0  0  0  0  0  0
  150.2368  143.0256  158.1121 N   0  0  0  0  0  0  0  0  0  0  0  0
  149.3073  142.5101  157.2802 C   0  0  0  0  0  0  0  0  0  0  0  0
  149.3643  141.1732  156.8386 C   0  0  0  0  0  0  0  0  0  0  0  0
  150.4450  140.3939  157.3085 C   0  0  0  0  0  0  0  0  0  0  0  0
  150.5717  139.0471  156.9051 N   0  0  0  0  0  0  0  0  0  0  0  0
  150.6145  138.1692  158.0740 C   0  0  0  0  0  0  0  0  0  0  0  0
  150.9027  136.7193  157.6637 C   0  0  0  0  0  0  0  0  0  0  0  0
  149.9207  136.3025  156.7271 O   0  0  0  0  0  0  0  0  0  0  0  0
  149.9843  137.0712  155.5329 C   0  0  0  0  0  0  0  0  0  0  0  0
  149.6961  138.5651  155.8187 C   0  0  2  0  0  0  0  0  0  0  0  0
  149.7907  139.3196  154.4744 C   0  0  0  0  0  0  0  0  0  0  0  0
  149.2144  138.7799  153.3950 N   0  0  0  0  0  0  0  0  0  0  0  0
  150.3963  140.3876  154.4135 O   0  0  0  0  0  0  0  0  0  0  0  0
  151.3749  140.9316  158.1342 N   0  0  0  0  0  0  0  0  0  0  0  0
  152.2234  144.7932  158.5945 H   0  0  0  0  0  0  0  0  0  0  0  0
  153.5125  143.7805  157.9476 H   0  0  0  0  0  0  0  0  0  0  0  0
  153.6549  144.4636  159.5640 H   0  0  0  0  0  0  0  0  0  0  0  0
  151.7423  143.1244  160.3365 H   0  0  0  0  0  0  0  0  0  0  0  0
  152.7502  140.8827  160.3928 H   0  0  0  0  0  0  0  0  0  0  0  0
  153.9709  142.1273  160.6359 H   0  0  0  0  0  0  0  0  0  0  0  0
  153.8432  141.3131  159.0801 H   0  0  0  0  0  0  0  0  0  0  0  0
  148.5104  143.1676  156.9659 H   0  0  0  0  0  0  0  0  0  0  0  0
  148.6125  140.7679  156.1775 H   0  0  0  0  0  0  0  0  0  0  0  0
  151.3807  138.4949  158.7785 H   0  0  0  0  0  0  0  0  0  0  0  0
  149.6585  138.2209  158.5984 H   0  0  0  0  0  0  0  0  0  0  0  0
  151.9031  136.6207  157.2388 H   0  0  0  0  0  0  0  0  0  0  0  0
  150.8605  136.0663  158.5354 H   0  0  0  0  0  0  0  0  0  0  0  0
  150.9633  136.9394  155.0675 H   0  0  0  0  0  0  0  0  0  0  0  0
  149.2499  136.6684  154.8341 H   0  0  0  0  0  0  0  0  0  0  0  0
  148.6633  138.6391  156.1647 H   0  0  0  0  0  0  0  0  0  0  0  0
  149.2624  139.2594  152.5078 H   0  0  0  0  0  0  0  0  0  0  0  0
  148.7310  137.8968  153.4730 H   0  0  0  0  0  0  0  0  0  0  0  0
  1  2  1  0  0  0  0
  1 19  1  0  0  0  0
  1 20  1  0  0  0  0
  1 21  1  0  0  0  0
  2  3  1  0  0  0  0
  2  4  1  0  0  0  0
  2 22  1  0  0  0  0
  3 23  1  0  0  0  0
  3 24  1  0  0  0  0
  3 25  1  0  0  0  0
  4 18  1  0  0  0  0
  4  5  2  0  0  0  0
  5  6  1  0  0  0  0
  6  7  2  0  0  0  0
  6 26  1  0  0  0  0
  7  8  1  0  0  0  0
  7 27  1  0  0  0  0
  8  9  1  0  0  0  0
  8 18  2  0  0  0  0
  9 14  1  0  0  0  0
  9 10  1  0  0  0  0
 10 11  1  0  0  0  0
 10 28  1  0  0  0  0
 10 29  1  0  0  0  0
 11 12  1  0  0  0  0
 11 30  1  0  0  0  0
 11 31  1  0  0  0  0
 12 13  1  0  0  0  0
 13 14  1  0  0  0  0
 13 32  1  0  0  0  0
 13 33  1  0  0  0  0
 14 15  1  0  0  0  0
 14 34  1  0  0  0  0
 15 16  1  0  0  0  0
 15 17  2  0  0  0  0
 16 35  1  0  0  0  0
 16 36  1  0  0  0  0
M  END
> <s_m_source_file>
AV-unprocessed.smi

> <i_m_source_file_index>
2397

> <i_lp_mmshare_version>
43012

> <i_f3d_flags>
0

> <s_epik_input>
W0NIM11bQ0hdKFtDSDNdKWMxbltjSF1bY0hdYyhuMSlOMltDSDJdW0NIMl1PW0NIMl1bQ0BIXTJDKD1PKVtOSDJd

> <s_epik_cmdline>
J2VwaWtfcHl0aG9uJywgJy1waCcsICc3LjAnLCAnLXRuJywgJzgnLCAnLW1hJywgJzIwMCcsICctbWV0YWxfYmluZGluZycsICctaW1hZScsICc8aW5maWxlLm1hZT4nLCAnLW9tYWUnLCAnPG91dGZpbGUubWFlPic=

> <r_lp_tautomer_probability>
1

> <r_epik_Ionization_Penalty>
0.0323151

> <r_epik_Ionization_Penalty_Charging>
0

> <r_epik_Ionization_Penalty_Neutral>
0.0323151

> <r_epik_State_Penalty>
0.0267324

> <r_epik_Charging_Adjusted_Penalty>
0.0267324

> <i_epik_Tot_Q>
0

> <i_epik_Tot_abs_Q>
0

> <r_epik_Metal_State_Penalty>
0.0253461

> <b_epik_Metal_Only>
0

> <s_lp_Force_Field>
OPLS_2005

> <r_lp_Energy>
6.15108

> <b_lp_Chiralities_Consistent>
1

> <s_lp_Variant>
AV-unprocessed.smi:2397-2

> <Gold.Version>
5.8.1

> <Gold.Id.Protein>
6NUR|6NUR_protein|mol2

> <Gold.PLP.Fitness>
36.3575

> <Gold.PLP.PLP>
-27.7233

> <Gold.PLP.part.hbond>
-2.7892

> <Gold.PLP.part.metal>
0.0000

> <Gold.PLP.part.buried>
-4.0137

> <Gold.PLP.part.nonpolar>
-20.5691

> <Gold.PLP.part.repulsive>
0.3466

> <Gold.PLP.ligand.clash>
0.0000

> <Gold.PLP.ligand.torsion>
0.4826

> <Gold.PLP.Chemscore.Hbond>
2.5050

> <Gold.PLP.Chemscore.CHOScore>
0.6068

> <Gold.PLP.Chemscore.Metal>
0.0000

> <Gold.Chemscore.Hbonds>
donor molecule, donor type, donor heavy atom, donor atom, acceptor molecule, acceptor atom, score
      L1  H    16    35       P1  7957  1.00
      L1  H    16    36       P1  7948  0.12
      P1  H  7989  7998       L1    17  1.00
      L1  C     6    26       P1  8028  0.83

> <Gold.PLP.Chemscore.Internal.Correction>
0.2641

> <Gold.Rescore>
     Score         DG    S(hbond)    S(metal)    S(lipo)     H(rot)  DE(clash)    DE(int)     intcor
     13.13     -16.31       2.47        0.00      60.04       1.74       0.00       3.18       ----

> <Gold.Chemscore.Fitness>
13.1250

> <Gold.Chemscore.DG>
-16.3076

> <Gold.Chemscore.ZeroCoef>
-5.4800

> <Gold.Chemscore.Hbond>
2.4743

> <Gold.Chemscore.Metal>
0.0000

> <Gold.Chemscore.Lipo>
60.0385

> <Gold.Chemscore.Internal_Hbond>
0.0000

> <Gold.Chemscore.DEClash>
0.0009

> <Gold.Chemscore.DEInternal>
3.1817

> <Gold.Chemscore.Rot>
1.7426

> <Gold.Chemscore.Internal.Correction>
   9.000000E+99

> <Gold.Chemscore.Hbonds>
donor molecule, donor type, donor heavy atom, donor atom, acceptor molecule, acceptor atom, score
      L1  H    16    35       P1  7957  0.98
      L1  H    16    36       P1  7948  0.13
      P1  H  7989  7998       L1    17  0.94

> <Gold.Chemscore.Hbond.Weighted>
-8.2641

> <Gold.Chemscore.Metal.Weighted>
-0.0000

> <Gold.Chemscore.Lipo.Weighted>
-7.0245

> <Gold.Chemscore.Internal_Hbond.Weighted>
0.0000

> <Gold.Chemscore.DEClash.Weighted>
0.0009

> <Gold.Chemscore.DEInternal.Weighted>
3.1817

> <Gold.Chemscore.Rot.Weighted>
4.4610

> <Gold.Chemscore.Internal.Correction.Weighted>
   9.000000E+99

> <Gold.Protein.RotatedTorsions>
[ 6907 6896 6895 6894 ] final -163.02 input  -60.11 | X-H torsion
[ 7974 7965 7964 7962 ] final  -67.93 input  175.53 | X-H torsion
[ 8008 7997 7996 7995 ] final   83.83 input   59.86 | X-H torsion
[ 10167 10162 10161 10158 ] final   85.36 input  -65.29 | X-H torsion
[ 10718 10713 10712 10709 ] final  124.45 input   66.30 | X-H torsion
[ 10763 10752 10751 10750 ] final  -36.27 input  -60.55 | X-H torsion
[ 11005 11000 10999 10996 ] final   57.96 input  -57.11 | X-H torsion

> <Gold.Protein.ActiveResidues>
 VAL166  LYS551  ARG553  GLY616  TRP617  ASP618  TYR619  PRO620  LYS621  CYS622 
 ASP623  PHE694  ASN695  SER759  ASP760  ASP761  ALA762  ILE779  LEU786  VAL792 
 PHE793  MET794  SER795  GLU796  ALA797  LYS798  CYS799  TRP800  GLU811  SER814 

> <Gold.Protein.RotatedAtoms>
  151.3894  133.3794  159.2718 H   0  0  0  0  0  0  0  0  0  0  0  0  # atno 6907 bound_to 6896
  150.9517  134.8917  159.7686 H   0  0  0  0  0  0  0  0  0  0  0  0  # atno 6908 bound_to 6896
  152.5114  134.3849  159.9416 H   0  0  0  0  0  0  0  0  0  0  0  0  # atno 6909 bound_to 6896
  145.7230  140.9030  143.0620 H   0  0  0  0  0  0  0  0  0  0  0  0  # atno 7974 bound_to 7965
  155.9290  140.3416  155.6234 H   0  0  0  0  0  0  0  0  0  0  0  0  # atno 8008 bound_to 7997
  155.7180  140.0780  157.2361 H   0  0  0  0  0  0  0  0  0  0  0  0  # atno 8009 bound_to 7997
  154.4082  140.1610  156.2358 H   0  0  0  0  0  0  0  0  0  0  0  0  # atno 8010 bound_to 7997
  139.8986  144.6343  150.8661 H   0  0  0  0  0  0  0  0  0  0  0  0  # atno 10167 bound_to 10162
  157.5584  131.1091  150.8581 H   0  0  0  0  0  0  0  0  0  0  0  0  # atno 10718 bound_to 10713
  153.8770  135.6825  153.4770 H   0  0  0  0  0  0  0  0  0  0  0  0  # atno 10763 bound_to 10752
  153.1255  135.4721  154.9263 H   0  0  0  0  0  0  0  0  0  0  0  0  # atno 10764 bound_to 10752
  154.7687  135.3232  154.8185 H   0  0  0  0  0  0  0  0  0  0  0  0  # atno 10765 bound_to 10752
  140.0413  134.5870  155.9378 H   0  0  0  0  0  0  0  0  0  0  0  0  # atno 11005 bound_to 11000
  144.6912  139.9227  143.7468 LP  0  0  0  0  0  0  0  0  0  0  0  0  # atno 17320 bound_to 7965
  146.0608  139.3602  143.0582 LP  0  0  0  0  0  0  0  0  0  0  0  0  # atno 17321 bound_to 7965
  140.7712  143.3454  151.2121 LP  0  0  0  0  0  0  0  0  0  0  0  0  # atno 17342 bound_to 10162
  139.7046  143.9477  152.2921 LP  0  0  0  0  0  0  0  0  0  0  0  0  # atno 17343 bound_to 10162
  156.9086  130.5272  149.5281 LP  0  0  0  0  0  0  0  0  0  0  0  0  # atno 17370 bound_to 10713
  156.0640  130.5687  150.9250 LP  0  0  0  0  0  0  0  0  0  0  0  0  # atno 17371 bound_to 10713
  141.1884  133.6562  156.5324 LP  0  0  0  0  0  0  0  0  0  0  0  0  # atno 17394 bound_to 11000
  140.4065  134.7310  157.4811 LP  0  0  0  0  0  0  0  0  0  0  0  0  # atno 17395 bound_to 11000

$$$$
