AV-unprocessed.smi:1175|AV-procd|sdf|4951|dock4
  -GOLD-   22720 3543D 1   1.00000     0.00000
 Structure written by MMmdl.
 36 37  0  0  0  0  0  0  0  0  1 V2000
  152.4729  140.2370  155.2565 O   0  0  0  0  0  0  0  0  0  0  0  0
  151.6916  140.1663  156.2063 C   0  0  0  0  0  0  0  0  0  0  0  0
  152.1124  139.4996  157.5239 C   0  0  0  0  0  0  0  0  0  0  0  0
  152.5032  140.4630  158.5670 N   0  0  0  0  0  0  0  0  0  0  0  0
  152.1000  141.8012  158.3884 C   0  0  0  0  0  0  0  0  0  0  0  0
  152.3993  142.7801  159.2639 C   0  0  0  0  0  0  0  0  0  0  0  0
  151.8991  144.2038  159.0748 C   0  0  0  0  0  0  0  0  0  0  0  0
  152.1917  144.9598  160.1331 F   0  0  0  0  0  0  0  0  0  0  0  0
  152.4764  144.7479  158.0046 F   0  0  0  0  0  0  0  0  0  0  0  0
  150.5783  144.2310  158.8928 F   0  0  0  0  0  0  0  0  0  0  0  0
  153.1444  142.3849  160.4430 C   0  0  0  0  0  0  0  0  0  0  0  0
  153.5274  141.1076  160.6351 C   0  0  0  0  0  0  0  0  0  0  0  0
  153.2110  140.0580  159.6639 C   0  0  0  0  0  0  0  0  0  0  0  0
  153.5590  138.8880  159.8267 O   0  0  0  0  0  0  0  0  0  0  0  0
  150.4351  140.6349  156.1619 N   0  0  0  0  0  0  0  0  0  0  0  0
  149.8183  141.3007  155.0189 C   0  0  0  0  0  0  0  0  0  0  0  0
  148.6886  140.4554  154.4011 C   0  0  1  0  0  0  0  0  0  0  0  0
  149.0330  138.9869  154.2576 C   0  0  0  0  0  0  0  0  0  0  0  0
  147.6569  138.3479  154.0886 C   0  0  0  0  0  0  0  0  0  0  0  0
  146.7424  139.1917  154.7841 O   0  0  0  0  0  0  0  0  0  0  0  0
  147.4087  140.3669  155.2336 C   0  0  0  0  0  0  0  0  0  0  0  0
  151.2998  138.8664  157.8848 H   0  0  0  0  0  0  0  0  0  0  0  0
  152.9334  138.8136  157.3103 H   0  0  0  0  0  0  0  0  0  0  0  0
  151.5199  141.9797  157.4946 H   0  0  0  0  0  0  0  0  0  0  0  0
  153.4031  143.1263  161.1846 H   0  0  0  0  0  0  0  0  0  0  0  0
  154.0822  140.8496  161.5254 H   0  0  0  0  0  0  0  0  0  0  0  0
  149.8630  140.5287  156.9871 H   0  0  0  0  0  0  0  0  0  0  0  0
  149.4102  142.2480  155.3717 H   0  0  0  0  0  0  0  0  0  0  0  0
  150.5666  141.5552  154.2663 H   0  0  0  0  0  0  0  0  0  0  0  0
  148.4391  140.8488  153.4141 H   0  0  0  0  0  0  0  0  0  0  0  0
  149.7011  138.7820  153.4205 H   0  0  0  0  0  0  0  0  0  0  0  0
  149.5051  138.6165  155.1687 H   0  0  0  0  0  0  0  0  0  0  0  0
  147.3733  138.3247  153.0359 H   0  0  0  0  0  0  0  0  0  0  0  0
  147.6252  137.3270  154.4701 H   0  0  0  0  0  0  0  0  0  0  0  0
  147.6435  140.2450  156.2919 H   0  0  0  0  0  0  0  0  0  0  0  0
  146.7754  141.2478  155.1270 H   0  0  0  0  0  0  0  0  0  0  0  0
  1  2  2  0  0  0  0
  2  3  1  0  0  0  0
  2 15  1  0  0  0  0
  3  4  1  0  0  0  0
  3 22  1  0  0  0  0
  3 23  1  0  0  0  0
  4 13  1  0  0  0  0
  4  5  1  0  0  0  0
  5  6  2  0  0  0  0
  5 24  1  0  0  0  0
  6  7  1  0  0  0  0
  6 11  1  0  0  0  0
  7  8  1  0  0  0  0
  7  9  1  0  0  0  0
  7 10  1  0  0  0  0
 11 12  2  0  0  0  0
 11 25  1  0  0  0  0
 12 13  1  0  0  0  0
 12 26  1  0  0  0  0
 13 14  2  0  0  0  0
 15 16  1  0  0  0  0
 15 27  1  0  0  0  0
 16 17  1  0  0  0  0
 16 28  1  0  0  0  0
 16 29  1  0  0  0  0
 17 21  1  0  0  0  0
 17 18  1  0  0  0  0
 17 30  1  0  0  0  0
 18 19  1  0  0  0  0
 18 31  1  0  0  0  0
 18 32  1  0  0  0  0
 19 20  1  0  0  0  0
 19 33  1  0  0  0  0
 19 34  1  0  0  0  0
 20 21  1  0  0  0  0
 21 35  1  0  0  0  0
 21 36  1  0  0  0  0
M  END
> <s_m_source_file>
AV-unprocessed.smi

> <i_m_source_file_index>
1175

> <i_lp_mmshare_version>
43012

> <i_f3d_flags>
0

> <s_epik_input>
W0NIMl0xT1tDSDJdW0NIMl1bQ0BIXTFbQ0gyXVtOSF1DKD1PKVtDSDJdbjJbY0hdYyhDKEYpKEYpRilbY0hdW2NIXWMyPU8=

> <s_epik_cmdline>
J2VwaWtfcHl0aG9uJywgJy1waCcsICc3LjAnLCAnLXRuJywgJzgnLCAnLW1hJywgJzIwMCcsICctbWV0YWxfYmluZGluZycsICctaW1hZScsICc8aW5maWxlLm1hZT4nLCAnLW9tYWUnLCAnPG91dGZpbGUubWFlPic=

> <r_lp_tautomer_probability>
1

> <r_epik_Ionization_Penalty>
3.67963e-08

> <r_epik_Ionization_Penalty_Charging>
1.809e-08

> <r_epik_Ionization_Penalty_Neutral>
1.87063e-08

> <r_epik_State_Penalty>
-0

> <r_epik_Charging_Adjusted_Penalty>
1.809e-08

> <i_epik_Tot_Q>
0

> <i_epik_Tot_abs_Q>
0

> <r_epik_Metal_State_Penalty>
-0

> <b_epik_Metal_Only>
0

> <s_lp_Force_Field>
OPLS_2005

> <r_lp_Energy>
29.657

> <b_lp_Chiralities_Consistent>
1

> <s_lp_Variant>
AV-unprocessed.smi:1175-2

> <Gold.Version>
5.8.1

> <Gold.Id.Protein>
6NUR|6NUR_protein|mol2

> <Gold.PLP.Fitness>
48.4191

> <Gold.PLP.PLP>
-45.5615

> <Gold.PLP.part.hbond>
-1.9902

> <Gold.PLP.part.metal>
0.0000

> <Gold.PLP.part.buried>
-3.7511

> <Gold.PLP.part.nonpolar>
-39.5293

> <Gold.PLP.part.repulsive>
0.1498

> <Gold.PLP.ligand.clash>
0.0000

> <Gold.PLP.ligand.torsion>
0.7334

> <Gold.PLP.Chemscore.Hbond>
1.4223

> <Gold.PLP.Chemscore.CHOScore>
0.0000

> <Gold.PLP.Chemscore.Metal>
0.0000

> <Gold.Chemscore.Hbonds>
donor molecule, donor type, donor heavy atom, donor atom, acceptor molecule, acceptor atom, score
      P1  H  7989  7998       L1     1  0.54
      P1  H  7997  8008       L1     1  0.91

> <Gold.PLP.Chemscore.Internal.Correction>
0.0573

> <Gold.Rescore>
     Score         DG    S(hbond)    S(metal)    S(lipo)     H(rot)  DE(clash)    DE(int)     intcor
     12.20     -14.28       1.10        0.00      84.75       1.87       0.30       1.78       ----

> <Gold.Chemscore.Fitness>
12.1978

> <Gold.Chemscore.DG>
-14.2769

> <Gold.Chemscore.ZeroCoef>
-5.4800

> <Gold.Chemscore.Hbond>
1.0969

> <Gold.Chemscore.Metal>
0.0000

> <Gold.Chemscore.Lipo>
84.7491

> <Gold.Chemscore.Internal_Hbond>
0.0000

> <Gold.Chemscore.DEClash>
0.3013

> <Gold.Chemscore.DEInternal>
1.7778

> <Gold.Chemscore.Rot>
1.8681

> <Gold.Chemscore.Internal.Correction>
   9.000000E+99

> <Gold.Chemscore.Hbonds>
donor molecule, donor type, donor heavy atom, donor atom, acceptor molecule, acceptor atom, score
      P1  H  7989  7998       L1     1  0.47
      P1  H  7997  8008       L1     1  0.48

> <Gold.Chemscore.Hbond.Weighted>
-3.6635

> <Gold.Chemscore.Metal.Weighted>
-0.0000

> <Gold.Chemscore.Lipo.Weighted>
-9.9156

> <Gold.Chemscore.Internal_Hbond.Weighted>
0.0000

> <Gold.Chemscore.DEClash.Weighted>
0.3013

> <Gold.Chemscore.DEInternal.Weighted>
1.7778

> <Gold.Chemscore.Rot.Weighted>
4.7822

> <Gold.Chemscore.Internal.Correction.Weighted>
   9.000000E+99

> <Gold.Protein.RotatedTorsions>
[ 6907 6896 6895 6894 ] final   79.87 input  -60.11 | X-H torsion
[ 7974 7965 7964 7962 ] final   31.10 input  175.53 | X-H torsion
[ 8008 7997 7996 7995 ] final  -27.04 input   59.86 | X-H torsion
[ 10167 10162 10161 10158 ] final -113.45 input  -65.29 | X-H torsion
[ 10718 10713 10712 10709 ] final   70.75 input   66.30 | X-H torsion
[ 10763 10752 10751 10750 ] final  -56.19 input  -60.55 | X-H torsion
[ 11005 11000 10999 10996 ] final   88.68 input  -57.11 | X-H torsion

> <Gold.Protein.ActiveResidues>
 VAL166  LYS551  ARG553  GLY616  TRP617  ASP618  TYR619  PRO620  LYS621  CYS622 
 ASP623  PHE694  ASN695  SER759  ASP760  ASP761  ALA762  ILE779  LEU786  VAL792 
 PHE793  MET794  SER795  GLU796  ALA797  LYS798  CYS799  TRP800  GLU811  SER814 

> <Gold.Protein.RotatedAtoms>
  152.5214  134.3444  159.9228 H   0  0  0  0  0  0  0  0  0  0  0  0  # atno 6907 bound_to 6896
  151.3394  133.3962  159.2677 H   0  0  0  0  0  0  0  0  0  0  0  0  # atno 6908 bound_to 6896
  150.9815  134.9187  159.7905 H   0  0  0  0  0  0  0  0  0  0  0  0  # atno 6909 bound_to 6896
  146.1571  139.6701  142.9059 H   0  0  0  0  0  0  0  0  0  0  0  0  # atno 7974 bound_to 7965
  154.4396  140.1883  156.0870 H   0  0  0  0  0  0  0  0  0  0  0  0  # atno 8008 bound_to 7997
  156.0395  140.3321  155.7201 H   0  0  0  0  0  0  0  0  0  0  0  0  # atno 8009 bound_to 7997
  155.5721  140.0613  157.2795 H   0  0  0  0  0  0  0  0  0  0  0  0  # atno 8010 bound_to 7997
  140.1117  143.4521  152.1748 H   0  0  0  0  0  0  0  0  0  0  0  0  # atno 10167 bound_to 10162
  157.6416  130.9493  150.0693 H   0  0  0  0  0  0  0  0  0  0  0  0  # atno 10718 bound_to 10713
  154.2027  135.6408  153.5092 H   0  0  0  0  0  0  0  0  0  0  0  0  # atno 10763 bound_to 10752
  153.0008  135.5455  154.6298 H   0  0  0  0  0  0  0  0  0  0  0  0  # atno 10764 bound_to 10752
  154.5715  135.2917  155.0796 H   0  0  0  0  0  0  0  0  0  0  0  0  # atno 10765 bound_to 10752
  139.8891  134.8503  156.3035 H   0  0  0  0  0  0  0  0  0  0  0  0  # atno 11005 bound_to 11000
  145.4681  141.0435  143.2714 LP  0  0  0  0  0  0  0  0  0  0  0  0  # atno 17320 bound_to 7965
  144.7978  139.6200  143.7085 LP  0  0  0  0  0  0  0  0  0  0  0  0  # atno 17321 bound_to 7965
  139.5615  144.7409  151.4140 LP  0  0  0  0  0  0  0  0  0  0  0  0  # atno 17342 bound_to 10162
  140.6922  143.7835  150.7272 LP  0  0  0  0  0  0  0  0  0  0  0  0  # atno 17343 bound_to 10162
  156.1702  130.3646  149.9175 LP  0  0  0  0  0  0  0  0  0  0  0  0  # atno 17370 bound_to 10713
  156.7153  130.8986  151.3613 LP  0  0  0  0  0  0  0  0  0  0  0  0  # atno 17371 bound_to 10713
  140.9897  133.7216  156.0796 LP  0  0  0  0  0  0  0  0  0  0  0  0  # atno 17394 bound_to 11000
  140.7641  134.3906  157.5520 LP  0  0  0  0  0  0  0  0  0  0  0  0  # atno 17395 bound_to 11000

$$$$
