AV-unprocessed.smi:1055|AV-procd|sdf|4625|dock9
  -GOLD-   22720 3123D 1   1.00000     0.00000
 Structure written by MMmdl.
 52 53  0  0  0  0  0  0  0  0  3 V2000
  142.2058  139.9810  155.4582 C   0  0  0  0  0  0  0  0  0  0  0  0
  142.6305  140.9824  156.2462 C   0  0  0  0  0  0  0  0  0  0  0  0
  142.3331  141.0156  157.7336 C   0  0  0  0  0  0  0  0  0  0  0  0
  143.4320  142.1541  155.7012 C   0  0  0  0  0  0  0  0  0  0  0  0
  144.6791  141.7077  155.0313 N   0  3  2  0  0  0  0  0  0  0  0  0
  145.5110  140.8488  155.9115 C   0  0  0  0  0  0  0  0  0  0  0  0
  146.7163  140.2702  155.1483 C   0  0  0  0  0  0  0  0  0  0  0  0
  147.5692  141.3691  154.4910 C   0  0  2  0  0  0  0  0  0  0  0  0
  148.3211  142.1124  155.5024 N   0  0  0  0  0  0  0  0  0  0  0  0
  149.1769  141.5699  156.3810 C   0  0  0  0  0  0  0  0  0  0  0  0
  149.4455  140.3695  156.4112 O   0  0  0  0  0  0  0  0  0  0  0  0
  149.7021  142.5042  157.1926 N   0  0  0  0  0  0  0  0  0  0  0  0
  150.6126  142.3285  158.2704 C   0  0  0  0  0  0  0  0  0  0  0  0
  151.1259  141.0343  158.4953 C   0  0  0  0  0  0  0  0  0  0  0  0
  152.0442  140.8145  159.5425 C   0  0  0  0  0  0  0  0  0  0  0  0
  152.4552  141.8968  160.3585 C   0  0  0  0  0  0  0  0  0  0  0  0
  153.3718  141.7579  161.4233 N   0  0  0  0  0  0  0  0  0  0  0  0
  153.2604  142.6219  162.5932 C   0  0  0  0  0  0  0  0  0  0  0  0
  154.4109  140.7389  161.3574 C   0  0  0  0  0  0  0  0  0  0  0  0
  151.9438  143.1242  160.0959 N   0  3  0  0  0  0  0  0  0  0  0  0
  151.0613  143.3790  159.1060 C   0  0  0  0  0  0  0  0  0  0  0  0
  146.6705  142.2958  153.6481 C   0  0  0  0  0  0  0  0  0  0  0  0
  145.4692  142.8256  154.4507 C   0  0  0  0  0  0  0  0  0  0  0  0
  141.6347  139.1557  155.8584 H   0  0  0  0  0  0  0  0  0  0  0  0
  142.4220  139.9694  154.3998 H   0  0  0  0  0  0  0  0  0  0  0  0
  141.7812  141.9205  157.9894 H   0  0  0  0  0  0  0  0  0  0  0  0
  143.2574  141.0015  158.3115 H   0  0  0  0  0  0  0  0  0  0  0  0
  141.7333  140.1569  158.0377 H   0  0  0  0  0  0  0  0  0  0  0  0
  142.8314  142.7445  155.0071 H   0  0  0  0  0  0  0  0  0  0  0  0
  143.6725  142.8070  156.5414 H   0  0  0  0  0  0  0  0  0  0  0  0
  145.8474  141.4262  156.7741 H   0  0  0  0  0  0  0  0  0  0  0  0
  144.9073  140.0271  156.2986 H   0  0  0  0  0  0  0  0  0  0  0  0
  147.3284  139.6635  155.8166 H   0  0  0  0  0  0  0  0  0  0  0  0
  146.3522  139.5925  154.3747 H   0  0  0  0  0  0  0  0  0  0  0  0
  148.2877  140.8821  153.8290 H   0  0  0  0  0  0  0  0  0  0  0  0
  148.1618  143.1081  155.5486 H   0  0  0  0  0  0  0  0  0  0  0  0
  149.4449  143.4600  156.9948 H   0  0  0  0  0  0  0  0  0  0  0  0
  150.8167  140.2076  157.8723 H   0  0  0  0  0  0  0  0  0  0  0  0
  152.4200  139.8148  159.7010 H   0  0  0  0  0  0  0  0  0  0  0  0
  153.3389  143.6709  162.3055 H   0  0  0  0  0  0  0  0  0  0  0  0
  154.0502  142.4158  163.3159 H   0  0  0  0  0  0  0  0  0  0  0  0
  152.3028  142.4687  163.0915 H   0  0  0  0  0  0  0  0  0  0  0  0
  155.0614  140.9103  160.4993 H   0  0  0  0  0  0  0  0  0  0  0  0
  153.9697  139.7458  161.2685 H   0  0  0  0  0  0  0  0  0  0  0  0
  155.0324  140.7475  162.2530 H   0  0  0  0  0  0  0  0  0  0  0  0
  150.7655  144.4136  159.0212 H   0  0  0  0  0  0  0  0  0  0  0  0
  147.2475  143.1283  153.2440 H   0  0  0  0  0  0  0  0  0  0  0  0
  146.3006  141.7418  152.7844 H   0  0  0  0  0  0  0  0  0  0  0  0
  144.8440  143.4263  153.7900 H   0  0  0  0  0  0  0  0  0  0  0  0
  145.8085  143.4878  155.2487 H   0  0  0  0  0  0  0  0  0  0  0  0
  144.3896  141.1238  154.2594 H   0  0  0  0  0  0  0  0  0  0  0  0
  152.2454  143.9051  160.6790 H   0  0  0  0  0  0  0  0  0  0  0  0
  1  2  2  0  0  0  0
  1 24  1  0  0  0  0
  1 25  1  0  0  0  0
  2  3  1  0  0  0  0
  2  4  1  0  0  0  0
  3 26  1  0  0  0  0
  3 27  1  0  0  0  0
  3 28  1  0  0  0  0
  4  5  1  0  0  0  0
  4 29  1  0  0  0  0
  4 30  1  0  0  0  0
  5 23  1  0  0  0  0
  5  6  1  0  0  0  0
  5 51  1  0  0  0  0
  6  7  1  0  0  0  0
  6 31  1  0  0  0  0
  6 32  1  0  0  0  0
  7  8  1  0  0  0  0
  7 33  1  0  0  0  0
  7 34  1  0  0  0  0
  8  9  1  0  0  0  0
  8 22  1  0  0  0  0
  8 35  1  0  0  0  0
  9 10  1  0  0  0  0
  9 36  1  0  0  0  0
 10 11  2  0  0  0  0
 10 12  1  0  0  0  0
 12 13  1  0  0  0  0
 12 37  1  0  0  0  0
 13 21  1  0  0  0  0
 13 14  2  0  0  0  0
 14 15  1  0  0  0  0
 14 38  1  0  0  0  0
 15 16  2  0  0  0  0
 15 39  1  0  0  0  0
 16 17  1  0  0  0  0
 16 20  1  0  0  0  0
 17 18  1  0  0  0  0
 17 19  1  0  0  0  0
 18 40  1  0  0  0  0
 18 41  1  0  0  0  0
 18 42  1  0  0  0  0
 19 43  1  0  0  0  0
 19 44  1  0  0  0  0
 19 45  1  0  0  0  0
 20 21  2  0  0  0  0
 20 52  1  0  0  0  0
 21 46  1  0  0  0  0
 22 23  1  0  0  0  0
 22 47  1  0  0  0  0
 22 48  1  0  0  0  0
 23 49  1  0  0  0  0
 23 50  1  0  0  0  0
M  CHG  1   5   1
M  CHG  1  20   1
M  END
> <s_m_source_file>
AV-unprocessed.smi

> <i_m_source_file_index>
1055

> <i_lp_mmshare_version>
43012

> <i_f3d_flags>
0

> <s_epik_input>
W0NIMl09QyhbQ0gzXSlbQ0gyXU4xW0NIMl1bQ0gyXVtDSF0oW0NIMl1bQ0gyXTEpW05IXUMoPU8pW05IXWMyW2NIXVtjSF1jKE4oW0NIM10pW0NIM10pbltjSF0y

> <s_epik_cmdline>
J2VwaWtfcHl0aG9uJywgJy1waCcsICc3LjAnLCAnLXRuJywgJzgnLCAnLW1hJywgJzIwMCcsICctbWV0YWxfYmluZGluZycsICctaW1hZScsICc8aW5maWxlLm1hZT4nLCAnLW9tYWUnLCAnPG91dGZpbGUubWFlPic=

> <r_lp_tautomer_probability>
0.999994

> <r_epik_Ionization_Penalty>
0.344238

> <r_epik_Ionization_Penalty_Charging>
0.344219

> <r_epik_Ionization_Penalty_Neutral>
1.87459e-05

> <r_epik_State_Penalty>
0.320654

> <r_epik_Charging_Adjusted_Penalty>
0.664873

> <i_epik_Tot_Q>
2

> <i_epik_Tot_abs_Q>
2

> <r_epik_Metal_State_Penalty>
0.58246

> <b_epik_Metal_Only>
0

> <s_lp_Force_Field>
OPLS_2005

> <r_lp_Energy>
26.4869

> <b_lp_Chiralities_Consistent>
1

> <s_lp_Variant>
AV-unprocessed.smi:1055-2

> <Gold.Version>
5.8.1

> <Gold.Id.Protein>
6NUR|6NUR_protein|mol2

> <Gold.PLP.Fitness>
49.1632

> <Gold.PLP.PLP>
-38.4934

> <Gold.PLP.part.hbond>
-3.0000

> <Gold.PLP.part.metal>
0.0000

> <Gold.PLP.part.buried>
-6.8944

> <Gold.PLP.part.nonpolar>
-29.1515

> <Gold.PLP.part.repulsive>
0.2240

> <Gold.PLP.ligand.clash>
0.0000

> <Gold.PLP.ligand.torsion>
0.4204

> <Gold.PLP.Chemscore.Hbond>
3.8240

> <Gold.PLP.Chemscore.CHOScore>
0.0000

> <Gold.PLP.Chemscore.Metal>
0.0000

> <Gold.Chemscore.Hbonds>
donor molecule, donor type, donor heavy atom, donor atom, acceptor molecule, acceptor atom, score
      L1  H     5    51       P1 10175  2.00
      L1  H     9    36       P1  8028  0.96
      L1  H    12    37       P1  8028  0.94

> <Gold.PLP.Chemscore.Internal.Correction>
0.0386

> <Gold.Rescore>
     Score         DG    S(hbond)    S(metal)    S(lipo)     H(rot)  DE(clash)    DE(int)     intcor
     17.24     -20.42       2.85        0.00      75.63       1.35       0.12       3.05       ----

> <Gold.Chemscore.Fitness>
17.2441

> <Gold.Chemscore.DG>
-20.4159

> <Gold.Chemscore.ZeroCoef>
-5.4800

> <Gold.Chemscore.Hbond>
2.8547

> <Gold.Chemscore.Metal>
0.0000

> <Gold.Chemscore.Lipo>
75.6252

> <Gold.Chemscore.Internal_Hbond>
0.0000

> <Gold.Chemscore.DEClash>
0.1244

> <Gold.Chemscore.DEInternal>
3.0474

> <Gold.Chemscore.Rot>
1.3465

> <Gold.Chemscore.Internal.Correction>
   9.000000E+99

> <Gold.Chemscore.Hbonds>
donor molecule, donor type, donor heavy atom, donor atom, acceptor molecule, acceptor atom, score
      L1  H     5    51       P1 10175  0.75
      L1  H     9    36       P1  8028  0.81
      L1  H    12    37       P1  8028  0.84

> <Gold.Chemscore.Hbond.Weighted>
-9.5348

> <Gold.Chemscore.Metal.Weighted>
-0.0000

> <Gold.Chemscore.Lipo.Weighted>
-8.8481

> <Gold.Chemscore.Internal_Hbond.Weighted>
0.0000

> <Gold.Chemscore.DEClash.Weighted>
0.1244

> <Gold.Chemscore.DEInternal.Weighted>
3.0474

> <Gold.Chemscore.Rot.Weighted>
3.4470

> <Gold.Chemscore.Internal.Correction.Weighted>
   9.000000E+99

> <Gold.Protein.RotatedTorsions>
[ 6907 6896 6895 6894 ] final -155.93 input  -60.11 | X-H torsion
[ 7974 7965 7964 7962 ] final   -8.30 input  175.53 | X-H torsion
[ 8008 7997 7996 7995 ] final   66.24 input   59.86 | X-H torsion
[ 10167 10162 10161 10158 ] final  110.16 input  -65.29 | X-H torsion
[ 10718 10713 10712 10709 ] final  -85.29 input   66.30 | X-H torsion
[ 10763 10752 10751 10750 ] final   47.69 input  -60.55 | X-H torsion
[ 11005 11000 10999 10996 ] final  122.65 input  -57.11 | X-H torsion

> <Gold.Protein.ActiveResidues>
 VAL166  LYS551  ARG553  GLY616  TRP617  ASP618  TYR619  PRO620  LYS621  CYS622 
 ASP623  PHE694  ASN695  SER759  ASP760  ASP761  ALA762  ILE779  LEU786  VAL792 
 PHE793  MET794  SER795  GLU796  ALA797  LYS798  CYS799  TRP800  GLU811  SER814 

> <Gold.Protein.RotatedAtoms>
  151.2799  133.4215  159.2626 H   0  0  0  0  0  0  0  0  0  0  0  0  # atno 6907 bound_to 6896
  151.0370  134.9580  159.8152 H   0  0  0  0  0  0  0  0  0  0  0  0  # atno 6908 bound_to 6896
  152.5357  134.2758  159.9041 H   0  0  0  0  0  0  0  0  0  0  0  0  # atno 6909 bound_to 6896
  146.2284  140.2448  142.8345 H   0  0  0  0  0  0  0  0  0  0  0  0  # atno 7974 bound_to 7965
  155.6742  140.3497  155.4830 H   0  0  0  0  0  0  0  0  0  0  0  0  # atno 8008 bound_to 7997
  155.9662  140.1147  157.0875 H   0  0  0  0  0  0  0  0  0  0  0  0  # atno 8009 bound_to 7997
  154.4155  140.1166  156.5231 H   0  0  0  0  0  0  0  0  0  0  0  0  # atno 8010 bound_to 7997
  139.6710  144.7125  151.1688 H   0  0  0  0  0  0  0  0  0  0  0  0  # atno 10167 bound_to 10162
  155.9998  130.4726  150.4539 H   0  0  0  0  0  0  0  0  0  0  0  0  # atno 10718 bound_to 10713
  152.9797  135.5968  154.3804 H   0  0  0  0  0  0  0  0  0  0  0  0  # atno 10763 bound_to 10752
  154.3469  135.2767  155.2394 H   0  0  0  0  0  0  0  0  0  0  0  0  # atno 10764 bound_to 10752
  154.4451  135.6003  153.6210 H   0  0  0  0  0  0  0  0  0  0  0  0  # atno 10765 bound_to 10752
  139.9278  134.9641  156.8142 H   0  0  0  0  0  0  0  0  0  0  0  0  # atno 11005 bound_to 11000
  144.9457  140.8125  143.5603 LP  0  0  0  0  0  0  0  0  0  0  0  0  # atno 17320 bound_to 7965
  145.2403  139.2075  143.4996 LP  0  0  0  0  0  0  0  0  0  0  0  0  # atno 17321 bound_to 7965
  140.7618  143.5845  150.8860 LP  0  0  0  0  0  0  0  0  0  0  0  0  # atno 17342 bound_to 10162
  139.9510  143.6272  152.3029 LP  0  0  0  0  0  0  0  0  0  0  0  0  # atno 17343 bound_to 10162
  157.2570  131.0558  151.2344 LP  0  0  0  0  0  0  0  0  0  0  0  0  # atno 17370 bound_to 10713
  157.3473  130.7064  149.6418 LP  0  0  0  0  0  0  0  0  0  0  0  0  # atno 17371 bound_to 10713
  140.6287  133.9925  155.7652 LP  0  0  0  0  0  0  0  0  0  0  0  0  # atno 17394 bound_to 11000
  141.0847  134.0009  157.3332 LP  0  0  0  0  0  0  0  0  0  0  0  0  # atno 17395 bound_to 11000

$$$$
