AV-unprocessed.smi:160|AV-procd|sdf|1349|dock10
  -GOLD-   2262019 53D 1   1.00000     0.00000
 Structure written by MMmdl.
 29 30  0  0  0  0  0  0  0  0  1 V2000
  150.4076  135.8462  157.3843 N   0  0  0  0  0  0  0  0  0  0  0  0
  151.0744  136.4929  156.4223 C   0  0  0  0  0  0  0  0  0  0  0  0
  152.2855  136.3576  156.2551 O   0  0  0  0  0  0  0  0  0  0  0  0
  150.2598  137.4070  155.5494 C   0  0  0  0  0  0  0  0  0  0  0  0
  150.8374  138.1159  154.5352 N   0  0  0  0  0  0  0  0  0  0  0  0
  149.7620  138.7506  154.0869 C   0  0  0  0  0  0  0  0  0  0  0  0
  148.6338  138.4523  154.7397 N   0  0  0  0  0  0  0  0  0  0  0  0
  147.2508  139.0051  154.5441 C   0  0  2  0  0  0  0  0  0  0  0  0
  146.3691  137.9376  154.4051 O   0  0  0  0  0  0  0  0  0  0  0  0
  146.2972  137.5522  153.0383 C   0  0  1  0  0  0  0  0  0  0  0  0
  144.9675  136.8294  152.7736 C   0  0  0  0  0  0  0  0  0  0  0  0
  144.8404  136.5316  151.3995 O   0  0  0  0  0  0  0  0  0  0  0  0
  146.4269  138.8865  152.2815 C   0  0  2  0  0  0  0  0  0  0  0  0
  147.2113  138.7037  151.1195 O   0  0  0  0  0  0  0  0  0  0  0  0
  147.1343  139.8354  153.2556 C   0  0  1  0  0  0  0  0  0  0  0  0
  146.3608  140.9988  153.4701 O   0  0  0  0  0  0  0  0  0  0  0  0
  148.9477  137.5709  155.7239 N   0  0  0  0  0  0  0  0  0  0  0  0
  147.0594  139.5687  155.4584 H   0  0  0  0  0  0  0  0  0  0  0  0
  147.1393  136.8986  152.8041 H   0  0  0  0  0  0  0  0  0  0  0  0
  145.4448  139.2724  152.0033 H   0  0  0  0  0  0  0  0  0  0  0  0
  148.1201  140.1528  152.9118 H   0  0  0  0  0  0  0  0  0  0  0  0
  150.8993  135.2197  158.0043 H   0  0  0  0  0  0  0  0  0  0  0  0
  149.4134  135.9917  157.4852 H   0  0  0  0  0  0  0  0  0  0  0  0
  149.7970  139.4510  153.2654 H   0  0  0  0  0  0  0  0  0  0  0  0
  144.8841  135.9201  153.3698 H   0  0  0  0  0  0  0  0  0  0  0  0
  144.1308  137.4736  153.0457 H   0  0  0  0  0  0  0  0  0  0  0  0
  144.4347  137.2683  150.9686 H   0  0  0  0  0  0  0  0  0  0  0  0
  147.8805  139.3709  151.1038 H   0  0  0  0  0  0  0  0  0  0  0  0
  145.4470  140.7693  153.3974 H   0  0  0  0  0  0  0  0  0  0  0  0
  1  2  1  0  0  0  0
  1 22  1  0  0  0  0
  1 23  1  0  0  0  0
  2  3  2  0  0  0  0
  2  4  1  0  0  0  0
  4 17  2  0  0  0  0
  4  5  1  0  0  0  0
  5  6  2  0  0  0  0
  6  7  1  0  0  0  0
  6 24  1  0  0  0  0
  7  8  1  0  0  0  0
  7 17  1  0  0  0  0
  8 18  1  0  0  0  0
  8 15  1  0  0  0  0
  8  9  1  0  0  0  0
  9 10  1  0  0  0  0
 10 19  1  0  0  0  0
 10 11  1  0  0  0  0
 10 13  1  0  0  0  0
 11 12  1  0  0  0  0
 11 25  1  0  0  0  0
 11 26  1  0  0  0  0
 12 27  1  0  0  0  0
 13 20  1  0  0  0  0
 13 14  1  0  0  0  0
 13 15  1  0  0  0  0
 14 28  1  0  0  0  0
 15 21  1  0  0  0  0
 15 16  1  0  0  0  0
 16 29  1  0  0  0  0
M  END
> <s_m_source_file>
AV-unprocessed.smi

> <i_m_source_file_index>
160

> <i_lp_mmshare_version>
43012

> <i_f3d_flags>
0

> <s_epik_input>
W05IMl1DKD1PKWMxbltjSF1uKG4xKVtDQEBIXTJPW0NASF0oW0NIMl1bT0hdKVtDQEBIXShbT0hdKVtDQEhdMltPSF0=

> <s_epik_cmdline>
J2VwaWtfcHl0aG9uJywgJy1waCcsICc3LjAnLCAnLXRuJywgJzgnLCAnLW1hJywgJzIwMCcsICctbWV0YWxfYmluZGluZycsICctaW1hZScsICc8aW5maWxlLm1hZT4nLCAnLW9tYWUnLCAnPG91dGZpbGUubWFlPic=

> <r_lp_tautomer_probability>
1

> <r_epik_Ionization_Penalty>
1.06932e-05

> <r_epik_Ionization_Penalty_Charging>
0

> <r_epik_Ionization_Penalty_Neutral>
1.06932e-05

> <r_epik_State_Penalty>
-0

> <r_epik_Charging_Adjusted_Penalty>
0

> <i_epik_Tot_Q>
0

> <i_epik_Tot_abs_Q>
0

> <r_epik_Metal_State_Penalty>
0.0142097

> <b_epik_Metal_Only>
0

> <s_epik_Chemistry_Notes>
This compound contains an acetal/aminal-like group ( X-CH(R)-Y where X, Y are N, S, or O) that may be acid/base labile, releasing an aldehyde.

> <s_lp_Force_Field>
OPLS_2005

> <r_lp_Energy>
33.3091

> <b_lp_Chiralities_Consistent>
1

> <s_lp_Variant>
AV-unprocessed.smi:160-7

> <Gold.Version>
5.8.1

> <Gold.Id.Protein>
6NUR|6NUR_protein|mol2

> <Gold.PLP.Fitness>
34.8239

> <Gold.PLP.PLP>
-19.2014

> <Gold.PLP.part.hbond>
-5.8928

> <Gold.PLP.part.metal>
0.0000

> <Gold.PLP.part.buried>
-0.7763

> <Gold.PLP.part.nonpolar>
-12.2332

> <Gold.PLP.part.repulsive>
0.4351

> <Gold.PLP.ligand.clash>
0.0000

> <Gold.PLP.ligand.torsion>
0.1373

> <Gold.PLP.Chemscore.Hbond>
4.2880

> <Gold.PLP.Chemscore.CHOScore>
1.0000

> <Gold.PLP.Chemscore.Metal>
0.0000

> <Gold.Chemscore.Hbonds>
donor molecule, donor type, donor heavy atom, donor atom, acceptor molecule, acceptor atom, score
      L1  H    12    27       P1 10171  1.00
      L1  H    14    28       P1  7957  1.00
      L1  H    16    29       P1 10175  1.00
      P1  H  7954  7966       L1    14  0.28
      P1  H 10752 10763       L1     3  1.00
      L1  C     6    24       P1  7957  1.00

> <Gold.PLP.Chemscore.Internal.Correction>
0.0330

> <Gold.Rescore>
     Score         DG    S(hbond)    S(metal)    S(lipo)     H(rot)  DE(clash)    DE(int)     intcor
      9.91     -10.26       3.66        0.00      25.36       4.06       0.19       0.16       ----

> <Gold.Chemscore.Fitness>
9.9105

> <Gold.Chemscore.DG>
-10.2608

> <Gold.Chemscore.ZeroCoef>
-5.4800

> <Gold.Chemscore.Hbond>
3.6551

> <Gold.Chemscore.Metal>
0.0000

> <Gold.Chemscore.Lipo>
25.3551

> <Gold.Chemscore.Internal_Hbond>
0.0000

> <Gold.Chemscore.DEClash>
0.1903

> <Gold.Chemscore.DEInternal>
0.1600

> <Gold.Chemscore.Rot>
4.0600

> <Gold.Chemscore.Internal.Correction>
   9.000000E+99

> <Gold.Chemscore.Hbonds>
donor molecule, donor type, donor heavy atom, donor atom, acceptor molecule, acceptor atom, score
      L1  H    12    27       P1 10171  1.00
      L1  H    14    28       P1  7957  0.69
      L1  H    16    29       P1 10175  0.78
      P1  H 10752 10763       L1     3  0.97

> <Gold.Chemscore.Hbond.Weighted>
-12.2079

> <Gold.Chemscore.Metal.Weighted>
-0.0000

> <Gold.Chemscore.Lipo.Weighted>
-2.9665

> <Gold.Chemscore.Internal_Hbond.Weighted>
0.0000

> <Gold.Chemscore.DEClash.Weighted>
0.1903

> <Gold.Chemscore.DEInternal.Weighted>
0.1600

> <Gold.Chemscore.Rot.Weighted>
10.3936

> <Gold.Chemscore.Internal.Correction.Weighted>
   9.000000E+99

> <Gold.Protein.RotatedTorsions>
[ 6907 6896 6895 6894 ] final  -81.36 input  -60.11 | X-H torsion
[ 7974 7965 7964 7962 ] final  140.73 input  175.53 | X-H torsion
[ 8008 7997 7996 7995 ] final  -74.17 input   59.86 | X-H torsion
[ 10167 10162 10161 10158 ] final -113.53 input  -65.29 | X-H torsion
[ 10718 10713 10712 10709 ] final -145.23 input   66.30 | X-H torsion
[ 10763 10752 10751 10750 ] final   78.04 input  -60.55 | X-H torsion
[ 11005 11000 10999 10996 ] final    6.71 input  -57.11 | X-H torsion

> <Gold.Protein.ActiveResidues>
 VAL166  LYS551  ARG553  GLY616  TRP617  ASP618  TYR619  PRO620  LYS621  CYS622 
 ASP623  PHE694  ASN695  SER759  ASP760  ASP761  ALA762  ILE779  LEU786  VAL792 
 PHE793  MET794  SER795  GLU796  ALA797  LYS798  CYS799  TRP800  GLU811  SER814 

> <Gold.Protein.RotatedAtoms>
  150.6913  134.3829  159.5041 H   0  0  0  0  0  0  0  0  0  0  0  0  # atno 6907 bound_to 6896
  152.1628  134.8895  160.0549 H   0  0  0  0  0  0  0  0  0  0  0  0  # atno 6908 bound_to 6896
  151.9950  133.3770  159.4196 H   0  0  0  0  0  0  0  0  0  0  0  0  # atno 6909 bound_to 6896
  144.9160  139.5230  143.5686 H   0  0  0  0  0  0  0  0  0  0  0  0  # atno 7974 bound_to 7965
  154.5308  140.0766  156.8342 H   0  0  0  0  0  0  0  0  0  0  0  0  # atno 8008 bound_to 7997
  155.3378  140.3405  155.4221 H   0  0  0  0  0  0  0  0  0  0  0  0  # atno 8009 bound_to 7997
  156.1779  140.1642  156.8315 H   0  0  0  0  0  0  0  0  0  0  0  0  # atno 8010 bound_to 7997
  140.1108  143.4529  152.1753 H   0  0  0  0  0  0  0  0  0  0  0  0  # atno 10167 bound_to 10162
  156.3799  130.7831  151.2022 H   0  0  0  0  0  0  0  0  0  0  0  0  # atno 10718 bound_to 10713
  153.0844  135.4892  154.8567 H   0  0  0  0  0  0  0  0  0  0  0  0  # atno 10763 bound_to 10752
  154.7192  135.3036  154.9077 H   0  0  0  0  0  0  0  0  0  0  0  0  # atno 10764 bound_to 10752
  153.9747  135.6797  153.4801 H   0  0  0  0  0  0  0  0  0  0  0  0  # atno 10765 bound_to 10752
  140.5564  134.0234  155.7955 H   0  0  0  0  0  0  0  0  0  0  0  0  # atno 11005 bound_to 11000
  146.3182  139.8003  142.8967 LP  0  0  0  0  0  0  0  0  0  0  0  0  # atno 17320 bound_to 7965
  145.3375  141.0280  143.3411 LP  0  0  0  0  0  0  0  0  0  0  0  0  # atno 17321 bound_to 7965
  139.5620  144.7412  151.4128 LP  0  0  0  0  0  0  0  0  0  0  0  0  # atno 17342 bound_to 10162
  140.6926  143.7824  150.7279 LP  0  0  0  0  0  0  0  0  0  0  0  0  # atno 17343 bound_to 10162
  157.7491  131.0347  150.4330 LP  0  0  0  0  0  0  0  0  0  0  0  0  # atno 17370 bound_to 10713
  156.4572  130.4024  149.6598 LP  0  0  0  0  0  0  0  0  0  0  0  0  # atno 17371 bound_to 10713
  141.1141  133.9569  157.2855 LP  0  0  0  0  0  0  0  0  0  0  0  0  # atno 17394 bound_to 11000
  139.9430  135.0188  156.8765 LP  0  0  0  0  0  0  0  0  0  0  0  0  # atno 17395 bound_to 11000

$$$$
