AV-unprocessed.smi:3245|AV-procd|sdf|12402|dock8
  -GOLD-   2272018283D 1   1.00000     0.00000
 Structure written by MMmdl.
 36 37  0  0  0  0  0  0  0  0  2 V2000
  144.5774  137.2370  153.1106 C   0  0  0  0  0  0  0  0  0  0  0  0
  145.9010  137.4926  152.3771 C   0  0  2  0  0  0  0  0  0  0  0  0
  145.9955  136.6211  151.1056 C   0  0  0  0  0  0  0  0  0  0  0  0
  145.5561  135.2539  151.3207 N   0  0  0  0  0  0  0  0  0  0  0  0
  146.3036  134.1647  151.7156 C   0  0  0  0  0  0  0  0  0  0  0  0
  145.4536  133.0997  151.8028 C   0  0  0  0  0  0  0  0  0  0  0  0
  144.1914  133.6416  151.4320 C   0  0  0  0  0  0  0  0  0  0  0  0
  144.2559  134.9319  151.1446 N   0  0  0  0  0  0  0  0  0  0  0  0
  147.0316  137.2245  153.2949 N   0  3  0  0  0  0  0  0  0  0  0  0
  147.4685  138.3825  154.1014 C   0  0  0  0  0  0  0  0  0  0  0  0
  147.4566  139.6694  153.2639 C   0  0  0  0  0  0  0  0  0  0  0  0
  148.1996  140.7419  153.9296 N   0  0  0  0  0  0  0  0  0  0  0  0
  149.5306  140.7524  154.0797 C   0  0  0  0  0  0  0  0  0  0  0  0
  150.3319  139.8971  153.7045 O   0  0  0  0  0  0  0  0  0  0  0  0
  149.9222  142.0282  154.7927 C   0  0  0  0  0  0  0  0  0  0  0  0
  148.6111  142.6212  154.9484 N   0  0  0  0  0  0  0  0  0  0  0  0
  147.6396  141.8561  154.4343 C   0  0  0  0  0  0  0  0  0  0  0  0
  146.4426  142.1392  154.4256 O   0  0  0  0  0  0  0  0  0  0  0  0
  143.7242  137.4648  152.4708 H   0  0  0  0  0  0  0  0  0  0  0  0
  144.4936  137.8604  154.0014 H   0  0  0  0  0  0  0  0  0  0  0  0
  144.4897  136.1957  153.4228 H   0  0  0  0  0  0  0  0  0  0  0  0
  145.9139  138.5457  152.0904 H   0  0  0  0  0  0  0  0  0  0  0  0
  145.4089  137.0591  150.2959 H   0  0  0  0  0  0  0  0  0  0  0  0
  147.0273  136.5868  150.7536 H   0  0  0  0  0  0  0  0  0  0  0  0
  147.3645  134.2382  151.9041 H   0  0  0  0  0  0  0  0  0  0  0  0
  145.6962  132.0864  152.0868 H   0  0  0  0  0  0  0  0  0  0  0  0
  143.2372  133.1400  151.3665 H   0  0  0  0  0  0  0  0  0  0  0  0
  146.7585  136.4925  153.9348 H   0  0  0  0  0  0  0  0  0  0  0  0
  146.8136  138.5039  154.9639 H   0  0  0  0  0  0  0  0  0  0  0  0
  148.4692  138.1879  154.4894 H   0  0  0  0  0  0  0  0  0  0  0  0
  147.8770  139.4763  152.2754 H   0  0  0  0  0  0  0  0  0  0  0  0
  146.4280  139.9909  153.0904 H   0  0  0  0  0  0  0  0  0  0  0  0
  150.3899  141.8251  155.7565 H   0  0  0  0  0  0  0  0  0  0  0  0
  150.5747  142.6498  154.1788 H   0  0  0  0  0  0  0  0  0  0  0  0
  148.4613  143.5161  155.3916 H   0  0  0  0  0  0  0  0  0  0  0  0
  147.8115  136.8949  152.7436 H   0  0  0  0  0  0  0  0  0  0  0  0
  1  2  1  0  0  0  0
  1 19  1  0  0  0  0
  1 20  1  0  0  0  0
  1 21  1  0  0  0  0
  2  3  1  0  0  0  0
  2  9  1  0  0  0  0
  2 22  1  0  0  0  0
  3  4  1  0  0  0  0
  3 23  1  0  0  0  0
  3 24  1  0  0  0  0
  4  8  1  0  0  0  0
  4  5  1  0  0  0  0
  5  6  2  0  0  0  0
  5 25  1  0  0  0  0
  6  7  1  0  0  0  0
  6 26  1  0  0  0  0
  7  8  2  0  0  0  0
  7 27  1  0  0  0  0
  9 10  1  0  0  0  0
  9 28  1  0  0  0  0
  9 36  1  0  0  0  0
 10 11  1  0  0  0  0
 10 29  1  0  0  0  0
 10 30  1  0  0  0  0
 11 12  1  0  0  0  0
 11 31  1  0  0  0  0
 11 32  1  0  0  0  0
 12 17  1  0  0  0  0
 12 13  1  0  0  0  0
 13 14  2  0  0  0  0
 13 15  1  0  0  0  0
 15 16  1  0  0  0  0
 15 33  1  0  0  0  0
 15 34  1  0  0  0  0
 16 17  1  0  0  0  0
 16 35  1  0  0  0  0
 17 18  2  0  0  0  0
M  CHG  1   9   1
M  END
> <s_m_source_file>
AV-unprocessed.smi

> <i_m_source_file_index>
3245

> <i_lp_mmshare_version>
43012

> <i_f3d_flags>
0

> <s_epik_input>
bjFbY0hdW2NIXVtjSF1uMVtDSDJdW0NAQEhdKFtDSDNdKVtOSF1bQ0gyXVtDSDJdTjJDKD1PKVtDSDJdW05IXUMyPU8=

> <s_epik_cmdline>
J2VwaWtfcHl0aG9uJywgJy1waCcsICc3LjAnLCAnLXRuJywgJzgnLCAnLW1hJywgJzIwMCcsICctbWV0YWxfYmluZGluZycsICctaW1hZScsICc8aW5maWxlLm1hZT4nLCAnLW9tYWUnLCAnPG91dGZpbGUubWFlPic=

> <r_lp_tautomer_probability>
1

> <r_epik_Ionization_Penalty>
0.0160742

> <r_epik_Ionization_Penalty_Charging>
0.0159586

> <r_epik_Ionization_Penalty_Neutral>
0.000115543

> <r_epik_State_Penalty>
0.0125702

> <r_epik_Charging_Adjusted_Penalty>
0.0285288

> <i_epik_Tot_Q>
1

> <i_epik_Tot_abs_Q>
1

> <r_epik_Metal_State_Penalty>
0.0881892

> <b_epik_Metal_Only>
0

> <s_lp_Force_Field>
OPLS_2005

> <r_lp_Energy>
19.7378

> <b_lp_Chiralities_Consistent>
1

> <s_lp_Variant>
AV-unprocessed.smi:3245-1

> <Gold.Version>
5.8.1

> <Gold.Id.Protein>
6NUR|6NUR_protein|mol2

> <Gold.PLP.Fitness>
44.7832

> <Gold.PLP.PLP>
-30.7522

> <Gold.PLP.part.hbond>
-2.6977

> <Gold.PLP.part.metal>
0.0000

> <Gold.PLP.part.buried>
-0.6203

> <Gold.PLP.part.nonpolar>
-28.0648

> <Gold.PLP.part.repulsive>
1.2962

> <Gold.PLP.ligand.clash>
0.0000

> <Gold.PLP.ligand.torsion>
1.1175

> <Gold.PLP.Chemscore.Hbond>
3.4560

> <Gold.PLP.Chemscore.CHOScore>
1.9543

> <Gold.PLP.Chemscore.Metal>
0.0000

> <Gold.Chemscore.Hbonds>
donor molecule, donor type, donor heavy atom, donor atom, acceptor molecule, acceptor atom, score
      L1  H     9    36       P1  7948  2.00
      L1  H    16    35       P1  8028  0.39
      P1  H  7989  7998       L1    14  0.79
      L1  C     5    25       P1  7948  1.00

> <Gold.PLP.Chemscore.Internal.Correction>
0.0351

> <Gold.Rescore>
     Score         DG    S(hbond)    S(metal)    S(lipo)     H(rot)  DE(clash)    DE(int)     intcor
      7.65     -10.91       1.85        0.00      53.48       2.74       1.22       2.04       ----

> <Gold.Chemscore.Fitness>
7.6511

> <Gold.Chemscore.DG>
-10.9147

> <Gold.Chemscore.ZeroCoef>
-5.4800

> <Gold.Chemscore.Hbond>
1.8515

> <Gold.Chemscore.Metal>
0.0000

> <Gold.Chemscore.Lipo>
53.4794

> <Gold.Chemscore.Internal_Hbond>
0.0000

> <Gold.Chemscore.DEClash>
1.2229

> <Gold.Chemscore.DEInternal>
2.0407

> <Gold.Chemscore.Rot>
2.7369

> <Gold.Chemscore.Internal.Correction>
   9.000000E+99

> <Gold.Chemscore.Hbonds>
donor molecule, donor type, donor heavy atom, donor atom, acceptor molecule, acceptor atom, score
      L1  H     9    36       P1  7948  0.98
      L1  H    16    35       P1  8028  0.37
      P1  H  7989  7998       L1    14  0.15

> <Gold.Chemscore.Hbond.Weighted>
-6.1841

> <Gold.Chemscore.Metal.Weighted>
-0.0000

> <Gold.Chemscore.Lipo.Weighted>
-6.2571

> <Gold.Chemscore.Internal_Hbond.Weighted>
0.0000

> <Gold.Chemscore.DEClash.Weighted>
1.2229

> <Gold.Chemscore.DEInternal.Weighted>
2.0407

> <Gold.Chemscore.Rot.Weighted>
7.0065

> <Gold.Chemscore.Internal.Correction.Weighted>
   9.000000E+99

> <Gold.Protein.RotatedTorsions>
[ 6907 6896 6895 6894 ] final  164.59 input  -60.11 | X-H torsion
[ 7974 7965 7964 7962 ] final  154.76 input  175.53 | X-H torsion
[ 8008 7997 7996 7995 ] final  149.20 input   59.86 | X-H torsion
[ 10167 10162 10161 10158 ] final   63.40 input  -65.29 | X-H torsion
[ 10718 10713 10712 10709 ] final  131.74 input   66.30 | X-H torsion
[ 10763 10752 10751 10750 ] final   61.08 input  -60.55 | X-H torsion
[ 11005 11000 10999 10996 ] final   -0.56 input  -57.11 | X-H torsion

> <Gold.Protein.ActiveResidues>
 VAL166  LYS551  ARG553  GLY616  TRP617  ASP618  TYR619  PRO620  LYS621  CYS622 
 ASP623  PHE694  ASN695  SER759  ASP760  ASP761  ALA762  ILE779  LEU786  VAL792 
 PHE793  MET794  SER795  GLU796  ALA797  LYS798  CYS799  TRP800  GLU811  SER814 

> <Gold.Protein.RotatedAtoms>
  151.9075  133.3553  159.3851 H   0  0  0  0  0  0  0  0  0  0  0  0  # atno 6907 bound_to 6896
  150.7066  134.4766  159.5460 H   0  0  0  0  0  0  0  0  0  0  0  0  # atno 6908 bound_to 6896
  152.2366  134.8270  160.0517 H   0  0  0  0  0  0  0  0  0  0  0  0  # atno 6909 bound_to 6896
  144.8068  139.6976  143.6158 H   0  0  0  0  0  0  0  0  0  0  0  0  # atno 7974 bound_to 7965
  156.2764  140.2108  156.5820 H   0  0  0  0  0  0  0  0  0  0  0  0  # atno 8008 bound_to 7997
  154.7051  140.0517  157.0519 H   0  0  0  0  0  0  0  0  0  0  0  0  # atno 8009 bound_to 7997
  155.0682  140.3174  155.4642 H   0  0  0  0  0  0  0  0  0  0  0  0  # atno 8010 bound_to 7997
  140.1335  144.4621  150.6851 H   0  0  0  0  0  0  0  0  0  0  0  0  # atno 10167 bound_to 10162
  157.4938  131.1091  150.9520 H   0  0  0  0  0  0  0  0  0  0  0  0  # atno 10718 bound_to 10713
  152.9939  135.5513  154.5976 H   0  0  0  0  0  0  0  0  0  0  0  0  # atno 10763 bound_to 10752
  154.5324  135.2814  155.1170 H   0  0  0  0  0  0  0  0  0  0  0  0  # atno 10764 bound_to 10752
  154.2480  135.6404  153.5283 H   0  0  0  0  0  0  0  0  0  0  0  0  # atno 10765 bound_to 10752
  140.6376  133.9518  155.8308 H   0  0  0  0  0  0  0  0  0  0  0  0  # atno 11005 bound_to 11000
  146.2361  139.5907  142.9523 LP  0  0  0  0  0  0  0  0  0  0  0  0  # atno 17320 bound_to 7965
  145.5419  141.0420  143.2326 LP  0  0  0  0  0  0  0  0  0  0  0  0  # atno 17321 bound_to 7965
  140.6803  143.2324  151.5401 LP  0  0  0  0  0  0  0  0  0  0  0  0  # atno 17342 bound_to 10162
  139.5508  144.2401  152.1526 LP  0  0  0  0  0  0  0  0  0  0  0  0  # atno 17343 bound_to 10162
  157.0213  130.5675  149.5331 LP  0  0  0  0  0  0  0  0  0  0  0  0  # atno 17370 bound_to 10713
  156.0189  130.5283  150.8217 LP  0  0  0  0  0  0  0  0  0  0  0  0  # atno 17371 bound_to 10713
  141.0630  134.0318  157.3632 LP  0  0  0  0  0  0  0  0  0  0  0  0  # atno 17394 bound_to 11000
  139.9092  135.0186  156.7620 LP  0  0  0  0  0  0  0  0  0  0  0  0  # atno 17395 bound_to 11000

$$$$
