AV-unprocessed.smi:1836|AV-procd|sdf|7480|dock8
  -GOLD-   22720 9173D 1   1.00000     0.00000
 Structure written by MMmdl.
 32 33  0  0  0  0  0  0  0  0  2 V2000
  149.9635  137.4238  156.4814 C   0  0  0  0  0  0  0  0  0  0  0  0
  150.6203  138.0310  157.7283 C   0  0  1  0  0  0  0  0  0  0  0  0
  151.0852  139.4803  157.4602 C   0  0  0  0  0  0  0  0  0  0  0  0
  151.9070  140.0131  158.5464 N   0  0  0  0  0  0  0  0  0  0  0  0
  151.5636  141.2721  159.1862 C   0  0  0  0  0  0  0  0  0  0  0  0
  152.7647  141.5983  160.0843 C   0  0  0  0  0  0  0  0  0  0  0  0
  153.5566  140.2925  160.2070 C   0  0  0  0  0  0  0  0  0  0  0  0
  152.9678  139.4215  159.1106 C   0  0  0  0  0  0  0  0  0  0  0  0
  153.4347  138.3240  158.8100 O   0  0  0  0  0  0  0  0  0  0  0  0
  149.6572  137.9806  158.8281 N   0  0  0  0  0  0  0  0  0  0  0  0
  149.0460  136.8834  159.3003 C   0  0  0  0  0  0  0  0  0  0  0  0
  149.2707  135.7831  158.7900 O   0  0  0  0  0  0  0  0  0  0  0  0
  148.2261  137.1251  160.3480 N   0  5  0  0  0  0  0  0  0  0  0  0
  147.6916  136.0983  161.0289 C   0  0  0  0  0  0  0  0  0  0  0  0
  147.6335  134.8546  160.5264 N   0  0  0  0  0  0  0  0  0  0  0  0
  147.0396  133.9444  161.3904 N   0  0  0  0  0  0  0  0  0  0  0  0
  146.6576  134.5296  162.5253 C   0  0  0  0  0  0  0  0  0  0  0  0
  146.9839  136.2461  162.6405 S   0  0  0  0  0  0  0  0  0  0  0  0
  150.6576  137.4067  155.6409 H   0  0  0  0  0  0  0  0  0  0  0  0
  149.0854  137.9943  156.1769 H   0  0  0  0  0  0  0  0  0  0  0  0
  149.6466  136.3965  156.6656 H   0  0  0  0  0  0  0  0  0  0  0  0
  151.4911  137.4151  157.9597 H   0  0  0  0  0  0  0  0  0  0  0  0
  151.6822  139.5097  156.5477 H   0  0  0  0  0  0  0  0  0  0  0  0
  150.2266  140.1284  157.2755 H   0  0  0  0  0  0  0  0  0  0  0  0
  151.3835  142.0581  158.4520 H   0  0  0  0  0  0  0  0  0  0  0  0
  150.6563  141.1399  159.7771 H   0  0  0  0  0  0  0  0  0  0  0  0
  153.3853  142.3618  159.6130 H   0  0  0  0  0  0  0  0  0  0  0  0
  152.4518  141.9820  161.0557 H   0  0  0  0  0  0  0  0  0  0  0  0
  154.6268  140.4435  160.0617 H   0  0  0  0  0  0  0  0  0  0  0  0
  153.3953  139.8165  161.1746 H   0  0  0  0  0  0  0  0  0  0  0  0
  149.4448  138.8554  159.2849 H   0  0  0  0  0  0  0  0  0  0  0  0
  146.1772  133.9481  163.2978 H   0  0  0  0  0  0  0  0  0  0  0  0
  1  2  1  0  0  0  0
  1 19  1  0  0  0  0
  1 20  1  0  0  0  0
  1 21  1  0  0  0  0
  2  3  1  0  0  0  0
  2 10  1  0  0  0  0
  2 22  1  0  0  0  0
  3  4  1  0  0  0  0
  3 23  1  0  0  0  0
  3 24  1  0  0  0  0
  4  8  1  0  0  0  0
  4  5  1  0  0  0  0
  5  6  1  0  0  0  0
  5 25  1  0  0  0  0
  5 26  1  0  0  0  0
  6  7  1  0  0  0  0
  6 27  1  0  0  0  0
  6 28  1  0  0  0  0
  7  8  1  0  0  0  0
  7 29  1  0  0  0  0
  7 30  1  0  0  0  0
  8  9  2  0  0  0  0
 10 11  1  0  0  0  0
 10 31  1  0  0  0  0
 11 12  2  0  0  0  0
 11 13  1  0  0  0  0
 13 14  1  0  0  0  0
 14 18  1  0  0  0  0
 14 15  2  0  0  0  0
 15 16  1  0  0  0  0
 16 17  2  0  0  0  0
 17 18  1  0  0  0  0
 17 32  1  0  0  0  0
M  CHG  1  13  -1
M  END
> <s_m_source_file>
AV-unprocessed.smi

> <i_m_source_file_index>
1836

> <i_lp_mmshare_version>
43012

> <i_f3d_flags>
0

> <s_epik_input>
Tz1DMVtDSDJdW0NIMl1bQ0gyXU4xW0NIMl1bQ0BASF0oW0NIM10pW05IXUMoPU8pW05IXWMybm5bY0hdczI=

> <s_epik_cmdline>
J2VwaWtfcHl0aG9uJywgJy1waCcsICc3LjAnLCAnLXRuJywgJzgnLCAnLW1hJywgJzIwMCcsICctbWV0YWxfYmluZGluZycsICctaW1hZScsICc8aW5maWxlLm1hZT4nLCAnLW9tYWUnLCAnPG91dGZpbGUubWFlPic=

> <r_lp_tautomer_probability>
1

> <r_epik_Ionization_Penalty>
3.44722

> <r_epik_Ionization_Penalty_Charging>
3.40341

> <r_epik_Ionization_Penalty_Neutral>
0.0438099

> <r_epik_State_Penalty>
3.40151

> <r_epik_Charging_Adjusted_Penalty>
6.80491

> <i_epik_Tot_Q>
-1

> <i_epik_Tot_abs_Q>
1

> <r_epik_Metal_State_Penalty>
0.49534

> <b_epik_Metal_Only>
1

> <s_lp_Force_Field>
OPLS_2005

> <r_lp_Energy>
17.1678

> <b_lp_Chiralities_Consistent>
1

> <s_lp_Variant>
AV-unprocessed.smi:1836-4

> <Gold.Version>
5.8.1

> <Gold.Id.Protein>
6NUR|6NUR_protein|mol2

> <Gold.PLP.Fitness>
40.3187

> <Gold.PLP.PLP>
-31.2309

> <Gold.PLP.part.hbond>
-3.0000

> <Gold.PLP.part.metal>
0.0000

> <Gold.PLP.part.buried>
-5.1645

> <Gold.PLP.part.nonpolar>
-24.2230

> <Gold.PLP.part.repulsive>
0.2199

> <Gold.PLP.ligand.clash>
0.0000

> <Gold.PLP.ligand.torsion>
0.2008

> <Gold.PLP.Chemscore.Hbond>
3.1262

> <Gold.PLP.Chemscore.CHOScore>
0.0000

> <Gold.PLP.Chemscore.Metal>
0.0000

> <Gold.Chemscore.Hbonds>
donor molecule, donor type, donor heavy atom, donor atom, acceptor molecule, acceptor atom, score
      P1  H  6896  6908       L1    12  1.00
      P1  H  6931  6943       L1    13  1.29
      P1  H  6934  6947       L1    13  0.66

> <Gold.PLP.Chemscore.Internal.Correction>
0.1110

> <Gold.Rescore>
     Score         DG    S(hbond)    S(metal)    S(lipo)     H(rot)  DE(clash)    DE(int)     intcor
     10.57     -13.54       1.89        0.00      52.68       1.73       0.02       2.95       ----

> <Gold.Chemscore.Fitness>
10.5722

> <Gold.Chemscore.DG>
-13.5421

> <Gold.Chemscore.ZeroCoef>
-5.4800

> <Gold.Chemscore.Hbond>
1.8946

> <Gold.Chemscore.Metal>
0.0000

> <Gold.Chemscore.Lipo>
52.6790

> <Gold.Chemscore.Internal_Hbond>
0.0000

> <Gold.Chemscore.DEClash>
0.0166

> <Gold.Chemscore.DEInternal>
2.9532

> <Gold.Chemscore.Rot>
1.7302

> <Gold.Chemscore.Internal.Correction>
   9.000000E+99

> <Gold.Chemscore.Hbonds>
donor molecule, donor type, donor heavy atom, donor atom, acceptor molecule, acceptor atom, score
      P1  H  6896  6908       L1    12  0.93
      P1  H  6931  6943       L1    13  0.19
      P1  H  6934  6947       L1    13  0.24

> <Gold.Chemscore.Hbond.Weighted>
-6.3280

> <Gold.Chemscore.Metal.Weighted>
-0.0000

> <Gold.Chemscore.Lipo.Weighted>
-6.1634

> <Gold.Chemscore.Internal_Hbond.Weighted>
0.0000

> <Gold.Chemscore.DEClash.Weighted>
0.0166

> <Gold.Chemscore.DEInternal.Weighted>
2.9532

> <Gold.Chemscore.Rot.Weighted>
4.4294

> <Gold.Chemscore.Internal.Correction.Weighted>
   9.000000E+99

> <Gold.Protein.RotatedTorsions>
[ 6907 6896 6895 6894 ] final  174.15 input  -60.11 | X-H torsion
[ 7974 7965 7964 7962 ] final -110.07 input  175.53 | X-H torsion
[ 8008 7997 7996 7995 ] final  -94.68 input   59.86 | X-H torsion
[ 10167 10162 10161 10158 ] final -151.70 input  -65.29 | X-H torsion
[ 10718 10713 10712 10709 ] final   -7.27 input   66.30 | X-H torsion
[ 10763 10752 10751 10750 ] final   42.19 input  -60.55 | X-H torsion
[ 11005 11000 10999 10996 ] final -113.79 input  -57.11 | X-H torsion

> <Gold.Protein.ActiveResidues>
 VAL166  LYS551  ARG553  GLY616  TRP617  ASP618  TYR619  PRO620  LYS621  CYS622 
 ASP623  PHE694  ASN695  SER759  ASP760  ASP761  ALA762  ILE779  LEU786  VAL792 
 PHE793  MET794  SER795  GLU796  ALA797  LYS798  CYS799  TRP800  GLU811  SER814 

> <Gold.Protein.RotatedAtoms>
  151.7569  133.3331  159.3406 H   0  0  0  0  0  0  0  0  0  0  0  0  # atno 6907 bound_to 6896
  150.7513  134.6141  159.6111 H   0  0  0  0  0  0  0  0  0  0  0  0  # atno 6908 bound_to 6896
  152.3431  134.7110  160.0309 H   0  0  0  0  0  0  0  0  0  0  0  0  # atno 6909 bound_to 6896
  145.1728  140.8934  143.3525 H   0  0  0  0  0  0  0  0  0  0  0  0  # atno 7974 bound_to 7965
  154.7515  140.0487  157.0897 H   0  0  0  0  0  0  0  0  0  0  0  0  # atno 8008 bound_to 7997
  155.0051  140.3129  155.4832 H   0  0  0  0  0  0  0  0  0  0  0  0  # atno 8009 bound_to 7997
  156.2886  140.2194  156.5163 H   0  0  0  0  0  0  0  0  0  0  0  0  # atno 8010 bound_to 7997
  139.7245  143.8905  152.2514 H   0  0  0  0  0  0  0  0  0  0  0  0  # atno 10167 bound_to 10162
  156.7196  130.5147  149.5871 H   0  0  0  0  0  0  0  0  0  0  0  0  # atno 10718 bound_to 10713
  152.9889  135.6139  154.2910 H   0  0  0  0  0  0  0  0  0  0  0  0  # atno 10763 bound_to 10752
  154.2635  135.2781  155.2770 H   0  0  0  0  0  0  0  0  0  0  0  0  # atno 10764 bound_to 10752
  154.5185  135.5821  153.6718 H   0  0  0  0  0  0  0  0  0  0  0  0  # atno 10765 bound_to 10752
  141.0592  133.9562  157.2698 H   0  0  0  0  0  0  0  0  0  0  0  0  # atno 11005 bound_to 11000
  145.0215  139.3419  143.6070 LP  0  0  0  0  0  0  0  0  0  0  0  0  # atno 17320 bound_to 7965
  146.3466  139.9518  142.8728 LP  0  0  0  0  0  0  0  0  0  0  0  0  # atno 17321 bound_to 7965
  139.8811  144.7017  150.8877 LP  0  0  0  0  0  0  0  0  0  0  0  0  # atno 17342 bound_to 10162
  140.7760  143.3661  151.1737 LP  0  0  0  0  0  0  0  0  0  0  0  0  # atno 17343 bound_to 10162
  156.1604  130.6370  151.0711 LP  0  0  0  0  0  0  0  0  0  0  0  0  # atno 17370 bound_to 10713
  157.6903  131.0812  150.7126 LP  0  0  0  0  0  0  0  0  0  0  0  0  # atno 17371 bound_to 10713
  139.9417  135.0190  156.8730 LP  0  0  0  0  0  0  0  0  0  0  0  0  # atno 17394 bound_to 11000
  140.5902  134.0269  155.7497 LP  0  0  0  0  0  0  0  0  0  0  0  0  # atno 17395 bound_to 11000

$$$$
