AV-unprocessed.smi:302|AV-procd|sdf|2272|dock4
  -GOLD-   2262022163D 1   1.00000     0.00000
 Structure written by MMmdl.
 44 45  0  0  0  0  0  0  0  0  1 V2000
  154.8496  132.1518  160.5395 C   0  0  0  0  0  0  0  0  0  0  0  0
  155.4426  133.3612  161.2654 C   0  0  0  0  0  0  0  0  0  0  0  0
  154.7786  134.5360  160.8125 O   0  0  0  0  0  0  0  0  0  0  0  0
  155.2505  135.7635  161.3649 C   0  0  2  0  0  0  0  0  0  0  0  0
  155.2045  135.6164  162.9000 C   0  0  0  0  0  0  0  0  0  0  0  0
  153.8171  135.8574  163.5142 C   0  0  0  0  0  0  0  0  0  0  0  0
  154.3899  136.9347  160.8573 C   0  0  0  0  0  0  0  0  0  0  0  0
  153.5002  136.7254  160.0329 O   0  0  0  0  0  0  0  0  0  0  0  0
  154.7078  138.1471  161.3477 N   0  0  0  0  0  0  0  0  0  0  0  0
  154.1214  139.4053  161.0462 C   0  0  0  0  0  0  0  0  0  0  0  0
  154.0966  140.5064  161.9327 C   0  0  0  0  0  0  0  0  0  0  0  0
  153.4919  141.7065  161.5122 C   0  0  0  0  0  0  0  0  0  0  0  0
  152.9342  141.7846  160.2140 C   0  0  0  0  0  0  0  0  0  0  0  0
  152.3142  142.9752  159.7761 N   0  0  0  0  0  0  0  0  0  0  0  0
  151.6997  143.7981  160.8149 C   0  0  0  0  0  0  0  0  0  0  0  0
  150.7910  144.8661  160.1819 C   0  0  0  0  0  0  0  0  0  0  0  0
  151.5302  145.6309  159.2353 O   0  0  0  0  0  0  0  0  0  0  0  0
  152.0255  144.8229  158.1730 C   0  0  0  0  0  0  0  0  0  0  0  0
  152.9802  143.7564  158.7354 C   0  0  0  0  0  0  0  0  0  0  0  0
  152.9707  140.7293  159.3635 N   0  0  0  0  0  0  0  0  0  0  0  0
  153.5533  139.5822  159.7694 C   0  0  0  0  0  0  0  0  0  0  0  0
  155.3310  131.2286  160.8631 H   0  0  0  0  0  0  0  0  0  0  0  0
  154.9839  132.2384  159.4607 H   0  0  0  0  0  0  0  0  0  0  0  0
  153.7816  132.0604  160.7390 H   0  0  0  0  0  0  0  0  0  0  0  0
  155.3102  133.2464  162.3422 H   0  0  0  0  0  0  0  0  0  0  0  0
  156.5139  133.4121  161.0680 H   0  0  0  0  0  0  0  0  0  0  0  0
  156.2906  135.9098  161.0664 H   0  0  0  0  0  0  0  0  0  0  0  0
  155.5650  134.6295  163.1937 H   0  0  0  0  0  0  0  0  0  0  0  0
  155.9034  136.3290  163.3391 H   0  0  0  0  0  0  0  0  0  0  0  0
  153.8620  135.7973  164.6017 H   0  0  0  0  0  0  0  0  0  0  0  0
  153.0918  135.1174  163.1755 H   0  0  0  0  0  0  0  0  0  0  0  0
  153.4373  136.8452  163.2523 H   0  0  0  0  0  0  0  0  0  0  0  0
  155.5157  138.1793  161.9526 H   0  0  0  0  0  0  0  0  0  0  0  0
  154.5333  140.4592  162.9181 H   0  0  0  0  0  0  0  0  0  0  0  0
  153.4514  142.5427  162.1938 H   0  0  0  0  0  0  0  0  0  0  0  0
  151.1128  143.2016  161.5113 H   0  0  0  0  0  0  0  0  0  0  0  0
  152.4891  144.2773  161.3954 H   0  0  0  0  0  0  0  0  0  0  0  0
  149.9285  144.4048  159.6980 H   0  0  0  0  0  0  0  0  0  0  0  0
  150.4042  145.5331  160.9524 H   0  0  0  0  0  0  0  0  0  0  0  0
  151.1960  144.3584  157.6373 H   0  0  0  0  0  0  0  0  0  0  0  0
  152.5501  145.4572  157.4584 H   0  0  0  0  0  0  0  0  0  0  0  0
  153.8679  144.2328  159.1540 H   0  0  0  0  0  0  0  0  0  0  0  0
  153.3094  143.1050  157.9247 H   0  0  0  0  0  0  0  0  0  0  0  0
  153.5569  138.7752  159.0511 H   0  0  0  0  0  0  0  0  0  0  0  0
  1  2  1  0  0  0  0
  1 22  1  0  0  0  0
  1 23  1  0  0  0  0
  1 24  1  0  0  0  0
  2  3  1  0  0  0  0
  2 25  1  0  0  0  0
  2 26  1  0  0  0  0
  3  4  1  0  0  0  0
  4  5  1  0  0  0  0
  4  7  1  0  0  0  0
  4 27  1  0  0  0  0
  5  6  1  0  0  0  0
  5 28  1  0  0  0  0
  5 29  1  0  0  0  0
  6 30  1  0  0  0  0
  6 31  1  0  0  0  0
  6 32  1  0  0  0  0
  7  8  2  0  0  0  0
  7  9  1  0  0  0  0
  9 10  1  0  0  0  0
  9 33  1  0  0  0  0
 10 21  1  0  0  0  0
 10 11  2  0  0  0  0
 11 12  1  0  0  0  0
 11 34  1  0  0  0  0
 12 13  2  0  0  0  0
 12 35  1  0  0  0  0
 13 14  1  0  0  0  0
 13 20  1  0  0  0  0
 14 19  1  0  0  0  0
 14 15  1  0  0  0  0
 15 16  1  0  0  0  0
 15 36  1  0  0  0  0
 15 37  1  0  0  0  0
 16 17  1  0  0  0  0
 16 38  1  0  0  0  0
 16 39  1  0  0  0  0
 17 18  1  0  0  0  0
 18 19  1  0  0  0  0
 18 40  1  0  0  0  0
 18 41  1  0  0  0  0
 19 42  1  0  0  0  0
 19 43  1  0  0  0  0
 20 21  2  0  0  0  0
 21 44  1  0  0  0  0
M  END
> <s_m_source_file>
AV-unprocessed.smi

> <i_m_source_file_index>
302

> <i_lp_mmshare_version>
43012

> <i_f3d_flags>
0

> <s_epik_input>
W0NIM11bQ0gyXU9bQ0BIXShbQ0gyXVtDSDNdKUMoPU8pW05IXWMxW2NIXVtjSF1jKG5bY0hdMSlOMltDSDJdW0NIMl1PW0NIMl1bQ0gyXTI=

> <s_epik_cmdline>
J2VwaWtfcHl0aG9uJywgJy1waCcsICc3LjAnLCAnLXRuJywgJzgnLCAnLW1hJywgJzIwMCcsICctbWV0YWxfYmluZGluZycsICctaW1hZScsICc8aW5maWxlLm1hZT4nLCAnLW9tYWUnLCAnPG91dGZpbGUubWFlPic=

> <r_lp_tautomer_probability>
1

> <r_epik_Ionization_Penalty>
0.000497413

> <r_epik_Ionization_Penalty_Charging>
0

> <r_epik_Ionization_Penalty_Neutral>
0.000497413

> <r_epik_State_Penalty>
0.000308489

> <r_epik_Charging_Adjusted_Penalty>
0.000308489

> <i_epik_Tot_Q>
0

> <i_epik_Tot_abs_Q>
0

> <r_epik_Metal_State_Penalty>
-0

> <b_epik_Metal_Only>
0

> <s_lp_Force_Field>
OPLS_2005

> <r_lp_Energy>
24.0205

> <b_lp_Chiralities_Consistent>
1

> <s_lp_Variant>
AV-unprocessed.smi:302-1

> <Gold.Version>
5.8.1

> <Gold.Id.Protein>
6NUR|6NUR_protein|mol2

> <Gold.PLP.Fitness>
44.1638

> <Gold.PLP.PLP>
-42.9855

> <Gold.PLP.part.hbond>
-1.9949

> <Gold.PLP.part.metal>
0.0000

> <Gold.PLP.part.buried>
-6.9959

> <Gold.PLP.part.nonpolar>
-34.4414

> <Gold.PLP.part.repulsive>
0.1310

> <Gold.PLP.ligand.clash>
0.0000

> <Gold.PLP.ligand.torsion>
0.8661

> <Gold.PLP.Chemscore.Hbond>
0.8288

> <Gold.PLP.Chemscore.CHOScore>
0.0000

> <Gold.PLP.Chemscore.Metal>
0.0000

> <Gold.Chemscore.Hbonds>
donor molecule, donor type, donor heavy atom, donor atom, acceptor molecule, acceptor atom, score
      P1  H  6896  6908       L1     8  0.57

> <Gold.PLP.Chemscore.Internal.Correction>
0.4242

> <Gold.Rescore>
     Score         DG    S(hbond)    S(metal)    S(lipo)     H(rot)  DE(clash)    DE(int)     intcor
     14.91     -17.03       1.00        0.00     105.80       1.63       0.07       2.05       ----

> <Gold.Chemscore.Fitness>
14.9131

> <Gold.Chemscore.DG>
-17.0271

> <Gold.Chemscore.ZeroCoef>
-5.4800

> <Gold.Chemscore.Hbond>
0.9972

> <Gold.Chemscore.Metal>
0.0000

> <Gold.Chemscore.Lipo>
105.8027

> <Gold.Chemscore.Internal_Hbond>
0.0000

> <Gold.Chemscore.DEClash>
0.0657

> <Gold.Chemscore.DEInternal>
2.0482

> <Gold.Chemscore.Rot>
1.6260

> <Gold.Chemscore.Internal.Correction>
   9.000000E+99

> <Gold.Chemscore.Hbonds>
donor molecule, donor type, donor heavy atom, donor atom, acceptor molecule, acceptor atom, score
      P1  H  6896  6908       L1     8  0.56

> <Gold.Chemscore.Hbond.Weighted>
-3.3307

> <Gold.Chemscore.Metal.Weighted>
-0.0000

> <Gold.Chemscore.Lipo.Weighted>
-12.3789

> <Gold.Chemscore.Internal_Hbond.Weighted>
0.0000

> <Gold.Chemscore.DEClash.Weighted>
0.0657

> <Gold.Chemscore.DEInternal.Weighted>
2.0482

> <Gold.Chemscore.Rot.Weighted>
4.1626

> <Gold.Chemscore.Internal.Correction.Weighted>
   9.000000E+99

> <Gold.Protein.RotatedTorsions>
[ 6907 6896 6895 6894 ] final  -83.36 input  -60.11 | X-H torsion
[ 7974 7965 7964 7962 ] final  -63.22 input  175.53 | X-H torsion
[ 8008 7997 7996 7995 ] final  -37.35 input   59.86 | X-H torsion
[ 10167 10162 10161 10158 ] final  -82.07 input  -65.29 | X-H torsion
[ 10718 10713 10712 10709 ] final   84.48 input   66.30 | X-H torsion
[ 10763 10752 10751 10750 ] final -145.05 input  -60.55 | X-H torsion
[ 11005 11000 10999 10996 ] final -152.37 input  -57.11 | X-H torsion

> <Gold.Protein.ActiveResidues>
 VAL166  LYS551  ARG553  GLY616  TRP617  ASP618  TYR619  PRO620  LYS621  CYS622 
 ASP623  PHE694  ASN695  SER759  ASP760  ASP761  ALA762  ILE779  LEU786  VAL792 
 PHE793  MET794  SER795  GLU796  ALA797  LYS798  CYS799  TRP800  GLU811  SER814 

> <Gold.Protein.RotatedAtoms>
  150.6886  134.3524  159.4914 H   0  0  0  0  0  0  0  0  0  0  0  0  # atno 6907 bound_to 6896
  152.1364  134.9093  160.0565 H   0  0  0  0  0  0  0  0  0  0  0  0  # atno 6908 bound_to 6896
  152.0244  133.3877  159.4308 H   0  0  0  0  0  0  0  0  0  0  0  0  # atno 6909 bound_to 6896
  145.7817  140.8758  143.0327 H   0  0  0  0  0  0  0  0  0  0  0  0  # atno 7974 bound_to 7965
  154.4055  140.1606  156.2523 H   0  0  0  0  0  0  0  0  0  0  0  0  # atno 8008 bound_to 7997
  155.9108  140.3427  155.6075 H   0  0  0  0  0  0  0  0  0  0  0  0  # atno 8009 bound_to 7997
  155.7338  140.0783  157.2268 H   0  0  0  0  0  0  0  0  0  0  0  0  # atno 8010 bound_to 7997
  140.4353  143.2533  151.8702 H   0  0  0  0  0  0  0  0  0  0  0  0  # atno 10167 bound_to 10162
  157.6899  131.0135  150.2679 H   0  0  0  0  0  0  0  0  0  0  0  0  # atno 10718 bound_to 10713
  154.8401  135.3424  154.6443 H   0  0  0  0  0  0  0  0  0  0  0  0  # atno 10763 bound_to 10752
  153.7054  135.6967  153.5056 H   0  0  0  0  0  0  0  0  0  0  0  0  # atno 10764 bound_to 10752
  153.2491  135.4359  155.0733 H   0  0  0  0  0  0  0  0  0  0  0  0  # atno 10765 bound_to 10752
  140.7196  134.3742  157.5185 H   0  0  0  0  0  0  0  0  0  0  0  0  # atno 11005 bound_to 11000
  144.6795  139.9998  143.7484 LP  0  0  0  0  0  0  0  0  0  0  0  0  # atno 17320 bound_to 7965
  146.0067  139.3136  143.0895 LP  0  0  0  0  0  0  0  0  0  0  0  0  # atno 17321 bound_to 7965
  139.4786  144.5289  151.8695 LP  0  0  0  0  0  0  0  0  0  0  0  0  # atno 17342 bound_to 10162
  140.4380  144.2025  150.5890 LP  0  0  0  0  0  0  0  0  0  0  0  0  # atno 17343 bound_to 10162
  156.3247  130.3791  149.7544 LP  0  0  0  0  0  0  0  0  0  0  0  0  # atno 17370 bound_to 10713
  156.5103  130.8169  151.3166 LP  0  0  0  0  0  0  0  0  0  0  0  0  # atno 17371 bound_to 10713
  139.8851  134.8945  156.2661 LP  0  0  0  0  0  0  0  0  0  0  0  0  # atno 17394 bound_to 11000
  141.0015  133.7148  156.0968 LP  0  0  0  0  0  0  0  0  0  0  0  0  # atno 17395 bound_to 11000

$$$$
