AV-unprocessed.smi:1255|AV-procd|sdf|5282|dock5
  -GOLD-   22720 4403D 1   1.00000     0.00000
 Structure written by MMmdl.
 40 41  0  0  0  0  0  0  0  0  1 V2000
  146.6043  139.2218  151.3521 C   0  0  0  0  0  0  0  0  0  0  0  0
  146.2141  138.6906  152.7416 C   0  0  1  0  0  0  0  0  0  0  0  0
  146.6671  137.3036  152.8401 N   0  0  0  0  0  0  0  0  0  0  0  0
  146.1680  136.3899  153.6855 C   0  0  0  0  0  0  0  0  0  0  0  0
  146.7872  135.2137  153.5853 N   0  0  0  0  0  0  0  0  0  0  0  0
  145.2461  136.5980  154.4719 O   0  0  0  0  0  0  0  0  0  0  0  0
  146.9097  139.5641  153.7992 C   0  0  0  0  0  0  0  0  0  0  0  0
  146.2621  140.4037  154.4263 O   0  0  0  0  0  0  0  0  0  0  0  0
  148.2254  139.3350  153.9642 N   0  0  0  0  0  0  0  0  0  0  0  0
  149.1331  139.9688  154.8557 C   0  0  0  0  0  0  0  0  0  0  0  0
  150.5006  139.6309  154.9772 C   0  0  0  0  0  0  0  0  0  0  0  0
  151.3029  140.3484  155.8852 C   0  0  0  0  0  0  0  0  0  0  0  0
  150.7258  141.3909  156.6483 C   0  0  0  0  0  0  0  0  0  0  0  0
  151.5122  142.1217  157.5663 N   0  0  0  0  0  0  0  0  0  0  0  0
  151.0624  143.4611  157.9423 C   0  0  0  0  0  0  0  0  0  0  0  0
  152.1743  144.2079  158.6979 C   0  0  0  0  0  0  0  0  0  0  0  0
  152.5915  143.4367  159.8192 O   0  0  0  0  0  0  0  0  0  0  0  0
  153.1299  142.1792  159.4247 C   0  0  0  0  0  0  0  0  0  0  0  0
  152.0578  141.3584  158.6866 C   0  0  0  0  0  0  0  0  0  0  0  0
  149.4189  141.7250  156.5130 N   0  0  0  0  0  0  0  0  0  0  0  0
  148.6531  141.0346  155.6423 C   0  0  0  0  0  0  0  0  0  0  0  0
  146.2865  140.2570  151.2202 H   0  0  0  0  0  0  0  0  0  0  0  0
  146.1299  138.6355  150.5646 H   0  0  0  0  0  0  0  0  0  0  0  0
  147.6824  139.1813  151.1879 H   0  0  0  0  0  0  0  0  0  0  0  0
  145.1297  138.7381  152.8604 H   0  0  0  0  0  0  0  0  0  0  0  0
  147.4307  137.0316  152.2386 H   0  0  0  0  0  0  0  0  0  0  0  0
  146.5017  134.4371  154.1634 H   0  0  0  0  0  0  0  0  0  0  0  0
  147.5400  135.1038  152.9214 H   0  0  0  0  0  0  0  0  0  0  0  0
  148.6390  138.6705  153.3262 H   0  0  0  0  0  0  0  0  0  0  0  0
  150.9549  138.8530  154.3839 H   0  0  0  0  0  0  0  0  0  0  0  0
  152.3509  140.1031  155.9693 H   0  0  0  0  0  0  0  0  0  0  0  0
  150.7853  144.0309  157.0545 H   0  0  0  0  0  0  0  0  0  0  0  0
  150.1740  143.3804  158.5700 H   0  0  0  0  0  0  0  0  0  0  0  0
  153.0241  144.4077  158.0428 H   0  0  0  0  0  0  0  0  0  0  0  0
  151.8081  145.1735  159.0468 H   0  0  0  0  0  0  0  0  0  0  0  0
  154.0070  142.3289  158.7932 H   0  0  0  0  0  0  0  0  0  0  0  0
  153.4659  141.6439  160.3128 H   0  0  0  0  0  0  0  0  0  0  0  0
  151.2449  141.1074  159.3692 H   0  0  0  0  0  0  0  0  0  0  0  0
  152.4982  140.4177  158.3600 H   0  0  0  0  0  0  0  0  0  0  0  0
  147.6202  141.3436  155.5756 H   0  0  0  0  0  0  0  0  0  0  0  0
  1  2  1  0  0  0  0
  1 22  1  0  0  0  0
  1 23  1  0  0  0  0
  1 24  1  0  0  0  0
  2  3  1  0  0  0  0
  2  7  1  0  0  0  0
  2 25  1  0  0  0  0
  3  4  1  0  0  0  0
  3 26  1  0  0  0  0
  4  5  1  0  0  0  0
  4  6  2  0  0  0  0
  5 27  1  0  0  0  0
  5 28  1  0  0  0  0
  7  8  2  0  0  0  0
  7  9  1  0  0  0  0
  9 10  1  0  0  0  0
  9 29  1  0  0  0  0
 10 21  1  0  0  0  0
 10 11  2  0  0  0  0
 11 12  1  0  0  0  0
 11 30  1  0  0  0  0
 12 13  2  0  0  0  0
 12 31  1  0  0  0  0
 13 14  1  0  0  0  0
 13 20  1  0  0  0  0
 14 19  1  0  0  0  0
 14 15  1  0  0  0  0
 15 16  1  0  0  0  0
 15 32  1  0  0  0  0
 15 33  1  0  0  0  0
 16 17  1  0  0  0  0
 16 34  1  0  0  0  0
 16 35  1  0  0  0  0
 17 18  1  0  0  0  0
 18 19  1  0  0  0  0
 18 36  1  0  0  0  0
 18 37  1  0  0  0  0
 19 38  1  0  0  0  0
 19 39  1  0  0  0  0
 20 21  2  0  0  0  0
 21 40  1  0  0  0  0
M  END
> <s_m_source_file>
AV-unprocessed.smi

> <i_m_source_file_index>
1255

> <i_lp_mmshare_version>
43012

> <i_f3d_flags>
0

> <s_epik_input>
W05IMl1DKD1PKVtOSF1bQ0BASF0oW0NIM10pQyg9TylbTkhdYzFbY0hdW2NIXWMobltjSF0xKU4yW0NIMl1bQ0gyXU9bQ0gyXVtDSDJdMg==

> <s_epik_cmdline>
J2VwaWtfcHl0aG9uJywgJy1waCcsICc3LjAnLCAnLXRuJywgJzgnLCAnLW1hJywgJzIwMCcsICctbWV0YWxfYmluZGluZycsICctaW1hZScsICc8aW5maWxlLm1hZT4nLCAnLW9tYWUnLCAnPG91dGZpbGUubWFlPic=

> <r_lp_tautomer_probability>
1

> <r_epik_Ionization_Penalty>
0.00069351

> <r_epik_Ionization_Penalty_Charging>
0

> <r_epik_Ionization_Penalty_Neutral>
0.00069351

> <r_epik_State_Penalty>
0.000408291

> <r_epik_Charging_Adjusted_Penalty>
0.000408291

> <i_epik_Tot_Q>
0

> <i_epik_Tot_abs_Q>
0

> <r_epik_Metal_State_Penalty>
-0

> <b_epik_Metal_Only>
0

> <s_lp_Force_Field>
OPLS_2005

> <r_lp_Energy>
18.2011

> <b_lp_Chiralities_Consistent>
1

> <s_lp_Variant>
AV-unprocessed.smi:1255-2

> <Gold.Version>
5.8.1

> <Gold.Id.Protein>
6NUR|6NUR_protein|mol2

> <Gold.PLP.Fitness>
38.1322

> <Gold.PLP.PLP>
-34.4786

> <Gold.PLP.part.hbond>
-2.5535

> <Gold.PLP.part.metal>
0.0000

> <Gold.PLP.part.buried>
-0.0803

> <Gold.PLP.part.nonpolar>
-31.9784

> <Gold.PLP.part.repulsive>
0.6563

> <Gold.PLP.ligand.clash>
0.0000

> <Gold.PLP.ligand.torsion>
1.0999

> <Gold.PLP.Chemscore.Hbond>
1.8320

> <Gold.PLP.Chemscore.CHOScore>
0.0000

> <Gold.PLP.Chemscore.Metal>
0.0000

> <Gold.Chemscore.Hbonds>
donor molecule, donor type, donor heavy atom, donor atom, acceptor molecule, acceptor atom, score
      L1  H     3    26       P1  7948  1.00
      L1  H     5    28       P1  7948  0.76

> <Gold.PLP.Chemscore.Internal.Correction>
0.3575

> <Gold.Rescore>
     Score         DG    S(hbond)    S(metal)    S(lipo)     H(rot)  DE(clash)    DE(int)     intcor
     13.97     -16.47       1.84        0.00      83.03       1.91       0.14       2.36       ----

> <Gold.Chemscore.Fitness>
13.9675

> <Gold.Chemscore.DG>
-16.4655

> <Gold.Chemscore.ZeroCoef>
-5.4800

> <Gold.Chemscore.Hbond>
1.8420

> <Gold.Chemscore.Metal>
0.0000

> <Gold.Chemscore.Lipo>
83.0276

> <Gold.Chemscore.Internal_Hbond>
0.0000

> <Gold.Chemscore.DEClash>
0.1388

> <Gold.Chemscore.DEInternal>
2.3591

> <Gold.Chemscore.Rot>
1.9067

> <Gold.Chemscore.Internal.Correction>
   9.000000E+99

> <Gold.Chemscore.Hbonds>
donor molecule, donor type, donor heavy atom, donor atom, acceptor molecule, acceptor atom, score
      L1  H     3    26       P1  7948  0.99
      L1  H     5    28       P1  7948  0.71

> <Gold.Chemscore.Hbond.Weighted>
-6.1524

> <Gold.Chemscore.Metal.Weighted>
-0.0000

> <Gold.Chemscore.Lipo.Weighted>
-9.7142

> <Gold.Chemscore.Internal_Hbond.Weighted>
0.0000

> <Gold.Chemscore.DEClash.Weighted>
0.1388

> <Gold.Chemscore.DEInternal.Weighted>
2.3591

> <Gold.Chemscore.Rot.Weighted>
4.8811

> <Gold.Chemscore.Internal.Correction.Weighted>
   9.000000E+99

> <Gold.Protein.RotatedTorsions>
[ 6907 6896 6895 6894 ] final    9.82 input  -60.11 | X-H torsion
[ 7974 7965 7964 7962 ] final  161.79 input  175.53 | X-H torsion
[ 8008 7997 7996 7995 ] final   68.18 input   59.86 | X-H torsion
[ 10167 10162 10161 10158 ] final -101.91 input  -65.29 | X-H torsion
[ 10718 10713 10712 10709 ] final -119.93 input   66.30 | X-H torsion
[ 10763 10752 10751 10750 ] final  153.12 input  -60.55 | X-H torsion
[ 11005 11000 10999 10996 ] final  -28.60 input  -57.11 | X-H torsion

> <Gold.Protein.ActiveResidues>
 VAL166  LYS551  ARG553  GLY616  TRP617  ASP618  TYR619  PRO620  LYS621  CYS622 
 ASP623  PHE694  ASN695  SER759  ASP760  ASP761  ALA762  ILE779  LEU786  VAL792 
 PHE793  MET794  SER795  GLU796  ALA797  LYS798  CYS799  TRP800  GLU811  SER814 

> <Gold.Protein.RotatedAtoms>
  151.7283  135.0880  160.0295 H   0  0  0  0  0  0  0  0  0  0  0  0  # atno 6907 bound_to 6896
  152.3557  133.6230  159.5986 H   0  0  0  0  0  0  0  0  0  0  0  0  # atno 6908 bound_to 6896
  150.7570  133.9419  159.3500 H   0  0  0  0  0  0  0  0  0  0  0  0  # atno 6909 bound_to 6896
  144.7668  139.7948  143.6312 H   0  0  0  0  0  0  0  0  0  0  0  0  # atno 7974 bound_to 7965
  155.7044  140.3495  155.4947 H   0  0  0  0  0  0  0  0  0  0  0  0  # atno 8008 bound_to 7997
  155.9412  140.1102  157.1076 H   0  0  0  0  0  0  0  0  0  0  0  0  # atno 8009 bound_to 7997
  154.4103  140.1212  156.4916 H   0  0  0  0  0  0  0  0  0  0  0  0  # atno 8010 bound_to 7997
  140.2363  143.3571  152.0842 H   0  0  0  0  0  0  0  0  0  0  0  0  # atno 10167 bound_to 10162
  156.1219  130.6329  150.9477 H   0  0  0  0  0  0  0  0  0  0  0  0  # atno 10718 bound_to 10713
  154.1310  135.2826  155.3185 H   0  0  0  0  0  0  0  0  0  0  0  0  # atno 10763 bound_to 10752
  154.6355  135.5420  153.7733 H   0  0  0  0  0  0  0  0  0  0  0  0  # atno 10764 bound_to 10752
  153.0281  135.6473  154.1460 H   0  0  0  0  0  0  0  0  0  0  0  0  # atno 10765 bound_to 10752
  140.9223  133.7391  156.0818 H   0  0  0  0  0  0  0  0  0  0  0  0  # atno 11005 bound_to 11000
  146.1782  139.4963  142.9883 LP  0  0  0  0  0  0  0  0  0  0  0  0  # atno 17320 bound_to 7965
  145.6445  141.0277  143.1794 LP  0  0  0  0  0  0  0  0  0  0  0  0  # atno 17321 bound_to 7965
  139.5092  144.6864  151.5876 LP  0  0  0  0  0  0  0  0  0  0  0  0  # atno 17342 bound_to 10162
  140.6147  143.9370  150.6480 LP  0  0  0  0  0  0  0  0  0  0  0  0  # atno 17343 bound_to 10162
  157.6402  131.0911  150.8267 LP  0  0  0  0  0  0  0  0  0  0  0  0  # atno 17370 bound_to 10713
  156.8362  130.5032  149.5326 LP  0  0  0  0  0  0  0  0  0  0  0  0  # atno 17371 bound_to 10713
  140.7972  134.3551  157.5449 LP  0  0  0  0  0  0  0  0  0  0  0  0  # atno 17394 bound_to 11000
  139.8778  134.9176  156.3181 LP  0  0  0  0  0  0  0  0  0  0  0  0  # atno 17395 bound_to 11000

$$$$
