#       Name:                AV-unprocessed.smi:1759
#       Creating user name   scv26
#       Creation time:       Fri Mar 27 08:30:32 2020


#       File generated by GOLD software.
#

@<TRIPOS>MOLECULE
AV-unprocessed.smi:1759
    38    39     1
SMALL
NO_CHARGES


@<TRIPOS>ATOM
      1 ****        -6.0763  -2.2436  -0.8602 C.3            1 S1                 0.0000
      2 ****        -4.7629  -1.5403  -0.8600 C.2            1 S1                 0.0000
      3 ****        -3.4702  -1.9834  -0.8636 C.2            1 S1                 0.0000
      4 ****        -2.7193  -0.7780  -0.8637 C.2            1 S1                 0.0000
      5 ****        -1.3016  -0.8042  -0.8729 N.am           1 S1                 0.0000
      6 ****        -0.4633   0.2458  -0.8616 C.2            1 S1                 0.0000
      7 ****        -0.8065   1.4274  -0.8140 O.2            1 S1                 0.0000
      8 ****         0.8161  -0.1520  -0.9031 N.am           1 S1                 0.0000
      9 ****         1.9689   0.7405  -0.8764 C.3            1 S1                 0.0000
     10 ****         2.3403   1.1338   0.5626 C.3            1 S1                 0.0000
     11 ****         3.4929   2.1338   0.6456 C.3            1 S1                 0.0000
     12 ****         4.0747   1.8230   2.0053 C.3            1 S1                 0.0000
     13 ****         3.9491   0.3044   2.0491 C.3            1 S1                 0.0000
     14 ****         2.7818  -0.0090   1.2946 O.3            1 S1                 0.0000
     15 ****        -3.4842   0.3031  -0.8594 N.2            1 S1                 0.0000
     16 ****        -4.7981  -0.1800  -0.8569 O.3            1 S1                 0.0000
     17 ****        -5.9394  -3.3251  -0.8604 H              1 S1                 0.0000
     18 ****        -6.6569  -1.9759  -1.7431 H              1 S1                 0.0000
     19 ****        -6.6577  -1.9760   0.0221 H              1 S1                 0.0000
     20 ****        -3.1212  -3.0054  -0.8668 H              1 S1                 0.0000
     21 ****        -0.8804  -1.7209  -0.8975 H              1 S1                 0.0000
     22 ****         1.0091  -1.1424  -0.9353 H              1 S1                 0.0000
     23 ****         2.8079   0.2354  -1.3556 H              1 S1                 0.0000
     24 ****         1.7648   1.6324  -1.4717 H              1 S1                 0.0000
     25 ****         1.4758   1.5504   1.0823 H              1 S1                 0.0000
     26 ****         4.2345   1.9347  -0.1296 H              1 S1                 0.0000
     27 ****         3.1642   3.1686   0.5465 H              1 S1                 0.0000
     28 ****         5.1011   2.1709   2.1244 H              1 S1                 0.0000
     29 ****         3.4643   2.2753   2.7881 H              1 S1                 0.0000
     30 ****         4.8082  -0.1612   1.5646 H              1 S1                 0.0000
     31 ****         3.8843  -0.0807   3.0670 H              1 S1                 0.0000
     32 ****        -1.7772   1.6651  -0.7800 LP             1 S1                 0.0000
     33 ****        -0.1145   2.1492  -0.8094 LP             1 S1                 0.0000
     34 ****         2.9915  -0.7489   0.6553 LP             1 S1                 0.0000
     35 ****         2.0561  -0.3021   1.9170 LP             1 S1                 0.0000
     36 ****        -3.1874   1.2580  -0.8582 LP             1 S1                 0.0000
     37 ****        -5.2736   0.1424  -0.0384 LP             1 S1                 0.0000
     38 ****        -5.2780   0.1460  -1.6714 LP             1 S1                 0.0000
@<TRIPOS>BOND
    1    1    2 1     
    2    1   17 1     
    3    1   18 1     
    4    1   19 1     
    5    2   16 1     
    6    2    3 2     
    7    3    4 1     
    8    3   20 1     
    9    4    5 1     
   10    4   15 2     
   11    5    6 am    
   12    5   21 1     
   13    6    7 2     
   14    6    8 am    
   15    8    9 1     
   16    8   22 1     
   17    9   10 1     
   18    9   23 1     
   19    9   24 1     
   20   10   14 1     
   21   10   11 1     
   22   10   25 1     
   23   11   12 1     
   24   11   26 1     
   25   11   27 1     
   26   12   13 1     
   27   12   28 1     
   28   12   29 1     
   29   13   14 1     
   30   13   30 1     
   31   13   31 1     
   32   15   16 1     
   33    7   32 1     
   34    7   33 1     
   35   14   34 1     
   36   14   35 1     
   37   15   36 1     
   38   16   37 1     
   39   16   38 1     
@<TRIPOS>SUBSTRUCTURE
      1 S1             1
@<TRIPOS>SET
LONE_PAIRS      STATIC     ATOMS    <user>   **** ""
7 32 33 34 35 36 37 38
DONOR_HYDROGENS      STATIC     ATOMS    <user>   **** ""
2 21 22
ATOM$BLUE        STATIC     ATOMS    COLORGROUP SYSTEM
7 32 33 34 35 36 37 38
ATOM$RED        STATIC     ATOMS    COLORGROUP SYSTEM
2 21 22
