#       Name:                AV-unprocessed.smi:1710
#       Creating user name   scv26
#       Creation time:       Fri Mar 27 08:10:21 2020


#       File generated by GOLD software.
#

@<TRIPOS>MOLECULE
AV-unprocessed.smi:1710
    39    40     1
SMALL
NO_CHARGES


@<TRIPOS>ATOM
      1 ****        -3.0268   2.8890   0.5781 C.3            1 S1                 0.0000
      2 ****        -4.3071   1.5692   0.5360 S.o2           1 S1                 0.0000
      3 ****        -5.0128   1.5736   1.8267 O.2            1 S1                 0.0000
      4 ****        -5.0710   1.7106  -0.7130 O.2            1 S1                 0.0000
      5 ****        -3.3909   0.0929   0.4355 N.pl3          1 S1                 0.0000
      6 ****        -2.7778  -0.3094  -0.8466 C.3            1 S1                 0.0000
      7 ****        -1.2691  -0.0077  -0.8776 C.3            1 S1                 0.0000
      8 ****        -0.5485  -0.6291   0.3303 C.3            1 S1                 0.0000
      9 ****         0.8690  -0.2783   0.3250 N.am           1 S1                 0.0000
     10 ****         1.8230  -0.9372  -0.3483 C.2            1 S1                 0.0000
     11 ****         1.6038  -1.9294  -1.0434 O.2            1 S1                 0.0000
     12 ****         3.0280  -0.3715  -0.1690 N.am           1 S1                 0.0000
     13 ****         4.2670  -0.7979  -0.7109 C.2            1 S1                 0.0000
     14 ****         5.5060  -0.1260  -0.5264 C.2            1 S1                 0.0000
     15 ****         6.4947  -0.7559  -1.1449 N.2            1 S1                 0.0000
     16 ****         5.8992  -1.8249  -1.7201 N.pl3          1 S1                 0.0000
     17 ****         4.5442  -1.8919  -1.4819 C.2            1 S1                 0.0000
     18 ****        -1.2080  -0.1312   1.6242 C.3            1 S1                 0.0000
     19 ****        -2.7158  -0.4390   1.6364 C.3            1 S1                 0.0000
     20 ****         6.4252  -2.4938  -2.2646 H              1 S1                 0.0000
     21 ****        -3.5194   3.8596   0.6303 H              1 S1                 0.0000
     22 ****        -2.4214   2.8482  -0.3254 H              1 S1                 0.0000
     23 ****        -2.3964   2.7658   1.4569 H              1 S1                 0.0000
     24 ****        -2.9368  -1.3797  -0.9822 H              1 S1                 0.0000
     25 ****        -3.2794   0.1829  -1.6791 H              1 S1                 0.0000
     26 ****        -0.8441  -0.3922  -1.8055 H              1 S1                 0.0000
     27 ****        -1.1056   1.0695  -0.8932 H              1 S1                 0.0000
     28 ****        -0.6521  -1.7153   0.2893 H              1 S1                 0.0000
     29 ****         1.1408   0.5271   0.8698 H              1 S1                 0.0000
     30 ****         3.0634   0.4517   0.4142 H              1 S1                 0.0000
     31 ****         5.7164   0.7793   0.0238 H              1 S1                 0.0000
     32 ****         3.9278  -2.6886  -1.8708 H              1 S1                 0.0000
     33 ****        -0.7353  -0.6014   2.4874 H              1 S1                 0.0000
     34 ****        -1.0465   0.9406   1.7356 H              1 S1                 0.0000
     35 ****        -3.1774  -0.0415   2.5399 H              1 S1                 0.0000
     36 ****        -2.8664  -1.5187   1.6645 H              1 S1                 0.0000
     37 ****         0.6729  -2.2847  -1.1282 LP             1 S1                 0.0000
     38 ****         2.3566  -2.3800  -1.5232 LP             1 S1                 0.0000
     39 ****         7.4606  -0.4991  -1.1785 LP             1 S1                 0.0000
@<TRIPOS>BOND
    1    1    2 1     
    2    1   21 1     
    3    1   22 1     
    4    1   23 1     
    5    2    3 2     
    6    2    4 2     
    7    2    5 1     
    8    5   19 1     
    9    5    6 1     
   10    6    7 1     
   11    6   24 1     
   12    6   25 1     
   13    7    8 1     
   14    7   26 1     
   15    7   27 1     
   16    8    9 1     
   17    8   18 1     
   18    8   28 1     
   19    9   10 am    
   20    9   29 1     
   21   10   11 2     
   22   10   12 am    
   23   12   13 1     
   24   12   30 1     
   25   13   17 2     
   26   13   14 1     
   27   14   15 2     
   28   14   31 1     
   29   15   16 1     
   30   16   20 1     
   31   16   17 1     
   32   17   32 1     
   33   18   19 1     
   34   18   33 1     
   35   18   34 1     
   36   19   35 1     
   37   19   36 1     
   38   11   37 1     
   39   11   38 1     
   40   15   39 1     
@<TRIPOS>SUBSTRUCTURE
      1 S1             1
@<TRIPOS>SET
LONE_PAIRS      STATIC     ATOMS    <user>   **** ""
5 3 4 37 38 39
DONOR_HYDROGENS      STATIC     ATOMS    <user>   **** ""
3 29 30 20
ATOM$BLUE        STATIC     ATOMS    COLORGROUP SYSTEM
5 3 4 37 38 39
ATOM$RED        STATIC     ATOMS    COLORGROUP SYSTEM
3 29 30 20
