AV-unprocessed.smi:2896|AV-procd|sdf|11138|dock4
  -GOLD-   2272016 13D 1   1.00000     0.00000
 Structure written by MMmdl.
 49 50  0  0  0  0  0  0  0  0  1 V2000
  152.2363  140.0235  156.7262 C   0  0  0  0  0  0  0  0  0  0  0  0
  151.6008  140.6553  157.9776 C   0  0  2  0  0  0  0  0  0  0  0  0
  150.6015  141.7785  157.6184 C   0  0  0  0  0  0  0  0  0  0  0  0
  149.7804  141.4411  156.4591 N   0  0  0  0  0  0  0  0  0  0  0  0
  148.4378  141.3749  156.4349 C   0  0  0  0  0  0  0  0  0  0  0  0
  147.7508  141.5924  157.4342 O   0  0  0  0  0  0  0  0  0  0  0  0
  147.7498  140.9927  155.0990 C   0  0  0  0  0  0  0  0  0  0  0  0
  148.8525  140.8450  154.0207 C   0  0  0  0  0  0  0  0  0  0  0  0
  147.0183  139.6282  155.1817 C   0  0  0  0  0  0  0  0  0  0  0  0
  146.7318  142.1014  154.7688 C   0  0  0  0  0  0  0  0  0  0  0  0
  146.8340  142.8308  153.5591 C   0  0  0  0  0  0  0  0  0  0  0  0
  145.8960  143.8400  153.2725 C   0  0  0  0  0  0  0  0  0  0  0  0
  144.8778  144.0917  154.2102 C   0  0  0  0  0  0  0  0  0  0  0  0
  144.7588  143.4120  155.3687 N   0  0  0  0  0  0  0  0  0  0  0  0
  145.6626  142.4446  155.6345 C   0  0  0  0  0  0  0  0  0  0  0  0
  152.7117  141.1736  158.9180 C   0  0  0  0  0  0  0  0  0  0  0  0
  152.2614  141.9224  160.0930 N   0  0  0  0  0  0  0  0  0  0  0  0
  153.1971  141.8399  161.2131 C   0  0  0  0  0  0  0  0  0  0  0  0
  152.7152  142.6571  162.4246 C   0  0  0  0  0  0  0  0  0  0  0  0
  152.5031  144.0107  162.0378 O   0  0  0  0  0  0  0  0  0  0  0  0
  151.5602  144.1364  160.9787 C   0  0  0  0  0  0  0  0  0  0  0  0
  152.0421  143.3268  159.7628 C   0  0  0  0  0  0  0  0  0  0  0  0
  152.7555  140.7715  156.1259 H   0  0  0  0  0  0  0  0  0  0  0  0
  151.4895  139.5467  156.0914 H   0  0  0  0  0  0  0  0  0  0  0  0
  152.9603  139.2550  156.9983 H   0  0  0  0  0  0  0  0  0  0  0  0
  151.0544  139.8584  158.4814 H   0  0  0  0  0  0  0  0  0  0  0  0
  149.9162  141.9456  158.4496 H   0  0  0  0  0  0  0  0  0  0  0  0
  151.1279  142.7230  157.4708 H   0  0  0  0  0  0  0  0  0  0  0  0
  150.2731  141.2437  155.6001 H   0  0  0  0  0  0  0  0  0  0  0  0
  149.4291  141.7607  153.8832 H   0  0  0  0  0  0  0  0  0  0  0  0
  148.4295  140.5742  153.0525 H   0  0  0  0  0  0  0  0  0  0  0  0
  149.5620  140.0603  154.2873 H   0  0  0  0  0  0  0  0  0  0  0  0
  146.2297  139.6151  155.9345 H   0  0  0  0  0  0  0  0  0  0  0  0
  147.7089  138.8175  155.4188 H   0  0  0  0  0  0  0  0  0  0  0  0
  146.5491  139.3820  154.2285 H   0  0  0  0  0  0  0  0  0  0  0  0
  147.6207  142.6206  152.8497 H   0  0  0  0  0  0  0  0  0  0  0  0
  145.9548  144.4063  152.3548 H   0  0  0  0  0  0  0  0  0  0  0  0
  144.1400  144.8579  154.0245 H   0  0  0  0  0  0  0  0  0  0  0  0
  145.5074  141.9432  156.5769 H   0  0  0  0  0  0  0  0  0  0  0  0
  153.3262  140.3339  159.2463 H   0  0  0  0  0  0  0  0  0  0  0  0
  153.3738  141.8086  158.3275 H   0  0  0  0  0  0  0  0  0  0  0  0
  153.3257  140.8048  161.5265 H   0  0  0  0  0  0  0  0  0  0  0  0
  154.1794  142.1989  160.9027 H   0  0  0  0  0  0  0  0  0  0  0  0
  151.7921  142.2390  162.8292 H   0  0  0  0  0  0  0  0  0  0  0  0
  153.4573  142.6261  163.2222 H   0  0  0  0  0  0  0  0  0  0  0  0
  150.5804  143.7895  161.3106 H   0  0  0  0  0  0  0  0  0  0  0  0
  151.4564  145.1891  160.7165 H   0  0  0  0  0  0  0  0  0  0  0  0
  152.9657  143.7659  159.3824 H   0  0  0  0  0  0  0  0  0  0  0  0
  151.3053  143.4086  158.9629 H   0  0  0  0  0  0  0  0  0  0  0  0
  1  2  1  0  0  0  0
  1 23  1  0  0  0  0
  1 24  1  0  0  0  0
  1 25  1  0  0  0  0
  2  3  1  0  0  0  0
  2 16  1  0  0  0  0
  2 26  1  0  0  0  0
  3  4  1  0  0  0  0
  3 27  1  0  0  0  0
  3 28  1  0  0  0  0
  4  5  1  0  0  0  0
  4 29  1  0  0  0  0
  5  6  2  0  0  0  0
  5  7  1  0  0  0  0
  7  8  1  0  0  0  0
  7  9  1  0  0  0  0
  7 10  1  0  0  0  0
  8 30  1  0  0  0  0
  8 31  1  0  0  0  0
  8 32  1  0  0  0  0
  9 33  1  0  0  0  0
  9 34  1  0  0  0  0
  9 35  1  0  0  0  0
 10 15  1  0  0  0  0
 10 11  2  0  0  0  0
 11 12  1  0  0  0  0
 11 36  1  0  0  0  0
 12 13  2  0  0  0  0
 12 37  1  0  0  0  0
 13 14  1  0  0  0  0
 13 38  1  0  0  0  0
 14 15  2  0  0  0  0
 15 39  1  0  0  0  0
 16 17  1  0  0  0  0
 16 40  1  0  0  0  0
 16 41  1  0  0  0  0
 17 22  1  0  0  0  0
 17 18  1  0  0  0  0
 18 19  1  0  0  0  0
 18 42  1  0  0  0  0
 18 43  1  0  0  0  0
 19 20  1  0  0  0  0
 19 44  1  0  0  0  0
 19 45  1  0  0  0  0
 20 21  1  0  0  0  0
 21 22  1  0  0  0  0
 21 46  1  0  0  0  0
 21 47  1  0  0  0  0
 22 48  1  0  0  0  0
 22 49  1  0  0  0  0
M  END
> <s_m_source_file>
AV-unprocessed.smi

> <i_m_source_file_index>
2896

> <i_lp_mmshare_version>
43012

> <i_f3d_flags>
0

> <s_epik_input>
W0NIMl0xW0NIMl1PW0NIMl1bQ0gyXU4xW0NIMl1bQ0BIXShbQ0gzXSlbQ0gyXVtOSF1DKD1PKUMoW0NIM10pKFtDSDNdKWMyW2NIXVtjSF1bY0hdbltjSF0y

> <s_epik_cmdline>
J2VwaWtfcHl0aG9uJywgJy1waCcsICc3LjAnLCAnLXRuJywgJzgnLCAnLW1hJywgJzIwMCcsICctbWV0YWxfYmluZGluZycsICctaW1hZScsICc8aW5maWxlLm1hZT4nLCAnLW9tYWUnLCAnPG91dGZpbGUubWFlPic=

> <r_epik_Ionization_Penalty>
0.458454

> <r_epik_Ionization_Penalty_Charging>
0

> <r_epik_Ionization_Penalty_Neutral>
0.458454

> <r_epik_State_Penalty>
0.453234

> <r_epik_Charging_Adjusted_Penalty>
0.453234

> <i_epik_Tot_Q>
0

> <i_epik_Tot_abs_Q>
0

> <r_epik_Metal_State_Penalty>
0.448418

> <b_epik_Metal_Only>
0

> <s_lp_Force_Field>
OPLS_2005

> <r_lp_Energy>
34.6302

> <b_lp_Chiralities_Consistent>
1

> <s_lp_Variant>
AV-unprocessed.smi:2896-3

> <Gold.Version>
5.8.1

> <Gold.Id.Protein>
6NUR|6NUR_protein|mol2

> <Gold.PLP.Fitness>
37.9468

> <Gold.PLP.PLP>
-41.5694

> <Gold.PLP.part.hbond>
0.0000

> <Gold.PLP.part.metal>
0.0000

> <Gold.PLP.part.buried>
-5.8728

> <Gold.PLP.part.nonpolar>
-35.3315

> <Gold.PLP.part.repulsive>
0.4253

> <Gold.PLP.ligand.clash>
2.6455

> <Gold.PLP.ligand.torsion>
0.5677

> <Gold.PLP.Chemscore.Hbond>
0.0000

> <Gold.PLP.Chemscore.CHOScore>
0.0000

> <Gold.PLP.Chemscore.Metal>
0.0000

> <Gold.PLP.Chemscore.Internal.Correction>
0.1585

> <Gold.Rescore>
     Score         DG    S(hbond)    S(metal)    S(lipo)     H(rot)  DE(clash)    DE(int)     intcor
     11.33     -13.88       0.00        0.00     108.60       1.68       0.12       2.43       ----

> <Gold.Chemscore.Fitness>
11.3254

> <Gold.Chemscore.DG>
-13.8778

> <Gold.Chemscore.ZeroCoef>
-5.4800

> <Gold.Chemscore.Hbond>
0.0000

> <Gold.Chemscore.Metal>
0.0000

> <Gold.Chemscore.Lipo>
108.6050

> <Gold.Chemscore.Internal_Hbond>
0.0000

> <Gold.Chemscore.DEClash>
0.1235

> <Gold.Chemscore.DEInternal>
2.4290

> <Gold.Chemscore.Rot>
1.6832

> <Gold.Chemscore.Internal.Correction>
   9.000000E+99

> <Gold.Chemscore.Hbond.Weighted>
-0.0000

> <Gold.Chemscore.Metal.Weighted>
-0.0000

> <Gold.Chemscore.Lipo.Weighted>
-12.7068

> <Gold.Chemscore.Internal_Hbond.Weighted>
0.0000

> <Gold.Chemscore.DEClash.Weighted>
0.1235

> <Gold.Chemscore.DEInternal.Weighted>
2.4290

> <Gold.Chemscore.Rot.Weighted>
4.3090

> <Gold.Chemscore.Internal.Correction.Weighted>
   9.000000E+99

> <Gold.Protein.RotatedTorsions>
[ 6907 6896 6895 6894 ] final  -55.10 input  -60.11 | X-H torsion
[ 7974 7965 7964 7962 ] final  114.81 input  175.53 | X-H torsion
[ 8008 7997 7996 7995 ] final -109.41 input   59.86 | X-H torsion
[ 10167 10162 10161 10158 ] final   71.42 input  -65.29 | X-H torsion
[ 10718 10713 10712 10709 ] final -131.60 input   66.30 | X-H torsion
[ 10763 10752 10751 10750 ] final  -19.01 input  -60.55 | X-H torsion
[ 11005 11000 10999 10996 ] final   32.70 input  -57.11 | X-H torsion

> <Gold.Protein.ActiveResidues>
 VAL166  LYS551  ARG553  GLY616  TRP617  ASP618  TYR619  PRO620  LYS621  CYS622 
 ASP623  PHE694  ASN695  SER759  ASP760  ASP761  ALA762  ILE779  LEU786  VAL792 
 PHE793  MET794  SER795  GLU796  ALA797  LYS798  CYS799  TRP800  GLU811  SER814 

> <Gold.Protein.RotatedAtoms>
  150.8281  134.7521  159.6829 H   0  0  0  0  0  0  0  0  0  0  0  0  # atno 6907 bound_to 6896
  152.4389  134.5628  159.9909 H   0  0  0  0  0  0  0  0  0  0  0  0  # atno 6908 bound_to 6896
  151.5795  133.3342  159.3041 H   0  0  0  0  0  0  0  0  0  0  0  0  # atno 6909 bound_to 6896
  145.1998  139.2958  143.4324 H   0  0  0  0  0  0  0  0  0  0  0  0  # atno 7974 bound_to 7965
  154.9589  140.0399  157.2180 H   0  0  0  0  0  0  0  0  0  0  0  0  # atno 8008 bound_to 7997
  154.7908  140.2835  155.5971 H   0  0  0  0  0  0  0  0  0  0  0  0  # atno 8009 bound_to 7997
  156.2949  140.2574  156.2755 H   0  0  0  0  0  0  0  0  0  0  0  0  # atno 8010 bound_to 7997
  140.0463  144.5349  150.7397 H   0  0  0  0  0  0  0  0  0  0  0  0  # atno 10167 bound_to 10162
  156.2260  130.7008  151.0807 H   0  0  0  0  0  0  0  0  0  0  0  0  # atno 10718 bound_to 10713
  153.5982  135.7000  153.5395 H   0  0  0  0  0  0  0  0  0  0  0  0  # atno 10763 bound_to 10752
  153.3119  135.4098  155.1343 H   0  0  0  0  0  0  0  0  0  0  0  0  # atno 10764 bound_to 10752
  154.8587  135.3674  154.5517 H   0  0  0  0  0  0  0  0  0  0  0  0  # atno 10765 bound_to 10752
  140.2707  134.3085  155.7828 H   0  0  0  0  0  0  0  0  0  0  0  0  # atno 11005 bound_to 11000
  146.3420  140.2239  142.8592 LP  0  0  0  0  0  0  0  0  0  0  0  0  # atno 17320 bound_to 7965
  144.9959  140.8589  143.5311 LP  0  0  0  0  0  0  0  0  0  0  0  0  # atno 17321 bound_to 7965
  140.7237  143.2614  151.4192 LP  0  0  0  0  0  0  0  0  0  0  0  0  # atno 17342 bound_to 10162
  139.5982  144.1353  152.2168 LP  0  0  0  0  0  0  0  0  0  0  0  0  # atno 17343 bound_to 10162
  157.7111  131.0734  150.6498 LP  0  0  0  0  0  0  0  0  0  0  0  0  # atno 17370 bound_to 10713
  156.6563  130.4499  149.5702 LP  0  0  0  0  0  0  0  0  0  0  0  0  # atno 17371 bound_to 10713
  141.2178  133.7465  156.9331 LP  0  0  0  0  0  0  0  0  0  0  0  0  # atno 17394 bound_to 11000
  140.1375  134.9315  157.2422 LP  0  0  0  0  0  0  0  0  0  0  0  0  # atno 17395 bound_to 11000

$$$$
