AV-unprocessed.smi:1056|AV-procd|sdf|4636|dock2
  -GOLD-   22720 3143D 1   1.00000     0.00000
 Structure written by MMmdl.
 46 48  0  0  0  0  0  0  0  0  3 V2000
  152.0904  143.9595  160.9680 C   0  0  0  0  0  0  0  0  0  0  0  0
  151.9230  143.0503  159.7623 C   0  0  0  0  0  0  0  0  0  0  0  0
  151.0015  143.4233  158.7582 C   0  0  0  0  0  0  0  0  0  0  0  0
  150.8719  142.5713  157.6679 C   0  0  0  0  0  0  0  0  0  0  0  0
  150.0631  142.6572  156.5331 N   0  3  0  0  0  0  0  0  0  0  0  0
  150.2853  141.5782  155.7333 C   0  0  0  0  0  0  0  0  0  0  0  0
  151.2226  140.8008  156.3413 N   0  0  0  0  0  0  0  0  0  0  0  0
  151.8159  139.5295  155.8997 C   0  0  0  0  0  0  0  0  0  0  0  0
  150.7961  138.3739  155.8546 C   0  0  2  0  0  0  0  0  0  0  0  0
  150.9762  137.5346  156.9793 O   0  0  0  0  0  0  0  0  0  0  0  0
  150.9499  137.5257  154.5768 C   0  0  0  0  0  0  0  0  0  0  0  0
  149.8744  136.5112  154.4352 N   0  3  1  0  0  0  0  0  0  0  0  0
  150.2378  135.1811  154.9800 C   0  0  0  0  0  0  0  0  0  0  0  0
  149.1662  134.1429  154.6038 C   0  0  0  0  0  0  0  0  0  0  0  0
  147.8035  134.6416  154.7747 N   0  0  0  0  0  0  0  0  0  0  0  0
  147.4603  135.9299  154.9364 C   0  0  0  0  0  0  0  0  0  0  0  0
  146.2888  136.2763  155.0640 O   0  0  0  0  0  0  0  0  0  0  0  0
  148.5727  136.9894  154.9671 C   0  0  0  0  0  0  0  0  0  0  0  0
  151.6195  141.3827  157.5526 C   0  0  0  0  0  0  0  0  0  0  0  0
  152.5306  141.0002  158.5352 C   0  0  0  0  0  0  0  0  0  0  0  0
  152.6781  141.8542  159.6516 C   0  0  0  0  0  0  0  0  0  0  0  0
  153.6665  141.4631  160.7369 C   0  0  0  0  0  0  0  0  0  0  0  0
  151.4140  144.8133  160.9214 H   0  0  0  0  0  0  0  0  0  0  0  0
  153.1095  144.3437  161.0184 H   0  0  0  0  0  0  0  0  0  0  0  0
  151.8779  143.4178  161.8900 H   0  0  0  0  0  0  0  0  0  0  0  0
  150.4233  144.3325  158.8354 H   0  0  0  0  0  0  0  0  0  0  0  0
  149.8036  141.3773  154.7871 H   0  0  0  0  0  0  0  0  0  0  0  0
  152.2256  139.6989  154.9032 H   0  0  0  0  0  0  0  0  0  0  0  0
  152.6654  139.2846  156.5373 H   0  0  0  0  0  0  0  0  0  0  0  0
  149.7936  138.7977  155.9100 H   0  0  0  0  0  0  0  0  0  0  0  0
  150.4123  136.7812  156.8909 H   0  0  0  0  0  0  0  0  0  0  0  0
  150.9594  138.1621  153.6905 H   0  0  0  0  0  0  0  0  0  0  0  0
  151.9230  137.0317  154.6041 H   0  0  0  0  0  0  0  0  0  0  0  0
  151.2074  134.8525  154.6076 H   0  0  0  0  0  0  0  0  0  0  0  0
  150.3246  135.2523  156.0656 H   0  0  0  0  0  0  0  0  0  0  0  0
  149.2834  133.8587  153.5575 H   0  0  0  0  0  0  0  0  0  0  0  0
  149.2954  133.2339  155.1919 H   0  0  0  0  0  0  0  0  0  0  0  0
  147.0618  133.9555  154.7632 H   0  0  0  0  0  0  0  0  0  0  0  0
  148.7001  137.3138  156.0009 H   0  0  0  0  0  0  0  0  0  0  0  0
  148.2468  137.8594  154.3955 H   0  0  0  0  0  0  0  0  0  0  0  0
  153.1054  140.0898  158.4578 H   0  0  0  0  0  0  0  0  0  0  0  0
  154.1938  140.5425  160.4848 H   0  0  0  0  0  0  0  0  0  0  0  0
  153.1502  141.3033  161.6836 H   0  0  0  0  0  0  0  0  0  0  0  0
  154.4130  142.2453  160.8766 H   0  0  0  0  0  0  0  0  0  0  0  0
  149.7343  136.3849  153.4426 H   0  0  0  0  0  0  0  0  0  0  0  0
  149.4078  143.3981  156.3176 H   0  0  0  0  0  0  0  0  0  0  0  0
  1  2  1  0  0  0  0
  1 23  1  0  0  0  0
  1 24  1  0  0  0  0
  1 25  1  0  0  0  0
  2 21  1  0  0  0  0
  2  3  2  0  0  0  0
  3  4  1  0  0  0  0
  3 26  1  0  0  0  0
  4 19  2  0  0  0  0
  4  5  1  0  0  0  0
  5  6  2  0  0  0  0
  5 46  1  0  0  0  0
  6  7  1  0  0  0  0
  6 27  1  0  0  0  0
  7  8  1  0  0  0  0
  7 19  1  0  0  0  0
  8  9  1  0  0  0  0
  8 28  1  0  0  0  0
  8 29  1  0  0  0  0
  9 10  1  0  0  0  0
  9 11  1  0  0  0  0
  9 30  1  0  0  0  0
 10 31  1  0  0  0  0
 11 12  1  0  0  0  0
 11 32  1  0  0  0  0
 11 33  1  0  0  0  0
 12 18  1  0  0  0  0
 12 13  1  0  0  0  0
 12 45  1  0  0  0  0
 13 14  1  0  0  0  0
 13 34  1  0  0  0  0
 13 35  1  0  0  0  0
 14 15  1  0  0  0  0
 14 36  1  0  0  0  0
 14 37  1  0  0  0  0
 15 16  1  0  0  0  0
 15 38  1  0  0  0  0
 16 17  2  0  0  0  0
 16 18  1  0  0  0  0
 18 39  1  0  0  0  0
 18 40  1  0  0  0  0
 19 20  1  0  0  0  0
 20 21  2  0  0  0  0
 20 41  1  0  0  0  0
 21 22  1  0  0  0  0
 22 42  1  0  0  0  0
 22 43  1  0  0  0  0
 22 44  1  0  0  0  0
M  CHG  1   5   1
M  CHG  1  12   1
M  END
> <s_m_source_file>
AV-unprocessed.smi

> <i_m_source_file_index>
1056

> <i_lp_mmshare_version>
43012

> <i_f3d_flags>
0

> <s_epik_input>
W0NIM11jKFtjSF0xKWMoW0NIM10pW2NIXWMoYzEyKW4oW2NIXW4yKVtDSDJdW0NASF0oW09IXSlbQ0gyXU4zW0NIMl1bQ0gyXVtOSF1DKD1PKVtDSDJdMw==

> <s_epik_cmdline>
J2VwaWtfcHl0aG9uJywgJy1waCcsICc3LjAnLCAnLXRuJywgJzgnLCAnLW1hJywgJzIwMCcsICctbWV0YWxfYmluZGluZycsICctaW1hZScsICc8aW5maWxlLm1hZT4nLCAnLW9tYWUnLCAnPG91dGZpbGUubWFlPic=

> <r_epik_Ionization_Penalty>
1.262

> <r_epik_Ionization_Penalty_Charging>
1.26188

> <r_epik_Ionization_Penalty_Neutral>
0.000125436

> <r_epik_State_Penalty>
1.3387

> <r_epik_Charging_Adjusted_Penalty>
2.60058

> <i_epik_Tot_Q>
2

> <i_epik_Tot_abs_Q>
2

> <r_epik_Metal_State_Penalty>
1.58938

> <b_epik_Metal_Only>
0

> <s_lp_Force_Field>
OPLS_2005

> <r_lp_Energy>
35.3013

> <b_lp_Chiralities_Consistent>
1

> <s_lp_Variant>
AV-unprocessed.smi:1056-7

> <Gold.Version>
5.8.1

> <Gold.Id.Protein>
6NUR|6NUR_protein|mol2

> <Gold.PLP.Fitness>
51.2732

> <Gold.PLP.PLP>
-41.2994

> <Gold.PLP.part.hbond>
-2.1583

> <Gold.PLP.part.metal>
0.0000

> <Gold.PLP.part.buried>
-5.4567

> <Gold.PLP.part.nonpolar>
-34.4597

> <Gold.PLP.part.repulsive>
0.1604

> <Gold.PLP.ligand.clash>
0.0000

> <Gold.PLP.ligand.torsion>
1.0425

> <Gold.PLP.Chemscore.Hbond>
4.0000

> <Gold.PLP.Chemscore.CHOScore>
0.0000

> <Gold.PLP.Chemscore.Metal>
0.0000

> <Gold.Chemscore.Hbonds>
donor molecule, donor type, donor heavy atom, donor atom, acceptor molecule, acceptor atom, score
      L1  H     5    46       P1  8028  2.00
      L1  H    12    45       P1  7948  2.00

> <Gold.PLP.Chemscore.Internal.Correction>
0.0589

> <Gold.Rescore>
     Score         DG    S(hbond)    S(metal)    S(lipo)     H(rot)  DE(clash)    DE(int)     intcor
     17.10     -18.29       1.98        0.00     106.36       2.44       0.09       1.11       ----

> <Gold.Chemscore.Fitness>
17.0977

> <Gold.Chemscore.DG>
-18.2900

> <Gold.Chemscore.ZeroCoef>
-5.4800

> <Gold.Chemscore.Hbond>
1.9765

> <Gold.Chemscore.Metal>
0.0000

> <Gold.Chemscore.Lipo>
106.3571

> <Gold.Chemscore.Internal_Hbond>
0.0000

> <Gold.Chemscore.DEClash>
0.0860

> <Gold.Chemscore.DEInternal>
1.1063

> <Gold.Chemscore.Rot>
2.4357

> <Gold.Chemscore.Internal.Correction>
   9.000000E+99

> <Gold.Chemscore.Hbonds>
donor molecule, donor type, donor heavy atom, donor atom, acceptor molecule, acceptor atom, score
      L1  H     5    46       P1  8028  0.96
      L1  H    12    45       P1  7948  0.30

> <Gold.Chemscore.Hbond.Weighted>
-6.6015

> <Gold.Chemscore.Metal.Weighted>
-0.0000

> <Gold.Chemscore.Lipo.Weighted>
-12.4438

> <Gold.Chemscore.Internal_Hbond.Weighted>
0.0000

> <Gold.Chemscore.DEClash.Weighted>
0.0860

> <Gold.Chemscore.DEInternal.Weighted>
1.1063

> <Gold.Chemscore.Rot.Weighted>
6.2353

> <Gold.Chemscore.Internal.Correction.Weighted>
   9.000000E+99

> <Gold.Protein.RotatedTorsions>
[ 6907 6896 6895 6894 ] final   70.16 input  -60.11 | X-H torsion
[ 7974 7965 7964 7962 ] final -115.32 input  175.53 | X-H torsion
[ 8008 7997 7996 7995 ] final  -11.71 input   59.86 | X-H torsion
[ 10167 10162 10161 10158 ] final  124.14 input  -65.29 | X-H torsion
[ 10718 10713 10712 10709 ] final -107.94 input   66.30 | X-H torsion
[ 10763 10752 10751 10750 ] final  -74.73 input  -60.55 | X-H torsion
[ 11005 11000 10999 10996 ] final -117.03 input  -57.11 | X-H torsion

> <Gold.Protein.ActiveResidues>
 VAL166  LYS551  ARG553  GLY616  TRP617  ASP618  TYR619  PRO620  LYS621  CYS622 
 ASP623  PHE694  ASN695  SER759  ASP760  ASP761  ALA762  ILE779  LEU786  VAL792 
 PHE793  MET794  SER795  GLU796  ALA797  LYS798  CYS799  TRP800  GLU811  SER814 

> <Gold.Protein.RotatedAtoms>
  152.4732  134.4910  159.9694 H   0  0  0  0  0  0  0  0  0  0  0  0  # atno 6907 bound_to 6896
  151.4932  133.3514  159.2864 H   0  0  0  0  0  0  0  0  0  0  0  0  # atno 6908 bound_to 6896
  150.8754  134.8163  159.7247 H   0  0  0  0  0  0  0  0  0  0  0  0  # atno 6909 bound_to 6896
  145.1098  140.8604  143.3876 H   0  0  0  0  0  0  0  0  0  0  0  0  # atno 7974 bound_to 7965
  154.5441  140.2295  155.8593 H   0  0  0  0  0  0  0  0  0  0  0  0  # atno 8008 bound_to 7997
  156.1886  140.3083  155.9249 H   0  0  0  0  0  0  0  0  0  0  0  0  # atno 8009 bound_to 7997
  155.3200  140.0440  157.3029 H   0  0  0  0  0  0  0  0  0  0  0  0  # atno 8010 bound_to 7997
  139.5758  144.6963  151.3656 H   0  0  0  0  0  0  0  0  0  0  0  0  # atno 10167 bound_to 10162
  156.0461  130.5688  150.7892 H   0  0  0  0  0  0  0  0  0  0  0  0  # atno 10718 bound_to 10713
  154.4770  135.5855  153.6362 H   0  0  0  0  0  0  0  0  0  0  0  0  # atno 10763 bound_to 10752
  152.9842  135.6080  154.3294 H   0  0  0  0  0  0  0  0  0  0  0  0  # atno 10764 bound_to 10752
  154.3182  135.2844  155.2512 H   0  0  0  0  0  0  0  0  0  0  0  0  # atno 10765 bound_to 10752
  141.0382  133.9877  157.3037 H   0  0  0  0  0  0  0  0  0  0  0  0  # atno 11005 bound_to 11000
  145.0860  139.2925  143.5759 LP  0  0  0  0  0  0  0  0  0  0  0  0  # atno 17320 bound_to 7965
  146.3527  140.0382  142.8645 LP  0  0  0  0  0  0  0  0  0  0  0  0  # atno 17321 bound_to 7965
  140.7041  143.7558  150.7452 LP  0  0  0  0  0  0  0  0  0  0  0  0  # atno 17342 bound_to 10162
  140.1077  143.4728  152.2388 LP  0  0  0  0  0  0  0  0  0  0  0  0  # atno 17343 bound_to 10162
  157.5338  131.0938  150.9920 LP  0  0  0  0  0  0  0  0  0  0  0  0  # atno 17370 bound_to 10713
  157.0220  130.5677  149.5332 LP  0  0  0  0  0  0  0  0  0  0  0  0  # atno 17371 bound_to 10713
  139.9256  135.0201  156.8222 LP  0  0  0  0  0  0  0  0  0  0  0  0  # atno 17394 bound_to 11000
  140.6283  133.9929  155.7650 LP  0  0  0  0  0  0  0  0  0  0  0  0  # atno 17395 bound_to 11000

$$$$
