AV-unprocessed.smi:2860|AV-procd|sdf|11006|dock10
  -GOLD-   2272015463D 1   1.00000     0.00000
 Structure written by MMmdl.
 45 46  0  0  0  0  0  0  0  0  1 V2000
  148.2537  145.0290  160.9444 C   0  0  0  0  0  0  0  0  0  0  0  0
  146.8044  145.0353  160.4403 C   0  0  0  0  0  0  0  0  0  0  0  0
  146.6382  144.1559  159.2898 N   0  0  0  0  0  0  0  0  0  0  0  0
  146.1535  142.9050  159.3389 C   0  0  0  0  0  0  0  0  0  0  0  0
  145.7614  142.3689  160.3749 O   0  0  0  0  0  0  0  0  0  0  0  0
  146.1133  142.1369  158.0172 C   0  0  0  0  0  0  0  0  0  0  0  0
  145.4354  140.8630  158.1782 N   0  0  0  0  0  0  0  0  0  0  0  0
  144.2991  140.4088  157.5372 C   0  0  0  0  0  0  0  0  0  0  0  0
  144.0427  139.1485  157.9973 C   0  0  0  0  0  0  0  0  0  0  0  0
  145.0914  138.9218  158.9305 C   0  0  0  0  0  0  0  0  0  0  0  0
  145.1804  137.6932  159.6322 N   0  0  0  0  0  0  0  0  0  0  0  0
  146.2926  137.0604  160.0477 C   0  0  0  0  0  0  0  0  0  0  0  0
  147.4291  137.5266  159.9682 O   0  0  0  0  0  0  0  0  0  0  0  0
  146.0153  135.7559  160.7231 C   0  0  0  0  0  0  0  0  0  0  0  0
  145.1379  135.7167  161.9737 C   0  0  0  0  0  0  0  0  0  0  0  0
  144.5344  136.9661  162.6160 C   0  0  0  0  0  0  0  0  0  0  0  0
  144.1281  134.5838  162.1021 C   0  0  0  0  0  0  0  0  0  0  0  0
  146.6384  135.4423  162.0807 C   0  0  0  0  0  0  0  0  0  0  0  0
  147.1569  134.0305  162.3194 C   0  0  0  0  0  0  0  0  0  0  0  0
  147.5589  136.4201  162.8121 C   0  0  0  0  0  0  0  0  0  0  0  0
  145.9261  139.9459  159.0405 N   0  0  0  0  0  0  0  0  0  0  0  0
  148.3739  145.7110  161.7861 H   0  0  0  0  0  0  0  0  0  0  0  0
  148.9445  145.3421  160.1611 H   0  0  0  0  0  0  0  0  0  0  0  0
  148.5540  144.0353  161.2786 H   0  0  0  0  0  0  0  0  0  0  0  0
  146.1212  144.7473  161.2410 H   0  0  0  0  0  0  0  0  0  0  0  0
  146.5238  146.0450  160.1406 H   0  0  0  0  0  0  0  0  0  0  0  0
  146.9314  144.5167  158.3934 H   0  0  0  0  0  0  0  0  0  0  0  0
  145.6011  142.7282  157.2564 H   0  0  0  0  0  0  0  0  0  0  0  0
  147.1259  141.9551  157.6545 H   0  0  0  0  0  0  0  0  0  0  0  0
  143.7763  141.0133  156.8107 H   0  0  0  0  0  0  0  0  0  0  0  0
  143.2341  138.4930  157.7098 H   0  0  0  0  0  0  0  0  0  0  0  0
  144.3039  137.2254  159.8106 H   0  0  0  0  0  0  0  0  0  0  0  0
  145.8735  134.9274  160.0312 H   0  0  0  0  0  0  0  0  0  0  0  0
  144.3607  136.7942  163.6785 H   0  0  0  0  0  0  0  0  0  0  0  0
  143.5802  137.2084  162.1472 H   0  0  0  0  0  0  0  0  0  0  0  0
  145.1741  137.8410  162.5191 H   0  0  0  0  0  0  0  0  0  0  0  0
  144.0164  134.2938  163.1471 H   0  0  0  0  0  0  0  0  0  0  0  0
  144.4327  133.7070  161.5319 H   0  0  0  0  0  0  0  0  0  0  0  0
  143.1545  134.8959  161.7230 H   0  0  0  0  0  0  0  0  0  0  0  0
  147.0371  133.7569  163.3680 H   0  0  0  0  0  0  0  0  0  0  0  0
  148.2147  133.9635  162.0628 H   0  0  0  0  0  0  0  0  0  0  0  0
  146.6279  133.2995  161.7092 H   0  0  0  0  0  0  0  0  0  0  0  0
  147.4948  136.2605  163.8888 H   0  0  0  0  0  0  0  0  0  0  0  0
  147.3126  137.4610  162.6108 H   0  0  0  0  0  0  0  0  0  0  0  0
  148.5939  136.2684  162.5044 H   0  0  0  0  0  0  0  0  0  0  0  0
  1  2  1  0  0  0  0
  1 22  1  0  0  0  0
  1 23  1  0  0  0  0
  1 24  1  0  0  0  0
  2  3  1  0  0  0  0
  2 25  1  0  0  0  0
  2 26  1  0  0  0  0
  3  4  1  0  0  0  0
  3 27  1  0  0  0  0
  4  5  2  0  0  0  0
  4  6  1  0  0  0  0
  6  7  1  0  0  0  0
  6 28  1  0  0  0  0
  6 29  1  0  0  0  0
  7 21  1  0  0  0  0
  7  8  1  0  0  0  0
  8  9  2  0  0  0  0
  8 30  1  0  0  0  0
  9 10  1  0  0  0  0
  9 31  1  0  0  0  0
 10 11  1  0  0  0  0
 10 21  2  0  0  0  0
 11 12  1  0  0  0  0
 11 32  1  0  0  0  0
 12 13  2  0  0  0  0
 12 14  1  0  0  0  0
 14 18  1  0  0  0  0
 14 15  1  0  0  0  0
 14 33  1  0  0  0  0
 15 16  1  0  0  0  0
 15 17  1  0  0  0  0
 15 18  1  0  0  0  0
 16 34  1  0  0  0  0
 16 35  1  0  0  0  0
 16 36  1  0  0  0  0
 17 37  1  0  0  0  0
 17 38  1  0  0  0  0
 17 39  1  0  0  0  0
 18 19  1  0  0  0  0
 18 20  1  0  0  0  0
 19 40  1  0  0  0  0
 19 41  1  0  0  0  0
 19 42  1  0  0  0  0
 20 43  1  0  0  0  0
 20 44  1  0  0  0  0
 20 45  1  0  0  0  0
M  END
> <s_m_source_file>
AV-unprocessed.smi

> <i_m_source_file_index>
2860

> <i_lp_mmshare_version>
43012

> <i_f3d_flags>
0

> <s_epik_input>
W0NIM11bQ0gyXVtOSF1DKD1PKVtDSDJdbjFbY0hdW2NIXWMobjEpW05IXUMoPU8pW0NIXShDMihbQ0gzXSlbQ0gzXSlDMihbQ0gzXSlbQ0gzXQ==

> <s_epik_cmdline>
J2VwaWtfcHl0aG9uJywgJy1waCcsICc3LjAnLCAnLXRuJywgJzgnLCAnLW1hJywgJzIwMCcsICctbWV0YWxfYmluZGluZycsICctaW1hZScsICc8aW5maWxlLm1hZT4nLCAnLW9tYWUnLCAnPG91dGZpbGUubWFlPic=

> <r_lp_tautomer_probability>
1

> <r_epik_Ionization_Penalty>
1.3586e-05

> <r_epik_Ionization_Penalty_Charging>
0

> <r_epik_Ionization_Penalty_Neutral>
1.3586e-05

> <r_epik_State_Penalty>
-0

> <r_epik_Charging_Adjusted_Penalty>
0

> <i_epik_Tot_Q>
0

> <i_epik_Tot_abs_Q>
0

> <r_epik_Metal_State_Penalty>
-0

> <b_epik_Metal_Only>
0

> <s_lp_Force_Field>
OPLS_2005

> <r_lp_Energy>
28.3378

> <b_lp_Chiralities_Consistent>
1

> <s_lp_Variant>
AV-unprocessed.smi:2860-1

> <Gold.Version>
5.8.1

> <Gold.Id.Protein>
6NUR|6NUR_protein|mol2

> <Gold.PLP.Fitness>
38.3582

> <Gold.PLP.PLP>
-30.6201

> <Gold.PLP.part.hbond>
-4.1253

> <Gold.PLP.part.metal>
0.0000

> <Gold.PLP.part.buried>
-5.8541

> <Gold.PLP.part.nonpolar>
-21.8887

> <Gold.PLP.part.repulsive>
0.1401

> <Gold.PLP.ligand.clash>
0.0000

> <Gold.PLP.ligand.torsion>
0.5444

> <Gold.PLP.Chemscore.Hbond>
2.8960

> <Gold.PLP.Chemscore.CHOScore>
0.0000

> <Gold.PLP.Chemscore.Metal>
0.0000

> <Gold.Chemscore.Hbonds>
donor molecule, donor type, donor heavy atom, donor atom, acceptor molecule, acceptor atom, score
      L1  H     3    27       P1  8029  0.99
      P1  H  6934  6946       L1     5  1.00
      P1  H  6934  6947       L1    13  0.85

> <Gold.PLP.Chemscore.Internal.Correction>
0.1389

> <Gold.Rescore>
     Score         DG    S(hbond)    S(metal)    S(lipo)     H(rot)  DE(clash)    DE(int)     intcor
     12.13     -16.02       2.55        0.00      54.10       1.68       0.02       3.88       ----

> <Gold.Chemscore.Fitness>
12.1259

> <Gold.Chemscore.DG>
-16.0249

> <Gold.Chemscore.ZeroCoef>
-5.4800

> <Gold.Chemscore.Hbond>
2.5488

> <Gold.Chemscore.Metal>
0.0000

> <Gold.Chemscore.Lipo>
54.1030

> <Gold.Chemscore.Internal_Hbond>
0.0000

> <Gold.Chemscore.DEClash>
0.0174

> <Gold.Chemscore.DEInternal>
3.8816

> <Gold.Chemscore.Rot>
1.6789

> <Gold.Chemscore.Internal.Correction>
   9.000000E+99

> <Gold.Chemscore.Hbonds>
donor molecule, donor type, donor heavy atom, donor atom, acceptor molecule, acceptor atom, score
      L1  H     3    27       P1  8029  0.80
      P1  H  6934  6946       L1     5  0.65
      P1  H  6934  6947       L1    13  0.19

> <Gold.Chemscore.Hbond.Weighted>
-8.5129

> <Gold.Chemscore.Metal.Weighted>
-0.0000

> <Gold.Chemscore.Lipo.Weighted>
-6.3300

> <Gold.Chemscore.Internal_Hbond.Weighted>
0.0000

> <Gold.Chemscore.DEClash.Weighted>
0.0174

> <Gold.Chemscore.DEInternal.Weighted>
3.8816

> <Gold.Chemscore.Rot.Weighted>
4.2981

> <Gold.Chemscore.Internal.Correction.Weighted>
   9.000000E+99

> <Gold.Protein.RotatedTorsions>
[ 6907 6896 6895 6894 ] final -157.25 input  -60.11 | X-H torsion
[ 7974 7965 7964 7962 ] final  -58.77 input  175.53 | X-H torsion
[ 8008 7997 7996 7995 ] final  -88.25 input   59.86 | X-H torsion
[ 10167 10162 10161 10158 ] final -154.05 input  -65.29 | X-H torsion
[ 10718 10713 10712 10709 ] final -106.22 input   66.30 | X-H torsion
[ 10763 10752 10751 10750 ] final    8.54 input  -60.55 | X-H torsion
[ 11005 11000 10999 10996 ] final    7.73 input  -57.11 | X-H torsion

> <Gold.Protein.ActiveResidues>
 VAL166  LYS551  ARG553  GLY616  TRP617  ASP618  TYR619  PRO620  LYS621  CYS622 
 ASP623  PHE694  ASN695  SER759  ASP760  ASP761  ALA762  ILE779  LEU786  VAL792 
 PHE793  MET794  SER795  GLU796  ALA797  LYS798  CYS799  TRP800  GLU811  SER814 

> <Gold.Protein.RotatedAtoms>
  151.3001  133.4126  159.2638 H   0  0  0  0  0  0  0  0  0  0  0  0  # atno 6907 bound_to 6896
  151.0203  134.9464  159.8066 H   0  0  0  0  0  0  0  0  0  0  0  0  # atno 6908 bound_to 6896
  152.5322  134.2964  159.9114 H   0  0  0  0  0  0  0  0  0  0  0  0  # atno 6909 bound_to 6896
  145.8354  140.8452  143.0062 H   0  0  0  0  0  0  0  0  0  0  0  0  # atno 7974 bound_to 7965
  154.6726  140.0556  157.0182 H   0  0  0  0  0  0  0  0  0  0  0  0  # atno 8008 bound_to 7997
  155.1066  140.3234  155.4514 H   0  0  0  0  0  0  0  0  0  0  0  0  # atno 8009 bound_to 7997
  156.2663  140.2021  156.6192 H   0  0  0  0  0  0  0  0  0  0  0  0  # atno 8010 bound_to 7997
  139.7046  143.9207  152.2443 H   0  0  0  0  0  0  0  0  0  0  0  0  # atno 10167 bound_to 10162
  156.0380  130.5602  150.7650 H   0  0  0  0  0  0  0  0  0  0  0  0  # atno 10718 bound_to 10713
  153.2239  135.6884  153.7968 H   0  0  0  0  0  0  0  0  0  0  0  0  # atno 10763 bound_to 10752
  153.7157  135.3275  155.3257 H   0  0  0  0  0  0  0  0  0  0  0  0  # atno 10764 bound_to 10752
  154.8282  135.4601  154.1097 H   0  0  0  0  0  0  0  0  0  0  0  0  # atno 10765 bound_to 10752
  140.5450  134.0338  155.7917 H   0  0  0  0  0  0  0  0  0  0  0  0  # atno 11005 bound_to 11000
  144.6737  140.0733  143.7472 LP  0  0  0  0  0  0  0  0  0  0  0  0  # atno 17320 bound_to 7965
  145.9525  139.2743  143.1204 LP  0  0  0  0  0  0  0  0  0  0  0  0  # atno 17321 bound_to 7965
  139.9059  144.6884  150.8614 LP  0  0  0  0  0  0  0  0  0  0  0  0  # atno 17342 bound_to 10162
  140.7718  143.3479  151.2074 LP  0  0  0  0  0  0  0  0  0  0  0  0  # atno 17343 bound_to 10162
  157.5159  131.0928  151.0140 LP  0  0  0  0  0  0  0  0  0  0  0  0  # atno 17370 bound_to 10713
  157.0483  130.5777  149.5366 LP  0  0  0  0  0  0  0  0  0  0  0  0  # atno 17371 bound_to 10713
  141.1205  133.9469  157.2739 LP  0  0  0  0  0  0  0  0  0  0  0  0  # atno 17394 bound_to 11000
  139.9484  135.0180  156.8922 LP  0  0  0  0  0  0  0  0  0  0  0  0  # atno 17395 bound_to 11000

$$$$
