#       Name:                AV-unprocessed.smi:3105
#       Creating user name   scv26
#       Creation time:       Fri Mar 27 17:19:21 2020


#       File generated by GOLD software.
#

@<TRIPOS>MOLECULE
AV-unprocessed.smi:3105
    37    37     1
SMALL
NO_CHARGES


@<TRIPOS>ATOM
      1 ****        -0.8175  -0.4537   1.6737 C.3            1 S1                 0.0000
      2 ****        -0.4902  -0.0543   0.2189 C.3            1 S1                 0.0000
      3 ****         0.9770   0.0107   0.0229 N.4            1 S1                 1.0000
      4 ****         1.6370   1.2196   0.5595 C.3            1 S1                 0.0000
      5 ****         3.1383   1.2193   0.2214 C.3            1 S1                 0.0000
      6 ****         3.8869   2.4335   0.7815 C.2            1 S1                 0.0000
      7 ****         5.2187   2.3500   0.8221 N.am           1 S1                 0.0000
      8 ****         3.2834   3.4320   1.1693 O.2            1 S1                 0.0000
      9 ****        -1.1147  -1.0192  -0.8252 C.3            1 S1                 0.0000
     10 ****        -0.9052  -0.5383  -2.2744 C.3            1 S1                 0.0000
     11 ****        -2.5322  -1.2572  -0.5816 N.pl3          1 S1                 0.0000
     12 ****        -3.1633  -2.4537  -0.3083 C.2            1 S1                 0.0000
     13 ****        -4.4942  -2.1887  -0.1585 C.2            1 S1                 0.0000
     14 ****        -4.5852  -0.7842  -0.3649 C.2            1 S1                 0.0000
     15 ****        -3.4110  -0.2298  -0.6192 N.2            1 S1                 0.0000
     16 ****        -1.8906  -0.4482   1.8639 H              1 S1                 0.0000
     17 ****        -0.3752   0.2348   2.3930 H              1 S1                 0.0000
     18 ****        -0.4468  -1.4536   1.9007 H              1 S1                 0.0000
     19 ****        -0.8999   0.9412   0.0394 H              1 S1                 0.0000
     20 ****         1.3992  -0.8120   0.4289 H              1 S1                 0.0000
     21 ****         1.1574   2.1025   0.1339 H              1 S1                 0.0000
     22 ****         1.5008   1.2653   1.6402 H              1 S1                 0.0000
     23 ****         3.6011   0.3125   0.6142 H              1 S1                 0.0000
     24 ****         3.2762   1.2002  -0.8605 H              1 S1                 0.0000
     25 ****         5.7663   3.1180   1.1828 H              1 S1                 0.0000
     26 ****         5.6773   1.5129   0.4917 H              1 S1                 0.0000
     27 ****        -0.6177  -1.9858  -0.7256 H              1 S1                 0.0000
     28 ****         0.1526  -0.4764  -2.5293 H              1 S1                 0.0000
     29 ****        -1.3426   0.4474  -2.4368 H              1 S1                 0.0000
     30 ****        -1.3673  -1.2257  -2.9838 H              1 S1                 0.0000
     31 ****        -2.6198  -3.3849  -0.2428 H              1 S1                 0.0000
     32 ****        -5.2836  -2.8918   0.0630 H              1 S1                 0.0000
     33 ****        -5.4632  -0.1556  -0.3384 H              1 S1                 0.0000
     34 ****         1.1477  -0.0005  -0.9725 H              1 S1                 0.0000
     35 ****         2.2849   3.4624   1.1226 LP             1 S1                 0.0000
     36 ****         3.7910   4.2138   1.5315 LP             1 S1                 0.0000
     37 ****        -3.2166   0.7345  -0.7992 LP             1 S1                 0.0000
@<TRIPOS>BOND
    1    1    2 1     
    2    1   16 1     
    3    1   17 1     
    4    1   18 1     
    5    2    3 1     
    6    2    9 1     
    7    2   19 1     
    8    3    4 1     
    9    3   20 1     
   10    3   34 1     
   11    4    5 1     
   12    4   21 1     
   13    4   22 1     
   14    5    6 1     
   15    5   23 1     
   16    5   24 1     
   17    6    7 am    
   18    6    8 2     
   19    7   25 1     
   20    7   26 1     
   21    9   10 1     
   22    9   11 1     
   23    9   27 1     
   24   10   28 1     
   25   10   29 1     
   26   10   30 1     
   27   11   15 1     
   28   11   12 1     
   29   12   13 2     
   30   12   31 1     
   31   13   14 1     
   32   13   32 1     
   33   14   15 2     
   34   14   33 1     
   35    8   35 1     
   36    8   36 1     
   37   15   37 1     
@<TRIPOS>SUBSTRUCTURE
      1 S1             1
@<TRIPOS>SET
LONE_PAIRS      STATIC     ATOMS    <user>   **** ""
3 35 36 37
DONOR_HYDROGENS      STATIC     ATOMS    <user>   **** ""
4 20 34 25 26
ATOM$BLUE        STATIC     ATOMS    COLORGROUP SYSTEM
3 35 36 37
ATOM$RED        STATIC     ATOMS    COLORGROUP SYSTEM
4 20 34 25 26
