AV-unprocessed.smi:1051|AV-procd|sdf|4614|dock10
  -GOLD-   22720 3113D 1   1.00000     0.00000
 Structure written by MMmdl.
 45 47  0  0  0  0  0  0  0  0  1 V2000
  149.9764  145.0791  160.1635 C   0  0  0  0  0  0  0  0  0  0  0  0
  151.4467  144.9214  159.7788 C   0  0  0  0  0  0  0  0  0  0  0  0
  151.9025  145.6344  158.8855 O   0  0  0  0  0  0  0  0  0  0  0  0
  152.2532  143.9052  160.5137 C   0  0  0  0  0  0  0  0  0  0  0  0
  152.2588  143.8406  161.9264 C   0  0  0  0  0  0  0  0  0  0  0  0
  153.0307  142.8691  162.5893 C   0  0  0  0  0  0  0  0  0  0  0  0
  153.8047  141.9529  161.8539 C   0  0  0  0  0  0  0  0  0  0  0  0
  153.8138  142.0009  160.4384 C   0  0  0  0  0  0  0  0  0  0  0  0
  154.5421  141.1462  159.6389 O   0  0  0  0  0  0  0  0  0  0  0  0
  155.5488  140.3452  160.2474 C   0  0  0  0  0  0  0  0  0  0  0  0
  155.3961  138.8785  159.8095 C   0  0  2  0  0  0  0  0  0  0  0  0
  155.3993  138.8459  158.3964 O   0  0  0  0  0  0  0  0  0  0  0  0
  154.1199  138.2100  160.3596 C   0  0  0  0  0  0  0  0  0  0  0  0
  154.3634  136.8218  160.7460 N   0  0  0  0  0  0  0  0  0  0  0  0
  154.7160  135.8064  159.9227 C   0  0  0  0  0  0  0  0  0  0  0  0
  154.8903  135.8899  158.7071 O   0  0  0  0  0  0  0  0  0  0  0  0
  154.8594  134.6890  160.6731 N   0  0  0  0  0  0  0  0  0  0  0  0
  155.2365  133.3605  160.2062 C   0  0  0  0  0  0  0  0  0  0  0  0
  154.6151  135.0028  162.0160 C   0  0  0  0  0  0  0  0  0  0  0  0
  154.6534  134.2042  163.1718 C   0  0  0  0  0  0  0  0  0  0  0  0
  154.3590  134.8360  164.4029 C   0  0  0  0  0  0  0  0  0  0  0  0
  154.0424  136.2186  164.4532 C   0  0  0  0  0  0  0  0  0  0  0  0
  154.0116  136.9990  163.2735 C   0  0  0  0  0  0  0  0  0  0  0  0
  154.3047  136.3455  162.0638 C   0  0  0  0  0  0  0  0  0  0  0  0
  153.0346  142.9783  159.7857 C   0  0  0  0  0  0  0  0  0  0  0  0
  149.4366  144.1462  160.0005 H   0  0  0  0  0  0  0  0  0  0  0  0
  149.5051  145.8551  159.5597 H   0  0  0  0  0  0  0  0  0  0  0  0
  149.8838  145.3610  161.2125 H   0  0  0  0  0  0  0  0  0  0  0  0
  151.6780  144.5271  162.5240 H   0  0  0  0  0  0  0  0  0  0  0  0
  153.0293  142.8267  163.6686 H   0  0  0  0  0  0  0  0  0  0  0  0
  154.3825  141.2234  162.4003 H   0  0  0  0  0  0  0  0  0  0  0  0
  156.5473  140.7127  160.0035 H   0  0  0  0  0  0  0  0  0  0  0  0
  155.4333  140.3981  161.3314 H   0  0  0  0  0  0  0  0  0  0  0  0
  156.2787  138.3356  160.1511 H   0  0  0  0  0  0  0  0  0  0  0  0
  154.8891  138.1033  158.1106 H   0  0  0  0  0  0  0  0  0  0  0  0
  153.7773  138.7443  161.2465 H   0  0  0  0  0  0  0  0  0  0  0  0
  153.2996  138.2785  159.6426 H   0  0  0  0  0  0  0  0  0  0  0  0
  154.5386  132.6138  160.5857 H   0  0  0  0  0  0  0  0  0  0  0  0
  156.2361  133.1071  160.5609 H   0  0  0  0  0  0  0  0  0  0  0  0
  155.2358  133.2942  159.1173 H   0  0  0  0  0  0  0  0  0  0  0  0
  154.8986  133.1535  163.1253 H   0  0  0  0  0  0  0  0  0  0  0  0
  154.3770  134.2591  165.3158 H   0  0  0  0  0  0  0  0  0  0  0  0
  153.8230  136.6813  165.4044 H   0  0  0  0  0  0  0  0  0  0  0  0
  153.7746  138.0521  163.3064 H   0  0  0  0  0  0  0  0  0  0  0  0
  153.0469  143.0082  158.7055 H   0  0  0  0  0  0  0  0  0  0  0  0
  1  2  1  0  0  0  0
  1 26  1  0  0  0  0
  1 27  1  0  0  0  0
  1 28  1  0  0  0  0
  2  3  2  0  0  0  0
  2  4  1  0  0  0  0
  4 25  1  0  0  0  0
  4  5  2  0  0  0  0
  5  6  1  0  0  0  0
  5 29  1  0  0  0  0
  6  7  2  0  0  0  0
  6 30  1  0  0  0  0
  7  8  1  0  0  0  0
  7 31  1  0  0  0  0
  8  9  1  0  0  0  0
  8 25  2  0  0  0  0
  9 10  1  0  0  0  0
 10 11  1  0  0  0  0
 10 32  1  0  0  0  0
 10 33  1  0  0  0  0
 11 12  1  0  0  0  0
 11 13  1  0  0  0  0
 11 34  1  0  0  0  0
 12 35  1  0  0  0  0
 13 14  1  0  0  0  0
 13 36  1  0  0  0  0
 13 37  1  0  0  0  0
 14 24  1  0  0  0  0
 14 15  1  0  0  0  0
 15 16  2  0  0  0  0
 15 17  1  0  0  0  0
 17 18  1  0  0  0  0
 17 19  1  0  0  0  0
 18 38  1  0  0  0  0
 18 39  1  0  0  0  0
 18 40  1  0  0  0  0
 19 24  2  0  0  0  0
 19 20  1  0  0  0  0
 20 21  2  0  0  0  0
 20 41  1  0  0  0  0
 21 22  1  0  0  0  0
 21 42  1  0  0  0  0
 22 23  2  0  0  0  0
 22 43  1  0  0  0  0
 23 24  1  0  0  0  0
 23 44  1  0  0  0  0
 25 45  1  0  0  0  0
M  END
> <s_m_source_file>
AV-unprocessed.smi

> <i_m_source_file_index>
1051

> <i_lp_mmshare_version>
43012

> <i_f3d_flags>
0

> <s_epik_input>
W0NIM11DKD1PKWMxW2NIXVtjSF1bY0hdYyhbY0hdMSlPW0NIMl1bQ0BIXShbT0hdKVtDSDJdbihjKD1PKW4yW0NIM10pYyhjMjMpW2NIXVtjSF1bY0hdW2NIXTM=

> <s_epik_cmdline>
J2VwaWtfcHl0aG9uJywgJy1waCcsICc3LjAnLCAnLXRuJywgJzgnLCAnLW1hJywgJzIwMCcsICctbWV0YWxfYmluZGluZycsICctaW1hZScsICc8aW5maWxlLm1hZT4nLCAnLW9tYWUnLCAnPG91dGZpbGUubWFlPic=

> <r_lp_tautomer_probability>
1

> <r_epik_Ionization_Penalty>
2.40143e-06

> <r_epik_Ionization_Penalty_Charging>
2.1343e-09

> <r_epik_Ionization_Penalty_Neutral>
2.3993e-06

> <r_epik_State_Penalty>
-0

> <r_epik_Charging_Adjusted_Penalty>
2.1343e-09

> <i_epik_Tot_Q>
0

> <i_epik_Tot_abs_Q>
0

> <r_epik_Metal_State_Penalty>
-0

> <b_epik_Metal_Only>
0

> <s_lp_Force_Field>
OPLS_2005

> <r_lp_Energy>
56.3875

> <b_lp_Chiralities_Consistent>
1

> <s_lp_Variant>
AV-unprocessed.smi:1051-1

> <Gold.Version>
5.8.1

> <Gold.Id.Protein>
6NUR|6NUR_protein|mol2

> <Gold.PLP.Fitness>
54.3259

> <Gold.PLP.PLP>
-55.1772

> <Gold.PLP.part.hbond>
-2.0220

> <Gold.PLP.part.metal>
0.0000

> <Gold.PLP.part.buried>
-4.1012

> <Gold.PLP.part.nonpolar>
-49.0887

> <Gold.PLP.part.repulsive>
0.1035

> <Gold.PLP.ligand.clash>
0.0000

> <Gold.PLP.ligand.torsion>
1.9423

> <Gold.PLP.Chemscore.Hbond>
1.0000

> <Gold.PLP.Chemscore.CHOScore>
0.0000

> <Gold.PLP.Chemscore.Metal>
0.0000

> <Gold.Chemscore.Hbonds>
donor molecule, donor type, donor heavy atom, donor atom, acceptor molecule, acceptor atom, score
      P1  H  7997  8009       L1    12  1.00

> <Gold.PLP.Chemscore.Internal.Correction>
0.0333

> <Gold.Rescore>
     Score         DG    S(hbond)    S(metal)    S(lipo)     H(rot)  DE(clash)    DE(int)     intcor
     17.90     -19.88       0.96        0.00     146.10       2.30       0.10       1.88       ----

> <Gold.Chemscore.Fitness>
17.9022

> <Gold.Chemscore.DG>
-19.8823

> <Gold.Chemscore.ZeroCoef>
-5.4800

> <Gold.Chemscore.Hbond>
0.9557

> <Gold.Chemscore.Metal>
0.0000

> <Gold.Chemscore.Lipo>
146.1042

> <Gold.Chemscore.Internal_Hbond>
0.0000

> <Gold.Chemscore.DEClash>
0.1001

> <Gold.Chemscore.DEInternal>
1.8800

> <Gold.Chemscore.Rot>
2.2984

> <Gold.Chemscore.Internal.Correction>
   9.000000E+99

> <Gold.Chemscore.Hbonds>
donor molecule, donor type, donor heavy atom, donor atom, acceptor molecule, acceptor atom, score
      P1  H  7997  8009       L1    12  0.62

> <Gold.Chemscore.Hbond.Weighted>
-3.1920

> <Gold.Chemscore.Metal.Weighted>
-0.0000

> <Gold.Chemscore.Lipo.Weighted>
-17.0942

> <Gold.Chemscore.Internal_Hbond.Weighted>
0.0000

> <Gold.Chemscore.DEClash.Weighted>
0.1001

> <Gold.Chemscore.DEInternal.Weighted>
1.8800

> <Gold.Chemscore.Rot.Weighted>
5.8839

> <Gold.Chemscore.Internal.Correction.Weighted>
   9.000000E+99

> <Gold.Protein.RotatedTorsions>
[ 6907 6896 6895 6894 ] final  -31.95 input  -60.11 | X-H torsion
[ 7974 7965 7964 7962 ] final  109.84 input  175.53 | X-H torsion
[ 8008 7997 7996 7995 ] final  114.98 input   59.86 | X-H torsion
[ 10167 10162 10161 10158 ] final  -50.67 input  -65.29 | X-H torsion
[ 10718 10713 10712 10709 ] final   10.47 input   66.30 | X-H torsion
[ 10763 10752 10751 10750 ] final   85.77 input  -60.55 | X-H torsion
[ 11005 11000 10999 10996 ] final  177.60 input  -57.11 | X-H torsion

> <Gold.Protein.ActiveResidues>
 VAL166  LYS551  ARG553  GLY616  TRP617  ASP618  TYR619  PRO620  LYS621  CYS622 
 ASP623  PHE694  ASN695  SER759  ASP760  ASP761  ALA762  ILE779  LEU786  VAL792 
 PHE793  MET794  SER795  GLU796  ALA797  LYS798  CYS799  TRP800  GLU811  SER814 

> <Gold.Protein.RotatedAtoms>
  151.0853  134.9883  159.8375 H   0  0  0  0  0  0  0  0  0  0  0  0  # atno 6907 bound_to 6896
  152.5424  134.2132  159.8768 H   0  0  0  0  0  0  0  0  0  0  0  0  # atno 6908 bound_to 6896
  151.2164  133.4483  159.2633 H   0  0  0  0  0  0  0  0  0  0  0  0  # atno 6909 bound_to 6896
  145.2626  139.2696  143.4009 H   0  0  0  0  0  0  0  0  0  0  0  0  # atno 7974 bound_to 7965
  156.2354  140.2948  156.0299 H   0  0  0  0  0  0  0  0  0  0  0  0  # atno 8008 bound_to 7997
  155.2106  140.0412  157.2950 H   0  0  0  0  0  0  0  0  0  0  0  0  # atno 8009 bound_to 7997
  154.6070  140.2442  155.7726 H   0  0  0  0  0  0  0  0  0  0  0  0  # atno 8010 bound_to 7997
  140.6626  143.2649  151.4393 H   0  0  0  0  0  0  0  0  0  0  0  0  # atno 10167 bound_to 10162
  156.9815  130.6007  149.5677 H   0  0  0  0  0  0  0  0  0  0  0  0  # atno 10718 bound_to 10713
  153.1507  135.4605  154.9631 H   0  0  0  0  0  0  0  0  0  0  0  0  # atno 10763 bound_to 10752
  154.7822  135.3192  154.7967 H   0  0  0  0  0  0  0  0  0  0  0  0  # atno 10764 bound_to 10752
  153.8473  135.6924  153.4850 H   0  0  0  0  0  0  0  0  0  0  0  0  # atno 10765 bound_to 10752
  140.3859  134.6905  157.4478 H   0  0  0  0  0  0  0  0  0  0  0  0  # atno 11005 bound_to 11000
  146.3270  140.3047  142.8623 LP  0  0  0  0  0  0  0  0  0  0  0  0  # atno 17320 bound_to 7965
  144.9405  140.8073  143.5633 LP  0  0  0  0  0  0  0  0  0  0  0  0  # atno 17321 bound_to 7965
  139.5865  144.1594  152.2035 LP  0  0  0  0  0  0  0  0  0  0  0  0  # atno 17342 bound_to 10162
  140.0935  144.5600  150.7038 LP  0  0  0  0  0  0  0  0  0  0  0  0  # atno 17343 bound_to 10162
  156.0243  130.5337  150.8362 LP  0  0  0  0  0  0  0  0  0  0  0  0  # atno 17370 bound_to 10713
  157.5523  131.0944  150.9678 LP  0  0  0  0  0  0  0  0  0  0  0  0  # atno 17371 bound_to 10713
  140.0443  134.6221  155.8940 LP  0  0  0  0  0  0  0  0  0  0  0  0  # atno 17394 bound_to 11000
  141.1908  133.6569  156.5426 LP  0  0  0  0  0  0  0  0  0  0  0  0  # atno 17395 bound_to 11000

$$$$
