AV-unprocessed.smi:937|AV-procd|sdf|4212|dock2
  -GOLD-   22720 2123D 1   1.00000     0.00000
 Structure written by MMmdl.
 45 46  0  0  0  0  0  0  0  0  1 V2000
  153.0199  142.0301  159.2872 C   0  0  0  0  0  0  0  0  0  0  0  0
  152.3296  141.2400  158.1951 C   0  0  0  0  0  0  0  0  0  0  0  0
  151.2445  141.7883  157.4791 C   0  0  0  0  0  0  0  0  0  0  0  0
  150.6371  141.0050  156.4786 C   0  0  0  0  0  0  0  0  0  0  0  0
  151.1366  139.7095  156.2323 C   0  0  0  0  0  0  0  0  0  0  0  0
  150.5139  138.8192  155.1751 C   0  0  0  0  0  0  0  0  0  0  0  0
  151.2551  137.4826  155.0392 C   0  0  0  0  0  0  0  0  0  0  0  0
  150.4102  136.4908  154.3893 N   0  0  0  0  0  0  0  0  0  0  0  0
  150.1805  135.2565  154.8649 C   0  0  0  0  0  0  0  0  0  0  0  0
  150.6595  134.8365  155.9164 O   0  0  0  0  0  0  0  0  0  0  0  0
  149.3867  134.4921  154.0933 N   0  0  0  0  0  0  0  0  0  0  0  0
  148.9431  133.1126  154.3190 C   0  0  1  0  0  0  0  0  0  0  0  0
  148.1674  132.9678  155.6465 C   0  0  0  0  0  0  0  0  0  0  0  0
  146.7957  133.6594  155.5932 C   0  0  0  0  0  0  0  0  0  0  0  0
  145.9595  133.1483  154.4100 C   0  0  0  0  0  0  0  0  0  0  0  0
  146.7022  133.3234  153.0687 C   0  0  2  0  0  0  0  0  0  0  0  0
  145.8631  132.8248  151.8739 C   0  0  0  0  0  0  0  0  0  0  0  0
  144.6631  133.4059  151.8607 F   0  0  0  0  0  0  0  0  0  0  0  0
  146.4882  133.1008  150.7293 F   0  0  0  0  0  0  0  0  0  0  0  0
  145.7015  131.5039  151.9507 F   0  0  0  0  0  0  0  0  0  0  0  0
  148.0853  132.6341  153.1300 C   0  0  0  0  0  0  0  0  0  0  0  0
  152.2284  139.2573  157.0031 C   0  0  0  0  0  0  0  0  0  0  0  0
  152.8163  140.0005  157.9651 N   0  0  0  0  0  0  0  0  0  0  0  0
  152.5805  143.0219  159.3968 H   0  0  0  0  0  0  0  0  0  0  0  0
  154.0789  142.1513  159.0573 H   0  0  0  0  0  0  0  0  0  0  0  0
  152.9314  141.5119  160.2425 H   0  0  0  0  0  0  0  0  0  0  0  0
  150.8826  142.7838  157.6908 H   0  0  0  0  0  0  0  0  0  0  0  0
  149.8020  141.3933  155.9143 H   0  0  0  0  0  0  0  0  0  0  0  0
  149.4660  138.6450  155.4234 H   0  0  0  0  0  0  0  0  0  0  0  0
  150.5211  139.3500  154.2221 H   0  0  0  0  0  0  0  0  0  0  0  0
  152.1696  137.6245  154.4608 H   0  0  0  0  0  0  0  0  0  0  0  0
  151.5489  137.1107  156.0216 H   0  0  0  0  0  0  0  0  0  0  0  0
  149.9785  136.7546  153.5156 H   0  0  0  0  0  0  0  0  0  0  0  0
  149.0743  134.9106  153.2291 H   0  0  0  0  0  0  0  0  0  0  0  0
  149.8260  132.4720  154.3586 H   0  0  0  0  0  0  0  0  0  0  0  0
  148.0202  131.9078  155.8570 H   0  0  0  0  0  0  0  0  0  0  0  0
  148.7485  133.3593  156.4820 H   0  0  0  0  0  0  0  0  0  0  0  0
  146.2588  133.4866  156.5262 H   0  0  0  0  0  0  0  0  0  0  0  0
  146.9280  134.7390  155.5117 H   0  0  0  0  0  0  0  0  0  0  0  0
  145.7182  132.0959  154.5646 H   0  0  0  0  0  0  0  0  0  0  0  0
  145.0085  133.6809  154.3849 H   0  0  0  0  0  0  0  0  0  0  0  0
  146.8660  134.3921  152.9210 H   0  0  0  0  0  0  0  0  0  0  0  0
  148.6282  132.7964  152.1980 H   0  0  0  0  0  0  0  0  0  0  0  0
  147.9440  131.5554  153.2098 H   0  0  0  0  0  0  0  0  0  0  0  0
  152.6389  138.2705  156.8474 H   0  0  0  0  0  0  0  0  0  0  0  0
  1  2  1  0  0  0  0
  1 24  1  0  0  0  0
  1 25  1  0  0  0  0
  1 26  1  0  0  0  0
  2 23  1  0  0  0  0
  2  3  2  0  0  0  0
  3  4  1  0  0  0  0
  3 27  1  0  0  0  0
  4  5  2  0  0  0  0
  4 28  1  0  0  0  0
  5  6  1  0  0  0  0
  5 22  1  0  0  0  0
  6  7  1  0  0  0  0
  6 29  1  0  0  0  0
  6 30  1  0  0  0  0
  7  8  1  0  0  0  0
  7 31  1  0  0  0  0
  7 32  1  0  0  0  0
  8  9  1  0  0  0  0
  8 33  1  0  0  0  0
  9 10  2  0  0  0  0
  9 11  1  0  0  0  0
 11 12  1  0  0  0  0
 11 34  1  0  0  0  0
 12 21  1  0  0  0  0
 12 13  1  0  0  0  0
 12 35  1  0  0  0  0
 13 14  1  0  0  0  0
 13 36  1  0  0  0  0
 13 37  1  0  0  0  0
 14 15  1  0  0  0  0
 14 38  1  0  0  0  0
 14 39  1  0  0  0  0
 15 16  1  0  0  0  0
 15 40  1  0  0  0  0
 15 41  1  0  0  0  0
 16 17  1  0  0  0  0
 16 21  1  0  0  0  0
 16 42  1  0  0  0  0
 17 18  1  0  0  0  0
 17 19  1  0  0  0  0
 17 20  1  0  0  0  0
 21 43  1  0  0  0  0
 21 44  1  0  0  0  0
 22 23  2  0  0  0  0
 22 45  1  0  0  0  0
M  END
> <s_m_source_file>
AV-unprocessed.smi

> <i_m_source_file_index>
937

> <i_lp_mmshare_version>
43012

> <i_f3d_flags>
0

> <s_epik_input>
W0NIM11jMVtjSF1bY0hdYyhbY0hdbjEpW0NIMl1bQ0gyXVtOSF1DKD1PKVtOSF1bQ0BASF0yW0NIMl1bQ0gyXVtDSDJdW0NAQEhdKEMoRikoRilGKVtDSDJdMg==

> <s_epik_cmdline>
J2VwaWtfcHl0aG9uJywgJy1waCcsICc3LjAnLCAnLXRuJywgJzgnLCAnLW1hJywgJzIwMCcsICctbWV0YWxfYmluZGluZycsICctaW1hZScsICc8aW5maWxlLm1hZT4nLCAnLW9tYWUnLCAnPG91dGZpbGUubWFlPic=

> <r_epik_Ionization_Penalty>
0.0563445

> <r_epik_Ionization_Penalty_Charging>
0

> <r_epik_Ionization_Penalty_Neutral>
0.0563445

> <r_epik_State_Penalty>
0.0485409

> <r_epik_Charging_Adjusted_Penalty>
0.0485409

> <i_epik_Tot_Q>
0

> <i_epik_Tot_abs_Q>
0

> <r_epik_Metal_State_Penalty>
0.0443056

> <b_epik_Metal_Only>
0

> <s_lp_Force_Field>
OPLS_2005

> <r_lp_Energy>
18.524

> <b_lp_Chiralities_Consistent>
1

> <s_lp_Variant>
AV-unprocessed.smi:937-4

> <Gold.Version>
5.8.1

> <Gold.Id.Protein>
6NUR|6NUR_protein|mol2

> <Gold.PLP.Fitness>
45.4394

> <Gold.PLP.PLP>
-38.4640

> <Gold.PLP.part.hbond>
-4.0000

> <Gold.PLP.part.metal>
0.0000

> <Gold.PLP.part.buried>
-4.9142

> <Gold.PLP.part.nonpolar>
-30.6459

> <Gold.PLP.part.repulsive>
0.1385

> <Gold.PLP.ligand.clash>
0.0000

> <Gold.PLP.ligand.torsion>
0.1691

> <Gold.PLP.Chemscore.Hbond>
2.4220

> <Gold.PLP.Chemscore.CHOScore>
0.0000

> <Gold.PLP.Chemscore.Metal>
0.0000

> <Gold.Chemscore.Hbonds>
donor molecule, donor type, donor heavy atom, donor atom, acceptor molecule, acceptor atom, score
      L1  H     8    33       P1  7948  0.94
      L1  H    11    34       P1  7948  0.80
      P1  H  7997  8009       L1    23  0.72

> <Gold.PLP.Chemscore.Internal.Correction>
0.0476

> <Gold.Rescore>
     Score         DG    S(hbond)    S(metal)    S(lipo)     H(rot)  DE(clash)    DE(int)     intcor
     15.64     -15.86       1.43        0.00      82.49       1.58       0.05       0.18       ----

> <Gold.Chemscore.Fitness>
15.6353

> <Gold.Chemscore.DG>
-15.8618

> <Gold.Chemscore.ZeroCoef>
-5.4800

> <Gold.Chemscore.Hbond>
1.4335

> <Gold.Chemscore.Metal>
0.0000

> <Gold.Chemscore.Lipo>
82.4907

> <Gold.Chemscore.Internal_Hbond>
0.0000

> <Gold.Chemscore.DEClash>
0.0494

> <Gold.Chemscore.DEInternal>
0.1771

> <Gold.Chemscore.Rot>
1.5849

> <Gold.Chemscore.Internal.Correction>
   9.000000E+99

> <Gold.Chemscore.Hbonds>
donor molecule, donor type, donor heavy atom, donor atom, acceptor molecule, acceptor atom, score
      L1  H     8    33       P1  7948  0.20
      L1  H    11    34       P1  7948  0.12
      P1  H  7997  8009       L1    23  0.07

> <Gold.Chemscore.Hbond.Weighted>
-4.7878

> <Gold.Chemscore.Metal.Weighted>
-0.0000

> <Gold.Chemscore.Lipo.Weighted>
-9.6514

> <Gold.Chemscore.Internal_Hbond.Weighted>
0.0000

> <Gold.Chemscore.DEClash.Weighted>
0.0494

> <Gold.Chemscore.DEInternal.Weighted>
0.1771

> <Gold.Chemscore.Rot.Weighted>
4.0574

> <Gold.Chemscore.Internal.Correction.Weighted>
   9.000000E+99

> <Gold.Protein.RotatedTorsions>
[ 6907 6896 6895 6894 ] final  174.37 input  -60.11 | X-H torsion
[ 7974 7965 7964 7962 ] final -136.33 input  175.53 | X-H torsion
[ 8008 7997 7996 7995 ] final  150.06 input   59.86 | X-H torsion
[ 10167 10162 10161 10158 ] final  125.31 input  -65.29 | X-H torsion
[ 10718 10713 10712 10709 ] final  -17.43 input   66.30 | X-H torsion
[ 10763 10752 10751 10750 ] final -143.08 input  -60.55 | X-H torsion
[ 11005 11000 10999 10996 ] final    3.33 input  -57.11 | X-H torsion

> <Gold.Protein.ActiveResidues>
 VAL166  LYS551  ARG553  GLY616  TRP617  ASP618  TYR619  PRO620  LYS621  CYS622 
 ASP623  PHE694  ASN695  SER759  ASP760  ASP761  ALA762  ILE779  LEU786  VAL792 
 PHE793  MET794  SER795  GLU796  ALA797  LYS798  CYS799  TRP800  GLU811  SER814 

> <Gold.Protein.RotatedAtoms>
  151.7533  133.3329  159.3397 H   0  0  0  0  0  0  0  0  0  0  0  0  # atno 6907 bound_to 6896
  150.7526  134.6172  159.6126 H   0  0  0  0  0  0  0  0  0  0  0  0  # atno 6908 bound_to 6896
  152.3454  134.7080  160.0303 H   0  0  0  0  0  0  0  0  0  0  0  0  # atno 6909 bound_to 6896
  144.8936  140.6676  143.5130 H   0  0  0  0  0  0  0  0  0  0  0  0  # atno 7974 bound_to 7965
  156.2731  140.2085  156.5957 H   0  0  0  0  0  0  0  0  0  0  0  0  # atno 8008 bound_to 7997
  154.6946  140.0527  157.0421 H   0  0  0  0  0  0  0  0  0  0  0  0  # atno 8009 bound_to 7997
  155.0818  140.3187  155.4602 H   0  0  0  0  0  0  0  0  0  0  0  0  # atno 8010 bound_to 7997
  139.5693  144.6929  151.3824 H   0  0  0  0  0  0  0  0  0  0  0  0  # atno 10167 bound_to 10162
  156.5736  130.4756  149.6351 H   0  0  0  0  0  0  0  0  0  0  0  0  # atno 10718 bound_to 10713
  154.8484  135.3478  154.6131 H   0  0  0  0  0  0  0  0  0  0  0  0  # atno 10763 bound_to 10752
  153.6740  135.6983  153.5143 H   0  0  0  0  0  0  0  0  0  0  0  0  # atno 10764 bound_to 10752
  153.2720  135.4290  155.0953 H   0  0  0  0  0  0  0  0  0  0  0  0  # atno 10765 bound_to 10752
  140.5943  133.9894  155.8103 H   0  0  0  0  0  0  0  0  0  0  0  0  # atno 11005 bound_to 11000
  145.3740  139.1652  143.4317 LP  0  0  0  0  0  0  0  0  0  0  0  0  # atno 17320 bound_to 7965
  146.3068  140.3814  142.8684 LP  0  0  0  0  0  0  0  0  0  0  0  0  # atno 17321 bound_to 7965
  140.6977  143.7709  150.7352 LP  0  0  0  0  0  0  0  0  0  0  0  0  # atno 17342 bound_to 10162
  140.1210  143.4612  152.2313 LP  0  0  0  0  0  0  0  0  0  0  0  0  # atno 17343 bound_to 10162
  156.2693  130.7007  151.1800 LP  0  0  0  0  0  0  0  0  0  0  0  0  # atno 17370 bound_to 10713
  157.7342  131.0583  150.5534 LP  0  0  0  0  0  0  0  0  0  0  0  0  # atno 17371 bound_to 10713
  141.0914  133.9911  157.3231 LP  0  0  0  0  0  0  0  0  0  0  0  0  # atno 17394 bound_to 11000
  139.9260  135.0201  156.8235 LP  0  0  0  0  0  0  0  0  0  0  0  0  # atno 17395 bound_to 11000

$$$$
