#       Name:                AV-unprocessed.smi:204
#       Creating user name   scv26
#       Creation time:       Thu Mar 26 19:50:41 2020


#       File generated by GOLD software.
#

@<TRIPOS>MOLECULE
AV-unprocessed.smi:204
    63    66     1
SMALL
NO_CHARGES


@<TRIPOS>ATOM
      1 ****        -7.1983   3.0228   0.2373 C.3            1 S1                 0.0000
      2 ****        -5.7809   3.2056  -0.2947 C.2            1 S1                 0.0000
      3 ****        -5.3588   4.3316  -0.5564 O.2            1 S1                 0.0000
      4 ****        -5.0560   2.0891  -0.4497 N.am           1 S1                 0.0000
      5 ****        -3.6832   2.0601  -0.9390 C.3            1 S1                 0.0000
      6 ****        -3.1064   0.6323  -0.9322 C.3            1 S1                 0.0000
      7 ****        -3.8931  -0.3325  -1.8454 C.3            1 S1                 0.0000
      8 ****        -3.2566  -1.7305  -1.8313 C.3            1 S1                 0.0000
      9 ****        -1.7676  -1.6637  -2.2040 C.3            1 S1                 0.0000
     10 ****        -1.0612  -0.7094  -1.3482 N.3            1 S1                 0.0000
     11 ****         0.2952  -0.7685  -1.3180 C.ar           1 S1                 0.0000
     12 ****         0.9715  -1.3442  -2.3481 N.ar           1 S1                 0.0000
     13 ****         2.3063  -1.3996  -2.3338 C.ar           1 S1                 0.0000
     14 ****         3.1493  -0.9534  -1.4013 N.ar           1 S1                 0.0000
     15 ****         2.4795  -0.3837  -0.3592 C.ar           1 S1                 0.0000
     16 ****         1.0670  -0.2472  -0.2404 C.ar           1 S1                 0.0000
     17 ****         0.7536   0.3825   0.9585 N.2            1 S1                 0.0000
     18 ****         1.9132   0.6192   1.5077 C.2            1 S1                 0.0000
     19 ****         3.0038   0.1776   0.7926 N.pl3          1 S1                 0.0000
     20 ****         4.4022   0.3037   1.1754 C.3            1 S1                 0.0000
     21 ****         4.9720  -0.9323   1.9028 C.3            1 S1                 0.0000
     22 ****         4.1377  -1.2656   3.1522 C.3            1 S1                 0.0000
     23 ****         4.1306  -0.1923   4.0723 O.3            1 S1                 0.0000
     24 ****         5.2929  -2.1461   1.0187 C.3            1 S1                 0.0000
     25 ****         6.6237  -2.2611   1.5648 O.3            1 S1                 0.0000
     26 ****         6.4910  -0.9373   2.1242 C.3            1 S1                 0.0000
     27 ****        -1.6196   0.6428  -1.3399 C.3            1 S1                 0.0000
     28 ****        -7.1858   2.4653   1.1744 H              1 S1                 0.0000
     29 ****        -7.8069   2.4762  -0.4834 H              1 S1                 0.0000
     30 ****        -7.6711   3.9881   0.4220 H              1 S1                 0.0000
     31 ****        -5.4804   1.2038  -0.2141 H              1 S1                 0.0000
     32 ****        -3.6503   2.4745  -1.9480 H              1 S1                 0.0000
     33 ****        -3.0705   2.7075  -0.3091 H              1 S1                 0.0000
     34 ****        -3.1653   0.2546   0.0901 H              1 S1                 0.0000
     35 ****        -4.9330  -0.4062  -1.5265 H              1 S1                 0.0000
     36 ****        -3.9066   0.0528  -2.8659 H              1 S1                 0.0000
     37 ****        -3.3636  -2.1695  -0.8385 H              1 S1                 0.0000
     38 ****        -3.7847  -2.3901  -2.5204 H              1 S1                 0.0000
     39 ****        -1.3262  -2.6565  -2.1060 H              1 S1                 0.0000
     40 ****        -1.6584  -1.3618  -3.2469 H              1 S1                 0.0000
     41 ****         2.7642  -1.8687  -3.1922 H              1 S1                 0.0000
     42 ****         2.0058   1.1161   2.4626 H              1 S1                 0.0000
     43 ****         4.9765   0.5117   0.2717 H              1 S1                 0.0000
     44 ****         4.5061   1.1957   1.7942 H              1 S1                 0.0000
     45 ****         3.1111  -1.5254   2.8946 H              1 S1                 0.0000
     46 ****         4.5477  -2.1375   3.6631 H              1 S1                 0.0000
     47 ****         3.6494  -0.4587   4.8409 H              1 S1                 0.0000
     48 ****         4.6755  -3.0217   1.2222 H              1 S1                 0.0000
     49 ****         5.3204  -1.9289  -0.0495 H              1 S1                 0.0000
     50 ****         7.0281  -0.1929   1.5339 H              1 S1                 0.0000
     51 ****         6.7900  -0.8916   3.1721 H              1 S1                 0.0000
     52 ****        -1.5108   1.0676  -2.3388 H              1 S1                 0.0000
     53 ****        -1.0667   1.2963  -0.6661 H              1 S1                 0.0000
     54 ****        -5.9458   5.1297  -0.4203 LP             1 S1                 0.0000
     55 ****        -4.4289   4.4484  -0.9052 LP             1 S1                 0.0000
     56 ****        -1.2793  -1.0802  -0.4455 LP             1 S1                 0.0000
     57 ****         0.4665  -1.7284  -3.1210 LP             1 S1                 0.0000
     58 ****         4.1449  -1.0273  -1.4591 LP             1 S1                 0.0000
     59 ****        -0.1531   0.6035   1.3178 LP             1 S1                 0.0000
     60 ****         3.6901   0.6041   3.6579 LP             1 S1                 0.0000
     61 ****         5.0694   0.0404   4.3261 LP             1 S1                 0.0000
     62 ****         7.3440  -2.3456   0.8764 LP             1 S1                 0.0000
     63 ****         6.7267  -2.9861   2.2458 LP             1 S1                 0.0000
@<TRIPOS>BOND
    1    1    2 1     
    2    1   28 1     
    3    1   29 1     
    4    1   30 1     
    5    2    3 2     
    6    2    4 am    
    7    4    5 1     
    8    4   31 1     
    9    5    6 1     
   10    5   32 1     
   11    5   33 1     
   12    6   27 1     
   13    6    7 1     
   14    6   34 1     
   15    7    8 1     
   16    7   35 1     
   17    7   36 1     
   18    8    9 1     
   19    8   37 1     
   20    8   38 1     
   21    9   10 1     
   22    9   39 1     
   23    9   40 1     
   24   10   11 1     
   25   10   27 1     
   26   11   16 ar    
   27   11   12 ar    
   28   12   13 ar    
   29   13   14 ar    
   30   13   41 1     
   31   14   15 ar    
   32   15   19 1     
   33   15   16 ar    
   34   16   17 1     
   35   17   18 2     
   36   18   19 1     
   37   18   42 1     
   38   19   20 1     
   39   20   21 1     
   40   20   43 1     
   41   20   44 1     
   42   21   26 1     
   43   21   22 1     
   44   21   24 1     
   45   22   23 1     
   46   22   45 1     
   47   22   46 1     
   48   23   47 1     
   49   24   25 1     
   50   24   48 1     
   51   24   49 1     
   52   25   26 1     
   53   26   50 1     
   54   26   51 1     
   55   27   52 1     
   56   27   53 1     
   57    3   54 1     
   58    3   55 1     
   59   10   56 1     
   60   12   57 1     
   61   14   58 1     
   62   17   59 1     
   63   23   60 1     
   64   23   61 1     
   65   25   62 1     
   66   25   63 1     
@<TRIPOS>SUBSTRUCTURE
      1 S1             1
@<TRIPOS>SET
LONE_PAIRS      STATIC     ATOMS    <user>   **** ""
10 54 55 56 57 58 59 60 61 62 63
DONOR_HYDROGENS      STATIC     ATOMS    <user>   **** ""
2 31 47
ATOM$BLUE        STATIC     ATOMS    COLORGROUP SYSTEM
10 54 55 56 57 58 59 60 61 62 63
ATOM$RED        STATIC     ATOMS    COLORGROUP SYSTEM
2 31 47
