#       Name:                AV-unprocessed.smi:196
#       Creating user name   scv26
#       Creation time:       Thu Mar 26 19:39:30 2020


#       File generated by GOLD software.
#

@<TRIPOS>MOLECULE
AV-unprocessed.smi:196
    57    60     1
SMALL
NO_CHARGES


@<TRIPOS>ATOM
      1 ****        -3.2892  -0.1625   1.2322 C.3            1 S1                 0.0000
      2 ****        -2.5900  -1.0576   2.2682 C.3            1 S1                 0.0000
      3 ****        -3.5308  -1.8957   2.9235 O.3            1 S1                 0.0000
      4 ****        -2.9013  -2.3877   4.0925 C.3            1 S1                 0.0000
      5 ****        -2.2247  -1.1439   4.6563 C.3            1 S1                 0.0000
      6 ****        -1.8182  -0.3473   3.4124 C.3            1 S1                 0.0000
      7 ****        -2.2499   0.9925   3.5866 O.3            1 S1                 0.0000
      8 ****        -0.2839  -0.3386   3.2025 C.3            1 S1                 0.0000
      9 ****         0.1299   0.3176   1.9712 N.pl3          1 S1                 0.0000
     10 ****         0.2610   1.6728   1.7621 C.2            1 S1                 0.0000
     11 ****         0.6410   2.0187   0.5625 N.2            1 S1                 0.0000
     12 ****         0.7942   0.8092  -0.1020 C.ar           1 S1                 0.0000
     13 ****         1.1861   0.4542  -1.4194 C.ar           1 S1                 0.0000
     14 ****         1.4884   1.4056  -2.3420 N.3            1 S1                 0.0000
     15 ****         0.3119   1.7909  -3.1142 C.3            1 S1                 0.0000
     16 ****         0.4147   1.0584  -4.4620 C.3            1 S1                 0.0000
     17 ****        -0.4756   0.0691  -4.5418 F              1 S1                 0.0000
     18 ****         1.8414   0.4972  -4.5095 C.3            1 S1                 0.0000
     19 ****         2.5488   1.2000  -3.3390 C.3            1 S1                 0.0000
     20 ****         3.8588   0.5401  -2.8572 C.2            1 S1                 0.0000
     21 ****         4.6733   0.0515  -3.7960 N.am           1 S1                 0.0000
     22 ****         4.1598   0.5084  -1.6650 O.2            1 S1                 0.0000
     23 ****         1.2110  -0.8688  -1.7344 N.ar           1 S1                 0.0000
     24 ****         0.8960  -1.7839  -0.8133 C.ar           1 S1                 0.0000
     25 ****         0.5247  -1.5980   0.4550 N.ar           1 S1                 0.0000
     26 ****         0.4825  -0.2714   0.7692 C.ar           1 S1                 0.0000
     27 ****         0.2163   1.7374  -5.2918 H              1 S1                 0.0000
     28 ****         2.8372   2.1990  -3.6716 H              1 S1                 0.0000
     29 ****        -2.5743   0.4886   0.7285 H              1 S1                 0.0000
     30 ****        -4.0533   0.4642   1.6926 H              1 S1                 0.0000
     31 ****        -3.7787  -0.7676   0.4691 H              1 S1                 0.0000
     32 ****        -1.9133  -1.7302   1.7405 H              1 S1                 0.0000
     33 ****        -3.6198  -2.8283   4.7839 H              1 S1                 0.0000
     34 ****        -2.1657  -3.1483   3.8249 H              1 S1                 0.0000
     35 ****        -2.9517  -0.5925   5.2554 H              1 S1                 0.0000
     36 ****        -1.3869  -1.3903   5.3096 H              1 S1                 0.0000
     37 ****        -1.8179   1.3504   4.3469 H              1 S1                 0.0000
     38 ****         0.2117   0.1592   4.0373 H              1 S1                 0.0000
     39 ****         0.0972  -1.3605   3.1902 H              1 S1                 0.0000
     40 ****         0.0570   2.4036   2.5310 H              1 S1                 0.0000
     41 ****        -0.6322   1.5787  -2.6076 H              1 S1                 0.0000
     42 ****         0.3490   2.8700  -3.2683 H              1 S1                 0.0000
     43 ****         1.8327  -0.5848  -4.3700 H              1 S1                 0.0000
     44 ****         2.3256   0.7005  -5.4652 H              1 S1                 0.0000
     45 ****         5.5442  -0.3851  -3.5312 H              1 S1                 0.0000
     46 ****         4.4156   0.1258  -4.7693 H              1 S1                 0.0000
     47 ****         0.9470  -2.8119  -1.1403 H              1 S1                 0.0000
     48 ****        -3.7887  -2.6553   2.3265 LP             1 S1                 0.0000
     49 ****        -4.3467  -1.3714   3.1673 LP             1 S1                 0.0000
     50 ****        -3.2406   1.0129   3.7208 LP             1 S1                 0.0000
     51 ****        -2.0118   1.5314   2.7786 LP             1 S1                 0.0000
     52 ****         0.7878   2.9410   0.2049 LP             1 S1                 0.0000
     53 ****         1.8543   2.0911  -1.7124 LP             1 S1                 0.0000
     54 ****         3.5506   0.9156  -0.9845 LP             1 S1                 0.0000
     55 ****         5.0137   0.0755  -1.3762 LP             1 S1                 0.0000
     56 ****         1.4657  -1.1571  -2.6574 LP             1 S1                 0.0000
     57 ****         0.3056  -2.3363   1.0930 LP             1 S1                 0.0000
@<TRIPOS>BOND
    1    1    2 1     
    2    1   29 1     
    3    1   30 1     
    4    1   31 1     
    5    2    6 1     
    6    2    3 1     
    7    2   32 1     
    8    3    4 1     
    9    4    5 1     
   10    4   33 1     
   11    4   34 1     
   12    5    6 1     
   13    5   35 1     
   14    5   36 1     
   15    6    7 1     
   16    6    8 1     
   17    7   37 1     
   18    8    9 1     
   19    8   38 1     
   20    8   39 1     
   21    9   26 1     
   22    9   10 1     
   23   10   11 2     
   24   10   40 1     
   25   11   12 1     
   26   12   26 ar    
   27   12   13 ar    
   28   13   14 1     
   29   13   23 ar    
   30   14   19 1     
   31   14   15 1     
   32   15   16 1     
   33   15   41 1     
   34   15   42 1     
   35   16   27 1     
   36   16   17 1     
   37   16   18 1     
   38   18   19 1     
   39   18   43 1     
   40   18   44 1     
   41   19   28 1     
   42   19   20 1     
   43   20   21 am    
   44   20   22 2     
   45   21   45 1     
   46   21   46 1     
   47   23   24 ar    
   48   24   25 ar    
   49   24   47 1     
   50   25   26 ar    
   51    3   48 1     
   52    3   49 1     
   53    7   50 1     
   54    7   51 1     
   55   11   52 1     
   56   14   53 1     
   57   22   54 1     
   58   22   55 1     
   59   23   56 1     
   60   25   57 1     
@<TRIPOS>SUBSTRUCTURE
      1 S1             1
@<TRIPOS>SET
LONE_PAIRS      STATIC     ATOMS    <user>   **** ""
10 48 49 50 51 52 53 54 55 56 57
DONOR_HYDROGENS      STATIC     ATOMS    <user>   **** ""
3 37 45 46
ATOM$BLUE        STATIC     ATOMS    COLORGROUP SYSTEM
10 48 49 50 51 52 53 54 55 56 57
ATOM$RED        STATIC     ATOMS    COLORGROUP SYSTEM
3 37 45 46
