AV-unprocessed.smi:2269|AV-procd|sdf|9152|dock5
  -GOLD-   2272012363D 1   1.00000     0.00000
 Structure written by MMmdl.
 41 42  0  0  0  0  0  0  0  0  1 V2000
  145.1781  139.2080  155.9429 C   0  0  0  0  0  0  0  0  0  0  0  0
  146.6563  139.1793  155.5968 C   0  0  0  0  0  0  0  0  0  0  0  0
  147.3222  137.9863  155.8918 N   0  0  0  0  0  0  0  0  0  0  0  0
  148.5823  137.8688  155.6273 C   0  0  0  0  0  0  0  0  0  0  0  0
  149.3157  138.9170  155.0476 N   0  0  0  0  0  0  0  0  0  0  0  0
  150.7408  138.6503  154.7871 C   0  0  0  0  0  0  0  0  0  0  0  0
  151.6641  139.5981  155.5861 C   0  0  2  0  0  0  0  0  0  0  0  0
  152.5763  140.1838  154.6776 O   0  0  0  0  0  0  0  0  0  0  0  0
  152.4985  138.8416  156.6326 C   0  0  0  0  0  0  0  0  0  0  0  0
  153.0994  139.7837  157.5091 O   0  0  0  0  0  0  0  0  0  0  0  0
  152.7108  139.6315  158.8660 C   0  0  0  0  0  0  0  0  0  0  0  0
  152.5678  140.9655  159.5874 C   0  0  0  0  0  0  0  0  0  0  0  0
  151.5999  141.8796  159.1183 C   0  0  0  0  0  0  0  0  0  0  0  0
  151.4250  143.1252  159.7503 C   0  0  0  0  0  0  0  0  0  0  0  0
  152.2184  143.4660  160.8608 C   0  0  0  0  0  0  0  0  0  0  0  0
  153.1867  142.5612  161.3352 C   0  0  0  0  0  0  0  0  0  0  0  0
  153.3675  141.3131  160.7052 C   0  0  0  0  0  0  0  0  0  0  0  0
  154.5820  140.2487  161.3224 Cl  0  0  0  0  0  0  0  0  0  0  0  0
  148.7426  140.1122  154.7235 C   0  0  0  0  0  0  0  0  0  0  0  0
  149.3925  141.0212  154.2031 O   0  0  0  0  0  0  0  0  0  0  0  0
  147.3087  140.2326  155.0333 C   0  0  0  0  0  0  0  0  0  0  0  0
  146.6355  141.5554  154.6889 C   0  0  0  0  0  0  0  0  0  0  0  0
  144.9716  139.9904  156.6735 H   0  0  0  0  0  0  0  0  0  0  0  0
  144.8509  138.2584  156.3683 H   0  0  0  0  0  0  0  0  0  0  0  0
  144.5807  139.3966  155.0506 H   0  0  0  0  0  0  0  0  0  0  0  0
  149.1465  136.9574  155.8322 H   0  0  0  0  0  0  0  0  0  0  0  0
  150.9488  137.6160  155.0665 H   0  0  0  0  0  0  0  0  0  0  0  0
  150.9787  138.6889  153.7220 H   0  0  0  0  0  0  0  0  0  0  0  0
  151.0790  140.3750  156.0803 H   0  0  0  0  0  0  0  0  0  0  0  0
  153.4506  140.0809  155.0211 H   0  0  0  0  0  0  0  0  0  0  0  0
  151.8531  138.1961  157.2301 H   0  0  0  0  0  0  0  0  0  0  0  0
  153.2372  138.1984  156.1513 H   0  0  0  0  0  0  0  0  0  0  0  0
  151.7332  139.1490  158.8736 H   0  0  0  0  0  0  0  0  0  0  0  0
  153.3819  138.9409  159.3754 H   0  0  0  0  0  0  0  0  0  0  0  0
  150.9880  141.6254  158.2651 H   0  0  0  0  0  0  0  0  0  0  0  0
  150.6823  143.8179  159.3830 H   0  0  0  0  0  0  0  0  0  0  0  0
  152.0853  144.4208  161.3479 H   0  0  0  0  0  0  0  0  0  0  0  0
  153.7951  142.8286  162.1868 H   0  0  0  0  0  0  0  0  0  0  0  0
  146.6909  141.7362  153.6150 H   0  0  0  0  0  0  0  0  0  0  0  0
  147.1396  142.3781  155.1972 H   0  0  0  0  0  0  0  0  0  0  0  0
  145.5855  141.5904  154.9747 H   0  0  0  0  0  0  0  0  0  0  0  0
  1  2  1  0  0  0  0
  1 23  1  0  0  0  0
  1 24  1  0  0  0  0
  1 25  1  0  0  0  0
  2 21  2  0  0  0  0
  2  3  1  0  0  0  0
  3  4  2  0  0  0  0
  4  5  1  0  0  0  0
  4 26  1  0  0  0  0
  5  6  1  0  0  0  0
  5 19  1  0  0  0  0
  6  7  1  0  0  0  0
  6 27  1  0  0  0  0
  6 28  1  0  0  0  0
  7  8  1  0  0  0  0
  7  9  1  0  0  0  0
  7 29  1  0  0  0  0
  8 30  1  0  0  0  0
  9 10  1  0  0  0  0
  9 31  1  0  0  0  0
  9 32  1  0  0  0  0
 10 11  1  0  0  0  0
 11 12  1  0  0  0  0
 11 33  1  0  0  0  0
 11 34  1  0  0  0  0
 12 17  1  0  0  0  0
 12 13  2  0  0  0  0
 13 14  1  0  0  0  0
 13 35  1  0  0  0  0
 14 15  2  0  0  0  0
 14 36  1  0  0  0  0
 15 16  1  0  0  0  0
 15 37  1  0  0  0  0
 16 17  2  0  0  0  0
 16 38  1  0  0  0  0
 17 18  1  0  0  0  0
 19 20  2  0  0  0  0
 19 21  1  0  0  0  0
 21 22  1  0  0  0  0
 22 39  1  0  0  0  0
 22 40  1  0  0  0  0
 22 41  1  0  0  0  0
M  END
> <s_m_source_file>
AV-unprocessed.smi

> <i_m_source_file_index>
2269

> <i_lp_mmshare_version>
43012

> <i_f3d_flags>
0

> <s_epik_input>
W0NIM11jMW5bY0hdbihjKD1PKWMxW0NIM10pW0NIMl1bQ0BIXShbT0hdKVtDSDJdT1tDSDJdYzJbY0hdW2NIXVtjSF1bY0hdYzJDbA==

> <s_epik_cmdline>
J2VwaWtfcHl0aG9uJywgJy1waCcsICc3LjAnLCAnLXRuJywgJzgnLCAnLW1hJywgJzIwMCcsICctbWV0YWxfYmluZGluZycsICctaW1hZScsICc8aW5maWxlLm1hZT4nLCAnLW9tYWUnLCAnPG91dGZpbGUubWFlPic=

> <r_lp_tautomer_probability>
1

> <r_epik_Ionization_Penalty>
5.36022e-05

> <r_epik_Ionization_Penalty_Charging>
1.17753e-07

> <r_epik_Ionization_Penalty_Neutral>
5.34845e-05

> <r_epik_State_Penalty>
-0

> <r_epik_Charging_Adjusted_Penalty>
1.17753e-07

> <i_epik_Tot_Q>
0

> <i_epik_Tot_abs_Q>
0

> <r_epik_Metal_State_Penalty>
-0

> <b_epik_Metal_Only>
0

> <s_lp_Force_Field>
OPLS_2005

> <r_lp_Energy>
24.1822

> <b_lp_Chiralities_Consistent>
1

> <s_lp_Variant>
AV-unprocessed.smi:2269-1

> <Gold.Version>
5.8.1

> <Gold.Id.Protein>
6NUR|6NUR_protein|mol2

> <Gold.PLP.Fitness>
45.6772

> <Gold.PLP.PLP>
-41.8356

> <Gold.PLP.part.hbond>
-4.7141

> <Gold.PLP.part.metal>
0.0000

> <Gold.PLP.part.buried>
-2.3582

> <Gold.PLP.part.nonpolar>
-34.6326

> <Gold.PLP.part.repulsive>
1.3929

> <Gold.PLP.ligand.clash>
0.0000

> <Gold.PLP.ligand.torsion>
1.4465

> <Gold.PLP.Chemscore.Hbond>
2.2000

> <Gold.PLP.Chemscore.CHOScore>
0.0000

> <Gold.PLP.Chemscore.Metal>
0.0000

> <Gold.Chemscore.Hbonds>
donor molecule, donor type, donor heavy atom, donor atom, acceptor molecule, acceptor atom, score
      P1  H  7989  7998       L1     8  0.43
      P1  H  7997  8010       L1    10  1.00
      P1  H  8011  8017       L1    20  0.14

> <Gold.PLP.Chemscore.Internal.Correction>
0.1346

> <Gold.Rescore>
     Score         DG    S(hbond)    S(metal)    S(lipo)     H(rot)  DE(clash)    DE(int)     intcor
     15.97     -19.32       2.25        0.00     109.11       2.52       1.73       1.62       ----

> <Gold.Chemscore.Fitness>
15.9671

> <Gold.Chemscore.DG>
-19.3179

> <Gold.Chemscore.ZeroCoef>
-5.4800

> <Gold.Chemscore.Hbond>
2.2494

> <Gold.Chemscore.Metal>
0.0000

> <Gold.Chemscore.Lipo>
109.1132

> <Gold.Chemscore.Internal_Hbond>
0.0000

> <Gold.Chemscore.DEClash>
1.7317

> <Gold.Chemscore.DEInternal>
1.6191

> <Gold.Chemscore.Rot>
2.5162

> <Gold.Chemscore.Internal.Correction>
   9.000000E+99

> <Gold.Chemscore.Hbonds>
donor molecule, donor type, donor heavy atom, donor atom, acceptor molecule, acceptor atom, score
      P1  H  7989  7998       L1     8  0.25
      P1  H  7997  8010       L1    10  0.42
      P1  H  8011  8017       L1    20  0.14

> <Gold.Chemscore.Hbond.Weighted>
-7.5130

> <Gold.Chemscore.Metal.Weighted>
-0.0000

> <Gold.Chemscore.Lipo.Weighted>
-12.7662

> <Gold.Chemscore.Internal_Hbond.Weighted>
0.0000

> <Gold.Chemscore.DEClash.Weighted>
1.7317

> <Gold.Chemscore.DEInternal.Weighted>
1.6191

> <Gold.Chemscore.Rot.Weighted>
6.4414

> <Gold.Chemscore.Internal.Correction.Weighted>
   9.000000E+99

> <Gold.Protein.RotatedTorsions>
[ 6907 6896 6895 6894 ] final   -7.66 input  -60.11 | X-H torsion
[ 7974 7965 7964 7962 ] final  106.83 input  175.53 | X-H torsion
[ 8008 7997 7996 7995 ] final   46.49 input   59.86 | X-H torsion
[ 10167 10162 10161 10158 ] final   23.06 input  -65.29 | X-H torsion
[ 10718 10713 10712 10709 ] final  161.24 input   66.30 | X-H torsion
[ 10763 10752 10751 10750 ] final   83.91 input  -60.55 | X-H torsion
[ 11005 11000 10999 10996 ] final -162.47 input  -57.11 | X-H torsion

> <Gold.Protein.ActiveResidues>
 VAL166  LYS551  ARG553  GLY616  TRP617  ASP618  TYR619  PRO620  LYS621  CYS622 
 ASP623  PHE694  ASN695  SER759  ASP760  ASP761  ALA762  ILE779  LEU786  VAL792 
 PHE793  MET794  SER795  GLU796  ALA797  LYS798  CYS799  TRP800  GLU811  SER814 

> <Gold.Protein.RotatedAtoms>
  151.4461  135.1025  159.9683 H   0  0  0  0  0  0  0  0  0  0  0  0  # atno 6907 bound_to 6896
  152.4905  133.8483  159.7199 H   0  0  0  0  0  0  0  0  0  0  0  0  # atno 6908 bound_to 6896
  150.9054  133.7005  159.2895 H   0  0  0  0  0  0  0  0  0  0  0  0  # atno 6909 bound_to 6896
  145.3015  139.2568  143.3811 H   0  0  0  0  0  0  0  0  0  0  0  0  # atno 7974 bound_to 7965
  155.3533  140.3414  155.4239 H   0  0  0  0  0  0  0  0  0  0  0  0  # atno 8008 bound_to 7997
  156.1752  140.1645  156.8410 H   0  0  0  0  0  0  0  0  0  0  0  0  # atno 8009 bound_to 7997
  154.5275  140.0753  156.8267 H   0  0  0  0  0  0  0  0  0  0  0  0  # atno 8010 bound_to 7997
  140.5299  143.9860  150.6460 H   0  0  0  0  0  0  0  0  0  0  0  0  # atno 10167 bound_to 10162
  157.1393  131.0536  151.2334 H   0  0  0  0  0  0  0  0  0  0  0  0  # atno 10718 bound_to 10713
  153.1334  135.4673  154.9384 H   0  0  0  0  0  0  0  0  0  0  0  0  # atno 10763 bound_to 10752
  154.7684  135.3151  154.8241 H   0  0  0  0  0  0  0  0  0  0  0  0  # atno 10764 bound_to 10752
  153.8779  135.6897  153.4823 H   0  0  0  0  0  0  0  0  0  0  0  0  # atno 10765 bound_to 10752
  140.6089  134.4870  157.5213 H   0  0  0  0  0  0  0  0  0  0  0  0  # atno 11005 bound_to 11000
  146.3150  140.3530  142.8658 LP  0  0  0  0  0  0  0  0  0  0  0  0  # atno 17320 bound_to 7965
  144.9090  140.7734  143.5819 LP  0  0  0  0  0  0  0  0  0  0  0  0  # atno 17321 bound_to 7965
  140.3232  143.3124  152.0763 LP  0  0  0  0  0  0  0  0  0  0  0  0  # atno 17342 bound_to 10162
  139.4950  144.6560  151.6572 LP  0  0  0  0  0  0  0  0  0  0  0  0  # atno 17343 bound_to 10162
  157.4322  130.7497  149.6999 LP  0  0  0  0  0  0  0  0  0  0  0  0  # atno 17370 bound_to 10713
  155.9792  130.4043  150.3603 LP  0  0  0  0  0  0  0  0  0  0  0  0  # atno 17371 bound_to 10713
  139.9200  134.8167  156.1240 LP  0  0  0  0  0  0  0  0  0  0  0  0  # atno 17394 bound_to 11000
  141.0821  133.6749  156.2359 LP  0  0  0  0  0  0  0  0  0  0  0  0  # atno 17395 bound_to 11000

$$$$
