AV-unprocessed.smi:98|AV-procd|sdf|864|dock1
  -GOLD-   2262017313D 1   1.00000     0.00000
 Structure written by MMmdl.
 56 59  0  0  0  0  0  0  0  0  1 V2000
  152.2473  136.9129  154.2661 O   0  0  0  0  0  0  0  0  0  0  0  0
  151.8364  137.5406  155.2431 C   0  0  0  0  0  0  0  0  0  0  0  0
  152.6105  138.7625  155.7621 C   0  0  0  0  0  0  0  0  0  0  0  0
  151.7310  139.8833  156.1610 N   0  0  0  0  0  0  0  0  0  0  0  0
  150.6913  140.2677  155.2782 C   0  0  0  0  0  0  0  0  0  0  0  0
  150.5125  139.6825  154.2088 O   0  0  0  0  0  0  0  0  0  0  0  0
  149.8672  141.3851  155.7241 C   0  0  0  0  0  0  0  0  0  0  0  0
  148.8774  141.8386  154.9364 F   0  0  0  0  0  0  0  0  0  0  0  0
  150.0862  141.9762  156.9165 C   0  0  0  0  0  0  0  0  0  0  0  0
  151.0766  141.5653  157.7864 N   0  0  0  0  0  0  0  0  0  0  0  0
  151.2682  142.3060  159.0896 C   0  0  1  0  0  0  0  0  0  0  0  0
  152.6330  143.0114  159.2024 C   0  0  0  0  0  0  0  0  0  0  0  0
  152.2465  144.4646  159.4246 C   0  0  0  0  0  0  0  0  0  0  0  0
  150.8160  144.3611  159.9423 C   0  0  0  0  0  0  0  0  0  0  0  0
  150.2764  143.2798  159.1986 O   0  0  0  0  0  0  0  0  0  0  0  0
  151.9456  140.5151  157.4099 C   0  0  0  0  0  0  0  0  0  0  0  0
  152.8643  140.1560  158.1482 O   0  0  0  0  0  0  0  0  0  0  0  0
  150.7198  137.2326  155.9274 N   0  0  0  0  0  0  0  0  0  0  0  0
  149.8043  136.1762  155.6782 C   0  0  0  0  0  0  0  0  0  0  0  0
  150.3034  135.0149  155.0506 C   0  0  0  0  0  0  0  0  0  0  0  0
  149.4549  133.9206  154.7945 C   0  0  0  0  0  0  0  0  0  0  0  0
  148.1020  133.9828  155.1819 C   0  0  0  0  0  0  0  0  0  0  0  0
  147.0188  132.5926  154.8662 S   0  0  0  0  0  0  0  0  0  0  0  0
  147.8422  131.3848  154.6973 O   0  0  0  0  0  0  0  0  0  0  0  0
  145.9334  132.6137  155.8595 O   0  0  0  0  0  0  0  0  0  0  0  0
  146.3376  132.9932  153.3230 N   0  0  0  0  0  0  0  0  0  0  0  0
  145.1611  133.8781  153.2823 C   0  0  0  0  0  0  0  0  0  0  0  0
  144.4875  133.8371  151.9015 C   0  0  0  0  0  0  0  0  0  0  0  0
  145.4386  134.1167  150.8853 O   0  0  0  0  0  0  0  0  0  0  0  0
  146.4620  133.1337  150.8488 C   0  0  0  0  0  0  0  0  0  0  0  0
  147.2450  133.1334  152.1718 C   0  0  0  0  0  0  0  0  0  0  0  0
  147.5960  135.1280  155.8271 C   0  0  0  0  0  0  0  0  0  0  0  0
  148.4462  136.2224  156.0773 C   0  0  0  0  0  0  0  0  0  0  0  0
  153.2415  138.4355  156.5898 H   0  0  0  0  0  0  0  0  0  0  0  0
  153.3243  139.0896  155.0038 H   0  0  0  0  0  0  0  0  0  0  0  0
  149.4502  142.8031  157.1976 H   0  0  0  0  0  0  0  0  0  0  0  0
  151.1307  141.5665  159.8799 H   0  0  0  0  0  0  0  0  0  0  0  0
  153.1620  142.6085  160.0667 H   0  0  0  0  0  0  0  0  0  0  0  0
  153.2553  142.8663  158.3188 H   0  0  0  0  0  0  0  0  0  0  0  0
  152.9115  144.9807  160.1172 H   0  0  0  0  0  0  0  0  0  0  0  0
  152.2604  145.0063  158.4783 H   0  0  0  0  0  0  0  0  0  0  0  0
  150.8028  144.1161  161.0056 H   0  0  0  0  0  0  0  0  0  0  0  0
  150.2453  145.2777  159.7915 H   0  0  0  0  0  0  0  0  0  0  0  0
  150.5547  137.7646  156.7697 H   0  0  0  0  0  0  0  0  0  0  0  0
  151.3412  134.9622  154.7547 H   0  0  0  0  0  0  0  0  0  0  0  0
  149.8461  133.0420  154.3032 H   0  0  0  0  0  0  0  0  0  0  0  0
  144.4462  133.5830  154.0503 H   0  0  0  0  0  0  0  0  0  0  0  0
  145.4772  134.8964  153.5108 H   0  0  0  0  0  0  0  0  0  0  0  0
  144.0237  132.8650  151.7254 H   0  0  0  0  0  0  0  0  0  0  0  0
  143.6912  134.5798  151.8532 H   0  0  0  0  0  0  0  0  0  0  0  0
  146.0307  132.1504  150.6540 H   0  0  0  0  0  0  0  0  0  0  0  0
  147.1329  133.3532  150.0181 H   0  0  0  0  0  0  0  0  0  0  0  0
  147.8039  134.0641  152.2755 H   0  0  0  0  0  0  0  0  0  0  0  0
  147.9717  132.3210  152.1689 H   0  0  0  0  0  0  0  0  0  0  0  0
  146.5609  135.1711  156.1322 H   0  0  0  0  0  0  0  0  0  0  0  0
  148.0432  137.0826  156.5903 H   0  0  0  0  0  0  0  0  0  0  0  0
  1  2  2  0  0  0  0
  2  3  1  0  0  0  0
  2 18  1  0  0  0  0
  3  4  1  0  0  0  0
  3 34  1  0  0  0  0
  3 35  1  0  0  0  0
  4 16  1  0  0  0  0
  4  5  1  0  0  0  0
  5  6  2  0  0  0  0
  5  7  1  0  0  0  0
  7  8  1  0  0  0  0
  7  9  2  0  0  0  0
  9 10  1  0  0  0  0
  9 36  1  0  0  0  0
 10 11  1  0  0  0  0
 10 16  1  0  0  0  0
 11 15  1  0  0  0  0
 11 12  1  0  0  0  0
 11 37  1  0  0  0  0
 12 13  1  0  0  0  0
 12 38  1  0  0  0  0
 12 39  1  0  0  0  0
 13 14  1  0  0  0  0
 13 40  1  0  0  0  0
 13 41  1  0  0  0  0
 14 15  1  0  0  0  0
 14 42  1  0  0  0  0
 14 43  1  0  0  0  0
 16 17  2  0  0  0  0
 18 19  1  0  0  0  0
 18 44  1  0  0  0  0
 19 33  1  0  0  0  0
 19 20  2  0  0  0  0
 20 21  1  0  0  0  0
 20 45  1  0  0  0  0
 21 22  2  0  0  0  0
 21 46  1  0  0  0  0
 22 23  1  0  0  0  0
 22 32  1  0  0  0  0
 23 24  2  0  0  0  0
 23 25  2  0  0  0  0
 23 26  1  0  0  0  0
 26 31  1  0  0  0  0
 26 27  1  0  0  0  0
 27 28  1  0  0  0  0
 27 47  1  0  0  0  0
 27 48  1  0  0  0  0
 28 29  1  0  0  0  0
 28 49  1  0  0  0  0
 28 50  1  0  0  0  0
 29 30  1  0  0  0  0
 30 31  1  0  0  0  0
 30 51  1  0  0  0  0
 30 52  1  0  0  0  0
 31 53  1  0  0  0  0
 31 54  1  0  0  0  0
 32 33  2  0  0  0  0
 32 55  1  0  0  0  0
 33 56  1  0  0  0  0
M  END
> <s_m_source_file>
AV-unprocessed.smi

> <i_m_source_file_index>
98

> <i_lp_mmshare_version>
43012

> <i_f3d_flags>
0

> <s_epik_input>
TzFbQ0gyXVtDSDJdW0NIMl1bQ0BIXTFuKGMyPU8pW2NIXWMoRiljKD1PKW4yW0NIMl1DKD1PKVtOSF1jM1tjSF1bY0hdYyhbY0hdW2NIXTMpUyg9TykoPU8pTjRbQ0gyXVtDSDJdT1tDSDJdW0NIMl00

> <s_epik_cmdline>
J2VwaWtfcHl0aG9uJywgJy1waCcsICc3LjAnLCAnLXRuJywgJzgnLCAnLW1hJywgJzIwMCcsICctbWV0YWxfYmluZGluZycsICctaW1hZScsICc8aW5maWxlLm1hZT4nLCAnLW9tYWUnLCAnPG91dGZpbGUubWFlPic=

> <r_lp_tautomer_probability>
1

> <r_epik_Ionization_Penalty>
1.9271e-06

> <r_epik_Ionization_Penalty_Charging>
3.88729e-08

> <r_epik_Ionization_Penalty_Neutral>
1.88823e-06

> <r_epik_State_Penalty>
-0

> <r_epik_Charging_Adjusted_Penalty>
3.88729e-08

> <i_epik_Tot_Q>
0

> <i_epik_Tot_abs_Q>
0

> <r_epik_Metal_State_Penalty>
-0

> <b_epik_Metal_Only>
0

> <s_epik_Chemistry_Notes>
This compound contains an acetal/aminal-like group ( X-CH(R)-Y where X, Y are N, S, or O) that may be acid/base labile, releasing an aldehyde.

> <s_lp_Force_Field>
OPLS_2005

> <r_lp_Energy>
28.5933

> <b_lp_Chiralities_Consistent>
1

> <s_lp_Variant>
AV-unprocessed.smi:98-2

> <Gold.Version>
5.8.1

> <Gold.Id.Protein>
6NUR|6NUR_protein|mol2

> <Gold.PLP.Fitness>
58.0999

> <Gold.PLP.PLP>
-50.7685

> <Gold.PLP.part.hbond>
-3.2236

> <Gold.PLP.part.metal>
0.0000

> <Gold.PLP.part.buried>
-4.3418

> <Gold.PLP.part.nonpolar>
-46.5256

> <Gold.PLP.part.repulsive>
2.7313

> <Gold.PLP.ligand.clash>
1.0070

> <Gold.PLP.ligand.torsion>
2.5984

> <Gold.PLP.Chemscore.Hbond>
2.2920

> <Gold.PLP.Chemscore.CHOScore>
0.8307

> <Gold.PLP.Chemscore.Metal>
0.0000

> <Gold.Chemscore.Hbonds>
donor molecule, donor type, donor heavy atom, donor atom, acceptor molecule, acceptor atom, score
      P1  H  7989  7998       L1     6  0.35
      P1  H  7997  8009       L1    17  0.93
      P1  H 10752 10763       L1     1  0.68
      L1  C     9    36       P1  8028  0.89

> <Gold.PLP.Chemscore.Internal.Correction>
4.1672

> <Gold.Rescore>
     Score         DG    S(hbond)    S(metal)    S(lipo)     H(rot)  DE(clash)    DE(int)     intcor
     10.54     -17.68       1.49        0.00      98.32       1.67       0.46       6.67       ----

> <Gold.Chemscore.Fitness>
10.5430

> <Gold.Chemscore.DG>
-17.6781

> <Gold.Chemscore.ZeroCoef>
-5.4800

> <Gold.Chemscore.Hbond>
1.4912

> <Gold.Chemscore.Metal>
0.0000

> <Gold.Chemscore.Lipo>
98.3231

> <Gold.Chemscore.Internal_Hbond>
0.0000

> <Gold.Chemscore.DEClash>
0.4636

> <Gold.Chemscore.DEInternal>
6.6715

> <Gold.Chemscore.Rot>
1.6744

> <Gold.Chemscore.Internal.Correction>
   9.000000E+99

> <Gold.Chemscore.Hbonds>
donor molecule, donor type, donor heavy atom, donor atom, acceptor molecule, acceptor atom, score
      P1  H  7989  7998       L1     6  0.01
      P1  H  7997  8009       L1    17  0.34
      P1  H 10752 10763       L1     1  0.65

> <Gold.Chemscore.Hbond.Weighted>
-4.9808

> <Gold.Chemscore.Metal.Weighted>
-0.0000

> <Gold.Chemscore.Lipo.Weighted>
-11.5038

> <Gold.Chemscore.Internal_Hbond.Weighted>
0.0000

> <Gold.Chemscore.DEClash.Weighted>
0.4636

> <Gold.Chemscore.DEInternal.Weighted>
6.6715

> <Gold.Chemscore.Rot.Weighted>
4.2865

> <Gold.Chemscore.Internal.Correction.Weighted>
   9.000000E+99

> <Gold.Protein.RotatedTorsions>
[ 6907 6896 6895 6894 ] final  103.10 input  -60.11 | X-H torsion
[ 7974 7965 7964 7962 ] final  -49.63 input  175.53 | X-H torsion
[ 8008 7997 7996 7995 ] final  165.82 input   59.86 | X-H torsion
[ 10167 10162 10161 10158 ] final    5.00 input  -65.29 | X-H torsion
[ 10718 10713 10712 10709 ] final  -13.65 input   66.30 | X-H torsion
[ 10763 10752 10751 10750 ] final   34.29 input  -60.55 | X-H torsion
[ 11005 11000 10999 10996 ] final  113.83 input  -57.11 | X-H torsion

> <Gold.Protein.ActiveResidues>
 VAL166  LYS551  ARG553  GLY616  TRP617  ASP618  TYR619  PRO620  LYS621  CYS622 
 ASP623  PHE694  ASN695  SER759  ASP760  ASP761  ALA762  ILE779  LEU786  VAL792 
 PHE793  MET794  SER795  GLU796  ALA797  LYS798  CYS799  TRP800  GLU811  SER814 

> <Gold.Protein.RotatedAtoms>
  152.5305  133.9876  159.7835 H   0  0  0  0  0  0  0  0  0  0  0  0  # atno 6907 bound_to 6896
  151.0118  133.5950  159.2689 H   0  0  0  0  0  0  0  0  0  0  0  0  # atno 6908 bound_to 6896
  151.3022  135.0778  159.9296 H   0  0  0  0  0  0  0  0  0  0  0  0  # atno 6909 bound_to 6896
  145.9385  140.7684  142.9564 H   0  0  0  0  0  0  0  0  0  0  0  0  # atno 7974 bound_to 7965
  156.1770  140.1660  156.8345 H   0  0  0  0  0  0  0  0  0  0  0  0  # atno 8008 bound_to 7997
  154.5317  140.0755  156.8391 H   0  0  0  0  0  0  0  0  0  0  0  0  # atno 8009 bound_to 7997
  155.3393  140.3383  155.4241 H   0  0  0  0  0  0  0  0  0  0  0  0  # atno 8010 bound_to 7997
  140.6505  143.7556  150.7568 H   0  0  0  0  0  0  0  0  0  0  0  0  # atno 10167 bound_to 10162
  156.6273  130.4892  149.6142 H   0  0  0  0  0  0  0  0  0  0  0  0  # atno 10718 bound_to 10713
  153.0171  135.6364  154.1646 H   0  0  0  0  0  0  0  0  0  0  0  0  # atno 10763 bound_to 10752
  154.1384  135.2836  155.3169 H   0  0  0  0  0  0  0  0  0  0  0  0  # atno 10764 bound_to 10752
  154.6143  135.5546  153.7568 H   0  0  0  0  0  0  0  0  0  0  0  0  # atno 10765 bound_to 10752
  139.8963  134.9557  156.6798 H   0  0  0  0  0  0  0  0  0  0  0  0  # atno 11005 bound_to 11000
  144.6775  140.2242  143.7363 LP  0  0  0  0  0  0  0  0  0  0  0  0  # atno 17320 bound_to 7965
  145.8331  139.2095  143.1871 LP  0  0  0  0  0  0  0  0  0  0  0  0  # atno 17321 bound_to 7965
  140.1205  143.4616  152.2316 LP  0  0  0  0  0  0  0  0  0  0  0  0  # atno 17342 bound_to 10162
  139.5720  144.7468  151.3865 LP  0  0  0  0  0  0  0  0  0  0  0  0  # atno 17343 bound_to 10162
  156.2263  130.6768  151.1419 LP  0  0  0  0  0  0  0  0  0  0  0  0  # atno 17370 bound_to 10713
  157.7210  131.0681  150.6134 LP  0  0  0  0  0  0  0  0  0  0  0  0  # atno 17371 bound_to 10713
  140.7308  133.9061  155.8210 LP  0  0  0  0  0  0  0  0  0  0  0  0  # atno 17394 bound_to 11000
  141.0155  134.0962  157.4177 LP  0  0  0  0  0  0  0  0  0  0  0  0  # atno 17395 bound_to 11000

$$$$
