AV-unprocessed.smi:1985|AV-procd|sdf|8043|dock3
  -GOLD-   2272010243D 1   1.00000     0.00000
 Structure written by MMmdl.
 50 51  0  0  0  0  0  0  0  0  1 V2000
  147.2016  141.6206  154.8547 C   0  0  0  0  0  0  0  0  0  0  0  0
  148.6014  141.1299  155.2658 C   0  0  0  0  0  0  0  0  0  0  0  0
  148.7477  139.5855  155.4542 C   0  0  2  0  0  0  0  0  0  0  0  0
  148.2236  138.9348  154.1444 C   0  0  0  0  0  0  0  0  0  0  0  0
  147.8144  139.1475  156.6267 C   0  0  0  0  0  0  0  0  0  0  0  0
  148.4530  138.1781  157.5094 N   0  0  0  0  0  0  0  0  0  0  0  0
  147.9662  137.7207  158.6734 C   0  0  0  0  0  0  0  0  0  0  0  0
  146.9115  138.1229  159.1620 O   0  0  0  0  0  0  0  0  0  0  0  0
  148.7752  136.6390  159.4116 C   0  0  0  0  0  0  0  0  0  0  0  0
  147.9864  135.8145  160.3419 N   0  0  0  0  0  0  0  0  0  0  0  0
  147.3352  136.4181  161.4024 C   0  0  0  0  0  0  0  0  0  0  0  0
  146.6276  135.7354  162.3285 C   0  0  0  0  0  0  0  0  0  0  0  0
  146.5095  134.2846  162.2575 C   0  0  0  0  0  0  0  0  0  0  0  0
  145.8964  133.6139  163.0891 O   0  0  0  0  0  0  0  0  0  0  0  0
  147.1696  133.6930  161.1561 N   0  0  0  0  0  0  0  0  0  0  0  0
  147.1033  132.2497  161.0567 C   0  0  0  0  0  0  0  0  0  0  0  0
  147.9141  134.4115  160.1925 C   0  0  0  0  0  0  0  0  0  0  0  0
  148.5019  133.8545  159.2627 O   0  0  0  0  0  0  0  0  0  0  0  0
  150.1685  139.2058  155.6953 N   0  0  0  0  0  0  0  0  0  0  0  0
  150.8705  140.0159  156.6979 C   0  0  0  0  0  0  0  0  0  0  0  0
  152.2791  139.4726  156.9940 C   0  0  0  0  0  0  0  0  0  0  0  0
  153.0316  139.4065  155.7886 O   0  0  0  0  0  0  0  0  0  0  0  0
  152.4125  138.5845  154.8064 C   0  0  0  0  0  0  0  0  0  0  0  0
  151.0062  139.1227  154.4925 C   0  0  0  0  0  0  0  0  0  0  0  0
  147.2009  142.7031  154.7275 H   0  0  0  0  0  0  0  0  0  0  0  0
  146.4524  141.3836  155.6095 H   0  0  0  0  0  0  0  0  0  0  0  0
  146.8781  141.1828  153.9105 H   0  0  0  0  0  0  0  0  0  0  0  0
  149.3288  141.4929  154.5396 H   0  0  0  0  0  0  0  0  0  0  0  0
  148.8635  141.6466  156.1897 H   0  0  0  0  0  0  0  0  0  0  0  0
  147.2835  139.3771  153.8113 H   0  0  0  0  0  0  0  0  0  0  0  0
  148.0349  137.8681  154.2663 H   0  0  0  0  0  0  0  0  0  0  0  0
  148.9357  139.0477  153.3265 H   0  0  0  0  0  0  0  0  0  0  0  0
  147.5277  139.9995  157.2426 H   0  0  0  0  0  0  0  0  0  0  0  0
  146.8909  138.7190  156.2363 H   0  0  0  0  0  0  0  0  0  0  0  0
  149.3284  137.7908  157.1885 H   0  0  0  0  0  0  0  0  0  0  0  0
  149.2461  136.0000  158.6633 H   0  0  0  0  0  0  0  0  0  0  0  0
  149.5989  137.1188  159.9425 H   0  0  0  0  0  0  0  0  0  0  0  0
  147.4012  137.4919  161.5030 H   0  0  0  0  0  0  0  0  0  0  0  0
  146.1483  136.2692  163.1361 H   0  0  0  0  0  0  0  0  0  0  0  0
  147.4209  131.9107  160.0710 H   0  0  0  0  0  0  0  0  0  0  0  0
  146.0655  131.9475  161.2091 H   0  0  0  0  0  0  0  0  0  0  0  0
  147.7551  131.8481  161.8341 H   0  0  0  0  0  0  0  0  0  0  0  0
  150.9589  141.0475  156.3572 H   0  0  0  0  0  0  0  0  0  0  0  0
  150.3200  140.0379  157.6368 H   0  0  0  0  0  0  0  0  0  0  0  0
  152.7951  140.1227  157.7005 H   0  0  0  0  0  0  0  0  0  0  0  0
  152.2227  138.4836  157.4514 H   0  0  0  0  0  0  0  0  0  0  0  0
  153.0272  138.5815  153.9062 H   0  0  0  0  0  0  0  0  0  0  0  0
  152.3608  137.5546  155.1626 H   0  0  0  0  0  0  0  0  0  0  0  0
  150.5582  138.4677  153.7477 H   0  0  0  0  0  0  0  0  0  0  0  0
  151.1048  140.1054  154.0318 H   0  0  0  0  0  0  0  0  0  0  0  0
  1  2  1  0  0  0  0
  1 25  1  0  0  0  0
  1 26  1  0  0  0  0
  1 27  1  0  0  0  0
  2  3  1  0  0  0  0
  2 28  1  0  0  0  0
  2 29  1  0  0  0  0
  3  4  1  0  0  0  0
  3  5  1  0  0  0  0
  3 19  1  0  0  0  0
  4 30  1  0  0  0  0
  4 31  1  0  0  0  0
  4 32  1  0  0  0  0
  5  6  1  0  0  0  0
  5 33  1  0  0  0  0
  5 34  1  0  0  0  0
  6  7  1  0  0  0  0
  6 35  1  0  0  0  0
  7  8  2  0  0  0  0
  7  9  1  0  0  0  0
  9 10  1  0  0  0  0
  9 36  1  0  0  0  0
  9 37  1  0  0  0  0
 10 17  1  0  0  0  0
 10 11  1  0  0  0  0
 11 12  2  0  0  0  0
 11 38  1  0  0  0  0
 12 13  1  0  0  0  0
 12 39  1  0  0  0  0
 13 14  2  0  0  0  0
 13 15  1  0  0  0  0
 15 16  1  0  0  0  0
 15 17  1  0  0  0  0
 16 40  1  0  0  0  0
 16 41  1  0  0  0  0
 16 42  1  0  0  0  0
 17 18  2  0  0  0  0
 19 24  1  0  0  0  0
 19 20  1  0  0  0  0
 20 21  1  0  0  0  0
 20 43  1  0  0  0  0
 20 44  1  0  0  0  0
 21 22  1  0  0  0  0
 21 45  1  0  0  0  0
 21 46  1  0  0  0  0
 22 23  1  0  0  0  0
 23 24  1  0  0  0  0
 23 47  1  0  0  0  0
 23 48  1  0  0  0  0
 24 49  1  0  0  0  0
 24 50  1  0  0  0  0
M  END
> <s_m_source_file>
AV-unprocessed.smi

> <i_m_source_file_index>
1985

> <i_lp_mmshare_version>
43012

> <i_f3d_flags>
0

> <s_epik_input>
W0NIMl0xW0NIMl1PW0NIMl1bQ0gyXU4xW0NAQF0oW0NIM10pKFtDSDJdW0NIM10pW0NIMl1bTkhdQyg9TylbQ0gyXW4yW2NIXVtjSF1jKD1PKW4oW0NIM10pYzI9Tw==

> <s_epik_cmdline>
J2VwaWtfcHl0aG9uJywgJy1waCcsICc3LjAnLCAnLXRuJywgJzgnLCAnLW1hJywgJzIwMCcsICctbWV0YWxfYmluZGluZycsICctaW1hZScsICc8aW5maWxlLm1hZT4nLCAnLW9tYWUnLCAnPG91dGZpbGUubWFlPic=

> <r_lp_tautomer_probability>
1

> <r_epik_Ionization_Penalty>
0.318667

> <r_epik_Ionization_Penalty_Charging>
1.17294e-08

> <r_epik_Ionization_Penalty_Neutral>
0.318667

> <r_epik_State_Penalty>
0.313095

> <r_epik_Charging_Adjusted_Penalty>
0.313095

> <i_epik_Tot_Q>
0

> <i_epik_Tot_abs_Q>
0

> <r_epik_Metal_State_Penalty>
0.313065

> <b_epik_Metal_Only>
0

> <s_lp_Force_Field>
OPLS_2005

> <r_lp_Energy>
50.9959

> <b_lp_Chiralities_Consistent>
1

> <s_lp_Variant>
AV-unprocessed.smi:1985-2

> <Gold.Version>
5.8.1

> <Gold.Id.Protein>
6NUR|6NUR_protein|mol2

> <Gold.PLP.Fitness>
42.0867

> <Gold.PLP.PLP>
-38.0566

> <Gold.PLP.part.hbond>
-4.0000

> <Gold.PLP.part.metal>
0.0000

> <Gold.PLP.part.buried>
-2.8742

> <Gold.PLP.part.nonpolar>
-31.8195

> <Gold.PLP.part.repulsive>
0.1237

> <Gold.PLP.ligand.clash>
0.0000

> <Gold.PLP.ligand.torsion>
1.7961

> <Gold.PLP.Chemscore.Hbond>
2.4475

> <Gold.PLP.Chemscore.CHOScore>
0.0000

> <Gold.PLP.Chemscore.Metal>
0.0000

> <Gold.Chemscore.Hbonds>
donor molecule, donor type, donor heavy atom, donor atom, acceptor molecule, acceptor atom, score
      P1  H  6896  6909       L1    18  0.67
      P1  H  6934  6947       L1     8  0.54
      P1  H  7997  8008       L1    22  1.00

> <Gold.PLP.Chemscore.Internal.Correction>
0.2799

> <Gold.Rescore>
     Score         DG    S(hbond)    S(metal)    S(lipo)     H(rot)  DE(clash)    DE(int)     intcor
     11.88     -15.30       2.12        0.00      71.46       2.20       0.33       3.10       ----

> <Gold.Chemscore.Fitness>
11.8774

> <Gold.Chemscore.DG>
-15.2989

> <Gold.Chemscore.ZeroCoef>
-5.4800

> <Gold.Chemscore.Hbond>
2.1192

> <Gold.Chemscore.Metal>
0.0000

> <Gold.Chemscore.Lipo>
71.4577

> <Gold.Chemscore.Internal_Hbond>
0.0000

> <Gold.Chemscore.DEClash>
0.3254

> <Gold.Chemscore.DEInternal>
3.0961

> <Gold.Chemscore.Rot>
2.1952

> <Gold.Chemscore.Internal.Correction>
   9.000000E+99

> <Gold.Chemscore.Hbonds>
donor molecule, donor type, donor heavy atom, donor atom, acceptor molecule, acceptor atom, score
      P1  H  6896  6909       L1    18  0.44
      P1  H  6934  6947       L1     8  0.45
      P1  H  7997  8008       L1    22  0.64

> <Gold.Chemscore.Hbond.Weighted>
-7.0780

> <Gold.Chemscore.Metal.Weighted>
-0.0000

> <Gold.Chemscore.Lipo.Weighted>
-8.3606

> <Gold.Chemscore.Internal_Hbond.Weighted>
0.0000

> <Gold.Chemscore.DEClash.Weighted>
0.3254

> <Gold.Chemscore.DEInternal.Weighted>
3.0961

> <Gold.Chemscore.Rot.Weighted>
5.6197

> <Gold.Chemscore.Internal.Correction.Weighted>
   9.000000E+99

> <Gold.Protein.RotatedTorsions>
[ 6907 6896 6895 6894 ] final   28.98 input  -60.11 | X-H torsion
[ 7974 7965 7964 7962 ] final  -48.91 input  175.53 | X-H torsion
[ 8008 7997 7996 7995 ] final  -22.99 input   59.86 | X-H torsion
[ 10167 10162 10161 10158 ] final  103.87 input  -65.29 | X-H torsion
[ 10718 10713 10712 10709 ] final -178.20 input   66.30 | X-H torsion
[ 10763 10752 10751 10750 ] final   -8.74 input  -60.55 | X-H torsion
[ 11005 11000 10999 10996 ] final   89.77 input  -57.11 | X-H torsion

> <Gold.Protein.ActiveResidues>
 VAL166  LYS551  ARG553  GLY616  TRP617  ASP618  TYR619  PRO620  LYS621  CYS622 
 ASP623  PHE694  ASN695  SER759  ASP760  ASP761  ALA762  ILE779  LEU786  VAL792 
 PHE793  MET794  SER795  GLU796  ALA797  LYS798  CYS799  TRP800  GLU811  SER814 

> <Gold.Protein.RotatedAtoms>
  152.0248  134.9802  160.0571 H   0  0  0  0  0  0  0  0  0  0  0  0  # atno 6907 bound_to 6896
  152.1302  133.4398  159.4725 H   0  0  0  0  0  0  0  0  0  0  0  0  # atno 6908 bound_to 6896
  150.6855  134.2349  159.4492 H   0  0  0  0  0  0  0  0  0  0  0  0  # atno 6909 bound_to 6896
  145.9462  140.7616  142.9527 H   0  0  0  0  0  0  0  0  0  0  0  0  # atno 7974 bound_to 7965
  154.4611  140.1993  156.0242 H   0  0  0  0  0  0  0  0  0  0  0  0  # atno 8008 bound_to 7997
  156.0842  140.3267  155.7704 H   0  0  0  0  0  0  0  0  0  0  0  0  # atno 8009 bound_to 7997
  155.5062  140.0558  157.2922 H   0  0  0  0  0  0  0  0  0  0  0  0  # atno 8010 bound_to 7997
  139.7225  144.7055  151.0849 H   0  0  0  0  0  0  0  0  0  0  0  0  # atno 10167 bound_to 10162
  156.8408  130.9685  151.3100 H   0  0  0  0  0  0  0  0  0  0  0  0  # atno 10718 bound_to 10713
  153.4447  135.7014  153.6146 H   0  0  0  0  0  0  0  0  0  0  0  0  # atno 10763 bound_to 10752
  153.4506  135.3759  155.2282 H   0  0  0  0  0  0  0  0  0  0  0  0  # atno 10764 bound_to 10752
  154.8728  135.3996  154.3851 H   0  0  0  0  0  0  0  0  0  0  0  0  # atno 10765 bound_to 10752
  139.8869  134.8572  156.3189 H   0  0  0  0  0  0  0  0  0  0  0  0  # atno 11005 bound_to 11000
  144.6787  140.2360  143.7349 LP  0  0  0  0  0  0  0  0  0  0  0  0  # atno 17320 bound_to 7965
  145.8234  139.2053  143.1925 LP  0  0  0  0  0  0  0  0  0  0  0  0  # atno 17321 bound_to 7965
  140.7756  143.5147  150.9609 LP  0  0  0  0  0  0  0  0  0  0  0  0  # atno 17342 bound_to 10162
  139.8834  143.7043  152.3154 LP  0  0  0  0  0  0  0  0  0  0  0  0  # atno 17343 bound_to 10162
  157.6357  130.8764  149.9354 LP  0  0  0  0  0  0  0  0  0  0  0  0  # atno 17370 bound_to 10713
  156.0882  130.3666  150.0447 LP  0  0  0  0  0  0  0  0  0  0  0  0  # atno 17371 bound_to 10713
  140.9800  133.7273  156.0658 LP  0  0  0  0  0  0  0  0  0  0  0  0  # atno 17394 bound_to 11000
  140.7762  134.3777  157.5497 LP  0  0  0  0  0  0  0  0  0  0  0  0  # atno 17395 bound_to 11000

$$$$
