AV-unprocessed.smi:3222|AV-procd|sdf|12306|dock9
  -GOLD-   2272018153D 1   1.00000     0.00000
 Structure written by MMmdl.
 41 42  0  0  0  0  0  0  0  0  2 V2000
  148.0216  141.7679  156.1047 C   0  0  0  0  0  0  0  0  0  0  0  0
  149.4251  141.2818  155.7083 C   0  0  1  0  0  0  0  0  0  0  0  0
  150.4349  142.2651  156.1637 N   0  3  0  0  0  0  0  0  0  0  0  0
  150.7509  142.2167  157.6040 C   0  0  0  0  0  0  0  0  0  0  0  0
  151.8352  143.2457  157.9587 C   0  0  0  0  0  0  0  0  0  0  0  0
  152.2780  143.1099  159.3436 N   0  0  0  0  0  0  0  0  0  0  0  0
  151.9432  144.1200  160.3331 C   0  0  0  0  0  0  0  0  0  0  0  0
  152.7222  143.7173  161.5935 C   0  0  0  0  0  0  0  0  0  0  0  0
  153.2000  142.2818  161.3485 C   0  0  0  0  0  0  0  0  0  0  0  0
  152.9498  142.0763  159.8642 C   0  0  0  0  0  0  0  0  0  0  0  0
  153.3284  141.0777  159.2539 O   0  0  0  0  0  0  0  0  0  0  0  0
  149.7404  139.8598  156.2417 C   0  0  1  0  0  0  0  0  0  0  0  0
  148.4922  138.9609  156.3272 C   0  0  0  0  0  0  0  0  0  0  0  0
  150.8319  139.2080  155.5236 N   0  0  0  0  0  0  0  0  0  0  0  0
  152.1574  139.5883  155.4643 C   0  0  0  0  0  0  0  0  0  0  0  0
  152.8052  138.6957  154.6596 C   0  0  0  0  0  0  0  0  0  0  0  0
  151.7805  137.7930  154.2624 C   0  0  0  0  0  0  0  0  0  0  0  0
  150.6014  138.1047  154.7751 N   0  0  0  0  0  0  0  0  0  0  0  0
  147.2569  141.0578  155.7885 H   0  0  0  0  0  0  0  0  0  0  0  0
  147.7932  142.7250  155.6350 H   0  0  0  0  0  0  0  0  0  0  0  0
  147.9275  141.9000  157.1830 H   0  0  0  0  0  0  0  0  0  0  0  0
  149.4484  141.2315  154.6181 H   0  0  0  0  0  0  0  0  0  0  0  0
  151.2855  142.1178  155.6398 H   0  0  0  0  0  0  0  0  0  0  0  0
  149.8410  142.4135  158.1724 H   0  0  0  0  0  0  0  0  0  0  0  0
  151.0866  141.2118  157.8643 H   0  0  0  0  0  0  0  0  0  0  0  0
  152.6916  143.1284  157.2930 H   0  0  0  0  0  0  0  0  0  0  0  0
  151.4598  144.2584  157.8012 H   0  0  0  0  0  0  0  0  0  0  0  0
  152.2167  145.1189  159.9907 H   0  0  0  0  0  0  0  0  0  0  0  0
  150.8679  144.1029  160.5165 H   0  0  0  0  0  0  0  0  0  0  0  0
  153.5812  144.3756  161.7297 H   0  0  0  0  0  0  0  0  0  0  0  0
  152.1052  143.7943  162.4895 H   0  0  0  0  0  0  0  0  0  0  0  0
  154.2532  142.1494  161.5978 H   0  0  0  0  0  0  0  0  0  0  0  0
  152.6109  141.5631  161.9191 H   0  0  0  0  0  0  0  0  0  0  0  0
  150.0886  139.9842  157.2684 H   0  0  0  0  0  0  0  0  0  0  0  0
  147.7191  139.4245  156.9404 H   0  0  0  0  0  0  0  0  0  0  0  0
  148.7349  137.9986  156.7795 H   0  0  0  0  0  0  0  0  0  0  0  0
  148.0601  138.7642  155.3457 H   0  0  0  0  0  0  0  0  0  0  0  0
  152.5262  140.4549  155.9932 H   0  0  0  0  0  0  0  0  0  0  0  0
  153.8521  138.6890  154.3938 H   0  0  0  0  0  0  0  0  0  0  0  0
  151.8568  136.9292  153.6185 H   0  0  0  0  0  0  0  0  0  0  0  0
  150.0860  143.1885  155.9462 H   0  0  0  0  0  0  0  0  0  0  0  0
  1  2  1  0  0  0  0
  1 19  1  0  0  0  0
  1 20  1  0  0  0  0
  1 21  1  0  0  0  0
  2  3  1  0  0  0  0
  2 12  1  0  0  0  0
  2 22  1  0  0  0  0
  3  4  1  0  0  0  0
  3 23  1  0  0  0  0
  3 41  1  0  0  0  0
  4  5  1  0  0  0  0
  4 24  1  0  0  0  0
  4 25  1  0  0  0  0
  5  6  1  0  0  0  0
  5 26  1  0  0  0  0
  5 27  1  0  0  0  0
  6 10  1  0  0  0  0
  6  7  1  0  0  0  0
  7  8  1  0  0  0  0
  7 28  1  0  0  0  0
  7 29  1  0  0  0  0
  8  9  1  0  0  0  0
  8 30  1  0  0  0  0
  8 31  1  0  0  0  0
  9 10  1  0  0  0  0
  9 32  1  0  0  0  0
  9 33  1  0  0  0  0
 10 11  2  0  0  0  0
 12 13  1  0  0  0  0
 12 14  1  0  0  0  0
 12 34  1  0  0  0  0
 13 35  1  0  0  0  0
 13 36  1  0  0  0  0
 13 37  1  0  0  0  0
 14 18  1  0  0  0  0
 14 15  1  0  0  0  0
 15 16  2  0  0  0  0
 15 38  1  0  0  0  0
 16 17  1  0  0  0  0
 16 39  1  0  0  0  0
 17 18  2  0  0  0  0
 17 40  1  0  0  0  0
M  CHG  1   3   1
M  END
> <s_m_source_file>
AV-unprocessed.smi

> <i_m_source_file_index>
3222

> <i_lp_mmshare_version>
43012

> <i_f3d_flags>
0

> <s_epik_input>
bjFbY0hdW2NIXVtjSF1uMVtDQEBIXShbQ0gzXSlbQ0BIXShbQ0gzXSlbTkhdW0NIMl1bQ0gyXU4yW0NIMl1bQ0gyXVtDSDJdQzI9Tw==

> <s_epik_cmdline>
J2VwaWtfcHl0aG9uJywgJy1waCcsICc3LjAnLCAnLXRuJywgJzgnLCAnLW1hJywgJzIwMCcsICctbWV0YWxfYmluZGluZycsICctaW1hZScsICc8aW5maWxlLm1hZT4nLCAnLW9tYWUnLCAnPG91dGZpbGUubWFlPic=

> <r_lp_tautomer_probability>
1

> <r_epik_Ionization_Penalty>
0.0064019

> <r_epik_Ionization_Penalty_Charging>
0.00639164

> <r_epik_Ionization_Penalty_Neutral>
1.02567e-05

> <r_epik_State_Penalty>
0.00472531

> <r_epik_Charging_Adjusted_Penalty>
0.011117

> <i_epik_Tot_Q>
1

> <i_epik_Tot_abs_Q>
1

> <r_epik_Metal_State_Penalty>
-0

> <b_epik_Metal_Only>
0

> <s_lp_Force_Field>
OPLS_2005

> <r_lp_Energy>
25.7217

> <b_lp_Chiralities_Consistent>
1

> <s_lp_Variant>
AV-unprocessed.smi:3222-4

> <Gold.Version>
5.8.1

> <Gold.Id.Protein>
6NUR|6NUR_protein|mol2

> <Gold.PLP.Fitness>
48.0319

> <Gold.PLP.PLP>
-40.4881

> <Gold.PLP.part.hbond>
-1.0000

> <Gold.PLP.part.metal>
0.0000

> <Gold.PLP.part.buried>
-4.1503

> <Gold.PLP.part.nonpolar>
-35.6907

> <Gold.PLP.part.repulsive>
0.2662

> <Gold.PLP.ligand.clash>
0.0000

> <Gold.PLP.ligand.torsion>
0.8413

> <Gold.PLP.Chemscore.Hbond>
2.0000

> <Gold.PLP.Chemscore.CHOScore>
1.0000

> <Gold.PLP.Chemscore.Metal>
0.0000

> <Gold.Chemscore.Hbonds>
donor molecule, donor type, donor heavy atom, donor atom, acceptor molecule, acceptor atom, score
      L1  H     3    41       P1  8028  2.00
      L1  C    17    40       P1  7949  1.00

> <Gold.PLP.Chemscore.Internal.Correction>
0.2263

> <Gold.Rescore>
     Score         DG    S(hbond)    S(metal)    S(lipo)     H(rot)  DE(clash)    DE(int)     intcor
     13.98     -14.63       1.00        0.00      93.27       1.99       0.11       0.54       ----

> <Gold.Chemscore.Fitness>
13.9839

> <Gold.Chemscore.DG>
-14.6322

> <Gold.Chemscore.ZeroCoef>
-5.4800

> <Gold.Chemscore.Hbond>
0.9999

> <Gold.Chemscore.Metal>
0.0000

> <Gold.Chemscore.Lipo>
93.2701

> <Gold.Chemscore.Internal_Hbond>
0.0000

> <Gold.Chemscore.DEClash>
0.1104

> <Gold.Chemscore.DEInternal>
0.5379

> <Gold.Chemscore.Rot>
1.9922

> <Gold.Chemscore.Internal.Correction>
   9.000000E+99

> <Gold.Chemscore.Hbonds>
donor molecule, donor type, donor heavy atom, donor atom, acceptor molecule, acceptor atom, score
      L1  H     3    41       P1  8028  0.98

> <Gold.Chemscore.Hbond.Weighted>
-3.3397

> <Gold.Chemscore.Metal.Weighted>
-0.0000

> <Gold.Chemscore.Lipo.Weighted>
-10.9126

> <Gold.Chemscore.Internal_Hbond.Weighted>
0.0000

> <Gold.Chemscore.DEClash.Weighted>
0.1104

> <Gold.Chemscore.DEInternal.Weighted>
0.5379

> <Gold.Chemscore.Rot.Weighted>
5.1002

> <Gold.Chemscore.Internal.Correction.Weighted>
   9.000000E+99

> <Gold.Protein.RotatedTorsions>
[ 6907 6896 6895 6894 ] final    5.27 input  -60.11 | X-H torsion
[ 7974 7965 7964 7962 ] final  -25.62 input  175.53 | X-H torsion
[ 8008 7997 7996 7995 ] final -102.75 input   59.86 | X-H torsion
[ 10167 10162 10161 10158 ] final  -51.93 input  -65.29 | X-H torsion
[ 10718 10713 10712 10709 ] final  -12.29 input   66.30 | X-H torsion
[ 10763 10752 10751 10750 ] final  -85.29 input  -60.55 | X-H torsion
[ 11005 11000 10999 10996 ] final  -30.49 input  -57.11 | X-H torsion

> <Gold.Protein.ActiveResidues>
 VAL166  LYS551  ARG553  GLY616  TRP617  ASP618  TYR619  PRO620  LYS621  CYS622 
 ASP623  PHE694  ASN695  SER759  ASP760  ASP761  ALA762  ILE779  LEU786  VAL792 
 PHE793  MET794  SER795  GLU796  ALA797  LYS798  CYS799  TRP800  GLU811  SER814 

> <Gold.Protein.RotatedAtoms>
  151.6549  135.0997  160.0167 H   0  0  0  0  0  0  0  0  0  0  0  0  # atno 6907 bound_to 6896
  152.3980  133.6771  159.6301 H   0  0  0  0  0  0  0  0  0  0  0  0  # atno 6908 bound_to 6896
  150.7884  133.8757  159.3312 H   0  0  0  0  0  0  0  0  0  0  0  0  # atno 6909 bound_to 6896
  146.1479  140.4911  142.8624 H   0  0  0  0  0  0  0  0  0  0  0  0  # atno 7974 bound_to 7965
  154.8611  140.0426  157.1666 H   0  0  0  0  0  0  0  0  0  0  0  0  # atno 8008 bound_to 7997
  154.8839  140.2976  155.5389 H   0  0  0  0  0  0  0  0  0  0  0  0  # atno 8009 bound_to 7997
  156.2998  140.2406  156.3845 H   0  0  0  0  0  0  0  0  0  0  0  0  # atno 8010 bound_to 7997
  140.6563  143.2602  151.4574 H   0  0  0  0  0  0  0  0  0  0  0  0  # atno 10167 bound_to 10162
  156.6467  130.4943  149.6076 H   0  0  0  0  0  0  0  0  0  0  0  0  # atno 10718 bound_to 10713
  154.6094  135.5490  153.7457 H   0  0  0  0  0  0  0  0  0  0  0  0  # atno 10763 bound_to 10752
  153.0188  135.6386  154.1600 H   0  0  0  0  0  0  0  0  0  0  0  0  # atno 10764 bound_to 10752
  154.1538  135.2901  155.3108 H   0  0  0  0  0  0  0  0  0  0  0  0  # atno 10765 bound_to 10752
  140.9387  133.7292  156.1043 H   0  0  0  0  0  0  0  0  0  0  0  0  # atno 11005 bound_to 11000
  144.7868  140.5952  143.6568 LP  0  0  0  0  0  0  0  0  0  0  0  0  # atno 17320 bound_to 7965
  145.4894  139.1490  143.3718 LP  0  0  0  0  0  0  0  0  0  0  0  0  # atno 17321 bound_to 7965
  139.5787  144.1759  152.1939 LP  0  0  0  0  0  0  0  0  0  0  0  0  # atno 17342 bound_to 10162
  140.1078  144.5484  150.6945 LP  0  0  0  0  0  0  0  0  0  0  0  0  # atno 17343 bound_to 10162
  156.2116  130.6682  151.1276 LP  0  0  0  0  0  0  0  0  0  0  0  0  # atno 17370 bound_to 10713
  157.7154  131.0712  150.6347 LP  0  0  0  0  0  0  0  0  0  0  0  0  # atno 17371 bound_to 10713
  140.7764  134.3775  157.5497 LP  0  0  0  0  0  0  0  0  0  0  0  0  # atno 17394 bound_to 11000
  139.8814  134.9054  156.2899 LP  0  0  0  0  0  0  0  0  0  0  0  0  # atno 17395 bound_to 11000

$$$$
