AV-unprocessed.smi:3036|AV-procd|sdf|11582|dock5
  -GOLD-   2272016553D 1   1.00000     0.00000
 Structure written by MMmdl.
 42 43  0  0  0  0  0  0  0  0  2 V2000
  147.7718  132.7859  152.8754 C   0  0  0  0  0  0  0  0  0  0  0  0
  146.9547  134.0232  153.2704 C   0  0  2  0  0  0  0  0  0  0  0  0
  146.1007  134.5327  152.0930 C   0  0  0  0  0  0  0  0  0  0  0  0
  145.4003  133.4565  151.4139 N   0  0  0  0  0  0  0  0  0  0  0  0
  144.3744  132.6669  151.8888 C   0  0  0  0  0  0  0  0  0  0  0  0
  144.0294  131.8047  150.8879 C   0  0  0  0  0  0  0  0  0  0  0  0
  144.9126  132.1464  149.8264 C   0  0  0  0  0  0  0  0  0  0  0  0
  145.7307  133.1373  150.1432 N   0  0  0  0  0  0  0  0  0  0  0  0
  147.8632  135.0877  153.7510 N   0  3  0  0  0  0  0  0  0  0  0  0
  148.4031  134.8739  155.1110 C   0  0  0  0  0  0  0  0  0  0  0  0
  148.9992  136.1638  155.7088 C   0  0  0  0  0  0  0  0  0  0  0  0
  150.4450  136.4733  155.2753 C   0  0  0  0  0  0  0  0  0  0  0  0
  151.3196  135.6273  155.4691 O   0  0  0  0  0  0  0  0  0  0  0  0
  150.7136  137.6664  154.6924 N   0  0  0  0  0  0  0  0  0  0  0  0
  149.7039  138.7120  154.5018 C   0  0  0  0  0  0  0  0  0  0  0  0
  150.1062  139.9364  155.3436 C   0  0  0  0  0  0  0  0  0  0  0  0
  151.4068  140.3769  154.9612 O   0  0  0  0  0  0  0  0  0  0  0  0
  152.4055  139.3710  155.1114 C   0  0  0  0  0  0  0  0  0  0  0  0
  152.0328  138.1422  154.2628 C   0  0  0  0  0  0  0  0  0  0  0  0
  147.1213  131.9763  152.5426 H   0  0  0  0  0  0  0  0  0  0  0  0
  148.3533  132.4132  153.7195 H   0  0  0  0  0  0  0  0  0  0  0  0
  148.4661  133.0089  152.0645 H   0  0  0  0  0  0  0  0  0  0  0  0
  146.2804  133.7280  154.0763 H   0  0  0  0  0  0  0  0  0  0  0  0
  145.3729  135.2716  152.4325 H   0  0  0  0  0  0  0  0  0  0  0  0
  146.7346  135.0353  151.3612 H   0  0  0  0  0  0  0  0  0  0  0  0
  143.9783  132.7840  152.8867 H   0  0  0  0  0  0  0  0  0  0  0  0
  143.2627  131.0442  150.9106 H   0  0  0  0  0  0  0  0  0  0  0  0
  144.9817  131.7084  148.8416 H   0  0  0  0  0  0  0  0  0  0  0  0
  148.6368  135.1716  153.1061 H   0  0  0  0  0  0  0  0  0  0  0  0
  147.5955  134.5257  155.7567 H   0  0  0  0  0  0  0  0  0  0  0  0
  149.1510  134.0798  155.0863 H   0  0  0  0  0  0  0  0  0  0  0  0
  148.3572  137.0048  155.4435 H   0  0  0  0  0  0  0  0  0  0  0  0
  148.9820  136.0795  156.7960 H   0  0  0  0  0  0  0  0  0  0  0  0
  149.6563  138.9796  153.4453 H   0  0  0  0  0  0  0  0  0  0  0  0
  148.6986  138.3911  154.7774 H   0  0  0  0  0  0  0  0  0  0  0  0
  149.3983  140.7506  155.1884 H   0  0  0  0  0  0  0  0  0  0  0  0
  150.0918  139.6976  156.4082 H   0  0  0  0  0  0  0  0  0  0  0  0
  153.3649  139.7764  154.7895 H   0  0  0  0  0  0  0  0  0  0  0  0
  152.5085  139.1012  156.1636 H   0  0  0  0  0  0  0  0  0  0  0  0
  152.8197  137.3938  154.3369 H   0  0  0  0  0  0  0  0  0  0  0  0
  151.9869  138.4183  153.2083 H   0  0  0  0  0  0  0  0  0  0  0  0
  147.3479  135.9570  153.7508 H   0  0  0  0  0  0  0  0  0  0  0  0
  1  2  1  0  0  0  0
  1 20  1  0  0  0  0
  1 21  1  0  0  0  0
  1 22  1  0  0  0  0
  2  3  1  0  0  0  0
  2  9  1  0  0  0  0
  2 23  1  0  0  0  0
  3  4  1  0  0  0  0
  3 24  1  0  0  0  0
  3 25  1  0  0  0  0
  4  8  1  0  0  0  0
  4  5  1  0  0  0  0
  5  6  2  0  0  0  0
  5 26  1  0  0  0  0
  6  7  1  0  0  0  0
  6 27  1  0  0  0  0
  7  8  2  0  0  0  0
  7 28  1  0  0  0  0
  9 10  1  0  0  0  0
  9 29  1  0  0  0  0
  9 42  1  0  0  0  0
 10 11  1  0  0  0  0
 10 30  1  0  0  0  0
 10 31  1  0  0  0  0
 11 12  1  0  0  0  0
 11 32  1  0  0  0  0
 11 33  1  0  0  0  0
 12 13  2  0  0  0  0
 12 14  1  0  0  0  0
 14 19  1  0  0  0  0
 14 15  1  0  0  0  0
 15 16  1  0  0  0  0
 15 34  1  0  0  0  0
 15 35  1  0  0  0  0
 16 17  1  0  0  0  0
 16 36  1  0  0  0  0
 16 37  1  0  0  0  0
 17 18  1  0  0  0  0
 18 19  1  0  0  0  0
 18 38  1  0  0  0  0
 18 39  1  0  0  0  0
 19 40  1  0  0  0  0
 19 41  1  0  0  0  0
M  CHG  1   9   1
M  END
> <s_m_source_file>
AV-unprocessed.smi

> <i_m_source_file_index>
3036

> <i_lp_mmshare_version>
43012

> <i_f3d_flags>
0

> <s_epik_input>
bjFbY0hdW2NIXVtjSF1uMVtDSDJdW0NAQEhdKFtDSDNdKVtOSF1bQ0gyXVtDSDJdQyg9TylOMltDSDJdW0NIMl1PW0NIMl1bQ0gyXTI=

> <s_epik_cmdline>
J2VwaWtfcHl0aG9uJywgJy1waCcsICc3LjAnLCAnLXRuJywgJzgnLCAnLW1hJywgJzIwMCcsICctbWV0YWxfYmluZGluZycsICctaW1hZScsICc8aW5maWxlLm1hZT4nLCAnLW9tYWUnLCAnPG91dGZpbGUubWFlPic=

> <r_lp_tautomer_probability>
1

> <r_epik_Ionization_Penalty>
0.00797109

> <r_epik_Ionization_Penalty_Charging>
0.0079672

> <r_epik_Ionization_Penalty_Neutral>
3.88864e-06

> <r_epik_State_Penalty>
0.00597998

> <r_epik_Charging_Adjusted_Penalty>
0.0139472

> <i_epik_Tot_Q>
1

> <i_epik_Tot_abs_Q>
1

> <r_epik_Metal_State_Penalty>
0.00598029

> <b_epik_Metal_Only>
0

> <s_lp_Force_Field>
OPLS_2005

> <r_lp_Energy>
23.8433

> <b_lp_Chiralities_Consistent>
1

> <s_lp_Variant>
AV-unprocessed.smi:3036-1

> <Gold.Version>
5.8.1

> <Gold.Id.Protein>
6NUR|6NUR_protein|mol2

> <Gold.PLP.Fitness>
46.7567

> <Gold.PLP.PLP>
-35.0332

> <Gold.PLP.part.hbond>
-2.8537

> <Gold.PLP.part.metal>
0.0000

> <Gold.PLP.part.buried>
-5.0484

> <Gold.PLP.part.nonpolar>
-28.3539

> <Gold.PLP.part.repulsive>
0.6297

> <Gold.PLP.ligand.clash>
0.0000

> <Gold.PLP.ligand.torsion>
0.4753

> <Gold.PLP.Chemscore.Hbond>
3.2080

> <Gold.PLP.Chemscore.CHOScore>
0.9874

> <Gold.PLP.Chemscore.Metal>
0.0000

> <Gold.Chemscore.Hbonds>
donor molecule, donor type, donor heavy atom, donor atom, acceptor molecule, acceptor atom, score
      L1  H     9    29       P1  7948  1.38
      P1  H  7989  7998       L1    17  1.00
      P1  H 10752 10764       L1    13  1.00
      L1  C     5    26       P1 10957  0.98

> <Gold.PLP.Chemscore.Internal.Correction>
0.0877

> <Gold.Rescore>
     Score         DG    S(hbond)    S(metal)    S(lipo)     H(rot)  DE(clash)    DE(int)     intcor
     17.12     -17.76       2.41        0.00      81.24       2.07       0.25       0.39       ----

> <Gold.Chemscore.Fitness>
17.1200

> <Gold.Chemscore.DG>
-17.7556

> <Gold.Chemscore.ZeroCoef>
-5.4800

> <Gold.Chemscore.Hbond>
2.4145

> <Gold.Chemscore.Metal>
0.0000

> <Gold.Chemscore.Lipo>
81.2401

> <Gold.Chemscore.Internal_Hbond>
0.0000

> <Gold.Chemscore.DEClash>
0.2479

> <Gold.Chemscore.DEInternal>
0.3877

> <Gold.Chemscore.Rot>
2.0680

> <Gold.Chemscore.Internal.Correction>
   9.000000E+99

> <Gold.Chemscore.Hbonds>
donor molecule, donor type, donor heavy atom, donor atom, acceptor molecule, acceptor atom, score
      L1  H     9    29       P1  7948  0.50
      P1  H  7989  7998       L1    17  0.31
      P1  H 10752 10764       L1    13  1.00

> <Gold.Chemscore.Hbond.Weighted>
-8.0646

> <Gold.Chemscore.Metal.Weighted>
-0.0000

> <Gold.Chemscore.Lipo.Weighted>
-9.5051

> <Gold.Chemscore.Internal_Hbond.Weighted>
0.0000

> <Gold.Chemscore.DEClash.Weighted>
0.2479

> <Gold.Chemscore.DEInternal.Weighted>
0.3877

> <Gold.Chemscore.Rot.Weighted>
5.2941

> <Gold.Chemscore.Internal.Correction.Weighted>
   9.000000E+99

> <Gold.Protein.RotatedTorsions>
[ 6907 6896 6895 6894 ] final   47.81 input  -60.11 | X-H torsion
[ 7974 7965 7964 7962 ] final   49.44 input  175.53 | X-H torsion
[ 8008 7997 7996 7995 ] final -109.68 input   59.86 | X-H torsion
[ 10167 10162 10161 10158 ] final  -53.53 input  -65.29 | X-H torsion
[ 10718 10713 10712 10709 ] final -105.89 input   66.30 | X-H torsion
[ 10763 10752 10751 10750 ] final  -44.86 input  -60.55 | X-H torsion
[ 11005 11000 10999 10996 ] final  172.41 input  -57.11 | X-H torsion

> <Gold.Protein.ActiveResidues>
 VAL166  LYS551  ARG553  GLY616  TRP617  ASP618  TYR619  PRO620  LYS621  CYS622 
 ASP623  PHE694  ASN695  SER759  ASP760  ASP761  ALA762  ILE779  LEU786  VAL792 
 PHE793  MET794  SER795  GLU796  ALA797  LYS798  CYS799  TRP800  GLU811  SER814 

> <Gold.Protein.RotatedAtoms>
  152.2724  134.7918  160.0411 H   0  0  0  0  0  0  0  0  0  0  0  0  # atno 6907 bound_to 6896
  151.8526  133.3437  159.3686 H   0  0  0  0  0  0  0  0  0  0  0  0  # atno 6908 bound_to 6896
  150.7157  134.5212  159.5698 H   0  0  0  0  0  0  0  0  0  0  0  0  # atno 6909 bound_to 6896
  146.0109  139.4542  142.9957 H   0  0  0  0  0  0  0  0  0  0  0  0  # atno 7974 bound_to 7965
  154.9630  140.0399  157.2199 H   0  0  0  0  0  0  0  0  0  0  0  0  # atno 8008 bound_to 7997
  154.7872  140.2829  155.5997 H   0  0  0  0  0  0  0  0  0  0  0  0  # atno 8009 bound_to 7997
  156.2944  140.2580  156.2711 H   0  0  0  0  0  0  0  0  0  0  0  0  # atno 8010 bound_to 7997
  140.6480  143.2547  151.4805 H   0  0  0  0  0  0  0  0  0  0  0  0  # atno 10167 bound_to 10162
  156.0366  130.5586  150.7603 H   0  0  0  0  0  0  0  0  0  0  0  0  # atno 10718 bound_to 10713
  154.0190  135.6671  153.4771 H   0  0  0  0  0  0  0  0  0  0  0  0  # atno 10763 bound_to 10752
  153.0588  135.5040  154.8041 H   0  0  0  0  0  0  0  0  0  0  0  0  # atno 10764 bound_to 10752
  154.6949  135.3068  154.9391 H   0  0  0  0  0  0  0  0  0  0  0  0  # atno 10765 bound_to 10752
  140.3294  134.7370  157.4123 H   0  0  0  0  0  0  0  0  0  0  0  0  # atno 11005 bound_to 11000
  145.7344  141.0031  143.1334 LP  0  0  0  0  0  0  0  0  0  0  0  0  # atno 17320 bound_to 7965
  144.6952  139.9023  143.7459 LP  0  0  0  0  0  0  0  0  0  0  0  0  # atno 17321 bound_to 7965
  139.5692  144.1969  152.1811 LP  0  0  0  0  0  0  0  0  0  0  0  0  # atno 17342 bound_to 10162
  140.1260  144.5331  150.6832 LP  0  0  0  0  0  0  0  0  0  0  0  0  # atno 17343 bound_to 10162
  157.5124  131.0926  151.0181 LP  0  0  0  0  0  0  0  0  0  0  0  0  # atno 17370 bound_to 10713
  157.0533  130.5796  149.5374 LP  0  0  0  0  0  0  0  0  0  0  0  0  # atno 17371 bound_to 10713
  140.0873  134.5648  155.8479 LP  0  0  0  0  0  0  0  0  0  0  0  0  # atno 17394 bound_to 11000
  141.2067  133.6657  156.6259 LP  0  0  0  0  0  0  0  0  0  0  0  0  # atno 17395 bound_to 11000

$$$$
