AV-unprocessed.smi:3101|AV-procd|sdf|11809|dock4
  -GOLD-   2272017183D 1   1.00000     0.00000
 Structure written by MMmdl.
 28 29  0  0  0  0  0  0  0  0  1 V2000
  154.0782  141.3871  160.8524 C   0  0  0  0  0  0  0  0  0  0  0  0
  152.9411  142.3166  160.3930 C   0  0  1  0  0  0  0  0  0  0  0  0
  153.3943  143.5315  159.5995 C   0  0  0  0  0  0  0  0  0  0  0  0
  152.1563  143.8982  158.7743 C   0  0  0  0  0  0  0  0  0  0  0  0
  151.2163  142.8366  158.9488 O   0  0  0  0  0  0  0  0  0  0  0  0
  151.8547  141.6899  159.5011 C   0  0  1  0  0  0  0  0  0  0  0  0
  152.3450  140.7835  158.3529 C   0  0  0  0  0  0  0  0  0  0  0  0
  153.4141  140.1789  158.4449 O   0  0  0  0  0  0  0  0  0  0  0  0
  151.5368  140.7308  157.2779 N   0  0  0  0  0  0  0  0  0  0  0  0
  151.7071  139.9758  156.0878 C   0  0  0  0  0  0  0  0  0  0  0  0
  150.5183  139.6402  155.3975 C   0  0  0  0  0  0  0  0  0  0  0  0
  150.5171  138.9215  154.2528 N   0  0  0  0  0  0  0  0  0  0  0  0
  151.7211  138.5281  153.7859 C   0  0  0  0  0  0  0  0  0  0  0  0
  152.9156  138.8521  154.4599 C   0  0  0  0  0  0  0  0  0  0  0  0
  152.9094  139.5711  155.6035 N   0  0  0  0  0  0  0  0  0  0  0  0
  154.6792  141.0288  160.0167 H   0  0  0  0  0  0  0  0  0  0  0  0
  153.6820  140.5174  161.3766 H   0  0  0  0  0  0  0  0  0  0  0  0
  154.7492  141.9077  161.5358 H   0  0  0  0  0  0  0  0  0  0  0  0
  152.4382  142.6823  161.2897 H   0  0  0  0  0  0  0  0  0  0  0  0
  153.7227  144.3472  160.2443 H   0  0  0  0  0  0  0  0  0  0  0  0
  154.2236  143.2792  158.9376 H   0  0  0  0  0  0  0  0  0  0  0  0
  151.7103  144.8335  159.1138 H   0  0  0  0  0  0  0  0  0  0  0  0
  152.4079  144.0093  157.7190 H   0  0  0  0  0  0  0  0  0  0  0  0
  151.1377  141.1397  160.1124 H   0  0  0  0  0  0  0  0  0  0  0  0
  150.7005  141.2949  157.3200 H   0  0  0  0  0  0  0  0  0  0  0  0
  149.5523  139.9522  155.7672 H   0  0  0  0  0  0  0  0  0  0  0  0
  151.7324  137.9526  152.8721 H   0  0  0  0  0  0  0  0  0  0  0  0
  153.8761  138.5346  154.0821 H   0  0  0  0  0  0  0  0  0  0  0  0
  1  2  1  0  0  0  0
  1 16  1  0  0  0  0
  1 17  1  0  0  0  0
  1 18  1  0  0  0  0
  2  6  1  0  0  0  0
  2  3  1  0  0  0  0
  2 19  1  0  0  0  0
  3  4  1  0  0  0  0
  3 20  1  0  0  0  0
  3 21  1  0  0  0  0
  4  5  1  0  0  0  0
  4 22  1  0  0  0  0
  4 23  1  0  0  0  0
  5  6  1  0  0  0  0
  6  7  1  0  0  0  0
  6 24  1  0  0  0  0
  7  8  2  0  0  0  0
  7  9  1  0  0  0  0
  9 10  1  0  0  0  0
  9 25  1  0  0  0  0
 10 15  1  0  0  0  0
 10 11  2  0  0  0  0
 11 12  1  0  0  0  0
 11 26  1  0  0  0  0
 12 13  2  0  0  0  0
 13 14  1  0  0  0  0
 13 27  1  0  0  0  0
 14 15  2  0  0  0  0
 14 28  1  0  0  0  0
M  END
> <s_m_source_file>
AV-unprocessed.smi

> <i_m_source_file_index>
3101

> <i_lp_mmshare_version>
43012

> <i_f3d_flags>
0

> <s_epik_input>
W0NIM11bQ0BASF0xW0NIMl1bQ0gyXU9bQ0BIXTFDKD1PKVtOSF1jMltjSF1uW2NIXVtjSF1uMg==

> <s_epik_cmdline>
J2VwaWtfcHl0aG9uJywgJy1waCcsICc3LjAnLCAnLXRuJywgJzgnLCAnLW1hJywgJzIwMCcsICctbWV0YWxfYmluZGluZycsICctaW1hZScsICc8aW5maWxlLm1hZT4nLCAnLW9tYWUnLCAnPG91dGZpbGUubWFlPic=

> <r_lp_tautomer_probability>
1

> <r_epik_Ionization_Penalty>
2.83174e-06

> <r_epik_Ionization_Penalty_Charging>
0

> <r_epik_Ionization_Penalty_Neutral>
2.83174e-06

> <r_epik_State_Penalty>
-0

> <r_epik_Charging_Adjusted_Penalty>
0

> <i_epik_Tot_Q>
0

> <i_epik_Tot_abs_Q>
0

> <r_epik_Metal_State_Penalty>
-0

> <b_epik_Metal_Only>
0

> <s_lp_Force_Field>
OPLS_2005

> <r_lp_Energy>
27.517

> <b_lp_Chiralities_Consistent>
1

> <s_lp_Variant>
AV-unprocessed.smi:3101-2

> <Gold.Version>
5.8.1

> <Gold.Id.Protein>
6NUR|6NUR_protein|mol2

> <Gold.PLP.Fitness>
36.2689

> <Gold.PLP.PLP>
-31.9294

> <Gold.PLP.part.hbond>
-2.0000

> <Gold.PLP.part.metal>
0.0000

> <Gold.PLP.part.buried>
-4.7976

> <Gold.PLP.part.nonpolar>
-24.7890

> <Gold.PLP.part.repulsive>
0.2769

> <Gold.PLP.ligand.clash>
0.0000

> <Gold.PLP.ligand.torsion>
0.8427

> <Gold.PLP.Chemscore.Hbond>
1.0000

> <Gold.PLP.Chemscore.CHOScore>
1.0000

> <Gold.PLP.Chemscore.Metal>
0.0000

> <Gold.Chemscore.Hbonds>
donor molecule, donor type, donor heavy atom, donor atom, acceptor molecule, acceptor atom, score
      P1  H  7997  8009       L1    15  1.00
      L1  C    13    27       P1  7949  1.00

> <Gold.PLP.Chemscore.Internal.Correction>
0.0249

> <Gold.Rescore>
     Score         DG    S(hbond)    S(metal)    S(lipo)     H(rot)  DE(clash)    DE(int)     intcor
     11.57     -14.91       0.84        0.00      78.56       1.00       0.03       3.30       ----

> <Gold.Chemscore.Fitness>
11.5704

> <Gold.Chemscore.DG>
-14.9066

> <Gold.Chemscore.ZeroCoef>
-5.4800

> <Gold.Chemscore.Hbond>
0.8369

> <Gold.Chemscore.Metal>
0.0000

> <Gold.Chemscore.Lipo>
78.5593

> <Gold.Chemscore.Internal_Hbond>
0.0000

> <Gold.Chemscore.DEClash>
0.0332

> <Gold.Chemscore.DEInternal>
3.3031

> <Gold.Chemscore.Rot>
1.0000

> <Gold.Chemscore.Internal.Correction>
   9.000000E+99

> <Gold.Chemscore.Hbonds>
donor molecule, donor type, donor heavy atom, donor atom, acceptor molecule, acceptor atom, score
      P1  H  7997  8009       L1    15  0.96

> <Gold.Chemscore.Hbond.Weighted>
-2.7952

> <Gold.Chemscore.Metal.Weighted>
-0.0000

> <Gold.Chemscore.Lipo.Weighted>
-9.1914

> <Gold.Chemscore.Internal_Hbond.Weighted>
0.0000

> <Gold.Chemscore.DEClash.Weighted>
0.0332

> <Gold.Chemscore.DEInternal.Weighted>
3.3031

> <Gold.Chemscore.Rot.Weighted>
2.5600

> <Gold.Chemscore.Internal.Correction.Weighted>
   9.000000E+99

> <Gold.Protein.RotatedTorsions>
[ 6907 6896 6895 6894 ] final  164.57 input  -60.11 | X-H torsion
[ 7974 7965 7964 7962 ] final  -28.05 input  175.53 | X-H torsion
[ 8008 7997 7996 7995 ] final -154.89 input   59.86 | X-H torsion
[ 10167 10162 10161 10158 ] final -111.54 input  -65.29 | X-H torsion
[ 10718 10713 10712 10709 ] final  -67.69 input   66.30 | X-H torsion
[ 10763 10752 10751 10750 ] final -117.75 input  -60.55 | X-H torsion
[ 11005 11000 10999 10996 ] final  -84.23 input  -57.11 | X-H torsion

> <Gold.Protein.ActiveResidues>
 VAL166  LYS551  ARG553  GLY616  TRP617  ASP618  TYR619  PRO620  LYS621  CYS622 
 ASP623  PHE694  ASN695  SER759  ASP760  ASP761  ALA762  ILE779  LEU786  VAL792 
 PHE793  MET794  SER795  GLU796  ALA797  LYS798  CYS799  TRP800  GLU811  SER814 

> <Gold.Protein.RotatedAtoms>
  151.9078  133.3554  159.3852 H   0  0  0  0  0  0  0  0  0  0  0  0  # atno 6907 bound_to 6896
  150.7065  134.4762  159.5458 H   0  0  0  0  0  0  0  0  0  0  0  0  # atno 6908 bound_to 6896
  152.2363  134.8273  160.0517 H   0  0  0  0  0  0  0  0  0  0  0  0  # atno 6909 bound_to 6896
  146.1315  140.5232  142.8691 H   0  0  0  0  0  0  0  0  0  0  0  0  # atno 7974 bound_to 7965
  155.6934  140.0758  157.2439 H   0  0  0  0  0  0  0  0  0  0  0  0  # atno 8008 bound_to 7997
  154.4085  140.1660  156.2164 H   0  0  0  0  0  0  0  0  0  0  0  0  # atno 8009 bound_to 7997
  155.9432  140.3383  155.6348 H   0  0  0  0  0  0  0  0  0  0  0  0  # atno 8010 bound_to 7997
  140.1324  143.4349  152.1618 H   0  0  0  0  0  0  0  0  0  0  0  0  # atno 10167 bound_to 10162
  156.0544  130.4282  150.1891 H   0  0  0  0  0  0  0  0  0  0  0  0  # atno 10718 bound_to 10713
  154.8565  135.4298  154.2030 H   0  0  0  0  0  0  0  0  0  0  0  0  # atno 10763 bound_to 10752
  153.3072  135.6973  153.7154 H   0  0  0  0  0  0  0  0  0  0  0  0  # atno 10764 bound_to 10752
  153.6261  135.3493  155.3001 H   0  0  0  0  0  0  0  0  0  0  0  0  # atno 10765 bound_to 10752
  141.1652  133.7335  156.8837 H   0  0  0  0  0  0  0  0  0  0  0  0  # atno 11005 bound_to 11000
  144.7695  140.5607  143.6680 LP  0  0  0  0  0  0  0  0  0  0  0  0  # atno 17320 bound_to 7965
  145.5250  139.1476  143.3531 LP  0  0  0  0  0  0  0  0  0  0  0  0  # atno 17321 bound_to 7965
  139.5513  144.7339  151.4428 LP  0  0  0  0  0  0  0  0  0  0  0  0  # atno 17342 bound_to 10162
  140.6809  143.8084  150.7120 LP  0  0  0  0  0  0  0  0  0  0  0  0  # atno 17343 bound_to 10162
  156.9970  130.9910  151.3400 LP  0  0  0  0  0  0  0  0  0  0  0  0  # atno 17370 bound_to 10713
  157.5501  130.8176  149.8134 LP  0  0  0  0  0  0  0  0  0  0  0  0  # atno 17371 bound_to 10713
  140.1697  134.9109  157.2817 LP  0  0  0  0  0  0  0  0  0  0  0  0  # atno 17394 bound_to 11000
  140.2516  134.3676  155.7440 LP  0  0  0  0  0  0  0  0  0  0  0  0  # atno 17395 bound_to 11000

$$$$
