#       Name:                AV-unprocessed.smi:1911
#       Creating user name   scv26
#       Creation time:       Fri Mar 27 09:48:32 2020


#       File generated by GOLD software.
#

@<TRIPOS>MOLECULE
AV-unprocessed.smi:1911
    57    59     1
SMALL
NO_CHARGES


@<TRIPOS>ATOM
      1 ****        -5.6262  -5.6113   2.0567 N.pl3          1 S1                -1.0000
      2 ****        -4.3164  -5.8938   1.9085 C.2            1 S1                 0.0000
      3 ****        -3.6608  -6.7590   2.4841 O.2            1 S1                 0.0000
      4 ****        -3.6338  -4.9824   0.8821 C.3            1 S1                 0.0000
      5 ****        -3.6861  -3.5605   1.3103 N.4            1 S1                 1.0000
      6 ****        -3.5433  -2.6235   0.1672 C.3            1 S1                 0.0000
      7 ****        -3.7441  -1.1633   0.6115 C.3            1 S1                 0.0000
      8 ****        -2.7963  -0.7730   1.7621 C.3            1 S1                 0.0000
      9 ****        -1.4083  -0.6763   1.3110 N.am           1 S1                 0.0000
     10 ****        -0.8609   0.3861   0.7037 C.2            1 S1                 0.0000
     11 ****        -1.4870   1.4099   0.4311 O.2            1 S1                 0.0000
     12 ****         0.4345   0.1676   0.4200 N.am           1 S1                 0.0000
     13 ****         1.3769   1.0657  -0.1491 C.ar           1 S1                 0.0000
     14 ****         2.5372   0.5261  -0.7369 C.ar           1 S1                 0.0000
     15 ****         3.5007   1.3941  -1.2845 C.ar           1 S1                 0.0000
     16 ****         3.2811   2.7907  -1.2229 C.ar           1 S1                 0.0000
     17 ****         4.2205   3.7002  -1.7484 N.pl3          1 S1                 0.0000
     18 ****         5.3358   3.2748  -2.5783 C.3            1 S1                 0.0000
     19 ****         6.0064   4.5739  -3.0249 C.3            1 S1                 0.0000
     20 ****         4.8426   5.5628  -3.0945 C.3            1 S1                 0.0000
     21 ****         3.8951   5.1016  -1.9818 C.3            1 S1                 0.0000
     22 ****         2.1734   3.3107  -0.6430 N.ar           1 S1                 0.0000
     23 ****         1.2510   2.4748  -0.1216 C.ar           1 S1                 0.0000
     24 ****        -2.9197  -1.7958   2.9042 C.3            1 S1                 0.0000
     25 ****        -2.7337  -3.2409   2.4076 C.3            1 S1                 0.0000
     26 ****        -6.1783  -6.1725   2.7167 H              1 S1                 0.0000
     27 ****        -2.5999  -5.2920   0.7206 H              1 S1                 0.0000
     28 ****        -4.1494  -5.1099  -0.0712 H              1 S1                 0.0000
     29 ****        -2.5602  -2.7508  -0.2888 H              1 S1                 0.0000
     30 ****        -4.2806  -2.8660  -0.5992 H              1 S1                 0.0000
     31 ****        -3.6139  -0.4918  -0.2379 H              1 S1                 0.0000
     32 ****        -4.7757  -1.0331   0.9413 H              1 S1                 0.0000
     33 ****        -3.0967   0.2020   2.1502 H              1 S1                 0.0000
     34 ****        -0.8157  -1.4733   1.4910 H              1 S1                 0.0000
     35 ****         0.7826  -0.7603   0.6108 H              1 S1                 0.0000
     36 ****         2.6906  -0.5427  -0.7717 H              1 S1                 0.0000
     37 ****         4.3881   0.9775  -1.7365 H              1 S1                 0.0000
     38 ****         6.0287   2.6359  -2.0298 H              1 S1                 0.0000
     39 ****         4.9567   2.7210  -3.4381 H              1 S1                 0.0000
     40 ****         6.7208   4.8999  -2.2676 H              1 S1                 0.0000
     41 ****         6.5392   4.4729  -3.9707 H              1 S1                 0.0000
     42 ****         5.1567   6.6005  -2.9794 H              1 S1                 0.0000
     43 ****         4.3432   5.4693  -4.0599 H              1 S1                 0.0000
     44 ****         2.8537   5.2450  -2.2723 H              1 S1                 0.0000
     45 ****         4.0743   5.6609  -1.0631 H              1 S1                 0.0000
     46 ****         0.4116   2.9654   0.3456 H              1 S1                 0.0000
     47 ****        -2.1975  -1.5734   3.6910 H              1 S1                 0.0000
     48 ****        -3.9048  -1.7031   3.3635 H              1 S1                 0.0000
     49 ****        -2.8817  -3.9222   3.2457 H              1 S1                 0.0000
     50 ****        -1.7114  -3.3934   2.0582 H              1 S1                 0.0000
     51 ****        -4.6182  -3.4272   1.6780 H              1 S1                 0.0000
     52 ****        -6.0513  -4.8713   1.5354 LP             1 S1                 0.0000
     53 ****        -4.1007  -7.3560   3.1550 LP             1 S1                 0.0000
     54 ****        -2.6874  -6.8661   2.2817 LP             1 S1                 0.0000
     55 ****        -2.4570   1.4797   0.6638 LP             1 S1                 0.0000
     56 ****        -1.0257   2.1721  -0.0232 LP             1 S1                 0.0000
     57 ****         2.0406   4.3010  -0.6017 LP             1 S1                 0.0000
@<TRIPOS>BOND
    1    1    2 1     
    2    1   26 1     
    3    2    3 2     
    4    2    4 1     
    5    4    5 1     
    6    4   27 1     
    7    4   28 1     
    8    5   25 1     
    9    5    6 1     
   10    5   51 1     
   11    6    7 1     
   12    6   29 1     
   13    6   30 1     
   14    7    8 1     
   15    7   31 1     
   16    7   32 1     
   17    8    9 1     
   18    8   24 1     
   19    8   33 1     
   20    9   10 am    
   21    9   34 1     
   22   10   11 2     
   23   10   12 am    
   24   12   13 1     
   25   12   35 1     
   26   13   23 ar    
   27   13   14 ar    
   28   14   15 ar    
   29   14   36 1     
   30   15   16 ar    
   31   15   37 1     
   32   16   17 1     
   33   16   22 ar    
   34   17   21 1     
   35   17   18 1     
   36   18   19 1     
   37   18   38 1     
   38   18   39 1     
   39   19   20 1     
   40   19   40 1     
   41   19   41 1     
   42   20   21 1     
   43   20   42 1     
   44   20   43 1     
   45   21   44 1     
   46   21   45 1     
   47   22   23 ar    
   48   23   46 1     
   49   24   25 1     
   50   24   47 1     
   51   24   48 1     
   52   25   49 1     
   53   25   50 1     
   54    1   52 1     
   55    3   53 1     
   56    3   54 1     
   57   11   55 1     
   58   11   56 1     
   59   22   57 1     
@<TRIPOS>SUBSTRUCTURE
      1 S1             1
@<TRIPOS>SET
LONE_PAIRS      STATIC     ATOMS    <user>   **** ""
6 52 53 54 55 56 57
DONOR_HYDROGENS      STATIC     ATOMS    <user>   **** ""
4 26 51 34 35
ATOM$BLUE        STATIC     ATOMS    COLORGROUP SYSTEM
6 52 53 54 55 56 57
ATOM$RED        STATIC     ATOMS    COLORGROUP SYSTEM
4 26 51 34 35
