#       Name:                AV-unprocessed.smi:82
#       Creating user name   scv26
#       Creation time:       Thu Mar 26 17:18:10 2020


#       File generated by GOLD software.
#

@<TRIPOS>MOLECULE
AV-unprocessed.smi:82
    69    72     1
SMALL
NO_CHARGES


@<TRIPOS>ATOM
      1 ****        -8.4412  -1.0789   3.6562 C.3            1 S1                 0.0000
      2 ****        -7.6626  -0.5635   2.5904 O.3            1 S1                 0.0000
      3 ****        -6.2726  -0.5930   2.8681 C.3            1 S1                 0.0000
      4 ****        -5.5190  -0.0110   1.6607 C.3            1 S1                 0.0000
      5 ****        -4.0795   0.2071   1.8579 N.3            1 S1                 0.0000
      6 ****        -3.3869  -1.0697   2.0744 C.3            1 S1                 0.0000
      7 ****        -1.8812  -0.8982   2.3187 C.3            1 S1                 0.0000
      8 ****        -1.2787  -0.1865   1.1962 N.3            1 S1                 0.0000
      9 ****         0.0754  -0.1683   1.1022 C.ar           1 S1                 0.0000
     10 ****         0.8376  -0.4377   2.1962 N.ar           1 S1                 0.0000
     11 ****         2.1710  -0.4090   2.1148 C.ar           1 S1                 0.0000
     12 ****         2.9365  -0.1462   1.0543 N.ar           1 S1                 0.0000
     13 ****         2.1796   0.1110  -0.0507 C.ar           1 S1                 0.0000
     14 ****         0.7571   0.1258  -0.1126 C.ar           1 S1                 0.0000
     15 ****         0.3445   0.4312  -1.4044 N.2            1 S1                 0.0000
     16 ****         1.4576   0.6032  -2.0632 C.2            1 S1                 0.0000
     17 ****         2.6078   0.4008  -1.3347 N.pl3          1 S1                 0.0000
     18 ****         3.9546   0.5573  -1.7998 C.3            1 S1                 0.0000
     19 ****         4.3338   0.2358  -3.2467 C.3            1 S1                 0.0000
     20 ****         5.7359  -0.2102  -2.7725 C.3            1 S1                 0.0000
     21 ****         6.2991  -1.4869  -3.4205 C.3            1 S1                 0.0000
     22 ****         6.4225  -1.3573  -4.8218 O.3            1 S1                 0.0000
     23 ****         6.8327   0.8755  -2.7471 C.3            1 S1                 0.0000
     24 ****         7.0590   1.4384  -4.0230 O.3            1 S1                 0.0000
     25 ****         5.0502  -0.4366  -1.4062 C.3            1 S1                 0.0000
     26 ****        -1.9338   1.0899   0.9269 C.3            1 S1                 0.0000
     27 ****        -3.4535   0.9016   0.7126 C.3            1 S1                 0.0000
     28 ****        -4.0576   2.2854   0.3998 C.3            1 S1                 0.0000
     29 ****        -9.4986  -1.0238   3.3979 H              1 S1                 0.0000
     30 ****        -8.2881  -0.5042   4.5704 H              1 S1                 0.0000
     31 ****        -8.1970  -2.1235   3.8541 H              1 S1                 0.0000
     32 ****        -6.0600  -0.0040   3.7618 H              1 S1                 0.0000
     33 ****        -5.9683  -1.6215   3.0639 H              1 S1                 0.0000
     34 ****        -5.6841  -0.6429   0.7868 H              1 S1                 0.0000
     35 ****        -6.0025   0.9393   1.4421 H              1 S1                 0.0000
     36 ****        -3.8019  -1.5844   2.9397 H              1 S1                 0.0000
     37 ****        -3.5429  -1.7270   1.2173 H              1 S1                 0.0000
     38 ****        -1.7107  -0.3432   3.2423 H              1 S1                 0.0000
     39 ****        -1.4165  -1.8783   2.4348 H              1 S1                 0.0000
     40 ****         2.7002  -0.6295   3.0301 H              1 S1                 0.0000
     41 ****         1.4685   0.8759  -3.1086 H              1 S1                 0.0000
     42 ****         4.2452   1.5774  -1.5427 H              1 S1                 0.0000
     43 ****         3.7486  -0.5882  -3.6598 H              1 S1                 0.0000
     44 ****         4.3221   1.0950  -3.9179 H              1 S1                 0.0000
     45 ****         7.2708  -1.7495  -3.0016 H              1 S1                 0.0000
     46 ****         5.6446  -2.3382  -3.2305 H              1 S1                 0.0000
     47 ****         6.7653  -2.1658  -5.1703 H              1 S1                 0.0000
     48 ****         6.5635   1.6905  -2.0751 H              1 S1                 0.0000
     49 ****         7.7741   0.4742  -2.3704 H              1 S1                 0.0000
     50 ****         7.7366   2.0925  -3.9477 H              1 S1                 0.0000
     51 ****         5.6405  -0.1366  -0.5397 H              1 S1                 0.0000
     52 ****         4.6628  -1.4493  -1.2792 H              1 S1                 0.0000
     53 ****        -1.7540   1.7610   1.7684 H              1 S1                 0.0000
     54 ****        -1.5013   1.5696   0.0497 H              1 S1                 0.0000
     55 ****        -3.5818   0.2837  -0.1778 H              1 S1                 0.0000
     56 ****        -3.4740   2.8038  -0.3615 H              1 S1                 0.0000
     57 ****        -4.0777   2.9194   1.2868 H              1 S1                 0.0000
     58 ****        -5.0721   2.2151   0.0088 H              1 S1                 0.0000
     59 ****        -7.9359   0.3838   2.4228 LP             1 S1                 0.0000
     60 ****        -7.8376  -1.1107   1.7719 LP             1 S1                 0.0000
     61 ****        -3.9895   0.7890   2.6662 LP             1 S1                 0.0000
     62 ****        -1.4825  -0.7867   0.4228 LP             1 S1                 0.0000
     63 ****         0.3974  -0.6585   3.0666 LP             1 S1                 0.0000
     64 ****         3.9364  -0.1387   1.0679 LP             1 S1                 0.0000
     65 ****        -0.5912   0.5028  -1.7498 LP             1 S1                 0.0000
     66 ****         7.0467  -0.6062  -5.0370 LP             1 S1                 0.0000
     67 ****         5.5258  -1.1708  -5.2231 LP             1 S1                 0.0000
     68 ****         6.2176   1.8620  -4.3585 LP             1 S1                 0.0000
     69 ****         7.3494   0.7242  -4.6597 LP             1 S1                 0.0000
@<TRIPOS>BOND
    1    1    2 1     
    2    1   29 1     
    3    1   30 1     
    4    1   31 1     
    5    2    3 1     
    6    3    4 1     
    7    3   32 1     
    8    3   33 1     
    9    4    5 1     
   10    4   34 1     
   11    4   35 1     
   12    5   27 1     
   13    5    6 1     
   14    6    7 1     
   15    6   36 1     
   16    6   37 1     
   17    7    8 1     
   18    7   38 1     
   19    7   39 1     
   20    8    9 1     
   21    8   26 1     
   22    9   14 ar    
   23    9   10 ar    
   24   10   11 ar    
   25   11   12 ar    
   26   11   40 1     
   27   12   13 ar    
   28   13   17 1     
   29   13   14 ar    
   30   14   15 1     
   31   15   16 2     
   32   16   17 1     
   33   16   41 1     
   34   17   18 1     
   35   18   25 1     
   36   18   19 1     
   37   18   42 1     
   38   19   20 1     
   39   19   43 1     
   40   19   44 1     
   41   20   21 1     
   42   20   23 1     
   43   20   25 1     
   44   21   22 1     
   45   21   45 1     
   46   21   46 1     
   47   22   47 1     
   48   23   24 1     
   49   23   48 1     
   50   23   49 1     
   51   24   50 1     
   52   25   51 1     
   53   25   52 1     
   54   26   27 1     
   55   26   53 1     
   56   26   54 1     
   57   27   28 1     
   58   27   55 1     
   59   28   56 1     
   60   28   57 1     
   61   28   58 1     
   62    2   59 1     
   63    2   60 1     
   64    5   61 1     
   65    8   62 1     
   66   10   63 1     
   67   12   64 1     
   68   15   65 1     
   69   22   66 1     
   70   22   67 1     
   71   24   68 1     
   72   24   69 1     
@<TRIPOS>SUBSTRUCTURE
      1 S1             1
@<TRIPOS>SET
LONE_PAIRS      STATIC     ATOMS    <user>   **** ""
11 59 60 61 62 63 64 65 66 67 68 69
DONOR_HYDROGENS      STATIC     ATOMS    <user>   **** ""
2 47 50
ATOM$BLUE        STATIC     ATOMS    COLORGROUP SYSTEM
11 59 60 61 62 63 64 65 66 67 68 69
ATOM$RED        STATIC     ATOMS    COLORGROUP SYSTEM
2 47 50
