AV-unprocessed.smi:2604|AV-procd|sdf|10190|dock2
  -GOLD-   2272014203D 1   1.00000     0.00000
 Structure written by MMmdl.
 26 27  0  0  0  0  0  0  0  0  2 V2000
  144.2932  131.3885  150.8205 C   0  0  0  0  0  0  0  0  0  0  0  0
  143.5058  132.4065  150.2474 C   0  0  0  0  0  0  0  0  0  0  0  0
  143.8313  133.7157  150.3057 N   0  0  0  0  0  0  0  0  0  0  0  0
  144.9718  134.0565  150.9428 C   0  0  0  0  0  0  0  0  0  0  0  0
  145.8372  133.1181  151.5463 C   0  0  0  0  0  0  0  0  0  0  0  0
  147.0989  133.5808  152.2568 C   0  0  1  0  0  0  0  0  0  0  0  0
  146.7594  134.4808  153.4668 C   0  0  0  0  0  0  0  0  0  0  0  0
  147.9952  134.9568  154.1211 N   0  3  0  0  0  0  0  0  0  0  0  0
  148.8620  133.8260  154.5070 C   0  0  0  0  0  0  0  0  0  0  0  0
  149.1656  132.9526  153.2762 C   0  0  0  0  0  0  0  0  0  0  0  0
  147.9184  132.4544  152.7045 N   0  0  0  0  0  0  0  0  0  0  0  0
  145.4806  131.7528  151.4838 C   0  0  0  0  0  0  0  0  0  0  0  0
  143.9924  130.3534  150.7527 H   0  0  0  0  0  0  0  0  0  0  0  0
  142.5895  132.1628  149.7304 H   0  0  0  0  0  0  0  0  0  0  0  0
  145.1990  135.1121  150.9718 H   0  0  0  0  0  0  0  0  0  0  0  0
  147.6859  134.1557  151.5385 H   0  0  0  0  0  0  0  0  0  0  0  0
  146.1802  135.3470  153.1456 H   0  0  0  0  0  0  0  0  0  0  0  0
  146.1512  133.9418  154.1949 H   0  0  0  0  0  0  0  0  0  0  0  0
  148.4992  135.5449  153.4732 H   0  0  0  0  0  0  0  0  0  0  0  0
  149.7863  134.2151  154.9345 H   0  0  0  0  0  0  0  0  0  0  0  0
  148.3716  133.2380  155.2843 H   0  0  0  0  0  0  0  0  0  0  0  0
  149.7221  133.5156  152.5255 H   0  0  0  0  0  0  0  0  0  0  0  0
  149.7857  132.1033  153.5639 H   0  0  0  0  0  0  0  0  0  0  0  0
  148.1212  131.8502  151.9199 H   0  0  0  0  0  0  0  0  0  0  0  0
  146.1033  130.9950  151.9365 H   0  0  0  0  0  0  0  0  0  0  0  0
  147.7563  135.4947  154.9418 H   0  0  0  0  0  0  0  0  0  0  0  0
  1 12  1  0  0  0  0
  1  2  2  0  0  0  0
  1 13  1  0  0  0  0
  2  3  1  0  0  0  0
  2 14  1  0  0  0  0
  3  4  2  0  0  0  0
  4  5  1  0  0  0  0
  4 15  1  0  0  0  0
  5  6  1  0  0  0  0
  5 12  2  0  0  0  0
  6 11  1  0  0  0  0
  6  7  1  0  0  0  0
  6 16  1  0  0  0  0
  7  8  1  0  0  0  0
  7 17  1  0  0  0  0
  7 18  1  0  0  0  0
  8  9  1  0  0  0  0
  8 19  1  0  0  0  0
  8 26  1  0  0  0  0
  9 10  1  0  0  0  0
  9 20  1  0  0  0  0
  9 21  1  0  0  0  0
 10 11  1  0  0  0  0
 10 22  1  0  0  0  0
 10 23  1  0  0  0  0
 11 24  1  0  0  0  0
 12 25  1  0  0  0  0
M  CHG  1   8   1
M  END
> <s_m_source_file>
AV-unprocessed.smi

> <i_m_source_file_index>
2604

> <i_lp_mmshare_version>
43012

> <i_f3d_flags>
0

> <s_epik_input>
W2NIXTFbY0hdW2NIXW5bY0hdYzFbQ0BASF0yW0NIMl1bTkhdW0NIMl1bQ0gyXVtOSF0y

> <s_epik_cmdline>
J2VwaWtfcHl0aG9uJywgJy1waCcsICc3LjAnLCAnLXRuJywgJzgnLCAnLW1hJywgJzIwMCcsICctbWV0YWxfYmluZGluZycsICctaW1hZScsICc8aW5maWxlLm1hZT4nLCAnLW9tYWUnLCAnPG91dGZpbGUubWFlPic=

> <r_epik_Ionization_Penalty>
0.0181456

> <r_epik_Ionization_Penalty_Charging>
0.010317

> <r_epik_Ionization_Penalty_Neutral>
0.00782861

> <r_epik_State_Penalty>
0.306622

> <r_epik_Charging_Adjusted_Penalty>
0.316939

> <i_epik_Tot_Q>
1

> <i_epik_Tot_abs_Q>
1

> <r_epik_Metal_State_Penalty>
0.302658

> <b_epik_Metal_Only>
0

> <s_lp_Force_Field>
OPLS_2005

> <r_lp_Energy>
10.6943

> <b_lp_Chiralities_Consistent>
1

> <s_lp_Variant>
AV-unprocessed.smi:2604-2

> <Gold.Version>
5.8.1

> <Gold.Id.Protein>
6NUR|6NUR_protein|mol2

> <Gold.PLP.Fitness>
35.3225

> <Gold.PLP.PLP>
-22.5427

> <Gold.PLP.part.hbond>
-2.0000

> <Gold.PLP.part.metal>
0.0000

> <Gold.PLP.part.buried>
-3.3289

> <Gold.PLP.part.nonpolar>
-18.1255

> <Gold.PLP.part.repulsive>
1.0117

> <Gold.PLP.ligand.clash>
0.0000

> <Gold.PLP.ligand.torsion>
0.0452

> <Gold.PLP.Chemscore.Hbond>
3.0000

> <Gold.PLP.Chemscore.CHOScore>
1.2874

> <Gold.PLP.Chemscore.Metal>
0.0000

> <Gold.Chemscore.Hbonds>
donor molecule, donor type, donor heavy atom, donor atom, acceptor molecule, acceptor atom, score
      L1  H     8    19       P1  7948  2.00
      L1  H    11    24       P1 10747  0.83
      L1  C     2    14       P1 10186  0.26
      L1  C     2    14       P1 10952  0.99

> <Gold.PLP.Chemscore.Internal.Correction>
0.0081

> <Gold.Rescore>
     Score         DG    S(hbond)    S(metal)    S(lipo)     H(rot)  DE(clash)    DE(int)     intcor
     16.65     -16.90       1.94        0.00      64.23       1.00       0.22       0.03       ----

> <Gold.Chemscore.Fitness>
16.6508

> <Gold.Chemscore.DG>
-16.9031

> <Gold.Chemscore.ZeroCoef>
-5.4800

> <Gold.Chemscore.Hbond>
1.9367

> <Gold.Chemscore.Metal>
0.0000

> <Gold.Chemscore.Lipo>
64.2255

> <Gold.Chemscore.Internal_Hbond>
0.0000

> <Gold.Chemscore.DEClash>
0.2244

> <Gold.Chemscore.DEInternal>
0.0279

> <Gold.Chemscore.Rot>
1.0000

> <Gold.Chemscore.Internal.Correction>
   9.000000E+99

> <Gold.Chemscore.Hbonds>
donor molecule, donor type, donor heavy atom, donor atom, acceptor molecule, acceptor atom, score
      L1  H     8    19       P1  7948  0.98
      L1  H    11    24       P1 10747  0.82

> <Gold.Chemscore.Hbond.Weighted>
-6.4687

> <Gold.Chemscore.Metal.Weighted>
-0.0000

> <Gold.Chemscore.Lipo.Weighted>
-7.5144

> <Gold.Chemscore.Internal_Hbond.Weighted>
0.0000

> <Gold.Chemscore.DEClash.Weighted>
0.2244

> <Gold.Chemscore.DEInternal.Weighted>
0.0279

> <Gold.Chemscore.Rot.Weighted>
2.5600

> <Gold.Chemscore.Internal.Correction.Weighted>
   9.000000E+99

> <Gold.Protein.RotatedTorsions>
[ 6907 6896 6895 6894 ] final   88.91 input  -60.11 | X-H torsion
[ 7974 7965 7964 7962 ] final  -47.81 input  175.53 | X-H torsion
[ 8008 7997 7996 7995 ] final  118.37 input   59.86 | X-H torsion
[ 10167 10162 10161 10158 ] final  -70.72 input  -65.29 | X-H torsion
[ 10718 10713 10712 10709 ] final -104.06 input   66.30 | X-H torsion
[ 10763 10752 10751 10750 ] final  -45.15 input  -60.55 | X-H torsion
[ 11005 11000 10999 10996 ] final   40.59 input  -57.11 | X-H torsion

> <Gold.Protein.ActiveResidues>
 VAL166  LYS551  ARG553  GLY616  TRP617  ASP618  TYR619  PRO620  LYS621  CYS622 
 ASP623  PHE694  ASN695  SER759  ASP760  ASP761  ALA762  ILE779  LEU786  VAL792 
 PHE793  MET794  SER795  GLU796  ALA797  LYS798  CYS799  TRP800  GLU811  SER814 

> <Gold.Protein.RotatedAtoms>
  152.5430  134.2048  159.8726 H   0  0  0  0  0  0  0  0  0  0  0  0  # atno 6907 bound_to 6896
  151.2035  133.4590  159.2604 H   0  0  0  0  0  0  0  0  0  0  0  0  # atno 6908 bound_to 6896
  151.0966  134.9960  159.8484 H   0  0  0  0  0  0  0  0  0  0  0  0  # atno 6909 bound_to 6896
  145.9577  140.7510  142.9473 H   0  0  0  0  0  0  0  0  0  0  0  0  # atno 7974 bound_to 7965
  156.2543  140.2876  156.0825 H   0  0  0  0  0  0  0  0  0  0  0  0  # atno 8008 bound_to 7997
  155.1551  140.0398  157.2847 H   0  0  0  0  0  0  0  0  0  0  0  0  # atno 8009 bound_to 7997
  154.6433  140.2527  155.7304 H   0  0  0  0  0  0  0  0  0  0  0  0  # atno 8010 bound_to 7997
  140.5330  143.2320  151.7228 H   0  0  0  0  0  0  0  0  0  0  0  0  # atno 10167 bound_to 10162
  156.0289  130.5497  150.7342 H   0  0  0  0  0  0  0  0  0  0  0  0  # atno 10718 bound_to 10713
  154.0239  135.6665  153.4775 H   0  0  0  0  0  0  0  0  0  0  0  0  # atno 10763 bound_to 10752
  153.0568  135.5051  154.7997 H   0  0  0  0  0  0  0  0  0  0  0  0  # atno 10764 bound_to 10752
  154.6920  135.3063  154.9430 H   0  0  0  0  0  0  0  0  0  0  0  0  # atno 10765 bound_to 10752
  140.1916  134.3980  155.8143 H   0  0  0  0  0  0  0  0  0  0  0  0  # atno 11005 bound_to 11000
  144.6808  140.2540  143.7328 LP  0  0  0  0  0  0  0  0  0  0  0  0  # atno 17320 bound_to 7965
  145.8083  139.1992  143.2008 LP  0  0  0  0  0  0  0  0  0  0  0  0  # atno 17321 bound_to 7965
  139.4961  144.4086  152.0105 LP  0  0  0  0  0  0  0  0  0  0  0  0  # atno 17342 bound_to 10162
  140.3189  144.3451  150.6014 LP  0  0  0  0  0  0  0  0  0  0  0  0  # atno 17343 bound_to 10162
  157.4927  131.0912  151.0408 LP  0  0  0  0  0  0  0  0  0  0  0  0  # atno 17370 bound_to 10713
  157.0811  130.5903  149.5420 LP  0  0  0  0  0  0  0  0  0  0  0  0  # atno 17371 bound_to 10713
  141.2226  133.7049  156.8105 LP  0  0  0  0  0  0  0  0  0  0  0  0  # atno 17394 bound_to 11000
  140.2153  134.8797  157.3319 LP  0  0  0  0  0  0  0  0  0  0  0  0  # atno 17395 bound_to 11000

$$$$
