AV-unprocessed.smi:2492|AV-procd|sdf|9816|dock5
  -GOLD-   2272013443D 1   1.00000     0.00000
 Structure written by MMmdl.
 32 33  0  0  0  0  0  0  0  0  2 V2000
  151.8273  145.3217  159.6639 C   0  0  0  0  0  0  0  0  0  0  0  0
  151.9400  144.3100  161.1631 S   0  0  0  0  0  0  0  0  0  0  0  0
  153.1353  143.0550  160.6189 C   0  0  1  0  0  0  0  0  0  0  0  0
  153.4506  142.0144  161.6919 C   0  0  0  0  0  0  0  0  0  0  0  0
  154.0361  140.8387  160.9090 C   0  0  0  0  0  0  0  0  0  0  0  0
  153.3589  140.8684  159.5263 C   0  0  1  0  0  0  0  0  0  0  0  0
  152.4457  139.7374  159.3771 N   0  0  0  0  0  0  0  0  0  0  0  0
  152.5084  138.7994  158.4209 C   0  0  0  0  0  0  0  0  0  0  0  0
  153.3980  138.8497  157.5682 O   0  0  0  0  0  0  0  0  0  0  0  0
  151.5352  137.8646  158.5103 N   0  5  0  0  0  0  0  0  0  0  0  0
  151.4201  136.9224  157.5599 C   0  0  0  0  0  0  0  0  0  0  0  0
  150.8924  135.7079  157.7189 N   0  0  0  0  0  0  0  0  0  0  0  0
  151.0117  135.1854  156.4691 C   0  0  0  0  0  0  0  0  0  0  0  0
  150.5538  133.8112  156.1188 C   0  0  0  0  0  0  0  0  0  0  0  0
  151.5577  135.9800  155.5608 N   0  0  0  0  0  0  0  0  0  0  0  0
  151.8299  137.1492  156.2845 O   0  0  0  0  0  0  0  0  0  0  0  0
  152.6194  142.2202  159.4435 C   0  0  0  0  0  0  0  0  0  0  0  0
  151.0952  146.1169  159.8032 H   0  0  0  0  0  0  0  0  0  0  0  0
  151.5182  144.7124  158.8147 H   0  0  0  0  0  0  0  0  0  0  0  0
  152.7902  145.7780  159.4349 H   0  0  0  0  0  0  0  0  0  0  0  0
  154.0581  143.5531  160.3181 H   0  0  0  0  0  0  0  0  0  0  0  0
  154.1348  142.3860  162.4548 H   0  0  0  0  0  0  0  0  0  0  0  0
  152.5320  141.7003  162.1896 H   0  0  0  0  0  0  0  0  0  0  0  0
  155.1095  140.9891  160.7853 H   0  0  0  0  0  0  0  0  0  0  0  0
  153.9050  139.8924  161.4358 H   0  0  0  0  0  0  0  0  0  0  0  0
  154.1312  140.8131  158.7567 H   0  0  0  0  0  0  0  0  0  0  0  0
  151.7017  139.6593  160.0548 H   0  0  0  0  0  0  0  0  0  0  0  0
  149.5336  133.8424  155.7364 H   0  0  0  0  0  0  0  0  0  0  0  0
  150.5760  133.1656  156.9971 H   0  0  0  0  0  0  0  0  0  0  0  0
  151.1982  133.3743  155.3555 H   0  0  0  0  0  0  0  0  0  0  0  0
  151.5438  142.0691  159.5500 H   0  0  0  0  0  0  0  0  0  0  0  0
  152.7796  142.7170  158.4861 H   0  0  0  0  0  0  0  0  0  0  0  0
  1  2  1  0  0  0  0
  1 18  1  0  0  0  0
  1 19  1  0  0  0  0
  1 20  1  0  0  0  0
  2  3  1  0  0  0  0
  3 17  1  0  0  0  0
  3  4  1  0  0  0  0
  3 21  1  0  0  0  0
  4  5  1  0  0  0  0
  4 22  1  0  0  0  0
  4 23  1  0  0  0  0
  5  6  1  0  0  0  0
  5 24  1  0  0  0  0
  5 25  1  0  0  0  0
  6  7  1  0  0  0  0
  6 17  1  0  0  0  0
  6 26  1  0  0  0  0
  7  8  1  0  0  0  0
  7 27  1  0  0  0  0
  8  9  2  0  0  0  0
  8 10  1  0  0  0  0
 10 11  1  0  0  0  0
 11 16  1  0  0  0  0
 11 12  2  0  0  0  0
 12 13  1  0  0  0  0
 13 14  1  0  0  0  0
 13 15  2  0  0  0  0
 14 28  1  0  0  0  0
 14 29  1  0  0  0  0
 14 30  1  0  0  0  0
 15 16  1  0  0  0  0
 17 31  1  0  0  0  0
 17 32  1  0  0  0  0
M  CHG  1  10  -1
M  END
> <s_m_source_file>
AV-unprocessed.smi

> <i_m_source_file_index>
2492

> <i_lp_mmshare_version>
43012

> <i_f3d_flags>
0

> <s_epik_input>
W0NIM11TW0NAQEhdMVtDSDJdW0NIMl1bQ0BIXShbQ0gyXTEpW05IXUMoPU8pW05IXWMybmMoW0NIM10pbm8y

> <s_epik_cmdline>
J2VwaWtfcHl0aG9uJywgJy1waCcsICc3LjAnLCAnLXRuJywgJzgnLCAnLW1hJywgJzIwMCcsICctbWV0YWxfYmluZGluZycsICctaW1hZScsICc8aW5maWxlLm1hZT4nLCAnLW9tYWUnLCAnPG91dGZpbGUubWFlPic=

> <r_lp_tautomer_probability>
1

> <r_epik_Ionization_Penalty>
6.26454

> <r_epik_Ionization_Penalty_Charging>
6.26445

> <r_epik_Ionization_Penalty_Neutral>
9.05726e-05

> <r_epik_State_Penalty>
6.26444

> <r_epik_Charging_Adjusted_Penalty>
12.5289

> <i_epik_Tot_Q>
-1

> <i_epik_Tot_abs_Q>
1

> <r_epik_Metal_State_Penalty>
2.20125

> <b_epik_Metal_Only>
1

> <s_lp_Force_Field>
OPLS_2005

> <r_lp_Energy>
11.8534

> <b_lp_Chiralities_Consistent>
1

> <s_lp_Variant>
AV-unprocessed.smi:2492-6

> <Gold.Version>
5.8.1

> <Gold.Id.Protein>
6NUR|6NUR_protein|mol2

> <Gold.PLP.Fitness>
40.2757

> <Gold.PLP.PLP>
-33.9088

> <Gold.PLP.part.hbond>
-3.0000

> <Gold.PLP.part.metal>
0.0000

> <Gold.PLP.part.buried>
-5.1119

> <Gold.PLP.part.nonpolar>
-26.5960

> <Gold.PLP.part.repulsive>
0.1942

> <Gold.PLP.ligand.clash>
0.0000

> <Gold.PLP.ligand.torsion>
0.1628

> <Gold.PLP.Chemscore.Hbond>
2.2288

> <Gold.PLP.Chemscore.CHOScore>
0.0000

> <Gold.PLP.Chemscore.Metal>
0.0000

> <Gold.Chemscore.Hbonds>
donor molecule, donor type, donor heavy atom, donor atom, acceptor molecule, acceptor atom, score
      P1  H  6896  6908       L1    12  0.20
      P1  H  7997  8009       L1     9  1.00
      P1  H 10752 10764       L1    15  1.00

> <Gold.PLP.Chemscore.Internal.Correction>
0.0061

> <Gold.Rescore>
     Score         DG    S(hbond)    S(metal)    S(lipo)     H(rot)  DE(clash)    DE(int)     intcor
     16.87     -18.64       2.02        0.00      82.77       1.27       0.01       1.75       ----

> <Gold.Chemscore.Fitness>
16.8733

> <Gold.Chemscore.DG>
-18.6422

> <Gold.Chemscore.ZeroCoef>
-5.4800

> <Gold.Chemscore.Hbond>
2.0156

> <Gold.Chemscore.Metal>
0.0000

> <Gold.Chemscore.Lipo>
82.7706

> <Gold.Chemscore.Internal_Hbond>
0.0000

> <Gold.Chemscore.DEClash>
0.0141

> <Gold.Chemscore.DEInternal>
1.7548

> <Gold.Chemscore.Rot>
1.2712

> <Gold.Chemscore.Internal.Correction>
   9.000000E+99

> <Gold.Chemscore.Hbonds>
donor molecule, donor type, donor heavy atom, donor atom, acceptor molecule, acceptor atom, score
      P1  H  6896  6908       L1    12  0.19
      P1  H  7997  8009       L1     9  0.99
      P1  H 10752 10764       L1    15  0.64

> <Gold.Chemscore.Hbond.Weighted>
-6.7322

> <Gold.Chemscore.Metal.Weighted>
-0.0000

> <Gold.Chemscore.Lipo.Weighted>
-9.6842

> <Gold.Chemscore.Internal_Hbond.Weighted>
0.0000

> <Gold.Chemscore.DEClash.Weighted>
0.0141

> <Gold.Chemscore.DEInternal.Weighted>
1.7548

> <Gold.Chemscore.Rot.Weighted>
3.2542

> <Gold.Chemscore.Internal.Correction.Weighted>
   9.000000E+99

> <Gold.Protein.RotatedTorsions>
[ 6907 6896 6895 6894 ] final  154.52 input  -60.11 | X-H torsion
[ 7974 7965 7964 7962 ] final -140.53 input  175.53 | X-H torsion
[ 8008 7997 7996 7995 ] final  151.99 input   59.86 | X-H torsion
[ 10167 10162 10161 10158 ] final  147.17 input  -65.29 | X-H torsion
[ 10718 10713 10712 10709 ] final  132.59 input   66.30 | X-H torsion
[ 10763 10752 10751 10750 ] final  -50.79 input  -60.55 | X-H torsion
[ 11005 11000 10999 10996 ] final  -12.26 input  -57.11 | X-H torsion

> <Gold.Protein.ActiveResidues>
 VAL166  LYS551  ARG553  GLY616  TRP617  ASP618  TYR619  PRO620  LYS621  CYS622 
 ASP623  PHE694  ASN695  SER759  ASP760  ASP761  ALA762  ILE779  LEU786  VAL792 
 PHE793  MET794  SER795  GLU796  ALA797  LYS798  CYS799  TRP800  GLU811  SER814 

> <Gold.Protein.RotatedAtoms>
  152.0573  133.4046  159.4402 H   0  0  0  0  0  0  0  0  0  0  0  0  # atno 6907 bound_to 6896
  150.6867  134.3240  159.4808 H   0  0  0  0  0  0  0  0  0  0  0  0  # atno 6908 bound_to 6896
  152.1057  134.9310  160.0619 H   0  0  0  0  0  0  0  0  0  0  0  0  # atno 6909 bound_to 6896
  144.8590  140.6189  143.5341 H   0  0  0  0  0  0  0  0  0  0  0  0  # atno 7974 bound_to 7965
  156.2649  140.2033  156.6263 H   0  0  0  0  0  0  0  0  0  0  0  0  # atno 8008 bound_to 7997
  154.6717  140.0549  157.0197 H   0  0  0  0  0  0  0  0  0  0  0  0  # atno 8009 bound_to 7997
  155.1127  140.3217  155.4520 H   0  0  0  0  0  0  0  0  0  0  0  0  # atno 8010 bound_to 7997
  139.4894  144.5775  151.6936 H   0  0  0  0  0  0  0  0  0  0  0  0  # atno 10167 bound_to 10162
  157.4856  131.1088  150.9625 H   0  0  0  0  0  0  0  0  0  0  0  0  # atno 10718 bound_to 10713
  154.1161  135.6542  153.4894 H   0  0  0  0  0  0  0  0  0  0  0  0  # atno 10763 bound_to 10752
  153.0240  135.5259  154.7144 H   0  0  0  0  0  0  0  0  0  0  0  0  # atno 10764 bound_to 10752
  154.6338  135.2979  155.0155 H   0  0  0  0  0  0  0  0  0  0  0  0  # atno 10765 bound_to 10752
  140.7639  133.8493  155.9148 H   0  0  0  0  0  0  0  0  0  0  0  0  # atno 11005 bound_to 11000
  145.4350  139.1543  143.4001 LP  0  0  0  0  0  0  0  0  0  0  0  0  # atno 17320 bound_to 7965
  146.2845  140.4468  142.8763 LP  0  0  0  0  0  0  0  0  0  0  0  0  # atno 17321 bound_to 7965
  140.5375  144.0632  150.6076 LP  0  0  0  0  0  0  0  0  0  0  0  0  # atno 17342 bound_to 10162
  140.3643  143.2890  152.0349 LP  0  0  0  0  0  0  0  0  0  0  0  0  # atno 17343 bound_to 10162
  157.0343  130.5724  149.5347 LP  0  0  0  0  0  0  0  0  0  0  0  0  # atno 17370 bound_to 10713
  156.0145  130.5238  150.8091 LP  0  0  0  0  0  0  0  0  0  0  0  0  # atno 17371 bound_to 10713
  140.9637  134.1622  157.4633 LP  0  0  0  0  0  0  0  0  0  0  0  0  # atno 17394 bound_to 11000
  139.8766  134.9954  156.5742 LP  0  0  0  0  0  0  0  0  0  0  0  0  # atno 17395 bound_to 11000

$$$$
