AV-unprocessed.smi:2204|AV-procd|sdf|8937|dock3
  -GOLD-   2272012153D 1   1.00000     0.00000
 Structure written by MMmdl.
 39 40  0  0  0  0  0  0  0  0  1 V2000
  151.5608  144.2719  158.1549 C   0  0  0  0  0  0  0  0  0  0  0  0
  152.1288  143.5784  159.3576 C   0  0  0  0  0  0  0  0  0  0  0  0
  152.1312  144.0202  160.7102 C   0  0  0  0  0  0  0  0  0  0  0  0
  152.7755  143.0249  161.3894 C   0  0  0  0  0  0  0  0  0  0  0  0
  153.0984  142.9042  162.8426 C   0  0  0  0  0  0  0  0  0  0  0  0
  153.1174  142.0598  160.4579 N   0  0  0  0  0  0  0  0  0  0  0  0
  153.8169  140.7988  160.6538 C   0  0  0  0  0  0  0  0  0  0  0  0
  153.5617  139.8166  159.5060 C   0  0  0  0  0  0  0  0  0  0  0  0
  154.4611  139.5381  158.7123 O   0  0  0  0  0  0  0  0  0  0  0  0
  152.3292  139.2879  159.4422 N   0  0  0  0  0  0  0  0  0  0  0  0
  151.8553  138.3291  158.4451 C   0  0  2  0  0  0  0  0  0  0  0  0
  152.8908  137.2022  158.3157 C   0  0  0  0  0  0  0  0  0  0  0  0
  151.6004  139.0292  157.0930 C   0  0  2  0  0  0  0  0  0  0  0  0
  150.5045  138.4004  156.2288 C   0  0  0  0  0  0  0  0  0  0  0  0
  150.8946  138.8706  154.8474 C   0  0  0  0  0  0  0  0  0  0  0  0
  152.4158  138.7788  154.9088 C   0  0  0  0  0  0  0  0  0  0  0  0
  152.7683  138.9804  156.2754 O   0  0  0  0  0  0  0  0  0  0  0  0
  152.7185  142.4030  159.2135 N   0  0  0  0  0  0  0  0  0  0  0  0
  151.0440  145.1895  158.4368 H   0  0  0  0  0  0  0  0  0  0  0  0
  150.8449  143.6350  157.6344 H   0  0  0  0  0  0  0  0  0  0  0  0
  152.3474  144.5379  157.4486 H   0  0  0  0  0  0  0  0  0  0  0  0
  151.7239  144.9325  161.1198 H   0  0  0  0  0  0  0  0  0  0  0  0
  152.8219  143.8117  163.3795 H   0  0  0  0  0  0  0  0  0  0  0  0
  154.1653  142.7395  162.9930 H   0  0  0  0  0  0  0  0  0  0  0  0
  152.5585  142.0708  163.2921 H   0  0  0  0  0  0  0  0  0  0  0  0
  154.8871  140.9901  160.7310 H   0  0  0  0  0  0  0  0  0  0  0  0
  153.5044  140.3663  161.6058 H   0  0  0  0  0  0  0  0  0  0  0  0
  151.6599  139.5772  160.1406 H   0  0  0  0  0  0  0  0  0  0  0  0
  150.9207  137.8782  158.7837 H   0  0  0  0  0  0  0  0  0  0  0  0
  152.5633  136.4446  157.6035 H   0  0  0  0  0  0  0  0  0  0  0  0
  153.0499  136.7030  159.2722 H   0  0  0  0  0  0  0  0  0  0  0  0
  153.8539  137.5838  157.9746 H   0  0  0  0  0  0  0  0  0  0  0  0
  151.3577  140.0807  157.2565 H   0  0  0  0  0  0  0  0  0  0  0  0
  150.5524  137.3114  156.2764 H   0  0  0  0  0  0  0  0  0  0  0  0
  149.5007  138.7127  156.5183 H   0  0  0  0  0  0  0  0  0  0  0  0
  150.4622  138.2670  154.0488 H   0  0  0  0  0  0  0  0  0  0  0  0
  150.5841  139.9063  154.7027 H   0  0  0  0  0  0  0  0  0  0  0  0
  152.7497  137.7845  154.6101 H   0  0  0  0  0  0  0  0  0  0  0  0
  152.9012  139.5084  154.2601 H   0  0  0  0  0  0  0  0  0  0  0  0
  1  2  1  0  0  0  0
  1 19  1  0  0  0  0
  1 20  1  0  0  0  0
  1 21  1  0  0  0  0
  2 18  2  0  0  0  0
  2  3  1  0  0  0  0
  3  4  2  0  0  0  0
  3 22  1  0  0  0  0
  4  5  1  0  0  0  0
  4  6  1  0  0  0  0
  5 23  1  0  0  0  0
  5 24  1  0  0  0  0
  5 25  1  0  0  0  0
  6  7  1  0  0  0  0
  6 18  1  0  0  0  0
  7  8  1  0  0  0  0
  7 26  1  0  0  0  0
  7 27  1  0  0  0  0
  8  9  2  0  0  0  0
  8 10  1  0  0  0  0
 10 11  1  0  0  0  0
 10 28  1  0  0  0  0
 11 12  1  0  0  0  0
 11 13  1  0  0  0  0
 11 29  1  0  0  0  0
 12 30  1  0  0  0  0
 12 31  1  0  0  0  0
 12 32  1  0  0  0  0
 13 17  1  0  0  0  0
 13 14  1  0  0  0  0
 13 33  1  0  0  0  0
 14 15  1  0  0  0  0
 14 34  1  0  0  0  0
 14 35  1  0  0  0  0
 15 16  1  0  0  0  0
 15 36  1  0  0  0  0
 15 37  1  0  0  0  0
 16 17  1  0  0  0  0
 16 38  1  0  0  0  0
 16 39  1  0  0  0  0
M  END
> <s_m_source_file>
AV-unprocessed.smi

> <i_m_source_file_index>
2204

> <i_lp_mmshare_version>
43012

> <i_f3d_flags>
0

> <s_epik_input>
W0NIM11jMVtjSF1jKFtDSDNdKW4objEpW0NIMl1DKD1PKVtOSF1bQ0BIXShbQ0gzXSlbQ0BASF0yW0NIMl1bQ0gyXVtDSDJdTzI=

> <s_epik_cmdline>
J2VwaWtfcHl0aG9uJywgJy1waCcsICc3LjAnLCAnLXRuJywgJzgnLCAnLW1hJywgJzIwMCcsICctbWV0YWxfYmluZGluZycsICctaW1hZScsICc8aW5maWxlLm1hZT4nLCAnLW9tYWUnLCAnPG91dGZpbGUubWFlPic=

> <r_lp_tautomer_probability>
1

> <r_epik_Ionization_Penalty>
0.000433354

> <r_epik_Ionization_Penalty_Charging>
0

> <r_epik_Ionization_Penalty_Neutral>
0.000433354

> <r_epik_State_Penalty>
-0

> <r_epik_Charging_Adjusted_Penalty>
0

> <i_epik_Tot_Q>
0

> <i_epik_Tot_abs_Q>
0

> <r_epik_Metal_State_Penalty>
-0

> <b_epik_Metal_Only>
0

> <s_lp_Force_Field>
OPLS_2005

> <r_lp_Energy>
17.0674

> <b_lp_Chiralities_Consistent>
1

> <s_lp_Variant>
AV-unprocessed.smi:2204-1

> <Gold.Version>
5.8.1

> <Gold.Id.Protein>
6NUR|6NUR_protein|mol2

> <Gold.PLP.Fitness>
45.5077

> <Gold.PLP.PLP>
-43.2002

> <Gold.PLP.part.hbond>
-2.0000

> <Gold.PLP.part.metal>
0.0000

> <Gold.PLP.part.buried>
-5.5452

> <Gold.PLP.part.nonpolar>
-35.8847

> <Gold.PLP.part.repulsive>
0.1173

> <Gold.PLP.ligand.clash>
0.0000

> <Gold.PLP.ligand.torsion>
1.3001

> <Gold.PLP.Chemscore.Hbond>
1.6304

> <Gold.PLP.Chemscore.CHOScore>
0.0000

> <Gold.PLP.Chemscore.Metal>
0.0000

> <Gold.Chemscore.Hbonds>
donor molecule, donor type, donor heavy atom, donor atom, acceptor molecule, acceptor atom, score
      P1  H  7997  8008       L1    17  0.99
      P1  H  7997  8010       L1     9  0.64

> <Gold.PLP.Chemscore.Internal.Correction>
0.0165

> <Gold.Rescore>
     Score         DG    S(hbond)    S(metal)    S(lipo)     H(rot)  DE(clash)    DE(int)     intcor
     16.15     -19.14       1.50        0.00     106.75       1.50       0.02       2.97       ----

> <Gold.Chemscore.Fitness>
16.1498

> <Gold.Chemscore.DG>
-19.1385

> <Gold.Chemscore.ZeroCoef>
-5.4800

> <Gold.Chemscore.Hbond>
1.4999

> <Gold.Chemscore.Metal>
0.0000

> <Gold.Chemscore.Lipo>
106.7532

> <Gold.Chemscore.Internal_Hbond>
0.0000

> <Gold.Chemscore.DEClash>
0.0192

> <Gold.Chemscore.DEInternal>
2.9695

> <Gold.Chemscore.Rot>
1.5005

> <Gold.Chemscore.Internal.Correction>
   9.000000E+99

> <Gold.Chemscore.Hbonds>
donor molecule, donor type, donor heavy atom, donor atom, acceptor molecule, acceptor atom, score
      P1  H  7997  8008       L1    17  0.27
      P1  H  7997  8010       L1     9  0.64

> <Gold.Chemscore.Hbond.Weighted>
-5.0096

> <Gold.Chemscore.Metal.Weighted>
-0.0000

> <Gold.Chemscore.Lipo.Weighted>
-12.4901

> <Gold.Chemscore.Internal_Hbond.Weighted>
0.0000

> <Gold.Chemscore.DEClash.Weighted>
0.0192

> <Gold.Chemscore.DEInternal.Weighted>
2.9695

> <Gold.Chemscore.Rot.Weighted>
3.8412

> <Gold.Chemscore.Internal.Correction.Weighted>
   9.000000E+99

> <Gold.Protein.RotatedTorsions>
[ 6907 6896 6895 6894 ] final  -18.36 input  -60.11 | X-H torsion
[ 7974 7965 7964 7962 ] final  179.34 input  175.53 | X-H torsion
[ 8008 7997 7996 7995 ] final  -25.27 input   59.86 | X-H torsion
[ 10167 10162 10161 10158 ] final   86.09 input  -65.29 | X-H torsion
[ 10718 10713 10712 10709 ] final   55.39 input   66.30 | X-H torsion
[ 10763 10752 10751 10750 ] final -143.58 input  -60.55 | X-H torsion
[ 11005 11000 10999 10996 ] final  169.30 input  -57.11 | X-H torsion

> <Gold.Protein.ActiveResidues>
 VAL166  LYS551  ARG553  GLY616  TRP617  ASP618  TYR619  PRO620  LYS621  CYS622 
 ASP623  PHE694  ASN695  SER759  ASP760  ASP761  ALA762  ILE779  LEU786  VAL792 
 PHE793  MET794  SER795  GLU796  ALA797  LYS798  CYS799  TRP800  GLU811  SER814 

> <Gold.Protein.RotatedAtoms>
  151.2793  135.0709  159.9163 H   0  0  0  0  0  0  0  0  0  0  0  0  # atno 6907 bound_to 6896
  152.5337  134.0048  159.7921 H   0  0  0  0  0  0  0  0  0  0  0  0  # atno 6908 bound_to 6896
  151.0299  133.5749  159.2692 H   0  0  0  0  0  0  0  0  0  0  0  0  # atno 6909 bound_to 6896
  144.7147  140.0533  143.6434 H   0  0  0  0  0  0  0  0  0  0  0  0  # atno 7974 bound_to 7965
  154.4485  140.1931  156.0593 H   0  0  0  0  0  0  0  0  0  0  0  0  # atno 8008 bound_to 7997
  156.0595  140.3298  155.7417 H   0  0  0  0  0  0  0  0  0  0  0  0  # atno 8009 bound_to 7997
  155.5434  140.0588  157.2856 H   0  0  0  0  0  0  0  0  0  0  0  0  # atno 8010 bound_to 7997
  139.8911  144.6385  150.8738 H   0  0  0  0  0  0  0  0  0  0  0  0  # atno 10167 bound_to 10162
  157.5341  130.8651  149.8728 H   0  0  0  0  0  0  0  0  0  0  0  0  # atno 10718 bound_to 10713
  154.8464  135.3464  154.6210 H   0  0  0  0  0  0  0  0  0  0  0  0  # atno 10763 bound_to 10752
  153.6819  135.6979  153.5120 H   0  0  0  0  0  0  0  0  0  0  0  0  # atno 10764 bound_to 10752
  153.2662  135.4307  155.0899 H   0  0  0  0  0  0  0  0  0  0  0  0  # atno 10765 bound_to 10752
  140.2963  134.7632  157.3880 H   0  0  0  0  0  0  0  0  0  0  0  0  # atno 11005 bound_to 11000
  145.9926  139.3027  143.0976 LP  0  0  0  0  0  0  0  0  0  0  0  0  # atno 17320 bound_to 7965
  145.8885  140.9318  143.0564 LP  0  0  0  0  0  0  0  0  0  0  0  0  # atno 17321 bound_to 7965
  140.7726  143.3509  151.2016 LP  0  0  0  0  0  0  0  0  0  0  0  0  # atno 17342 bound_to 10162
  139.7109  143.9379  152.2947 LP  0  0  0  0  0  0  0  0  0  0  0  0  # atno 17343 bound_to 10162
  156.0445  130.3731  150.1353 LP  0  0  0  0  0  0  0  0  0  0  0  0  # atno 17370 bound_to 10713
  156.9536  130.9782  151.3493 LP  0  0  0  0  0  0  0  0  0  0  0  0  # atno 17371 bound_to 10713
  140.1149  134.5296  155.8233 LP  0  0  0  0  0  0  0  0  0  0  0  0  # atno 17394 bound_to 11000
  141.2137  133.6737  156.6759 LP  0  0  0  0  0  0  0  0  0  0  0  0  # atno 17395 bound_to 11000

$$$$
