#       Name:                AV-unprocessed.smi:1873
#       Creating user name   scv26
#       Creation time:       Fri Mar 27 09:32:49 2020


#       File generated by GOLD software.
#

@<TRIPOS>MOLECULE
AV-unprocessed.smi:1873
    41    43     1
SMALL
NO_CHARGES


@<TRIPOS>ATOM
      1 ****        -0.7159  -1.4933   1.2809 O.3            1 S1                 0.0000
      2 ****        -0.2026  -0.5887   0.3218 C.3            1 S1                 0.0000
      3 ****        -0.8094   0.8105   0.5462 C.3            1 S1                 0.0000
      4 ****        -2.2595   0.8063   0.4760 N.pl3          1 S1                 0.0000
      5 ****        -3.1242   0.8362   1.5083 C.2            1 S1                 0.0000
      6 ****        -4.4219   0.8238   1.2168 N.2            1 S1                 0.0000
      7 ****        -4.3967   0.7817  -0.1667 C.ar           1 S1                 0.0000
      8 ****        -5.4549   0.7493  -1.1031 C.ar           1 S1                 0.0000
      9 ****        -5.1835   0.7084  -2.4867 C.ar           1 S1                 0.0000
     10 ****        -3.8533   0.6999  -2.9548 C.ar           1 S1                 0.0000
     11 ****        -2.7822   0.7313  -2.0411 C.ar           1 S1                 0.0000
     12 ****        -3.0576   0.7715  -0.6616 C.ar           1 S1                 0.0000
     13 ****         1.3173  -0.5425   0.3369 C.ar           1 S1                 0.0000
     14 ****         2.0416  -0.6468  -0.8687 C.ar           1 S1                 0.0000
     15 ****         3.4489  -0.5967  -0.8575 C.ar           1 S1                 0.0000
     16 ****         4.1535  -0.4468   0.3541 C.ar           1 S1                 0.0000
     17 ****         5.5279  -0.3905   0.2962 O.3            1 S1                 0.0000
     18 ****         6.2597  -0.8100   1.3629 C.3            1 S1                 0.0000
     19 ****         7.4524  -1.2927   0.9384 F              1 S1                 0.0000
     20 ****         6.5127   0.2252   2.2009 F              1 S1                 0.0000
     21 ****         3.4241  -0.3278   1.5614 C.ar           1 S1                 0.0000
     22 ****         2.0170  -0.3792   1.5514 C.ar           1 S1                 0.0000
     23 ****        -0.4221  -2.3636   1.0588 H              1 S1                 0.0000
     24 ****        -0.5234  -0.9559  -0.6542 H              1 S1                 0.0000
     25 ****        -0.5088   1.2084   1.5167 H              1 S1                 0.0000
     26 ****        -0.4362   1.5073  -0.2056 H              1 S1                 0.0000
     27 ****        -2.7813   0.8655   2.5324 H              1 S1                 0.0000
     28 ****        -6.4776   0.7557  -0.7563 H              1 S1                 0.0000
     29 ****        -6.0004   0.6837  -3.1929 H              1 S1                 0.0000
     30 ****        -3.6558   0.6693  -4.0163 H              1 S1                 0.0000
     31 ****        -1.7622   0.7242  -2.3955 H              1 S1                 0.0000
     32 ****         1.5216  -0.7637  -1.8082 H              1 S1                 0.0000
     33 ****         3.9926  -0.6761  -1.7877 H              1 S1                 0.0000
     34 ****         5.7554  -1.6064   1.9107 H              1 S1                 0.0000
     35 ****         3.9310  -0.1893   2.5046 H              1 S1                 0.0000
     36 ****         1.4745  -0.2865   2.4809 H              1 S1                 0.0000
     37 ****        -1.7154  -1.4623   1.2731 LP             1 S1                 0.0000
     38 ****        -0.3819  -1.2463   2.1905 LP             1 S1                 0.0000
     39 ****        -5.2084   0.8404   1.8342 LP             1 S1                 0.0000
     40 ****         5.7734   0.5649   0.1324 LP             1 S1                 0.0000
     41 ****         5.8093  -0.9459  -0.4863 LP             1 S1                 0.0000
@<TRIPOS>BOND
    1    1    2 1     
    2    1   23 1     
    3    2    3 1     
    4    2   13 1     
    5    2   24 1     
    6    3    4 1     
    7    3   25 1     
    8    3   26 1     
    9    4   12 1     
   10    4    5 1     
   11    5    6 2     
   12    5   27 1     
   13    6    7 1     
   14    7   12 ar    
   15    7    8 ar    
   16    8    9 ar    
   17    8   28 1     
   18    9   10 ar    
   19    9   29 1     
   20   10   11 ar    
   21   10   30 1     
   22   11   12 ar    
   23   11   31 1     
   24   13   22 ar    
   25   13   14 ar    
   26   14   15 ar    
   27   14   32 1     
   28   15   16 ar    
   29   15   33 1     
   30   16   17 1     
   31   16   21 ar    
   32   17   18 1     
   33   18   19 1     
   34   18   20 1     
   35   18   34 1     
   36   21   22 ar    
   37   21   35 1     
   38   22   36 1     
   39    1   37 1     
   40    1   38 1     
   41    6   39 1     
   42   17   40 1     
   43   17   41 1     
@<TRIPOS>SUBSTRUCTURE
      1 S1             1
@<TRIPOS>SET
LONE_PAIRS      STATIC     ATOMS    <user>   **** ""
5 37 38 39 40 41
DONOR_HYDROGENS      STATIC     ATOMS    <user>   **** ""
1 23
ATOM$BLUE        STATIC     ATOMS    COLORGROUP SYSTEM
5 37 38 39 40 41
ATOM$RED        STATIC     ATOMS    COLORGROUP SYSTEM
1 23
