AV-unprocessed.smi:3283|AV-procd|sdf|12570|dock4
  -GOLD-   2272018493D 1   1.00000     0.00000
 Structure written by MMmdl.
 44 45  0  0  0  0  0  0  0  0  2 V2000
  144.3020  135.3740  150.5008 C   0  0  0  0  0  0  0  0  0  0  0  0
  144.8057  134.0571  151.0675 C   0  0  0  0  0  0  0  0  0  0  0  0
  144.1645  132.9119  150.7657 C   0  0  0  0  0  0  0  0  0  0  0  0
  144.6182  131.5398  151.2069 C   0  0  0  0  0  0  0  0  0  0  0  0
  146.1028  131.5457  151.5782 C   0  0  0  0  0  0  0  0  0  0  0  0
  146.4353  132.6941  152.5447 C   0  0  1  0  0  0  0  0  0  0  0  0
  147.9172  132.6010  152.9585 C   0  0  0  0  0  0  0  0  0  0  0  0
  146.0665  134.0913  151.9559 C   0  0  2  0  0  0  0  0  0  0  0  0
  145.9695  135.1398  153.0959 C   0  0  0  0  0  0  0  0  0  0  0  0
  147.2823  135.4644  153.6892 N   0  3  0  0  0  0  0  0  0  0  0  0
  147.2355  136.5028  154.7374 C   0  0  0  0  0  0  0  0  0  0  0  0
  148.6438  136.9636  155.1430 C   0  0  0  0  0  0  0  0  0  0  0  0
  148.9262  138.3975  154.8114 C   0  0  0  0  0  0  0  0  0  0  0  0
  148.0691  139.4609  154.7543 C   0  0  0  0  0  0  0  0  0  0  0  0
  148.9011  140.5614  154.4109 C   0  0  0  0  0  0  0  0  0  0  0  0
  150.1676  140.2125  154.2690 N   0  0  0  0  0  0  0  0  0  0  0  0
  150.1876  138.8839  154.5074 N   0  0  0  0  0  0  0  0  0  0  0  0
  151.4532  138.1783  154.4268 C   0  0  0  0  0  0  0  0  0  0  0  0
  145.1126  135.9122  150.0100 H   0  0  0  0  0  0  0  0  0  0  0  0
  143.8800  136.0021  151.2849 H   0  0  0  0  0  0  0  0  0  0  0  0
  143.5192  135.2124  149.7591 H   0  0  0  0  0  0  0  0  0  0  0  0
  143.2719  132.9367  150.1574 H   0  0  0  0  0  0  0  0  0  0  0  0
  144.0063  131.2241  152.0524 H   0  0  0  0  0  0  0  0  0  0  0  0
  144.4434  130.8277  150.3998 H   0  0  0  0  0  0  0  0  0  0  0  0
  146.3684  130.5847  152.0204 H   0  0  0  0  0  0  0  0  0  0  0  0
  146.7037  131.6450  150.6727 H   0  0  0  0  0  0  0  0  0  0  0  0
  145.8316  132.5353  153.4400 H   0  0  0  0  0  0  0  0  0  0  0  0
  148.5759  132.7610  152.1044 H   0  0  0  0  0  0  0  0  0  0  0  0
  148.1460  131.6163  153.3672 H   0  0  0  0  0  0  0  0  0  0  0  0
  148.1846  133.3288  153.7227 H   0  0  0  0  0  0  0  0  0  0  0  0
  146.8807  134.3839  151.2908 H   0  0  0  0  0  0  0  0  0  0  0  0
  145.5004  136.0505  152.7202 H   0  0  0  0  0  0  0  0  0  0  0  0
  145.3363  134.7823  153.9063 H   0  0  0  0  0  0  0  0  0  0  0  0
  147.6702  134.6216  154.0892 H   0  0  0  0  0  0  0  0  0  0  0  0
  146.6653  137.3552  154.3656 H   0  0  0  0  0  0  0  0  0  0  0  0
  146.7041  136.1170  155.6086 H   0  0  0  0  0  0  0  0  0  0  0  0
  148.7977  136.7793  156.2062 H   0  0  0  0  0  0  0  0  0  0  0  0
  149.3761  136.3370  154.6326 H   0  0  0  0  0  0  0  0  0  0  0  0
  147.0041  139.4543  154.9340 H   0  0  0  0  0  0  0  0  0  0  0  0
  148.6250  141.5953  154.2644 H   0  0  0  0  0  0  0  0  0  0  0  0
  151.3342  137.2583  153.8547 H   0  0  0  0  0  0  0  0  0  0  0  0
  151.8038  137.9379  155.4297 H   0  0  0  0  0  0  0  0  0  0  0  0
  152.2050  138.7956  153.9325 H   0  0  0  0  0  0  0  0  0  0  0  0
  147.8942  135.7825  152.9515 H   0  0  0  0  0  0  0  0  0  0  0  0
  1  2  1  0  0  0  0
  1 19  1  0  0  0  0
  1 20  1  0  0  0  0
  1 21  1  0  0  0  0
  2  8  1  0  0  0  0
  2  3  2  0  0  0  0
  3  4  1  0  0  0  0
  3 22  1  0  0  0  0
  4  5  1  0  0  0  0
  4 23  1  0  0  0  0
  4 24  1  0  0  0  0
  5  6  1  0  0  0  0
  5 25  1  0  0  0  0
  5 26  1  0  0  0  0
  6  7  1  0  0  0  0
  6  8  1  0  0  0  0
  6 27  1  0  0  0  0
  7 28  1  0  0  0  0
  7 29  1  0  0  0  0
  7 30  1  0  0  0  0
  8  9  1  0  0  0  0
  8 31  1  0  0  0  0
  9 10  1  0  0  0  0
  9 32  1  0  0  0  0
  9 33  1  0  0  0  0
 10 11  1  0  0  0  0
 10 34  1  0  0  0  0
 10 44  1  0  0  0  0
 11 12  1  0  0  0  0
 11 35  1  0  0  0  0
 11 36  1  0  0  0  0
 12 13  1  0  0  0  0
 12 37  1  0  0  0  0
 12 38  1  0  0  0  0
 13 17  1  0  0  0  0
 13 14  2  0  0  0  0
 14 15  1  0  0  0  0
 14 39  1  0  0  0  0
 15 16  2  0  0  0  0
 15 40  1  0  0  0  0
 16 17  1  0  0  0  0
 17 18  1  0  0  0  0
 18 41  1  0  0  0  0
 18 42  1  0  0  0  0
 18 43  1  0  0  0  0
M  CHG  1  10   1
M  END
> <s_m_source_file>
AV-unprocessed.smi

> <i_m_source_file_index>
3283

> <i_lp_mmshare_version>
43012

> <i_f3d_flags>
0

> <s_epik_input>
W0NIM11DMT1bQ0hdW0NIMl1bQ0gyXVtDQEBIXShbQ0gzXSlbQ0BIXTFbQ0gyXVtOSF1bQ0gyXVtDSDJdYzJbY0hdW2NIXW5uMltDSDNd

> <s_epik_cmdline>
J2VwaWtfcHl0aG9uJywgJy1waCcsICc3LjAnLCAnLXRuJywgJzgnLCAnLW1hJywgJzIwMCcsICctbWV0YWxfYmluZGluZycsICctaW1hZScsICc8aW5maWxlLm1hZT4nLCAnLW9tYWUnLCAnPG91dGZpbGUubWFlPic=

> <r_lp_tautomer_probability>
1

> <r_epik_Ionization_Penalty>
0.000866911

> <r_epik_Ionization_Penalty_Charging>
0.000836385

> <r_epik_Ionization_Penalty_Neutral>
3.05258e-05

> <r_epik_State_Penalty>
-0

> <r_epik_Charging_Adjusted_Penalty>
0.000836385

> <i_epik_Tot_Q>
1

> <i_epik_Tot_abs_Q>
1

> <r_epik_Metal_State_Penalty>
-0

> <b_epik_Metal_Only>
0

> <s_lp_Force_Field>
OPLS_2005

> <r_lp_Energy>
14.6104

> <b_lp_Chiralities_Consistent>
1

> <s_lp_Variant>
AV-unprocessed.smi:3283-3

> <Gold.Version>
5.8.1

> <Gold.Id.Protein>
6NUR|6NUR_protein|mol2

> <Gold.PLP.Fitness>
41.4854

> <Gold.PLP.PLP>
-34.1605

> <Gold.PLP.part.hbond>
-2.0000

> <Gold.PLP.part.metal>
0.0000

> <Gold.PLP.part.buried>
-5.0986

> <Gold.PLP.part.nonpolar>
-28.2401

> <Gold.PLP.part.repulsive>
0.1312

> <Gold.PLP.ligand.clash>
0.0000

> <Gold.PLP.ligand.torsion>
0.8639

> <Gold.PLP.Chemscore.Hbond>
3.0000

> <Gold.PLP.Chemscore.CHOScore>
0.0000

> <Gold.PLP.Chemscore.Metal>
0.0000

> <Gold.Chemscore.Hbonds>
donor molecule, donor type, donor heavy atom, donor atom, acceptor molecule, acceptor atom, score
      L1  H    10    44       P1  7948  2.00
      P1  H  7989  7998       L1    16  0.99

> <Gold.PLP.Chemscore.Internal.Correction>
0.0527

> <Gold.Rescore>
     Score         DG    S(hbond)    S(metal)    S(lipo)     H(rot)  DE(clash)    DE(int)     intcor
     16.24     -18.11       1.96        0.00      84.38       1.48       0.04       1.83       ----

> <Gold.Chemscore.Fitness>
16.2428

> <Gold.Chemscore.DG>
-18.1101

> <Gold.Chemscore.ZeroCoef>
-5.4800

> <Gold.Chemscore.Hbond>
1.9636

> <Gold.Chemscore.Metal>
0.0000

> <Gold.Chemscore.Lipo>
84.3809

> <Gold.Chemscore.Internal_Hbond>
0.0000

> <Gold.Chemscore.DEClash>
0.0381

> <Gold.Chemscore.DEInternal>
1.8293

> <Gold.Chemscore.Rot>
1.4847

> <Gold.Chemscore.Internal.Correction>
   9.000000E+99

> <Gold.Chemscore.Hbonds>
donor molecule, donor type, donor heavy atom, donor atom, acceptor molecule, acceptor atom, score
      L1  H    10    44       P1  7948  0.97
      P1  H  7989  7998       L1    16  0.87

> <Gold.Chemscore.Hbond.Weighted>
-6.5584

> <Gold.Chemscore.Metal.Weighted>
-0.0000

> <Gold.Chemscore.Lipo.Weighted>
-9.8726

> <Gold.Chemscore.Internal_Hbond.Weighted>
0.0000

> <Gold.Chemscore.DEClash.Weighted>
0.0381

> <Gold.Chemscore.DEInternal.Weighted>
1.8293

> <Gold.Chemscore.Rot.Weighted>
3.8008

> <Gold.Chemscore.Internal.Correction.Weighted>
   9.000000E+99

> <Gold.Protein.RotatedTorsions>
[ 6907 6896 6895 6894 ] final  177.17 input  -60.11 | X-H torsion
[ 7974 7965 7964 7962 ] final -167.55 input  175.53 | X-H torsion
[ 8008 7997 7996 7995 ] final  -63.47 input   59.86 | X-H torsion
[ 10167 10162 10161 10158 ] final   85.25 input  -65.29 | X-H torsion
[ 10718 10713 10712 10709 ] final  -28.04 input   66.30 | X-H torsion
[ 10763 10752 10751 10750 ] final  124.74 input  -60.55 | X-H torsion
[ 11005 11000 10999 10996 ] final  -50.87 input  -57.11 | X-H torsion

> <Gold.Protein.ActiveResidues>
 VAL166  LYS551  ARG553  GLY616  TRP617  ASP618  TYR619  PRO620  LYS621  CYS622 
 ASP623  PHE694  ASN695  SER759  ASP760  ASP761  ALA762  ILE779  LEU786  VAL792 
 PHE793  MET794  SER795  GLU796  ALA797  LYS798  CYS799  TRP800  GLU811  SER814 

> <Gold.Protein.RotatedAtoms>
  151.7084  133.3312  159.3284 H   0  0  0  0  0  0  0  0  0  0  0  0  # atno 6907 bound_to 6896
  150.7705  134.6554  159.6320 H   0  0  0  0  0  0  0  0  0  0  0  0  # atno 6908 bound_to 6896
  152.3727  134.6713  160.0222 H   0  0  0  0  0  0  0  0  0  0  0  0  # atno 6909 bound_to 6896
  144.7221  140.2501  143.6279 H   0  0  0  0  0  0  0  0  0  0  0  0  # atno 7974 bound_to 7965
  154.4556  140.0974  156.6748 H   0  0  0  0  0  0  0  0  0  0  0  0  # atno 8008 bound_to 7997
  155.5148  140.3477  155.4377 H   0  0  0  0  0  0  0  0  0  0  0  0  # atno 8009 bound_to 7997
  156.0771  140.1364  156.9747 H   0  0  0  0  0  0  0  0  0  0  0  0  # atno 8010 bound_to 7997
  139.8996  144.6337  150.8651 H   0  0  0  0  0  0  0  0  0  0  0  0  # atno 10167 bound_to 10162
  156.4303  130.4444  149.7122 H   0  0  0  0  0  0  0  0  0  0  0  0  # atno 10718 bound_to 10713
  153.6662  135.3338  155.3141 H   0  0  0  0  0  0  0  0  0  0  0  0  # atno 10763 bound_to 10752
  154.8502  135.4375  154.1752 H   0  0  0  0  0  0  0  0  0  0  0  0  # atno 10764 bound_to 10752
  153.2732  135.7002  153.7535 H   0  0  0  0  0  0  0  0  0  0  0  0  # atno 10765 bound_to 10752
  141.0840  133.6646  156.3795 H   0  0  0  0  0  0  0  0  0  0  0  0  # atno 11005 bound_to 11000
  145.8236  139.2054  143.1923 LP  0  0  0  0  0  0  0  0  0  0  0  0  # atno 17320 bound_to 7965
  146.0492  140.8086  142.9790 LP  0  0  0  0  0  0  0  0  0  0  0  0  # atno 17321 bound_to 7965
  140.7709  143.3447  151.2136 LP  0  0  0  0  0  0  0  0  0  0  0  0  # atno 17342 bound_to 10162
  139.7037  143.9491  152.2917 LP  0  0  0  0  0  0  0  0  0  0  0  0  # atno 17343 bound_to 10162
  156.4027  130.7683  151.2691 LP  0  0  0  0  0  0  0  0  0  0  0  0  # atno 17370 bound_to 10713
  157.7508  131.0235  150.3836 LP  0  0  0  0  0  0  0  0  0  0  0  0  # atno 17371 bound_to 10713
  140.5405  134.6125  157.5378 LP  0  0  0  0  0  0  0  0  0  0  0  0  # atno 17394 bound_to 11000
  139.9656  134.7378  156.0145 LP  0  0  0  0  0  0  0  0  0  0  0  0  # atno 17395 bound_to 11000

$$$$
