#       Name:                AV-unprocessed.smi:3293
#       Creating user name   scv26
#       Creation time:       Fri Mar 27 18:56:35 2020


#       File generated by GOLD software.
#

@<TRIPOS>MOLECULE
AV-unprocessed.smi:3293
    45    46     1
SMALL
NO_CHARGES


@<TRIPOS>ATOM
      1 ****         0.4605   3.3079  -0.9128 C.3            1 S1                 0.0000
      2 ****        -0.9779   2.8245  -0.9981 C.2            1 S1                 0.0000
      3 ****        -1.7551   3.1541  -2.0488 C.2            1 S1                 0.0000
      4 ****        -3.2158   2.7665  -2.2020 C.3            1 S1                 0.0000
      5 ****        -3.6957   1.7839  -1.1210 C.3            1 S1                 0.0000
      6 ****        -3.0621   2.0995   0.2448 C.3            1 S1                 0.0000
      7 ****        -3.7063   1.2911   1.3843 C.3            1 S1                 0.0000
      8 ****        -1.5124   1.9940   0.1769 C.3            1 S1                 0.0000
      9 ****        -1.0050   0.5286   0.1376 C.3            1 S1                 0.0000
     10 ****         0.4554   0.4221   0.3231 N.4            1 S1                 1.0000
     11 ****         0.9722  -0.9582   0.2573 C.3            1 S1                 0.0000
     12 ****         2.4856  -0.9923   0.5066 C.3            1 S1                 0.0000
     13 ****         3.0245  -2.3931   0.4299 C.2            1 S1                 0.0000
     14 ****         3.7287  -2.9994  -0.6494 C.2            1 S1                 0.0000
     15 ****         4.0628  -4.2556  -0.4045 N.2            1 S1                 0.0000
     16 ****         3.5881  -4.4946   0.8351 N.pl3          1 S1                 0.0000
     17 ****         3.7791  -5.7987   1.4329 C.3            1 S1                 0.0000
     18 ****         2.9589  -3.3885   1.3643 C.2            1 S1                 0.0000
     19 ****         0.6603   3.7456   0.0655 H              1 S1                 0.0000
     20 ****         0.6603   4.0734  -1.6638 H              1 S1                 0.0000
     21 ****         1.1654   2.4960  -1.0839 H              1 S1                 0.0000
     22 ****        -1.3488   3.7622  -2.8443 H              1 S1                 0.0000
     23 ****        -3.8034   3.6835  -2.1507 H              1 S1                 0.0000
     24 ****        -3.3785   2.3440  -3.1938 H              1 S1                 0.0000
     25 ****        -4.7838   1.8220  -1.0566 H              1 S1                 0.0000
     26 ****        -3.4476   0.7642  -1.4163 H              1 S1                 0.0000
     27 ****        -3.2919   3.1441   0.4633 H              1 S1                 0.0000
     28 ****        -3.6788   0.2188   1.1916 H              1 S1                 0.0000
     29 ****        -4.7541   1.5662   1.5077 H              1 S1                 0.0000
     30 ****        -3.2054   1.4796   2.3344 H              1 S1                 0.0000
     31 ****        -1.1336   2.4524   1.0917 H              1 S1                 0.0000
     32 ****        -1.4639  -0.0610   0.9298 H              1 S1                 0.0000
     33 ****        -1.2798   0.0593  -0.8078 H              1 S1                 0.0000
     34 ****         0.9095   0.9690  -0.3947 H              1 S1                 0.0000
     35 ****         0.4588  -1.5707   0.9998 H              1 S1                 0.0000
     36 ****         0.7440  -1.3790  -0.7232 H              1 S1                 0.0000
     37 ****         2.9854  -0.3514  -0.2209 H              1 S1                 0.0000
     38 ****         2.7002  -0.5560   1.4829 H              1 S1                 0.0000
     39 ****         4.0031  -2.5657  -1.5998 H              1 S1                 0.0000
     40 ****         3.2602  -5.8516   2.3906 H              1 S1                 0.0000
     41 ****         4.8424  -5.9774   1.5951 H              1 S1                 0.0000
     42 ****         3.3819  -6.5701   0.7727 H              1 S1                 0.0000
     43 ****         2.5185  -3.4019   2.3506 H              1 S1                 0.0000
     44 ****         0.6922   0.8116   1.2244 H              1 S1                 0.0000
     45 ****         4.5563  -4.8861  -1.0036 LP             1 S1                 0.0000
@<TRIPOS>BOND
    1    1    2 1     
    2    1   19 1     
    3    1   20 1     
    4    1   21 1     
    5    2    8 1     
    6    2    3 2     
    7    3    4 1     
    8    3   22 1     
    9    4    5 1     
   10    4   23 1     
   11    4   24 1     
   12    5    6 1     
   13    5   25 1     
   14    5   26 1     
   15    6    7 1     
   16    6    8 1     
   17    6   27 1     
   18    7   28 1     
   19    7   29 1     
   20    7   30 1     
   21    8    9 1     
   22    8   31 1     
   23    9   10 1     
   24    9   32 1     
   25    9   33 1     
   26   10   11 1     
   27   10   34 1     
   28   10   44 1     
   29   11   12 1     
   30   11   35 1     
   31   11   36 1     
   32   12   13 1     
   33   12   37 1     
   34   12   38 1     
   35   13   18 2     
   36   13   14 1     
   37   14   15 2     
   38   14   39 1     
   39   15   16 1     
   40   16   17 1     
   41   16   18 1     
   42   17   40 1     
   43   17   41 1     
   44   17   42 1     
   45   18   43 1     
   46   15   45 1     
@<TRIPOS>SUBSTRUCTURE
      1 S1             1
@<TRIPOS>SET
LONE_PAIRS      STATIC     ATOMS    <user>   **** ""
1 45
DONOR_HYDROGENS      STATIC     ATOMS    <user>   **** ""
2 34 44
ATOM$BLUE        STATIC     ATOMS    COLORGROUP SYSTEM
1 45
ATOM$RED        STATIC     ATOMS    COLORGROUP SYSTEM
2 34 44
