#       Name:                AV-unprocessed.smi:239
#       Creating user name   scv26
#       Creation time:       Thu Mar 26 20:42:02 2020


#       File generated by GOLD software.
#

@<TRIPOS>MOLECULE
AV-unprocessed.smi:239
    64    68     1
SMALL
NO_CHARGES


@<TRIPOS>ATOM
      1 ****        -4.4089   0.7507  -4.1522 C.3            1 S1                 0.0000
      2 ****        -3.7485   0.8913  -2.7772 C.3            1 S1                 0.0000
      3 ****        -2.2130   0.9203  -2.8772 C.3            1 S1                 0.0000
      4 ****        -1.6349   1.1713  -1.5616 N.3            1 S1                 0.0000
      5 ****        -0.3116   0.9363  -1.3824 C.ar           1 S1                 0.0000
      6 ****         0.5258   0.9032  -2.4534 N.ar           1 S1                 0.0000
      7 ****         1.8320   0.6792  -2.2814 C.ar           1 S1                 0.0000
      8 ****         2.4990   0.4615  -1.1464 N.ar           1 S1                 0.0000
      9 ****         1.6624   0.4823  -0.0695 C.ar           1 S1                 0.0000
     10 ****         0.2581   0.7127  -0.0975 C.ar           1 S1                 0.0000
     11 ****        -0.2576   0.6485   1.1917 N.2            1 S1                 0.0000
     12 ****         0.7827   0.3980   1.9389 C.2            1 S1                 0.0000
     13 ****         1.9752   0.2746   1.2625 N.pl3          1 S1                 0.0000
     14 ****         3.2783  -0.0127   1.8424 C.3            1 S1                 0.0000
     15 ****         3.5685  -1.5247   2.0117 C.3            1 S1                 0.0000
     16 ****         2.6164  -2.0460   2.9236 O.3            1 S1                 0.0000
     17 ****         3.4532  -2.3042   0.6830 C.3            1 S1                 0.0000
     18 ****         3.9426  -3.7569   0.8172 C.3            1 S1                 0.0000
     19 ****         5.2716  -3.7812   1.3235 O.3            1 S1                 0.0000
     20 ****         5.3729  -3.2271   2.6296 C.3            1 S1                 0.0000
     21 ****         4.9761  -1.7402   2.6031 C.3            1 S1                 0.0000
     22 ****        -2.1355   2.3909  -0.9380 C.3            1 S1                 0.0000
     23 ****        -3.6743   2.3811  -0.8885 C.3            1 S1                 0.0000
     24 ****        -4.2254   1.4394   0.1730 C.3            1 S1                 0.0000
     25 ****        -5.6448   1.5827   0.6673 C.3            1 S1                 0.0000
     26 ****        -4.4900   1.9265   1.5782 C.3            1 S1                 0.0000
     27 ****        -4.2107   2.1054  -2.1847 O.3            1 S1                 0.0000
     28 ****        -4.0977  -0.1710  -4.6445 H              1 S1                 0.0000
     29 ****        -4.1447   1.5844  -4.8034 H              1 S1                 0.0000
     30 ****        -5.4952   0.7288  -4.0619 H              1 S1                 0.0000
     31 ****        -4.0582   0.0444  -2.1643 H              1 S1                 0.0000
     32 ****        -1.8526  -0.0311  -3.2712 H              1 S1                 0.0000
     33 ****        -1.8937   1.7022  -3.5680 H              1 S1                 0.0000
     34 ****         2.4277   0.6724  -3.1822 H              1 S1                 0.0000
     35 ****         0.7078   0.2859   3.0108 H              1 S1                 0.0000
     36 ****         4.0387   0.4455   1.2086 H              1 S1                 0.0000
     37 ****         3.3416   0.4951   2.8059 H              1 S1                 0.0000
     38 ****         2.7871  -2.9679   3.0420 H              1 S1                 0.0000
     39 ****         2.4271  -2.2976   0.3135 H              1 S1                 0.0000
     40 ****         4.0562  -1.8065  -0.0777 H              1 S1                 0.0000
     41 ****         3.2830  -4.3357   1.4656 H              1 S1                 0.0000
     42 ****         3.9302  -4.2435  -0.1582 H              1 S1                 0.0000
     43 ****         4.7488  -3.7899   3.3254 H              1 S1                 0.0000
     44 ****         6.4017  -3.3310   2.9749 H              1 S1                 0.0000
     45 ****         5.7071  -1.2004   1.9995 H              1 S1                 0.0000
     46 ****         5.0389  -1.3179   3.6069 H              1 S1                 0.0000
     47 ****        -1.7351   2.5286   0.0661 H              1 S1                 0.0000
     48 ****        -1.7943   3.2418  -1.5289 H              1 S1                 0.0000
     49 ****        -4.0061   3.3875  -0.6304 H              1 S1                 0.0000
     50 ****        -3.8555   0.4186   0.0984 H              1 S1                 0.0000
     51 ****        -6.2371   2.4059   0.2728 H              1 S1                 0.0000
     52 ****        -6.1972   0.6691   0.8770 H              1 S1                 0.0000
     53 ****        -4.2715   1.2416   2.3950 H              1 S1                 0.0000
     54 ****        -4.3166   2.9790   1.7936 H              1 S1                 0.0000
     55 ****        -2.0024   0.4083  -1.0299 LP             1 S1                 0.0000
     56 ****         0.1625   1.0471  -3.3739 LP             1 S1                 0.0000
     57 ****         3.4850   0.3035  -1.0924 LP             1 S1                 0.0000
     58 ****        -1.2077   0.7670   1.4804 LP             1 S1                 0.0000
     59 ****         1.6944  -1.9181   2.5582 LP             1 S1                 0.0000
     60 ****         2.6958  -1.5730   3.8011 LP             1 S1                 0.0000
     61 ****         5.8582  -3.2560   0.7070 LP             1 S1                 0.0000
     62 ****         5.5849  -4.7304   1.3537 LP             1 S1                 0.0000
     63 ****        -5.2062   2.0536  -2.1050 LP             1 S1                 0.0000
     64 ****        -3.9637   2.8613  -2.7910 LP             1 S1                 0.0000
@<TRIPOS>BOND
    1    1    2 1     
    2    1   28 1     
    3    1   29 1     
    4    1   30 1     
    5    2   27 1     
    6    2    3 1     
    7    2   31 1     
    8    3    4 1     
    9    3   32 1     
   10    3   33 1     
   11    4    5 1     
   12    4   22 1     
   13    5   10 ar    
   14    5    6 ar    
   15    6    7 ar    
   16    7    8 ar    
   17    7   34 1     
   18    8    9 ar    
   19    9   13 1     
   20    9   10 ar    
   21   10   11 1     
   22   11   12 2     
   23   12   13 1     
   24   12   35 1     
   25   13   14 1     
   26   14   15 1     
   27   14   36 1     
   28   14   37 1     
   29   15   21 1     
   30   15   16 1     
   31   15   17 1     
   32   16   38 1     
   33   17   18 1     
   34   17   39 1     
   35   17   40 1     
   36   18   19 1     
   37   18   41 1     
   38   18   42 1     
   39   19   20 1     
   40   20   21 1     
   41   20   43 1     
   42   20   44 1     
   43   21   45 1     
   44   21   46 1     
   45   22   23 1     
   46   22   47 1     
   47   22   48 1     
   48   23   24 1     
   49   23   27 1     
   50   23   49 1     
   51   24   26 1     
   52   24   25 1     
   53   24   50 1     
   54   25   26 1     
   55   25   51 1     
   56   25   52 1     
   57   26   53 1     
   58   26   54 1     
   59    4   55 1     
   60    6   56 1     
   61    8   57 1     
   62   11   58 1     
   63   16   59 1     
   64   16   60 1     
   65   19   61 1     
   66   19   62 1     
   67   27   63 1     
   68   27   64 1     
@<TRIPOS>SUBSTRUCTURE
      1 S1             1
@<TRIPOS>SET
LONE_PAIRS      STATIC     ATOMS    <user>   **** ""
10 55 56 57 58 59 60 61 62 63 64
DONOR_HYDROGENS      STATIC     ATOMS    <user>   **** ""
1 38
ATOM$BLUE        STATIC     ATOMS    COLORGROUP SYSTEM
10 55 56 57 58 59 60 61 62 63 64
ATOM$RED        STATIC     ATOMS    COLORGROUP SYSTEM
1 38
