AV-unprocessed.smi:2976|AV-procd|sdf|11363|dock7
  -GOLD-   2272016283D 1   1.00000     0.00000
 Structure written by MMmdl.
 40 41  0  0  0  0  0  0  0  0  1 V2000
  152.2423  143.7829  161.0590 C   0  0  0  0  0  0  0  0  0  0  0  0
  153.0120  143.3331  159.8001 C   0  0  2  0  0  0  0  0  0  0  0  0
  152.4572  144.0011  158.5259 C   0  0  0  0  0  0  0  0  0  0  0  0
  151.0961  143.4208  158.1132 C   0  0  0  0  0  0  0  0  0  0  0  0
  151.1776  141.8994  157.9289 C   0  0  0  0  0  0  0  0  0  0  0  0
  151.7234  141.1924  159.1850 C   0  0  1  0  0  0  0  0  0  0  0  0
  151.8474  139.7646  158.8921 N   0  0  0  0  0  0  0  0  0  0  0  0
  152.3525  139.2281  157.7701 C   0  0  0  0  0  0  0  0  0  0  0  0
  152.7639  139.8994  156.8227 O   0  0  0  0  0  0  0  0  0  0  0  0
  152.3658  137.6933  157.7157 C   0  0  0  0  0  0  0  0  0  0  0  0
  153.1895  137.0728  158.7638 N   0  0  0  0  0  0  0  0  0  0  0  0
  152.8685  137.4805  160.0468 N   0  0  0  0  0  0  0  0  0  0  0  0
  153.5168  136.9932  161.0480 C   0  0  0  0  0  0  0  0  0  0  0  0
  154.5813  136.0290  160.8807 C   0  0  0  0  0  0  0  0  0  0  0  0
  155.4162  135.4113  162.2624 Cl  0  0  0  0  0  0  0  0  0  0  0  0
  154.8902  135.6383  159.6187 C   0  0  0  0  0  0  0  0  0  0  0  0
  156.1514  134.4869  159.3392 Cl  0  0  0  0  0  0  0  0  0  0  0  0
  154.1724  136.1726  158.4528 C   0  0  0  0  0  0  0  0  0  0  0  0
  154.4242  135.8456  157.2923 O   0  0  0  0  0  0  0  0  0  0  0  0
  153.0886  141.7930  159.6188 C   0  0  2  0  0  0  0  0  0  0  0  0
  153.6981  141.0923  160.8496 C   0  0  0  0  0  0  0  0  0  0  0  0
  151.2190  143.4091  161.0730 H   0  0  0  0  0  0  0  0  0  0  0  0
  152.1938  144.8707  161.1164 H   0  0  0  0  0  0  0  0  0  0  0  0
  152.7320  143.4406  161.9705 H   0  0  0  0  0  0  0  0  0  0  0  0
  154.0331  143.6967  159.9233 H   0  0  0  0  0  0  0  0  0  0  0  0
  152.3757  145.0791  158.6680 H   0  0  0  0  0  0  0  0  0  0  0  0
  153.1658  143.8591  157.7089 H   0  0  0  0  0  0  0  0  0  0  0  0
  150.3424  143.6621  158.8631 H   0  0  0  0  0  0  0  0  0  0  0  0
  150.7624  143.8865  157.1857 H   0  0  0  0  0  0  0  0  0  0  0  0
  150.1900  141.5084  157.6802 H   0  0  0  0  0  0  0  0  0  0  0  0
  151.8190  141.6790  157.0743 H   0  0  0  0  0  0  0  0  0  0  0  0
  151.0024  141.3414  159.9903 H   0  0  0  0  0  0  0  0  0  0  0  0
  151.5265  139.1304  159.6094 H   0  0  0  0  0  0  0  0  0  0  0  0
  151.3410  137.3217  157.7766 H   0  0  0  0  0  0  0  0  0  0  0  0
  152.7259  137.3948  156.7296 H   0  0  0  0  0  0  0  0  0  0  0  0
  153.2974  137.2826  162.0756 H   0  0  0  0  0  0  0  0  0  0  0  0
  153.7859  141.6184  158.7976 H   0  0  0  0  0  0  0  0  0  0  0  0
  153.0100  141.0966  161.6952 H   0  0  0  0  0  0  0  0  0  0  0  0
  154.6194  141.5826  161.1645 H   0  0  0  0  0  0  0  0  0  0  0  0
  153.9459  140.0526  160.6362 H   0  0  0  0  0  0  0  0  0  0  0  0
  1  2  1  0  0  0  0
  1 22  1  0  0  0  0
  1 23  1  0  0  0  0
  1 24  1  0  0  0  0
  2 20  1  0  0  0  0
  2  3  1  0  0  0  0
  2 25  1  0  0  0  0
  3  4  1  0  0  0  0
  3 26  1  0  0  0  0
  3 27  1  0  0  0  0
  4  5  1  0  0  0  0
  4 28  1  0  0  0  0
  4 29  1  0  0  0  0
  5  6  1  0  0  0  0
  5 30  1  0  0  0  0
  5 31  1  0  0  0  0
  6  7  1  0  0  0  0
  6 20  1  0  0  0  0
  6 32  1  0  0  0  0
  7  8  1  0  0  0  0
  7 33  1  0  0  0  0
  8  9  2  0  0  0  0
  8 10  1  0  0  0  0
 10 11  1  0  0  0  0
 10 34  1  0  0  0  0
 10 35  1  0  0  0  0
 11 18  1  0  0  0  0
 11 12  1  0  0  0  0
 12 13  2  0  0  0  0
 13 14  1  0  0  0  0
 13 36  1  0  0  0  0
 14 15  1  0  0  0  0
 14 16  2  0  0  0  0
 16 17  1  0  0  0  0
 16 18  1  0  0  0  0
 18 19  2  0  0  0  0
 20 21  1  0  0  0  0
 20 37  1  0  0  0  0
 21 38  1  0  0  0  0
 21 39  1  0  0  0  0
 21 40  1  0  0  0  0
M  END
> <s_m_source_file>
AV-unprocessed.smi

> <i_m_source_file_index>
2976

> <i_lp_mmshare_version>
43012

> <i_f3d_flags>
0

> <s_epik_input>
W0NIM11bQ0BASF0xW0NIMl1bQ0gyXVtDSDJdW0NASF0oW0NASF0xW0NIM10pW05IXUMoPU8pW0NIMl1uMm5bY0hdYyhDbCljKENsKWMyPU8=

> <s_epik_cmdline>
J2VwaWtfcHl0aG9uJywgJy1waCcsICc3LjAnLCAnLXRuJywgJzgnLCAnLW1hJywgJzIwMCcsICctbWV0YWxfYmluZGluZycsICctaW1hZScsICc8aW5maWxlLm1hZT4nLCAnLW9tYWUnLCAnPG91dGZpbGUubWFlPic=

> <r_lp_tautomer_probability>
1

> <r_epik_Ionization_Penalty>
1.90777e-08

> <r_epik_Ionization_Penalty_Charging>
3.07942e-11

> <r_epik_Ionization_Penalty_Neutral>
1.90469e-08

> <r_epik_State_Penalty>
-0

> <r_epik_Charging_Adjusted_Penalty>
3.07942e-11

> <i_epik_Tot_Q>
0

> <i_epik_Tot_abs_Q>
0

> <r_epik_Metal_State_Penalty>
-0

> <b_epik_Metal_Only>
0

> <s_lp_Force_Field>
OPLS_2005

> <r_lp_Energy>
28.556

> <b_lp_Chiralities_Consistent>
1

> <s_lp_Variant>
AV-unprocessed.smi:2976-5

> <Gold.Version>
5.8.1

> <Gold.Id.Protein>
6NUR|6NUR_protein|mol2

> <Gold.PLP.Fitness>
41.9831

> <Gold.PLP.PLP>
-36.5144

> <Gold.PLP.part.hbond>
-2.0000

> <Gold.PLP.part.metal>
0.0000

> <Gold.PLP.part.buried>
-3.5307

> <Gold.PLP.part.nonpolar>
-30.7089

> <Gold.PLP.part.repulsive>
0.1354

> <Gold.PLP.ligand.clash>
0.0000

> <Gold.PLP.ligand.torsion>
0.2678

> <Gold.PLP.Chemscore.Hbond>
2.0000

> <Gold.PLP.Chemscore.CHOScore>
0.0000

> <Gold.PLP.Chemscore.Metal>
0.0000

> <Gold.Chemscore.Hbonds>
donor molecule, donor type, donor heavy atom, donor atom, acceptor molecule, acceptor atom, score
      P1  H  7997  8008       L1     9  1.00
      P1  H 10752 10763       L1    19  1.00

> <Gold.PLP.Chemscore.Internal.Correction>
0.0043

> <Gold.Rescore>
     Score         DG    S(hbond)    S(metal)    S(lipo)     H(rot)  DE(clash)    DE(int)     intcor
     18.30     -21.26       1.98        0.00     110.89       1.49       0.02       2.95       ----

> <Gold.Chemscore.Fitness>
18.2992

> <Gold.Chemscore.DG>
-21.2610

> <Gold.Chemscore.ZeroCoef>
-5.4800

> <Gold.Chemscore.Hbond>
1.9796

> <Gold.Chemscore.Metal>
0.0000

> <Gold.Chemscore.Lipo>
110.8947

> <Gold.Chemscore.Internal_Hbond>
0.0000

> <Gold.Chemscore.DEClash>
0.0151

> <Gold.Chemscore.DEInternal>
2.9467

> <Gold.Chemscore.Rot>
1.4866

> <Gold.Chemscore.Internal.Correction>
   9.000000E+99

> <Gold.Chemscore.Hbonds>
donor molecule, donor type, donor heavy atom, donor atom, acceptor molecule, acceptor atom, score
      P1  H  7997  8008       L1     9  0.97
      P1  H 10752 10763       L1    19  0.94

> <Gold.Chemscore.Hbond.Weighted>
-6.6120

> <Gold.Chemscore.Metal.Weighted>
-0.0000

> <Gold.Chemscore.Lipo.Weighted>
-12.9747

> <Gold.Chemscore.Internal_Hbond.Weighted>
0.0000

> <Gold.Chemscore.DEClash.Weighted>
0.0151

> <Gold.Chemscore.DEInternal.Weighted>
2.9467

> <Gold.Chemscore.Rot.Weighted>
3.8057

> <Gold.Chemscore.Internal.Correction.Weighted>
   9.000000E+99

> <Gold.Protein.RotatedTorsions>
[ 6907 6896 6895 6894 ] final    5.26 input  -60.11 | X-H torsion
[ 7974 7965 7964 7962 ] final  -30.84 input  175.53 | X-H torsion
[ 8008 7997 7996 7995 ] final  -58.49 input   59.86 | X-H torsion
[ 10167 10162 10161 10158 ] final -159.10 input  -65.29 | X-H torsion
[ 10718 10713 10712 10709 ] final  138.30 input   66.30 | X-H torsion
[ 10763 10752 10751 10750 ] final  159.52 input  -60.55 | X-H torsion
[ 11005 11000 10999 10996 ] final -104.33 input  -57.11 | X-H torsion

> <Gold.Protein.ActiveResidues>
 VAL166  LYS551  ARG553  GLY616  TRP617  ASP618  TYR619  PRO620  LYS621  CYS622 
 ASP623  PHE694  ASN695  SER759  ASP760  ASP761  ALA762  ILE779  LEU786  VAL792 
 PHE793  MET794  SER795  GLU796  ALA797  LYS798  CYS799  TRP800  GLU811  SER814 

> <Gold.Protein.RotatedAtoms>
  151.6545  135.0997  160.0167 H   0  0  0  0  0  0  0  0  0  0  0  0  # atno 6907 bound_to 6896
  152.3982  133.6773  159.6302 H   0  0  0  0  0  0  0  0  0  0  0  0  # atno 6908 bound_to 6896
  150.7885  133.8755  159.3312 H   0  0  0  0  0  0  0  0  0  0  0  0  # atno 6909 bound_to 6896
  146.1112  140.5592  142.8777 H   0  0  0  0  0  0  0  0  0  0  0  0  # atno 7974 bound_to 7965
  154.4311  140.1083  156.5964 H   0  0  0  0  0  0  0  0  0  0  0  0  # atno 8008 bound_to 7997
  155.5957  140.3492  155.4560 H   0  0  0  0  0  0  0  0  0  0  0  0  # atno 8009 bound_to 7997
  156.0212  140.1240  157.0345 H   0  0  0  0  0  0  0  0  0  0  0  0  # atno 8010 bound_to 7997
  139.6641  143.9860  152.2244 H   0  0  0  0  0  0  0  0  0  0  0  0  # atno 10167 bound_to 10162
  157.4267  131.1044  151.0294 H   0  0  0  0  0  0  0  0  0  0  0  0  # atno 10718 bound_to 10713
  154.2330  135.2777  155.2883 H   0  0  0  0  0  0  0  0  0  0  0  0  # atno 10763 bound_to 10752
  154.5608  135.5647  153.7009 H   0  0  0  0  0  0  0  0  0  0  0  0  # atno 10764 bound_to 10752
  153.0016  135.6297  154.2472 H   0  0  0  0  0  0  0  0  0  0  0  0  # atno 10765 bound_to 10752
  141.1105  133.8714  157.1597 H   0  0  0  0  0  0  0  0  0  0  0  0  # atno 11005 bound_to 11000
  144.7513  140.5199  143.6799 LP  0  0  0  0  0  0  0  0  0  0  0  0  # atno 17320 bound_to 7965
  145.5659  139.1481  143.3315 LP  0  0  0  0  0  0  0  0  0  0  0  0  # atno 17321 bound_to 7965
  139.9607  144.6559  150.8082 LP  0  0  0  0  0  0  0  0  0  0  0  0  # atno 17342 bound_to 10162
  140.7592  143.3124  151.2814 LP  0  0  0  0  0  0  0  0  0  0  0  0  # atno 17343 bound_to 10162
  157.1205  130.6060  149.5504 LP  0  0  0  0  0  0  0  0  0  0  0  0  # atno 17370 bound_to 10713
  155.9899  130.4948  150.7234 LP  0  0  0  0  0  0  0  0  0  0  0  0  # atno 17371 bound_to 10713
  139.9997  135.0032  157.0162 LP  0  0  0  0  0  0  0  0  0  0  0  0  # atno 17394 bound_to 11000
  140.4787  134.1312  155.7213 LP  0  0  0  0  0  0  0  0  0  0  0  0  # atno 17395 bound_to 11000

$$$$
