AV-unprocessed.smi:2579|AV-procd|sdf|10126|dock3
  -GOLD-   2272014143D 1   1.00000     0.00000
 Structure written by MMmdl.
 38 40  0  0  0  0  0  0  0  0  1 V2000
  151.8888  137.1388  155.0601 O   0  0  0  0  0  0  0  0  0  0  0  0
  151.8561  138.3832  154.3944 C   0  0  0  0  0  0  0  0  0  0  0  0
  150.9143  139.3490  155.1248 C   0  0  0  0  0  0  0  0  0  0  0  0
  151.3682  139.6147  156.4763 N   0  0  0  0  0  0  0  0  0  0  0  0
  151.5371  140.7909  157.1952 C   0  0  0  0  0  0  0  0  0  0  0  0
  151.2911  142.0044  156.7048 N   0  0  0  0  0  0  0  0  0  0  0  0
  151.6218  142.8224  157.7691 C   0  0  0  0  0  0  0  0  0  0  0  0
  151.5839  144.2302  157.8905 C   0  0  0  0  0  0  0  0  0  0  0  0
  151.9785  144.8542  159.0922 C   0  0  0  0  0  0  0  0  0  0  0  0
  152.4169  144.0820  160.1875 C   0  0  0  0  0  0  0  0  0  0  0  0
  152.4612  142.6780  160.0894 C   0  0  0  0  0  0  0  0  0  0  0  0
  152.0645  142.0591  158.8887 C   0  0  0  0  0  0  0  0  0  0  0  0
  151.9873  140.7338  158.4713 N   0  0  0  0  0  0  0  0  0  0  0  0
  152.3296  139.5579  159.2588 C   0  0  0  0  0  0  0  0  0  0  0  0
  153.6298  139.7550  160.0547 C   0  0  1  0  0  0  0  0  0  0  0  0
  154.0223  138.5519  160.9123 C   0  0  0  0  0  0  0  0  0  0  0  0
  155.5420  138.6236  160.9753 C   0  0  0  0  0  0  0  0  0  0  0  0
  155.9097  139.7371  159.9922 C   0  0  0  0  0  0  0  0  0  0  0  0
  154.7485  139.9081  159.1954 O   0  0  0  0  0  0  0  0  0  0  0  0
  152.1335  137.2871  155.9607 H   0  0  0  0  0  0  0  0  0  0  0  0
  152.8621  138.7945  154.3009 H   0  0  0  0  0  0  0  0  0  0  0  0
  151.4868  138.2061  153.3840 H   0  0  0  0  0  0  0  0  0  0  0  0
  150.8922  140.2991  154.5905 H   0  0  0  0  0  0  0  0  0  0  0  0
  149.8917  138.9707  155.1398 H   0  0  0  0  0  0  0  0  0  0  0  0
  151.6283  138.7787  156.9796 H   0  0  0  0  0  0  0  0  0  0  0  0
  151.2509  144.8312  157.0572 H   0  0  0  0  0  0  0  0  0  0  0  0
  151.9455  145.9307  159.1736 H   0  0  0  0  0  0  0  0  0  0  0  0
  152.7187  144.5685  161.1035 H   0  0  0  0  0  0  0  0  0  0  0  0
  152.7966  142.0843  160.9268 H   0  0  0  0  0  0  0  0  0  0  0  0
  151.5050  139.3454  159.9399 H   0  0  0  0  0  0  0  0  0  0  0  0
  152.4078  138.6948  158.5970 H   0  0  0  0  0  0  0  0  0  0  0  0
  153.5521  140.6441  160.6836 H   0  0  0  0  0  0  0  0  0  0  0  0
  153.5565  138.5792  161.8979 H   0  0  0  0  0  0  0  0  0  0  0  0
  153.7228  137.6219  160.4272 H   0  0  0  0  0  0  0  0  0  0  0  0
  155.9015  138.8508  161.9795 H   0  0  0  0  0  0  0  0  0  0  0  0
  155.9783  137.6715  160.6705 H   0  0  0  0  0  0  0  0  0  0  0  0
  156.1182  140.6663  160.5244 H   0  0  0  0  0  0  0  0  0  0  0  0
  156.7789  139.4909  159.3817 H   0  0  0  0  0  0  0  0  0  0  0  0
  1  2  1  0  0  0  0
  1 20  1  0  0  0  0
  2  3  1  0  0  0  0
  2 21  1  0  0  0  0
  2 22  1  0  0  0  0
  3  4  1  0  0  0  0
  3 23  1  0  0  0  0
  3 24  1  0  0  0  0
  4  5  1  0  0  0  0
  4 25  1  0  0  0  0
  5 13  1  0  0  0  0
  5  6  2  0  0  0  0
  6  7  1  0  0  0  0
  7 12  2  0  0  0  0
  7  8  1  0  0  0  0
  8  9  2  0  0  0  0
  8 26  1  0  0  0  0
  9 10  1  0  0  0  0
  9 27  1  0  0  0  0
 10 11  2  0  0  0  0
 10 28  1  0  0  0  0
 11 12  1  0  0  0  0
 11 29  1  0  0  0  0
 12 13  1  0  0  0  0
 13 14  1  0  0  0  0
 14 15  1  0  0  0  0
 14 30  1  0  0  0  0
 14 31  1  0  0  0  0
 15 19  1  0  0  0  0
 15 16  1  0  0  0  0
 15 32  1  0  0  0  0
 16 17  1  0  0  0  0
 16 33  1  0  0  0  0
 16 34  1  0  0  0  0
 17 18  1  0  0  0  0
 17 35  1  0  0  0  0
 17 36  1  0  0  0  0
 18 19  1  0  0  0  0
 18 37  1  0  0  0  0
 18 38  1  0  0  0  0
M  END
> <s_m_source_file>
AV-unprocessed.smi

> <i_m_source_file_index>
2579

> <i_lp_mmshare_version>
43012

> <i_f3d_flags>
0

> <s_epik_input>
W09IXVtDSDJdW0NIMl1bTkhdYyhuMSluKGMoYzEyKVtjSF1bY0hdW2NIXVtjSF0yKVtDSDJdW0NAQEhdM1tDSDJdW0NIMl1bQ0gyXU8z

> <s_epik_cmdline>
J2VwaWtfcHl0aG9uJywgJy1waCcsICc3LjAnLCAnLXRuJywgJzgnLCAnLW1hJywgJzIwMCcsICctbWV0YWxfYmluZGluZycsICctaW1hZScsICc8aW5maWxlLm1hZT4nLCAnLW9tYWUnLCAnPG91dGZpbGUubWFlPic=

> <r_epik_Ionization_Penalty>
1.27244

> <r_epik_Ionization_Penalty_Charging>
0

> <r_epik_Ionization_Penalty_Neutral>
1.27244

> <r_epik_State_Penalty>
1.34401

> <r_epik_Charging_Adjusted_Penalty>
1.34401

> <i_epik_Tot_Q>
0

> <i_epik_Tot_abs_Q>
0

> <r_epik_Metal_State_Penalty>
0.00511131

> <b_epik_Metal_Only>
0

> <s_lp_Force_Field>
OPLS_2005

> <r_lp_Energy>
20.6152

> <b_lp_Chiralities_Consistent>
1

> <s_lp_Variant>
AV-unprocessed.smi:2579-4

> <Gold.Version>
5.8.1

> <Gold.Id.Protein>
6NUR|6NUR_protein|mol2

> <Gold.PLP.Fitness>
45.5209

> <Gold.PLP.PLP>
-40.1629

> <Gold.PLP.part.hbond>
-2.0000

> <Gold.PLP.part.metal>
0.0000

> <Gold.PLP.part.buried>
-4.6023

> <Gold.PLP.part.nonpolar>
-33.2309

> <Gold.PLP.part.repulsive>
0.1598

> <Gold.PLP.ligand.clash>
0.0000

> <Gold.PLP.ligand.torsion>
0.2965

> <Gold.PLP.Chemscore.Hbond>
1.9760

> <Gold.PLP.Chemscore.CHOScore>
0.0000

> <Gold.PLP.Chemscore.Metal>
0.0000

> <Gold.Chemscore.Hbonds>
donor molecule, donor type, donor heavy atom, donor atom, acceptor molecule, acceptor atom, score
      P1  H  7997  8008       L1    19  1.00
      P1  H 10752 10764       L1     1  0.98

> <Gold.PLP.Chemscore.Internal.Correction>
0.0230

> <Gold.Rescore>
     Score         DG    S(hbond)    S(metal)    S(lipo)     H(rot)  DE(clash)    DE(int)     intcor
     18.35     -18.71       1.62        0.00     114.25       2.17       0.02       0.34       ----

> <Gold.Chemscore.Fitness>
18.3484

> <Gold.Chemscore.DG>
-18.7078

> <Gold.Chemscore.ZeroCoef>
-5.4800

> <Gold.Chemscore.Hbond>
1.6207

> <Gold.Chemscore.Metal>
0.0000

> <Gold.Chemscore.Lipo>
114.2455

> <Gold.Chemscore.Internal_Hbond>
0.0000

> <Gold.Chemscore.DEClash>
0.0195

> <Gold.Chemscore.DEInternal>
0.3399

> <Gold.Chemscore.Rot>
2.1688

> <Gold.Chemscore.Internal.Correction>
   9.000000E+99

> <Gold.Chemscore.Hbonds>
donor molecule, donor type, donor heavy atom, donor atom, acceptor molecule, acceptor atom, score
      P1  H  7997  8008       L1    19  0.72
      P1  H 10752 10764       L1     1  0.46

> <Gold.Chemscore.Hbond.Weighted>
-5.4133

> <Gold.Chemscore.Metal.Weighted>
-0.0000

> <Gold.Chemscore.Lipo.Weighted>
-13.3667

> <Gold.Chemscore.Internal_Hbond.Weighted>
0.0000

> <Gold.Chemscore.DEClash.Weighted>
0.0195

> <Gold.Chemscore.DEInternal.Weighted>
0.3399

> <Gold.Chemscore.Rot.Weighted>
5.5522

> <Gold.Chemscore.Internal.Correction.Weighted>
   9.000000E+99

> <Gold.Protein.RotatedTorsions>
[ 6907 6896 6895 6894 ] final   96.32 input  -60.11 | X-H torsion
[ 7974 7965 7964 7962 ] final   10.60 input  175.53 | X-H torsion
[ 8008 7997 7996 7995 ] final -127.24 input   59.86 | X-H torsion
[ 10167 10162 10161 10158 ] final -132.67 input  -65.29 | X-H torsion
[ 10718 10713 10712 10709 ] final  -18.05 input   66.30 | X-H torsion
[ 10763 10752 10751 10750 ] final  -66.36 input  -60.55 | X-H torsion
[ 11005 11000 10999 10996 ] final  -22.57 input  -57.11 | X-H torsion

> <Gold.Protein.ActiveResidues>
 VAL166  LYS551  ARG553  GLY616  TRP617  ASP618  TYR619  PRO620  LYS621  CYS622 
 ASP623  PHE694  ASN695  SER759  ASP760  ASP761  ALA762  ILE779  LEU786  VAL792 
 PHE793  MET794  SER795  GLU796  ALA797  LYS798  CYS799  TRP800  GLU811  SER814 

> <Gold.Protein.RotatedAtoms>
  152.5436  134.0904  159.8274 H   0  0  0  0  0  0  0  0  0  0  0  0  # atno 6907 bound_to 6896
  151.0995  133.5247  159.2618 H   0  0  0  0  0  0  0  0  0  0  0  0  # atno 6908 bound_to 6896
  151.2008  135.0450  159.8925 H   0  0  0  0  0  0  0  0  0  0  0  0  # atno 6909 bound_to 6896
  146.2385  139.9610  142.8458 H   0  0  0  0  0  0  0  0  0  0  0  0  # atno 7974 bound_to 7965
  155.2429  140.0429  157.2977 H   0  0  0  0  0  0  0  0  0  0  0  0  # atno 8008 bound_to 7997
  154.5817  140.2402  155.8014 H   0  0  0  0  0  0  0  0  0  0  0  0  # atno 8009 bound_to 7997
  156.2198  140.2973  155.9933 H   0  0  0  0  0  0  0  0  0  0  0  0  # atno 8010 bound_to 7997
  139.9061  143.6549  152.2585 H   0  0  0  0  0  0  0  0  0  0  0  0  # atno 10167 bound_to 10162
  156.5649  130.4735  149.6389 H   0  0  0  0  0  0  0  0  0  0  0  0  # atno 10718 bound_to 10713
  154.3586  135.6121  153.5679 H   0  0  0  0  0  0  0  0  0  0  0  0  # atno 10763 bound_to 10752
  152.9794  135.5809  154.4659 H   0  0  0  0  0  0  0  0  0  0  0  0  # atno 10764 bound_to 10752
  154.4393  135.2850  155.1836 H   0  0  0  0  0  0  0  0  0  0  0  0  # atno 10765 bound_to 10752
  140.8669  133.7748  156.0140 H   0  0  0  0  0  0  0  0  0  0  0  0  # atno 11005 bound_to 11000
  145.1771  140.9749  143.4288 LP  0  0  0  0  0  0  0  0  0  0  0  0  # atno 17320 bound_to 7965
  144.9976  139.3629  143.6184 LP  0  0  0  0  0  0  0  0  0  0  0  0  # atno 17321 bound_to 7965
  139.6982  144.7638  151.1318 LP  0  0  0  0  0  0  0  0  0  0  0  0  # atno 17342 bound_to 10162
  140.7696  143.5494  150.9222 LP  0  0  0  0  0  0  0  0  0  0  0  0  # atno 17343 bound_to 10162
  156.2765  130.7047  151.1859 LP  0  0  0  0  0  0  0  0  0  0  0  0  # atno 17370 bound_to 10713
  157.7360  131.0566  150.5435 LP  0  0  0  0  0  0  0  0  0  0  0  0  # atno 17371 bound_to 10713
  140.8618  134.2831  157.5231 LP  0  0  0  0  0  0  0  0  0  0  0  0  # atno 17394 bound_to 11000
  139.8710  134.9522  156.4108 LP  0  0  0  0  0  0  0  0  0  0  0  0  # atno 17395 bound_to 11000

$$$$
