#       Name:                AV-unprocessed.smi:1703
#       Creating user name   scv26
#       Creation time:       Fri Mar 27 08:03:22 2020


#       File generated by GOLD software.
#

@<TRIPOS>MOLECULE
AV-unprocessed.smi:1703
    56    58     1
SMALL
NO_CHARGES


@<TRIPOS>ATOM
      1 ****        -1.8900   3.8487   1.2286 C.3            1 S1                 0.0000
      2 ****        -2.7983   2.6286   1.4579 C.3            1 S1                 0.0000
      3 ****        -2.0938   1.2842   1.1851 C.3            1 S1                 0.0000
      4 ****        -1.9064   1.0228  -0.2413 N.3            1 S1                 0.0000
      5 ****        -1.2680  -0.2685  -0.5023 C.3            1 S1                 0.0000
      6 ****         0.2099  -0.3813  -0.0763 C.3            1 S1                 0.0000
      7 ****         0.9852   0.4720  -0.8959 O.3            1 S1                 0.0000
      8 ****         0.7260  -1.8269  -0.2167 C.3            1 S1                 0.0000
      9 ****         2.1310  -1.9666   0.1474 N.pl3          1 S1                 0.0000
     10 ****         2.6818  -1.9981   1.3888 C.2            1 S1                 0.0000
     11 ****         1.8538  -1.8659   2.6364 C.3            1 S1                 0.0000
     12 ****         2.4222  -2.5043   3.7618 O.3            1 S1                 0.0000
     13 ****         4.0098  -2.1295   1.4261 N.2            1 S1                 0.0000
     14 ****         4.3505  -2.1962   0.0902 C.ar           1 S1                 0.0000
     15 ****         5.6130  -2.3403  -0.5287 C.ar           1 S1                 0.0000
     16 ****         5.7183  -2.3808  -1.9343 C.ar           1 S1                 0.0000
     17 ****         4.5654  -2.2766  -2.7392 C.ar           1 S1                 0.0000
     18 ****         3.2979  -2.1332  -2.1425 C.ar           1 S1                 0.0000
     19 ****         3.1976  -2.0957  -0.7383 C.ar           1 S1                 0.0000
     20 ****        -3.1986   1.1072  -0.9097 C.3            1 S1                 0.0000
     21 ****        -3.8712   2.4747  -0.6949 C.3            1 S1                 0.0000
     22 ****        -5.2651   2.5369  -1.3285 C.3            1 S1                 0.0000
     23 ****        -4.0081   2.7182   0.7038 O.3            1 S1                 0.0000
     24 ****        -1.0288   3.8204   1.8965 H              1 S1                 0.0000
     25 ****        -2.4284   4.7763   1.4231 H              1 S1                 0.0000
     26 ****        -1.5083   3.8906   0.2087 H              1 S1                 0.0000
     27 ****        -3.0915   2.6452   2.5080 H              1 S1                 0.0000
     28 ****        -1.1388   1.2809   1.7079 H              1 S1                 0.0000
     29 ****        -2.6877   0.4811   1.6240 H              1 S1                 0.0000
     30 ****        -1.8433  -1.0531  -0.0083 H              1 S1                 0.0000
     31 ****        -1.3270  -0.4898  -1.5692 H              1 S1                 0.0000
     32 ****         0.3383  -0.0684   0.9580 H              1 S1                 0.0000
     33 ****         0.8664   0.2135  -1.7969 H              1 S1                 0.0000
     34 ****         0.1340  -2.5082   0.3942 H              1 S1                 0.0000
     35 ****         0.5971  -2.1693  -1.2440 H              1 S1                 0.0000
     36 ****         1.7250  -0.8071   2.8615 H              1 S1                 0.0000
     37 ****         0.8621  -2.2892   2.4840 H              1 S1                 0.0000
     38 ****         1.8581  -2.3603   4.5059 H              1 S1                 0.0000
     39 ****         6.5018  -2.4190   0.0796 H              1 S1                 0.0000
     40 ****         6.6880  -2.4912  -2.3972 H              1 S1                 0.0000
     41 ****         4.6550  -2.3065  -3.8152 H              1 S1                 0.0000
     42 ****         2.4153  -2.0513  -2.7587 H              1 S1                 0.0000
     43 ****        -3.0714   0.9374  -1.9796 H              1 S1                 0.0000
     44 ****        -3.8550   0.3153  -0.5449 H              1 S1                 0.0000
     45 ****        -3.2565   3.2574  -1.1409 H              1 S1                 0.0000
     46 ****        -5.2151   2.3698  -2.4048 H              1 S1                 0.0000
     47 ****        -5.7234   3.5125  -1.1651 H              1 S1                 0.0000
     48 ****        -5.9268   1.7822  -0.9022 H              1 S1                 0.0000
     49 ****        -1.2845   1.7163  -0.6051 LP             1 S1                 0.0000
     50 ****         1.9504   0.3927  -0.6471 LP             1 S1                 0.0000
     51 ****         0.6864   1.4186  -0.7747 LP             1 S1                 0.0000
     52 ****         3.3272  -2.1207   3.9456 LP             1 S1                 0.0000
     53 ****         2.5053  -3.4853   3.5866 LP             1 S1                 0.0000
     54 ****         4.6098  -2.1697   2.2250 LP             1 S1                 0.0000
     55 ****        -4.3793   3.6392   0.8226 LP             1 S1                 0.0000
     56 ****        -4.6530   2.0488   1.0727 LP             1 S1                 0.0000
@<TRIPOS>BOND
    1    1    2 1     
    2    1   24 1     
    3    1   25 1     
    4    1   26 1     
    5    2   23 1     
    6    2    3 1     
    7    2   27 1     
    8    3    4 1     
    9    3   28 1     
   10    3   29 1     
   11    4    5 1     
   12    4   20 1     
   13    5    6 1     
   14    5   30 1     
   15    5   31 1     
   16    6    7 1     
   17    6    8 1     
   18    6   32 1     
   19    7   33 1     
   20    8    9 1     
   21    8   34 1     
   22    8   35 1     
   23    9   19 1     
   24    9   10 1     
   25   10   11 1     
   26   10   13 2     
   27   11   12 1     
   28   11   36 1     
   29   11   37 1     
   30   12   38 1     
   31   13   14 1     
   32   14   19 ar    
   33   14   15 ar    
   34   15   16 ar    
   35   15   39 1     
   36   16   17 ar    
   37   16   40 1     
   38   17   18 ar    
   39   17   41 1     
   40   18   19 ar    
   41   18   42 1     
   42   20   21 1     
   43   20   43 1     
   44   20   44 1     
   45   21   22 1     
   46   21   23 1     
   47   21   45 1     
   48   22   46 1     
   49   22   47 1     
   50   22   48 1     
   51    4   49 1     
   52    7   50 1     
   53    7   51 1     
   54   12   52 1     
   55   12   53 1     
   56   13   54 1     
   57   23   55 1     
   58   23   56 1     
@<TRIPOS>SUBSTRUCTURE
      1 S1             1
@<TRIPOS>SET
LONE_PAIRS      STATIC     ATOMS    <user>   **** ""
8 49 50 51 52 53 54 55 56
DONOR_HYDROGENS      STATIC     ATOMS    <user>   **** ""
2 33 38
ATOM$BLUE        STATIC     ATOMS    COLORGROUP SYSTEM
8 49 50 51 52 53 54 55 56
ATOM$RED        STATIC     ATOMS    COLORGROUP SYSTEM
2 33 38
