#       Name:                AV-unprocessed.smi:1438
#       Creating user name   scv26
#       Creation time:       Fri Mar 27 05:54:18 2020


#       File generated by GOLD software.
#

@<TRIPOS>MOLECULE
AV-unprocessed.smi:1438
    49    50     1
SMALL
NO_CHARGES


@<TRIPOS>ATOM
      1 ****        -3.9358  -1.1356   3.9196 C.3            1 S1                 0.0000
      2 ****        -3.1456  -0.6261   2.7035 C.3            1 S1                 0.0000
      3 ****        -1.6313  -0.7222   2.9281 C.2            1 S1                 0.0000
      4 ****        -1.1329  -1.7466   3.3951 O.2            1 S1                 0.0000
      5 ****        -0.9069   0.3513   2.5755 N.am           1 S1                 0.0000
      6 ****         0.5483   0.4199   2.6043 C.3            1 S1                 0.0000
      7 ****         1.1661  -0.1707   1.3509 C.ar           1 S1                 0.0000
      8 ****         1.6461  -1.4942   1.3395 C.ar           1 S1                 0.0000
      9 ****         2.1788  -1.9995   0.1397 C.ar           1 S1                 0.0000
     10 ****         2.2562  -1.2768  -0.9974 N.ar           1 S1                 0.0000
     11 ****         1.8024   0.0016  -0.9967 C.ar           1 S1                 0.0000
     12 ****         1.8989   0.7478  -2.1918 N.3            1 S1                 0.0000
     13 ****         2.5575   2.0465  -2.0694 C.3            1 S1                 0.0000
     14 ****         2.3476   2.8793  -3.3460 C.3            1 S1                 0.0000
     15 ****         2.7865   2.1418  -4.4818 O.3            1 S1                 0.0000
     16 ****         2.0498   0.9347  -4.6452 C.3            1 S1                 0.0000
     17 ****         2.2556   0.0329  -3.4164 C.3            1 S1                 0.0000
     18 ****         1.2398   0.5863   0.1635 C.ar           1 S1                 0.0000
     19 ****        -3.6191  -1.5906   1.1915 S.o2           1 S1                 0.0000
     20 ****        -2.6637  -0.7637  -0.1507 C.3            1 S1                 0.0000
     21 ****        -3.1182  -2.9674   1.3250 O.2            1 S1                 0.0000
     22 ****        -5.0512  -1.3670   0.9409 O.2            1 S1                 0.0000
     23 ****        -3.6611  -0.5948   4.8260 H              1 S1                 0.0000
     24 ****        -3.7608  -2.1976   4.0962 H              1 S1                 0.0000
     25 ****        -5.0071  -1.0003   3.7697 H              1 S1                 0.0000
     26 ****        -3.4197   0.4133   2.5195 H              1 S1                 0.0000
     27 ****        -1.3929   1.1568   2.2094 H              1 S1                 0.0000
     28 ****         0.8426   1.4663   2.6873 H              1 S1                 0.0000
     29 ****         0.9431  -0.0798   3.4907 H              1 S1                 0.0000
     30 ****         1.5977  -2.1129   2.2237 H              1 S1                 0.0000
     31 ****         2.5518  -3.0118   0.0909 H              1 S1                 0.0000
     32 ****         2.1842   2.6102  -1.2158 H              1 S1                 0.0000
     33 ****         3.6233   1.8856  -1.9013 H              1 S1                 0.0000
     34 ****         1.2984   3.1562  -3.4609 H              1 S1                 0.0000
     35 ****         2.9161   3.8074  -3.2850 H              1 S1                 0.0000
     36 ****         0.9918   1.1579  -4.7918 H              1 S1                 0.0000
     37 ****         2.3958   0.4267  -5.5455 H              1 S1                 0.0000
     38 ****         3.2977  -0.2853  -3.3585 H              1 S1                 0.0000
     39 ****         1.6446  -0.8648  -3.5212 H              1 S1                 0.0000
     40 ****         0.8547   1.5952   0.1500 H              1 S1                 0.0000
     41 ****        -2.9465  -1.1953  -1.1105 H              1 S1                 0.0000
     42 ****        -1.5957  -0.9161   0.0036 H              1 S1                 0.0000
     43 ****        -2.8849   0.3032  -0.1562 H              1 S1                 0.0000
     44 ****        -1.7163  -2.5239   3.6309 LP             1 S1                 0.0000
     45 ****        -0.1448  -1.8014   3.5385 LP             1 S1                 0.0000
     46 ****         2.6423  -1.6778  -1.8282 LP             1 S1                 0.0000
     47 ****         0.9294   0.9468  -2.3350 LP             1 S1                 0.0000
     48 ****         3.7543   1.9174  -4.3679 LP             1 S1                 0.0000
     49 ****         2.6690   2.7058  -5.2992 LP             1 S1                 0.0000
@<TRIPOS>BOND
    1    1    2 1     
    2    1   23 1     
    3    1   24 1     
    4    1   25 1     
    5    2    3 1     
    6    2   19 1     
    7    2   26 1     
    8    3    4 2     
    9    3    5 am    
   10    5    6 1     
   11    5   27 1     
   12    6    7 1     
   13    6   28 1     
   14    6   29 1     
   15    7   18 ar    
   16    7    8 ar    
   17    8    9 ar    
   18    8   30 1     
   19    9   10 ar    
   20    9   31 1     
   21   10   11 ar    
   22   11   12 1     
   23   11   18 ar    
   24   12   17 1     
   25   12   13 1     
   26   13   14 1     
   27   13   32 1     
   28   13   33 1     
   29   14   15 1     
   30   14   34 1     
   31   14   35 1     
   32   15   16 1     
   33   16   17 1     
   34   16   36 1     
   35   16   37 1     
   36   17   38 1     
   37   17   39 1     
   38   18   40 1     
   39   19   20 1     
   40   19   21 2     
   41   19   22 2     
   42   20   41 1     
   43   20   42 1     
   44   20   43 1     
   45    4   44 1     
   46    4   45 1     
   47   10   46 1     
   48   12   47 1     
   49   15   48 1     
   50   15   49 1     
@<TRIPOS>SUBSTRUCTURE
      1 S1             1
@<TRIPOS>SET
LONE_PAIRS      STATIC     ATOMS    <user>   **** ""
8 44 45 46 47 48 49 21 22
DONOR_HYDROGENS      STATIC     ATOMS    <user>   **** ""
1 27
ATOM$BLUE        STATIC     ATOMS    COLORGROUP SYSTEM
8 44 45 46 47 48 49 21 22
ATOM$RED        STATIC     ATOMS    COLORGROUP SYSTEM
1 27
