#       Name:                AV-unprocessed.smi:1507
#       Creating user name   scv26
#       Creation time:       Fri Mar 27 06:20:43 2020


#       File generated by GOLD software.
#

@<TRIPOS>MOLECULE
AV-unprocessed.smi:1507
    38    39     1
SMALL
NO_CHARGES


@<TRIPOS>ATOM
      1 ****        -2.0133   5.0448  -2.2426 N.pl3          1 S1                -1.0000
      2 ****        -2.9151   4.9008  -0.9114 S.o2           1 S1                 0.0000
      3 ****        -2.5653   5.8726   0.1361 O.2            1 S1                 0.0000
      4 ****        -4.3359   4.6562  -1.2036 O.2            1 S1                 0.0000
      5 ****        -2.2755   3.3846  -0.3930 N.pl3          1 S1                 0.0000
      6 ****        -0.9164   3.2721   0.1367 C.3            1 S1                 0.0000
      7 ****        -0.4151   1.8421   0.1356 C.ar           1 S1                 0.0000
      8 ****         0.3630   1.3474  -0.9284 C.ar           1 S1                 0.0000
      9 ****         0.8018   0.0100  -0.8860 C.ar           1 S1                 0.0000
     10 ****         0.4483  -0.7991   0.2209 C.ar           1 S1                 0.0000
     11 ****         0.8791  -2.1424   0.2853 N.3            1 S1                 0.0000
     12 ****         2.3132  -2.3567   0.1071 C.3            1 S1                 0.0000
     13 ****         2.6089  -3.8509  -0.1103 C.3            1 S1                 0.0000
     14 ****         2.0643  -4.6123   0.9624 O.3            1 S1                 0.0000
     15 ****         0.6497  -4.4757   1.0428 C.3            1 S1                 0.0000
     16 ****         0.2862  -3.0049   1.3061 C.3            1 S1                 0.0000
     17 ****        -0.3110  -0.3184   1.2372 N.ar           1 S1                 0.0000
     18 ****        -0.7273   0.9650   1.1927 C.ar           1 S1                 0.0000
     19 ****        -2.5872   4.7730  -3.0498 H              1 S1                 0.0000
     20 ****        -2.6267   2.5729  -0.8998 H              1 S1                 0.0000
     21 ****        -0.2404   3.8878  -0.4573 H              1 S1                 0.0000
     22 ****        -0.8952   3.6727   1.1505 H              1 S1                 0.0000
     23 ****         0.6179   1.9794  -1.7666 H              1 S1                 0.0000
     24 ****         1.3865  -0.3805  -1.7054 H              1 S1                 0.0000
     25 ****         2.7048  -1.7926  -0.7380 H              1 S1                 0.0000
     26 ****         2.8348  -1.9991   0.9957 H              1 S1                 0.0000
     27 ****         2.1966  -4.1944  -1.0605 H              1 S1                 0.0000
     28 ****         3.6854  -4.0175  -0.1522 H              1 S1                 0.0000
     29 ****         0.1857  -4.8324   0.1217 H              1 S1                 0.0000
     30 ****         0.2772  -5.1050   1.8512 H              1 S1                 0.0000
     31 ****         0.6474  -2.7018   2.2901 H              1 S1                 0.0000
     32 ****        -0.7992  -2.8967   1.3079 H              1 S1                 0.0000
     33 ****        -1.3286   1.2998   2.0251 H              1 S1                 0.0000
     34 ****        -1.0604   5.3465  -2.2756 LP             1 S1                 0.0000
     35 ****         0.4512  -2.4813  -0.5526 LP             1 S1                 0.0000
     36 ****         2.4692  -4.2977   1.8209 LP             1 S1                 0.0000
     37 ****         2.2889  -5.5766   0.8216 LP             1 S1                 0.0000
     38 ****        -0.5585  -0.9059   2.0076 LP             1 S1                 0.0000
@<TRIPOS>BOND
    1    1    2 1     
    2    1   19 1     
    3    2    3 2     
    4    2    4 2     
    5    2    5 1     
    6    5    6 1     
    7    5   20 1     
    8    6    7 1     
    9    6   21 1     
   10    6   22 1     
   11    7   18 ar    
   12    7    8 ar    
   13    8    9 ar    
   14    8   23 1     
   15    9   10 ar    
   16    9   24 1     
   17   10   11 1     
   18   10   17 ar    
   19   11   16 1     
   20   11   12 1     
   21   12   13 1     
   22   12   25 1     
   23   12   26 1     
   24   13   14 1     
   25   13   27 1     
   26   13   28 1     
   27   14   15 1     
   28   15   16 1     
   29   15   29 1     
   30   15   30 1     
   31   16   31 1     
   32   16   32 1     
   33   17   18 ar    
   34   18   33 1     
   35    1   34 1     
   36   11   35 1     
   37   14   36 1     
   38   14   37 1     
   39   17   38 1     
@<TRIPOS>SUBSTRUCTURE
      1 S1             1
@<TRIPOS>SET
LONE_PAIRS      STATIC     ATOMS    <user>   **** ""
7 34 3 4 35 36 37 38
DONOR_HYDROGENS      STATIC     ATOMS    <user>   **** ""
2 19 20
ATOM$BLUE        STATIC     ATOMS    COLORGROUP SYSTEM
7 34 3 4 35 36 37 38
ATOM$RED        STATIC     ATOMS    COLORGROUP SYSTEM
2 19 20
