#       Name:                AV-unprocessed.smi:2224
#       Creating user name   scv26
#       Creation time:       Fri Mar 27 12:20:38 2020


#       File generated by GOLD software.
#

@<TRIPOS>MOLECULE
AV-unprocessed.smi:2224
    49    51     1
SMALL
NO_CHARGES


@<TRIPOS>ATOM
      1 ****        -5.1403   3.6791   0.2624 C.3            1 S1                 0.0000
      2 ****        -4.4776   2.3216   0.1585 C.ar           1 S1                 0.0000
      3 ****        -5.2427   1.1395   0.1664 C.ar           1 S1                 0.0000
      4 ****        -4.5654  -0.0913   0.0617 C.ar           1 S1                 0.0000
      5 ****        -5.3251  -1.4010   0.0665 C.3            1 S1                 0.0000
      6 ****        -3.2228  -0.1870  -0.0455 N.ar           1 S1                 0.0000
      7 ****        -2.4761   0.9448  -0.0540 C.ar           1 S1                 0.0000
      8 ****        -1.0599   0.9532  -0.1558 N.am           1 S1                 0.0000
      9 ****        -0.2347  -0.0903  -0.3505 C.2            1 S1                 0.0000
     10 ****        -0.5875  -1.2575  -0.5223 O.2            1 S1                 0.0000
     11 ****         1.0477   0.2985  -0.3406 N.am           1 S1                 0.0000
     12 ****         2.1856  -0.5921  -0.5486 C.3            1 S1                 0.0000
     13 ****         3.5266   0.1581  -0.5169 C.3            1 S1                 0.0000
     14 ****         4.3728   0.2367  -1.7588 C.3            1 S1                 0.0000
     15 ****         5.3602  -0.9188  -1.5726 C.3            1 S1                 0.0000
     16 ****         4.7136  -1.7994  -0.6568 O.3            1 S1                 0.0000
     17 ****         4.0561  -0.9959   0.3201 C.3            1 S1                 0.0000
     18 ****         2.6172  -1.4050   0.6998 C.3            1 S1                 0.0000
     19 ****         2.1600  -0.8944   2.0739 C.3            1 S1                 0.0000
     20 ****         2.3183  -2.9050   0.6656 C.3            1 S1                 0.0000
     21 ****        -3.0761   2.2198   0.0499 C.ar           1 S1                 0.0000
     22 ****        -6.2269   3.5899   0.2835 H              1 S1                 0.0000
     23 ****        -4.8664   4.2992  -0.5915 H              1 S1                 0.0000
     24 ****        -4.8206   4.1866   1.1728 H              1 S1                 0.0000
     25 ****        -6.3191   1.1747   0.2507 H              1 S1                 0.0000
     26 ****        -6.4025  -1.2333   0.0620 H              1 S1                 0.0000
     27 ****        -5.0738  -1.9807   0.9550 H              1 S1                 0.0000
     28 ****        -5.0700  -1.9923  -0.8134 H              1 S1                 0.0000
     29 ****        -0.6242   1.8588  -0.0661 H              1 S1                 0.0000
     30 ****         1.2524   1.2755  -0.1916 H              1 S1                 0.0000
     31 ****         2.0935  -1.2199  -1.4379 H              1 S1                 0.0000
     32 ****         3.4795   1.0821   0.0623 H              1 S1                 0.0000
     33 ****         3.7667   0.0891  -2.6531 H              1 S1                 0.0000
     34 ****         4.8878   1.1926  -1.8565 H              1 S1                 0.0000
     35 ****         5.6035  -1.4213  -2.5089 H              1 S1                 0.0000
     36 ****         6.2887  -0.5609  -1.1251 H              1 S1                 0.0000
     37 ****         4.7041  -0.6894   1.1427 H              1 S1                 0.0000
     38 ****         2.7070  -1.3826   2.8810 H              1 S1                 0.0000
     39 ****         1.0986  -1.0807   2.2412 H              1 S1                 0.0000
     40 ****         2.3219   0.1783   2.1826 H              1 S1                 0.0000
     41 ****         2.8712  -3.4410   1.4376 H              1 S1                 0.0000
     42 ****         2.5912  -3.3480  -0.2925 H              1 S1                 0.0000
     43 ****         1.2575  -3.1057   0.8185 H              1 S1                 0.0000
     44 ****        -2.4699   3.1143   0.0431 H              1 S1                 0.0000
     45 ****        -2.7840  -1.0826  -0.1178 LP             1 S1                 0.0000
     46 ****        -1.5599  -1.4908  -0.5241 LP             1 S1                 0.0000
     47 ****         0.0984  -1.9720  -0.6600 LP             1 S1                 0.0000
     48 ****         5.3898  -2.3888  -0.2148 LP             1 S1                 0.0000
     49 ****         4.0448  -2.3639  -1.1406 LP             1 S1                 0.0000
@<TRIPOS>BOND
    1    1    2 1     
    2    1   22 1     
    3    1   23 1     
    4    1   24 1     
    5    2   21 ar    
    6    2    3 ar    
    7    3    4 ar    
    8    3   25 1     
    9    4    5 1     
   10    4    6 ar    
   11    5   26 1     
   12    5   27 1     
   13    5   28 1     
   14    6    7 ar    
   15    7    8 1     
   16    7   21 ar    
   17    8    9 am    
   18    8   29 1     
   19    9   10 2     
   20    9   11 am    
   21   11   12 1     
   22   11   30 1     
   23   12   18 1     
   24   12   13 1     
   25   12   31 1     
   26   13   17 1     
   27   13   14 1     
   28   13   32 1     
   29   14   15 1     
   30   14   33 1     
   31   14   34 1     
   32   15   16 1     
   33   15   35 1     
   34   15   36 1     
   35   16   17 1     
   36   17   18 1     
   37   17   37 1     
   38   18   19 1     
   39   18   20 1     
   40   19   38 1     
   41   19   39 1     
   42   19   40 1     
   43   20   41 1     
   44   20   42 1     
   45   20   43 1     
   46   21   44 1     
   47    6   45 1     
   48   10   46 1     
   49   10   47 1     
   50   16   48 1     
   51   16   49 1     
@<TRIPOS>SUBSTRUCTURE
      1 S1             1
@<TRIPOS>SET
LONE_PAIRS      STATIC     ATOMS    <user>   **** ""
5 45 46 47 48 49
DONOR_HYDROGENS      STATIC     ATOMS    <user>   **** ""
2 29 30
ATOM$BLUE        STATIC     ATOMS    COLORGROUP SYSTEM
5 45 46 47 48 49
ATOM$RED        STATIC     ATOMS    COLORGROUP SYSTEM
2 29 30
