AV-unprocessed.smi:164|AV-procd|sdf|1384|dock5
  -GOLD-   2262019113D 1   1.00000     0.00000
 Structure written by MMmdl.
 53 55  0  0  0  0  0  0  0  0  1 V2000
  154.2080  139.2010  160.5573 C   0  0  0  0  0  0  0  0  0  0  0  0
  153.5007  140.4948  160.1920 C   0  0  0  0  0  0  0  0  0  0  0  0
  153.9465  141.7020  160.7678 C   0  0  0  0  0  0  0  0  0  0  0  0
  153.3116  142.9168  160.4561 C   0  0  0  0  0  0  0  0  0  0  0  0
  152.2293  142.9388  159.5553 C   0  0  0  0  0  0  0  0  0  0  0  0
  151.5472  144.2556  159.2344 C   0  0  0  0  0  0  0  0  0  0  0  0
  151.7867  141.7362  158.9579 C   0  0  0  0  0  0  0  0  0  0  0  0
  150.7418  141.7736  158.0709 O   0  0  0  0  0  0  0  0  0  0  0  0
  151.0422  142.4730  156.8711 C   0  0  0  0  0  0  0  0  0  0  0  0
  150.8080  141.5406  155.6740 C   0  0  2  0  0  0  0  0  0  0  0  0
  149.9898  142.2381  154.7568 O   0  0  0  0  0  0  0  0  0  0  0  0
  150.0976  140.2336  156.0916 C   0  0  0  0  0  0  0  0  0  0  0  0
  148.8193  140.0343  155.4291 N   0  0  0  0  0  0  0  0  0  0  0  0
  148.8270  139.5524  154.0978 C   0  0  0  0  0  0  0  0  0  0  0  0
  149.8719  139.3270  153.4850 O   0  0  0  0  0  0  0  0  0  0  0  0
  147.5026  139.3316  153.5296 C   0  0  0  0  0  0  0  0  0  0  0  0
  147.3878  138.8422  152.2833 F   0  0  0  0  0  0  0  0  0  0  0  0
  146.3845  139.5937  154.2403 C   0  0  0  0  0  0  0  0  0  0  0  0
  146.4038  140.0991  155.5325 N   0  0  0  0  0  0  0  0  0  0  0  0
  145.1392  140.3074  156.3526 C   0  0  1  0  0  0  0  0  0  0  0  0
  144.1162  141.2528  155.7091 C   0  0  0  0  0  0  0  0  0  0  0  0
  143.1512  140.3009  155.0071 C   0  0  0  0  0  0  0  0  0  0  0  0
  143.6779  138.8990  155.3326 C   0  0  0  0  0  0  0  0  0  0  0  0
  144.4913  139.0826  156.4833 O   0  0  0  0  0  0  0  0  0  0  0  0
  147.6462  140.2877  156.1790 C   0  0  0  0  0  0  0  0  0  0  0  0
  147.6990  140.6547  157.3557 O   0  0  0  0  0  0  0  0  0  0  0  0
  152.4073  140.5055  159.2901 C   0  0  0  0  0  0  0  0  0  0  0  0
  151.9027  139.2038  158.6817 C   0  0  0  0  0  0  0  0  0  0  0  0
  155.1173  139.3931  161.1279 H   0  0  0  0  0  0  0  0  0  0  0  0
  154.4898  138.6479  159.6610 H   0  0  0  0  0  0  0  0  0  0  0  0
  153.5574  138.5715  161.1646 H   0  0  0  0  0  0  0  0  0  0  0  0
  154.7772  141.7015  161.4581 H   0  0  0  0  0  0  0  0  0  0  0  0
  153.6605  143.8318  160.9119 H   0  0  0  0  0  0  0  0  0  0  0  0
  150.4661  144.1603  159.3367 H   0  0  0  0  0  0  0  0  0  0  0  0
  151.7712  144.5614  158.2125 H   0  0  0  0  0  0  0  0  0  0  0  0
  151.8782  145.0478  159.9062 H   0  0  0  0  0  0  0  0  0  0  0  0
  150.4296  143.3715  156.7782 H   0  0  0  0  0  0  0  0  0  0  0  0
  152.0842  142.7955  156.8962 H   0  0  0  0  0  0  0  0  0  0  0  0
  151.7661  141.3330  155.1959 H   0  0  0  0  0  0  0  0  0  0  0  0
  149.8166  143.1000  155.1035 H   0  0  0  0  0  0  0  0  0  0  0  0
  150.7007  139.3589  155.8432 H   0  0  0  0  0  0  0  0  0  0  0  0
  149.9588  140.1605  157.1714 H   0  0  0  0  0  0  0  0  0  0  0  0
  145.4434  139.3772  153.7607 H   0  0  0  0  0  0  0  0  0  0  0  0
  145.4792  140.6877  157.3173 H   0  0  0  0  0  0  0  0  0  0  0  0
  143.5924  141.7794  156.5077 H   0  0  0  0  0  0  0  0  0  0  0  0
  144.5782  142.0035  155.0682 H   0  0  0  0  0  0  0  0  0  0  0  0
  142.1429  140.4334  155.4013 H   0  0  0  0  0  0  0  0  0  0  0  0
  143.1119  140.4704  153.9308 H   0  0  0  0  0  0  0  0  0  0  0  0
  142.8763  138.1859  155.5244 H   0  0  0  0  0  0  0  0  0  0  0  0
  144.2831  138.5097  154.5130 H   0  0  0  0  0  0  0  0  0  0  0  0
  150.9127  139.3123  158.2393 H   0  0  0  0  0  0  0  0  0  0  0  0
  151.8275  138.4230  159.4384 H   0  0  0  0  0  0  0  0  0  0  0  0
  152.5862  138.8639  157.9035 H   0  0  0  0  0  0  0  0  0  0  0  0
  1  2  1  0  0  0  0
  1 29  1  0  0  0  0
  1 30  1  0  0  0  0
  1 31  1  0  0  0  0
  2 27  1  0  0  0  0
  2  3  2  0  0  0  0
  3  4  1  0  0  0  0
  3 32  1  0  0  0  0
  4  5  2  0  0  0  0
  4 33  1  0  0  0  0
  5  6  1  0  0  0  0
  5  7  1  0  0  0  0
  6 34  1  0  0  0  0
  6 35  1  0  0  0  0
  6 36  1  0  0  0  0
  7  8  1  0  0  0  0
  7 27  2  0  0  0  0
  8  9  1  0  0  0  0
  9 10  1  0  0  0  0
  9 37  1  0  0  0  0
  9 38  1  0  0  0  0
 10 11  1  0  0  0  0
 10 12  1  0  0  0  0
 10 39  1  0  0  0  0
 11 40  1  0  0  0  0
 12 13  1  0  0  0  0
 12 41  1  0  0  0  0
 12 42  1  0  0  0  0
 13 25  1  0  0  0  0
 13 14  1  0  0  0  0
 14 15  2  0  0  0  0
 14 16  1  0  0  0  0
 16 17  1  0  0  0  0
 16 18  2  0  0  0  0
 18 19  1  0  0  0  0
 18 43  1  0  0  0  0
 19 20  1  0  0  0  0
 19 25  1  0  0  0  0
 20 24  1  0  0  0  0
 20 21  1  0  0  0  0
 20 44  1  0  0  0  0
 21 22  1  0  0  0  0
 21 45  1  0  0  0  0
 21 46  1  0  0  0  0
 22 23  1  0  0  0  0
 22 47  1  0  0  0  0
 22 48  1  0  0  0  0
 23 24  1  0  0  0  0
 23 49  1  0  0  0  0
 23 50  1  0  0  0  0
 25 26  2  0  0  0  0
 27 28  1  0  0  0  0
 28 51  1  0  0  0  0
 28 52  1  0  0  0  0
 28 53  1  0  0  0  0
M  END
> <s_m_source_file>
AV-unprocessed.smi

> <i_m_source_file_index>
164

> <i_lp_mmshare_version>
43012

> <i_f3d_flags>
0

> <s_epik_input>
W0NIM11jMVtjSF1bY0hdYyhbQ0gzXSljKGMxW0NIM10pT1tDSDJdW0NASF0oW09IXSlbQ0gyXW4yYyg9TyljKEYpW2NIXW4oYzI9TylbQ0BASF0zW0NIMl1bQ0gyXVtDSDJdTzM=

> <s_epik_cmdline>
J2VwaWtfcHl0aG9uJywgJy1waCcsICc3LjAnLCAnLXRuJywgJzgnLCAnLW1hJywgJzIwMCcsICctbWV0YWxfYmluZGluZycsICctaW1hZScsICc8aW5maWxlLm1hZT4nLCAnLW9tYWUnLCAnPG91dGZpbGUubWFlPic=

> <r_lp_tautomer_probability>
1

> <r_epik_Ionization_Penalty>
1.45842e-07

> <r_epik_Ionization_Penalty_Charging>
2.86622e-08

> <r_epik_Ionization_Penalty_Neutral>
1.1718e-07

> <r_epik_State_Penalty>
-0

> <r_epik_Charging_Adjusted_Penalty>
2.86622e-08

> <i_epik_Tot_Q>
0

> <i_epik_Tot_abs_Q>
0

> <r_epik_Metal_State_Penalty>
-0

> <b_epik_Metal_Only>
0

> <s_epik_Chemistry_Notes>
This compound contains an acetal/aminal-like group ( X-CH(R)-Y where X, Y are N, S, or O) that may be acid/base labile, releasing an aldehyde.

> <s_lp_Force_Field>
OPLS_2005

> <r_lp_Energy>
42.2677

> <b_lp_Chiralities_Consistent>
1

> <s_lp_Variant>
AV-unprocessed.smi:164-3

> <Gold.Version>
5.8.1

> <Gold.Id.Protein>
6NUR|6NUR_protein|mol2

> <Gold.PLP.Fitness>
40.0621

> <Gold.PLP.PLP>
-38.1336

> <Gold.PLP.part.hbond>
-2.2397

> <Gold.PLP.part.metal>
0.0000

> <Gold.PLP.part.buried>
-5.9699

> <Gold.PLP.part.nonpolar>
-32.3450

> <Gold.PLP.part.repulsive>
2.1458

> <Gold.PLP.ligand.clash>
0.0025

> <Gold.PLP.ligand.torsion>
2.1559

> <Gold.PLP.Chemscore.Hbond>
1.0000

> <Gold.PLP.Chemscore.CHOScore>
1.0000

> <Gold.PLP.Chemscore.Metal>
0.0000

> <Gold.Chemscore.Hbonds>
donor molecule, donor type, donor heavy atom, donor atom, acceptor molecule, acceptor atom, score
      L1  H    11    40       P1  8028  1.00
      P1  H  7989  7998       L1    15  0.21
      L1  C    18    43       P1 10175  1.00

> <Gold.PLP.Chemscore.Internal.Correction>
0.2429

> <Gold.Rescore>
     Score         DG    S(hbond)    S(metal)    S(lipo)     H(rot)  DE(clash)    DE(int)     intcor
     10.64     -14.71       1.00        0.00     110.11       2.73       0.07       4.00       ----

> <Gold.Chemscore.Fitness>
10.6354

> <Gold.Chemscore.DG>
-14.7092

> <Gold.Chemscore.ZeroCoef>
-5.4800

> <Gold.Chemscore.Hbond>
0.9996

> <Gold.Chemscore.Metal>
0.0000

> <Gold.Chemscore.Lipo>
110.1123

> <Gold.Chemscore.Internal_Hbond>
0.0000

> <Gold.Chemscore.DEClash>
0.0693

> <Gold.Chemscore.DEInternal>
4.0045

> <Gold.Chemscore.Rot>
2.7315

> <Gold.Chemscore.Internal.Correction>
   9.000000E+99

> <Gold.Chemscore.Hbonds>
donor molecule, donor type, donor heavy atom, donor atom, acceptor molecule, acceptor atom, score
      L1  H    11    40       P1  8028  0.99
      P1  H  7989  7998       L1    15  0.22
      P1  H  8011  8017       L1    11  0.01

> <Gold.Chemscore.Hbond.Weighted>
-3.3386

> <Gold.Chemscore.Metal.Weighted>
-0.0000

> <Gold.Chemscore.Lipo.Weighted>
-12.8831

> <Gold.Chemscore.Internal_Hbond.Weighted>
0.0000

> <Gold.Chemscore.DEClash.Weighted>
0.0693

> <Gold.Chemscore.DEInternal.Weighted>
4.0045

> <Gold.Chemscore.Rot.Weighted>
6.9925

> <Gold.Chemscore.Internal.Correction.Weighted>
   9.000000E+99

> <Gold.Protein.RotatedTorsions>
[ 6907 6896 6895 6894 ] final -101.84 input  -60.11 | X-H torsion
[ 7974 7965 7964 7962 ] final  130.78 input  175.53 | X-H torsion
[ 8008 7997 7996 7995 ] final  -98.33 input   59.86 | X-H torsion
[ 10167 10162 10161 10158 ] final  135.55 input  -65.29 | X-H torsion
[ 10718 10713 10712 10709 ] final  113.46 input   66.30 | X-H torsion
[ 10763 10752 10751 10750 ] final  -37.97 input  -60.55 | X-H torsion
[ 11005 11000 10999 10996 ] final  -30.28 input  -57.11 | X-H torsion

> <Gold.Protein.ActiveResidues>
 VAL166  LYS551  ARG553  GLY616  TRP617  ASP618  TYR619  PRO620  LYS621  CYS622 
 ASP623  PHE694  ASN695  SER759  ASP760  ASP761  ALA762  ILE779  LEU786  VAL792 
 PHE793  MET794  SER795  GLU796  ALA797  LYS798  CYS799  TRP800  GLU811  SER814 

> <Gold.Protein.RotatedAtoms>
  150.7171  134.0673  159.3851 H   0  0  0  0  0  0  0  0  0  0  0  0  # atno 6907 bound_to 6896
  151.8655  135.0506  160.0483 H   0  0  0  0  0  0  0  0  0  0  0  0  # atno 6908 bound_to 6896
  152.2684  133.5324  159.5461 H   0  0  0  0  0  0  0  0  0  0  0  0  # atno 6909 bound_to 6896
  145.0142  139.4192  143.5229 H   0  0  0  0  0  0  0  0  0  0  0  0  # atno 7974 bound_to 7965
  154.7997  140.0456  157.1264 H   0  0  0  0  0  0  0  0  0  0  0  0  # atno 8008 bound_to 7997
  154.9493  140.3063  155.5063 H   0  0  0  0  0  0  0  0  0  0  0  0  # atno 8009 bound_to 7997
  156.2960  140.2291  156.4569 H   0  0  0  0  0  0  0  0  0  0  0  0  # atno 8010 bound_to 7997
  139.5213  144.6511  151.5300 H   0  0  0  0  0  0  0  0  0  0  0  0  # atno 10167 bound_to 10162
  157.6337  131.0984  150.7043 H   0  0  0  0  0  0  0  0  0  0  0  0  # atno 10718 bound_to 10713
  153.9051  135.6798  153.4753 H   0  0  0  0  0  0  0  0  0  0  0  0  # atno 10763 bound_to 10752
  153.1108  135.4784  154.9029 H   0  0  0  0  0  0  0  0  0  0  0  0  # atno 10764 bound_to 10752
  154.7555  135.3196  154.8432 H   0  0  0  0  0  0  0  0  0  0  0  0  # atno 10765 bound_to 10752
  140.9369  133.7303  156.1019 H   0  0  0  0  0  0  0  0  0  0  0  0  # atno 11005 bound_to 11000
  146.3475  139.9603  142.8718 LP  0  0  0  0  0  0  0  0  0  0  0  0  # atno 17320 bound_to 7965
  145.1982  140.9842  143.4171 LP  0  0  0  0  0  0  0  0  0  0  0  0  # atno 17321 bound_to 7965
  140.6316  143.9065  150.6610 LP  0  0  0  0  0  0  0  0  0  0  0  0  # atno 17342 bound_to 10162
  140.2371  143.3692  152.1518 LP  0  0  0  0  0  0  0  0  0  0  0  0  # atno 17343 bound_to 10162
  156.7378  130.4730  149.5484 LP  0  0  0  0  0  0  0  0  0  0  0  0  # atno 17370 bound_to 10713
  156.1559  130.6341  151.0657 LP  0  0  0  0  0  0  0  0  0  0  0  0  # atno 17371 bound_to 10713
  140.7786  134.3751  157.5492 LP  0  0  0  0  0  0  0  0  0  0  0  0  # atno 17394 bound_to 11000
  139.8810  134.9067  156.2929 LP  0  0  0  0  0  0  0  0  0  0  0  0  # atno 17395 bound_to 11000

$$$$
