AV-unprocessed.smi:2023|AV-procd|sdf|8189|dock10
  -GOLD-   2272010443D 1   1.00000     0.00000
 Structure written by MMmdl.
 35 36  0  0  0  0  0  0  0  0  1 V2000
  154.5728  137.7624  158.5399 O   0  0  0  0  0  0  0  0  0  0  0  0
  153.1252  137.9798  158.6826 S   0  0  0  0  0  0  0  0  0  0  0  0
  152.2189  136.8625  158.9885 O   0  0  0  0  0  0  0  0  0  0  0  0
  152.8551  139.2171  159.8547 N   0  0  0  0  0  0  0  0  0  0  0  0
  153.5360  140.5046  159.7042 C   0  0  0  0  0  0  0  0  0  0  0  0
  153.0704  141.5036  160.7768 C   0  0  0  0  0  0  0  0  0  0  0  0
  152.7753  142.8848  160.2204 C   0  0  0  0  0  0  0  0  0  0  0  0
  152.4065  143.9461  161.0727 C   0  0  0  0  0  0  0  0  0  0  0  0
  152.1173  145.2023  160.5069 C   0  0  0  0  0  0  0  0  0  0  0  0
  152.2144  145.3452  159.1084 C   0  0  0  0  0  0  0  0  0  0  0  0
  152.5730  144.3385  158.2828 N   0  0  0  0  0  0  0  0  0  0  0  0
  152.8451  143.1360  158.8338 C   0  0  0  0  0  0  0  0  0  0  0  0
  152.5533  138.7958  157.2674 N   0  0  0  0  0  0  0  0  0  0  0  0
  151.4353  139.7350  157.4578 C   0  0  0  0  0  0  0  0  0  0  0  0
  151.1626  140.5451  156.1800 C   0  0  0  0  0  0  0  0  0  0  0  0
  150.9631  139.6706  155.0805 O   0  0  0  0  0  0  0  0  0  0  0  0
  152.1227  138.8957  154.8201 C   0  0  0  0  0  0  0  0  0  0  0  0
  152.4464  138.0029  156.0288 C   0  0  0  0  0  0  0  0  0  0  0  0
  152.8892  138.8602  160.8093 H   0  0  0  0  0  0  0  0  0  0  0  0
  154.6105  140.3411  159.7879 H   0  0  0  0  0  0  0  0  0  0  0  0
  153.3551  140.9040  158.7054 H   0  0  0  0  0  0  0  0  0  0  0  0
  152.1826  141.1199  161.2815 H   0  0  0  0  0  0  0  0  0  0  0  0
  153.8386  141.5971  161.5452 H   0  0  0  0  0  0  0  0  0  0  0  0
  152.3367  143.7993  162.1404 H   0  0  0  0  0  0  0  0  0  0  0  0
  151.8260  146.0357  161.1287 H   0  0  0  0  0  0  0  0  0  0  0  0
  151.9995  146.2944  158.6404 H   0  0  0  0  0  0  0  0  0  0  0  0
  153.1188  142.3488  158.1467 H   0  0  0  0  0  0  0  0  0  0  0  0
  150.5461  139.1705  157.7406 H   0  0  0  0  0  0  0  0  0  0  0  0
  151.6598  140.4122  158.2820 H   0  0  0  0  0  0  0  0  0  0  0  0
  150.2699  141.1571  156.3095 H   0  0  0  0  0  0  0  0  0  0  0  0
  151.9869  141.2293  155.9717 H   0  0  0  0  0  0  0  0  0  0  0  0
  151.9437  138.2792  153.9392 H   0  0  0  0  0  0  0  0  0  0  0  0
  152.9654  139.5473  154.5836 H   0  0  0  0  0  0  0  0  0  0  0  0
  153.3769  137.4670  155.8458 H   0  0  0  0  0  0  0  0  0  0  0  0
  151.6663  137.2514  156.1573 H   0  0  0  0  0  0  0  0  0  0  0  0
  1  2  2  0  0  0  0
  2  3  2  0  0  0  0
  2  4  1  0  0  0  0
  2 13  1  0  0  0  0
  4  5  1  0  0  0  0
  4 19  1  0  0  0  0
  5  6  1  0  0  0  0
  5 20  1  0  0  0  0
  5 21  1  0  0  0  0
  6  7  1  0  0  0  0
  6 22  1  0  0  0  0
  6 23  1  0  0  0  0
  7 12  1  0  0  0  0
  7  8  2  0  0  0  0
  8  9  1  0  0  0  0
  8 24  1  0  0  0  0
  9 10  2  0  0  0  0
  9 25  1  0  0  0  0
 10 11  1  0  0  0  0
 10 26  1  0  0  0  0
 11 12  2  0  0  0  0
 12 27  1  0  0  0  0
 13 18  1  0  0  0  0
 13 14  1  0  0  0  0
 14 15  1  0  0  0  0
 14 28  1  0  0  0  0
 14 29  1  0  0  0  0
 15 16  1  0  0  0  0
 15 30  1  0  0  0  0
 15 31  1  0  0  0  0
 16 17  1  0  0  0  0
 17 18  1  0  0  0  0
 17 32  1  0  0  0  0
 17 33  1  0  0  0  0
 18 34  1  0  0  0  0
 18 35  1  0  0  0  0
M  END
> <s_m_source_file>
AV-unprocessed.smi

> <i_m_source_file_index>
2023

> <i_lp_mmshare_version>
43012

> <i_f3d_flags>
0

> <s_epik_input>
W0NIMl0xW0NIMl1PW0NIMl1bQ0gyXU4xUyg9TykoPU8pW05IXVtDSDJdW0NIMl1jMltjSF1bY0hdW2NIXW5bY0hdMg==

> <s_epik_cmdline>
J2VwaWtfcHl0aG9uJywgJy1waCcsICc3LjAnLCAnLXRuJywgJzgnLCAnLW1hJywgJzIwMCcsICctbWV0YWxfYmluZGluZycsICctaW1hZScsICc8aW5maWxlLm1hZT4nLCAnLW9tYWUnLCAnPG91dGZpbGUubWFlPic=

> <r_epik_Ionization_Penalty>
0.0861056

> <r_epik_Ionization_Penalty_Charging>
0

> <r_epik_Ionization_Penalty_Neutral>
0.0861056

> <r_epik_State_Penalty>
0.0574425

> <r_epik_Charging_Adjusted_Penalty>
0.0574425

> <i_epik_Tot_Q>
0

> <i_epik_Tot_abs_Q>
0

> <r_epik_Metal_State_Penalty>
0.317425

> <b_epik_Metal_Only>
0

> <s_lp_Force_Field>
OPLS_2005

> <r_lp_Energy>
8.68862

> <b_lp_Chiralities_Consistent>
1

> <s_lp_Variant>
AV-unprocessed.smi:2023-1

> <Gold.Version>
5.8.1

> <Gold.Id.Protein>
6NUR|6NUR_protein|mol2

> <Gold.PLP.Fitness>
46.5397

> <Gold.PLP.PLP>
-41.7902

> <Gold.PLP.part.hbond>
-2.6700

> <Gold.PLP.part.metal>
0.0000

> <Gold.PLP.part.buried>
-5.9259

> <Gold.PLP.part.nonpolar>
-33.3117

> <Gold.PLP.part.repulsive>
0.0719

> <Gold.PLP.ligand.clash>
0.0000

> <Gold.PLP.ligand.torsion>
0.9954

> <Gold.PLP.Chemscore.Hbond>
2.0000

> <Gold.PLP.Chemscore.CHOScore>
0.0000

> <Gold.PLP.Chemscore.Metal>
0.0000

> <Gold.Chemscore.Hbonds>
donor molecule, donor type, donor heavy atom, donor atom, acceptor molecule, acceptor atom, score
      P1  H  7989  7998       L1    16  0.21
      P1  H  7997  8010       L1    13  0.17

> <Gold.PLP.Chemscore.Internal.Correction>
0.7404

> <Gold.Rescore>
     Score         DG    S(hbond)    S(metal)    S(lipo)     H(rot)  DE(clash)    DE(int)     intcor
     12.78     -13.70       0.05        0.00     109.14       1.84       0.04       0.88       ----

> <Gold.Chemscore.Fitness>
12.7787

> <Gold.Chemscore.DG>
-13.6998

> <Gold.Chemscore.ZeroCoef>
-5.4800

> <Gold.Chemscore.Hbond>
0.0467

> <Gold.Chemscore.Metal>
0.0000

> <Gold.Chemscore.Lipo>
109.1401

> <Gold.Chemscore.Internal_Hbond>
0.0000

> <Gold.Chemscore.DEClash>
0.0402

> <Gold.Chemscore.DEInternal>
0.8809

> <Gold.Chemscore.Rot>
1.8382

> <Gold.Chemscore.Internal.Correction>
   9.000000E+99

> <Gold.Chemscore.Hbonds>
donor molecule, donor type, donor heavy atom, donor atom, acceptor molecule, acceptor atom, score
      P1  H  6896  6907       L1     3  0.01
      P1  H  7997  8010       L1    13  0.01

> <Gold.Chemscore.Hbond.Weighted>
-0.1561

> <Gold.Chemscore.Metal.Weighted>
-0.0000

> <Gold.Chemscore.Lipo.Weighted>
-12.7694

> <Gold.Chemscore.Internal_Hbond.Weighted>
0.0000

> <Gold.Chemscore.DEClash.Weighted>
0.0402

> <Gold.Chemscore.DEInternal.Weighted>
0.8809

> <Gold.Chemscore.Rot.Weighted>
4.7057

> <Gold.Chemscore.Internal.Correction.Weighted>
   9.000000E+99

> <Gold.Protein.RotatedTorsions>
[ 6907 6896 6895 6894 ] final  -45.92 input  -60.11 | X-H torsion
[ 7974 7965 7964 7962 ] final  -34.81 input  175.53 | X-H torsion
[ 8008 7997 7996 7995 ] final   41.83 input   59.86 | X-H torsion
[ 10167 10162 10161 10158 ] final  162.13 input  -65.29 | X-H torsion
[ 10718 10713 10712 10709 ] final   82.73 input   66.30 | X-H torsion
[ 10763 10752 10751 10750 ] final   42.59 input  -60.55 | X-H torsion
[ 11005 11000 10999 10996 ] final  -69.86 input  -57.11 | X-H torsion

> <Gold.Protein.ActiveResidues>
 VAL166  LYS551  ARG553  GLY616  TRP617  ASP618  TYR619  PRO620  LYS621  CYS622 
 ASP623  PHE694  ASN695  SER759  ASP760  ASP761  ALA762  ILE779  LEU786  VAL792 
 PHE793  MET794  SER795  GLU796  ALA797  LYS798  CYS799  TRP800  GLU811  SER814 

> <Gold.Protein.RotatedAtoms>
  150.9167  134.8585  159.7461 H   0  0  0  0  0  0  0  0  0  0  0  0  # atno 6907 bound_to 6896
  152.4972  134.4278  159.9512 H   0  0  0  0  0  0  0  0  0  0  0  0  # atno 6908 bound_to 6896
  151.4316  133.3629  159.2804 H   0  0  0  0  0  0  0  0  0  0  0  0  # atno 6909 bound_to 6896
  146.0798  140.6084  142.8913 H   0  0  0  0  0  0  0  0  0  0  0  0  # atno 7974 bound_to 7965
  155.2760  140.3369  155.4261 H   0  0  0  0  0  0  0  0  0  0  0  0  # atno 8008 bound_to 7997
  156.2111  140.1770  156.7734 H   0  0  0  0  0  0  0  0  0  0  0  0  # atno 8009 bound_to 7997
  154.5688  140.0674  156.8917 H   0  0  0  0  0  0  0  0  0  0  0  0  # atno 8010 bound_to 7997
  139.4857  144.4468  151.8881 H   0  0  0  0  0  0  0  0  0  0  0  0  # atno 10167 bound_to 10162
  157.6864  131.0060  150.2418 H   0  0  0  0  0  0  0  0  0  0  0  0  # atno 10718 bound_to 10713
  152.9879  135.6127  154.2975 H   0  0  0  0  0  0  0  0  0  0  0  0  # atno 10763 bound_to 10752
  154.2697  135.2780  155.2745 H   0  0  0  0  0  0  0  0  0  0  0  0  # atno 10764 bound_to 10752
  154.5133  135.5835  153.6679 H   0  0  0  0  0  0  0  0  0  0  0  0  # atno 10765 bound_to 10752
  141.1562  133.6775  156.6664 H   0  0  0  0  0  0  0  0  0  0  0  0  # atno 11005 bound_to 11000
  144.7286  140.4601  143.6955 LP  0  0  0  0  0  0  0  0  0  0  0  0  # atno 17320 bound_to 7965
  145.6238  139.1527  143.3007 LP  0  0  0  0  0  0  0  0  0  0  0  0  # atno 17321 bound_to 7965
  140.3923  144.2600  150.5899 LP  0  0  0  0  0  0  0  0  0  0  0  0  # atno 17342 bound_to 10162
  140.5135  143.2284  151.8499 LP  0  0  0  0  0  0  0  0  0  0  0  0  # atno 17343 bound_to 10162
  156.3031  130.3761  149.7731 LP  0  0  0  0  0  0  0  0  0  0  0  0  # atno 17370 bound_to 10713
  156.5355  130.8276  151.3251 LP  0  0  0  0  0  0  0  0  0  0  0  0  # atno 17371 bound_to 10713
  140.3208  134.8009  157.4251 LP  0  0  0  0  0  0  0  0  0  0  0  0  # atno 17394 bound_to 11000
  140.1098  134.5360  155.8276 LP  0  0  0  0  0  0  0  0  0  0  0  0  # atno 17395 bound_to 11000

$$$$
