AV-unprocessed.smi:1588|AV-procd|sdf|6392|dock1
  -GOLD-   22720 7 23D 1   1.00000     0.00000
 Structure written by MMmdl.
 37 38  0  0  0  0  0  0  0  0  2 V2000
  143.8379  132.0978  149.7032 C   0  0  0  0  0  0  0  0  0  0  0  0
  143.4950  132.6536  151.0920 C   0  0  0  0  0  0  0  0  0  0  0  0
  143.5105  134.1353  151.1221 N   0  3  2  0  0  0  0  0  0  0  0  0
  144.6862  134.7466  150.4574 C   0  0  0  0  0  0  0  0  0  0  0  0
  145.2271  135.8186  151.4101 C   0  0  0  0  0  0  0  0  0  0  0  0
  144.0622  136.1077  152.3572 C   0  0  2  0  0  0  0  0  0  0  0  0
  144.4545  136.7184  153.7164 C   0  0  0  0  0  0  0  0  0  0  0  0
  144.7865  138.1355  153.6043 N   0  0  0  0  0  0  0  0  0  0  0  0
  145.9679  138.6851  153.9207 C   0  0  0  0  0  0  0  0  0  0  0  0
  146.9274  138.0403  154.3438 O   0  0  0  0  0  0  0  0  0  0  0  0
  145.9614  140.0114  153.7099 N   0  0  0  0  0  0  0  0  0  0  0  0
  147.0284  140.9217  153.9180 C   0  0  0  0  0  0  0  0  0  0  0  0
  148.3993  140.6285  153.6834 C   0  0  0  0  0  0  0  0  0  0  0  0
  149.1713  141.6689  153.9632 N   0  0  0  0  0  0  0  0  0  0  0  0
  148.3063  142.6234  154.3742 N   0  0  0  0  0  0  0  0  0  0  0  0
  146.9914  142.2133  154.3640 C   0  0  0  0  0  0  0  0  0  0  0  0
  143.4010  134.7343  152.4704 C   0  0  0  0  0  0  0  0  0  0  0  0
  148.6249  143.5403  154.6541 H   0  0  0  0  0  0  0  0  0  0  0  0
  143.8709  131.0084  149.7223 H   0  0  0  0  0  0  0  0  0  0  0  0
  144.8124  132.4522  149.3661 H   0  0  0  0  0  0  0  0  0  0  0  0
  143.0975  132.3889  148.9578 H   0  0  0  0  0  0  0  0  0  0  0  0
  142.5233  132.2834  151.4218 H   0  0  0  0  0  0  0  0  0  0  0  0
  144.2312  132.2825  151.8064 H   0  0  0  0  0  0  0  0  0  0  0  0
  145.4604  134.0147  150.2214 H   0  0  0  0  0  0  0  0  0  0  0  0
  144.3574  135.1927  149.5183 H   0  0  0  0  0  0  0  0  0  0  0  0
  146.0698  135.4113  151.9710 H   0  0  0  0  0  0  0  0  0  0  0  0
  145.5773  136.7079  150.8853 H   0  0  0  0  0  0  0  0  0  0  0  0
  143.3660  136.7798  151.8520 H   0  0  0  0  0  0  0  0  0  0  0  0
  143.6164  136.6307  154.4083 H   0  0  0  0  0  0  0  0  0  0  0  0
  145.2783  136.1615  154.1664 H   0  0  0  0  0  0  0  0  0  0  0  0
  144.0572  138.7463  153.2659 H   0  0  0  0  0  0  0  0  0  0  0  0
  145.1036  140.4142  153.3620 H   0  0  0  0  0  0  0  0  0  0  0  0
  148.8508  139.7146  153.3262 H   0  0  0  0  0  0  0  0  0  0  0  0
  146.1814  142.8611  154.6649 H   0  0  0  0  0  0  0  0  0  0  0  0
  142.3625  134.7996  152.7968 H   0  0  0  0  0  0  0  0  0  0  0  0
  143.9426  134.1199  153.1919 H   0  0  0  0  0  0  0  0  0  0  0  0
  142.7058  134.4529  150.6004 H   0  0  0  0  0  0  0  0  0  0  0  0
  1  2  1  0  0  0  0
  1 19  1  0  0  0  0
  1 20  1  0  0  0  0
  1 21  1  0  0  0  0
  2  3  1  0  0  0  0
  2 22  1  0  0  0  0
  2 23  1  0  0  0  0
  3 17  1  0  0  0  0
  3  4  1  0  0  0  0
  3 37  1  0  0  0  0
  4  5  1  0  0  0  0
  4 24  1  0  0  0  0
  4 25  1  0  0  0  0
  5  6  1  0  0  0  0
  5 26  1  0  0  0  0
  5 27  1  0  0  0  0
  6  7  1  0  0  0  0
  6 17  1  0  0  0  0
  6 28  1  0  0  0  0
  7  8  1  0  0  0  0
  7 29  1  0  0  0  0
  7 30  1  0  0  0  0
  8  9  1  0  0  0  0
  8 31  1  0  0  0  0
  9 10  2  0  0  0  0
  9 11  1  0  0  0  0
 11 12  1  0  0  0  0
 11 32  1  0  0  0  0
 12 16  2  0  0  0  0
 12 13  1  0  0  0  0
 13 14  2  0  0  0  0
 13 33  1  0  0  0  0
 14 15  1  0  0  0  0
 15 18  1  0  0  0  0
 15 16  1  0  0  0  0
 16 34  1  0  0  0  0
 17 35  1  0  0  0  0
 17 36  1  0  0  0  0
M  CHG  1   3   1
M  END
> <s_m_source_file>
AV-unprocessed.smi

> <i_m_source_file_index>
1588

> <i_lp_mmshare_version>
43012

> <i_f3d_flags>
0

> <s_epik_input>
W0NIM11bQ0gyXU4xW0NIMl1bQ0gyXVtDQEhdKFtDSDJdMSlbQ0gyXVtOSF1DKD1PKVtOSF1jMltjSF1uW25IXVtjSF0y

> <s_epik_cmdline>
J2VwaWtfcHl0aG9uJywgJy1waCcsICc3LjAnLCAnLXRuJywgJzgnLCAnLW1hJywgJzIwMCcsICctbWV0YWxfYmluZGluZycsICctaW1hZScsICc8aW5maWxlLm1hZT4nLCAnLW9tYWUnLCAnPG91dGZpbGUubWFlPic=

> <r_lp_tautomer_probability>
0.5

> <r_epik_Ionization_Penalty>
0.000628417

> <r_epik_Ionization_Penalty_Charging>
0.000582718

> <r_epik_Ionization_Penalty_Neutral>
4.56984e-05

> <r_epik_State_Penalty>
0.000366292

> <r_epik_Charging_Adjusted_Penalty>
0.00094901

> <i_epik_Tot_Q>
1

> <i_epik_Tot_abs_Q>
1

> <r_epik_Metal_State_Penalty>
-0

> <b_epik_Metal_Only>
0

> <s_lp_Force_Field>
OPLS_2005

> <r_lp_Energy>
30.9502

> <b_lp_Chiralities_Consistent>
1

> <s_lp_Variant>
AV-unprocessed.smi:1588-4

> <Gold.Version>
5.8.1

> <Gold.Id.Protein>
6NUR|6NUR_protein|mol2

> <Gold.PLP.Fitness>
48.3499

> <Gold.PLP.PLP>
-30.7900

> <Gold.PLP.part.hbond>
-5.8596

> <Gold.PLP.part.metal>
0.0000

> <Gold.PLP.part.buried>
-1.8319

> <Gold.PLP.part.nonpolar>
-24.2664

> <Gold.PLP.part.repulsive>
1.7206

> <Gold.PLP.ligand.clash>
0.0000

> <Gold.PLP.ligand.torsion>
0.4396

> <Gold.PLP.Chemscore.Hbond>
5.5680

> <Gold.PLP.Chemscore.CHOScore>
0.5740

> <Gold.PLP.Chemscore.Metal>
0.0000

> <Gold.Chemscore.Hbonds>
donor molecule, donor type, donor heavy atom, donor atom, acceptor molecule, acceptor atom, score
      L1  H     3    37       P1 10186  2.00
      L1  H     8    31       P1 10175  0.93
      L1  H    11    32       P1 10175  1.00
      L1  H    15    18       P1  8028  1.00
      P1  H  8011  8017       L1    14  0.61
      L1  C    13    33       P1  7957  0.58

> <Gold.PLP.Chemscore.Internal.Correction>
0.0132

> <Gold.Rescore>
     Score         DG    S(hbond)    S(metal)    S(lipo)     H(rot)  DE(clash)    DE(int)     intcor
     19.60     -21.95       3.89        0.00      64.09       1.58       1.75       0.59       ----

> <Gold.Chemscore.Fitness>
19.6029

> <Gold.Chemscore.DG>
-21.9474

> <Gold.Chemscore.ZeroCoef>
-5.4800

> <Gold.Chemscore.Hbond>
3.8927

> <Gold.Chemscore.Metal>
0.0000

> <Gold.Chemscore.Lipo>
64.0898

> <Gold.Chemscore.Internal_Hbond>
0.0000

> <Gold.Chemscore.DEClash>
1.7542

> <Gold.Chemscore.DEInternal>
0.5903

> <Gold.Chemscore.Rot>
1.5753

> <Gold.Chemscore.Internal.Correction>
   9.000000E+99

> <Gold.Chemscore.Hbonds>
donor molecule, donor type, donor heavy atom, donor atom, acceptor molecule, acceptor atom, score
      L1  H     3    37       P1 10186  0.39
      L1  H     8    31       P1 10175  0.89
      L1  H    11    32       P1 10175  0.98
      L1  H    15    18       P1  8028  0.92
      P1  H  8011  8017       L1    14  0.13

> <Gold.Chemscore.Hbond.Weighted>
-13.0017

> <Gold.Chemscore.Metal.Weighted>
-0.0000

> <Gold.Chemscore.Lipo.Weighted>
-7.4985

> <Gold.Chemscore.Internal_Hbond.Weighted>
0.0000

> <Gold.Chemscore.DEClash.Weighted>
1.7542

> <Gold.Chemscore.DEInternal.Weighted>
0.5903

> <Gold.Chemscore.Rot.Weighted>
4.0328

> <Gold.Chemscore.Internal.Correction.Weighted>
   9.000000E+99

> <Gold.Protein.RotatedTorsions>
[ 6907 6896 6895 6894 ] final  -50.78 input  -60.11 | X-H torsion
[ 7974 7965 7964 7962 ] final  152.95 input  175.53 | X-H torsion
[ 8008 7997 7996 7995 ] final  136.70 input   59.86 | X-H torsion
[ 10167 10162 10161 10158 ] final   15.59 input  -65.29 | X-H torsion
[ 10718 10713 10712 10709 ] final  117.99 input   66.30 | X-H torsion
[ 10763 10752 10751 10750 ] final   25.82 input  -60.55 | X-H torsion
[ 11005 11000 10999 10996 ] final -101.87 input  -57.11 | X-H torsion

> <Gold.Protein.ActiveResidues>
 VAL166  LYS551  ARG553  GLY616  TRP617  ASP618  TYR619  PRO620  LYS621  CYS622 
 ASP623  PHE694  ASN695  SER759  ASP760  ASP761  ALA762  ILE779  LEU786  VAL792 
 PHE793  MET794  SER795  GLU796  ALA797  LYS798  CYS799  TRP800  GLU811  SER814 

> <Gold.Protein.RotatedAtoms>
  150.8674  134.8041  159.7128 H   0  0  0  0  0  0  0  0  0  0  0  0  # atno 6907 bound_to 6896
  152.4691  134.5001  159.9732 H   0  0  0  0  0  0  0  0  0  0  0  0  # atno 6908 bound_to 6896
  151.5095  133.3449  159.2918 H   0  0  0  0  0  0  0  0  0  0  0  0  # atno 6909 bound_to 6896
  144.8187  139.6736  143.6110 H   0  0  0  0  0  0  0  0  0  0  0  0  # atno 7974 bound_to 7965
  156.3003  140.2438  156.3789 H   0  0  0  0  0  0  0  0  0  0  0  0  # atno 8008 bound_to 7997
  154.8720  140.0416  157.1750 H   0  0  0  0  0  0  0  0  0  0  0  0  # atno 8009 bound_to 7997
  154.8786  140.2946  155.5442 H   0  0  0  0  0  0  0  0  0  0  0  0  # atno 8010 bound_to 7997
  140.5857  143.8895  150.6828 H   0  0  0  0  0  0  0  0  0  0  0  0  # atno 10167 bound_to 10162
  157.6060  131.1043  150.7693 H   0  0  0  0  0  0  0  0  0  0  0  0  # atno 10718 bound_to 10713
  153.0665  135.6574  154.0342 H   0  0  0  0  0  0  0  0  0  0  0  0  # atno 10763 bound_to 10752
  153.9998  135.2938  155.3405 H   0  0  0  0  0  0  0  0  0  0  0  0  # atno 10764 bound_to 10752
  154.7025  135.5239  153.8616 H   0  0  0  0  0  0  0  0  0  0  0  0  # atno 10765 bound_to 10752
  141.1213  133.8512  157.1287 H   0  0  0  0  0  0  0  0  0  0  0  0  # atno 11005 bound_to 11000
  146.2492  139.6162  142.9439 LP  0  0  0  0  0  0  0  0  0  0  0  0  # atno 17320 bound_to 7965
  145.5154  141.0434  143.2464 LP  0  0  0  0  0  0  0  0  0  0  0  0  # atno 17321 bound_to 7965
  140.2405  143.3667  152.1490 LP  0  0  0  0  0  0  0  0  0  0  0  0  # atno 17342 bound_to 10162
  139.5196  144.7022  151.5461 LP  0  0  0  0  0  0  0  0  0  0  0  0  # atno 17343 bound_to 10162
  156.8081  130.4943  149.5360 LP  0  0  0  0  0  0  0  0  0  0  0  0  # atno 17370 bound_to 10713
  156.1147  130.6066  151.0101 LP  0  0  0  0  0  0  0  0  0  0  0  0  # atno 17371 bound_to 10713
  140.0173  134.9962  157.0519 LP  0  0  0  0  0  0  0  0  0  0  0  0  # atno 17394 bound_to 11000
  140.4499  134.1593  155.7180 LP  0  0  0  0  0  0  0  0  0  0  0  0  # atno 17395 bound_to 11000

$$$$
