AV-unprocessed.smi:1329|AV-procd|sdf|5483|dock1
  -GOLD-   22720 5 53D 1   1.00000     0.00000
 Structure written by MMmdl.
 42 43  0  0  0  0  0  0  0  0  1 V2000
  146.9805  137.8872  157.9483 C   0  0  0  0  0  0  0  0  0  0  0  0
  148.1354  137.3508  157.1460 C   0  0  0  0  0  0  0  0  0  0  0  0
  148.5620  138.0912  156.1761 N   0  0  0  0  0  0  0  0  0  0  0  0
  149.6162  137.6933  155.3788 N   0  0  0  0  0  0  0  0  0  0  0  0
  149.9650  138.6566  154.3283 C   0  0  0  0  0  0  0  0  0  0  0  0
  149.1638  139.9709  154.4607 C   0  0  2  0  0  0  0  0  0  0  0  0
  149.5389  140.8386  153.4097 O   0  0  0  0  0  0  0  0  0  0  0  0
  149.4569  140.6976  155.7815 C   0  0  0  0  0  0  0  0  0  0  0  0
  150.8156  141.1030  155.7833 O   0  0  0  0  0  0  0  0  0  0  0  0
  151.4762  140.8351  157.0092 C   0  0  0  0  0  0  0  0  0  0  0  0
  151.6036  142.0763  157.8734 C   0  0  0  0  0  0  0  0  0  0  0  0
  152.1844  142.0009  159.1581 C   0  0  0  0  0  0  0  0  0  0  0  0
  152.2834  143.1548  159.9598 C   0  0  0  0  0  0  0  0  0  0  0  0
  151.7964  144.3877  159.4849 C   0  0  0  0  0  0  0  0  0  0  0  0
  151.2076  144.4657  158.2080 C   0  0  0  0  0  0  0  0  0  0  0  0
  151.1090  143.3121  157.4055 C   0  0  0  0  0  0  0  0  0  0  0  0
  150.3054  136.5253  155.5255 C   0  0  0  0  0  0  0  0  0  0  0  0
  151.2516  136.2178  154.7989 O   0  0  0  0  0  0  0  0  0  0  0  0
  149.8147  135.6896  156.6238 C   0  0  0  0  0  0  0  0  0  0  0  0
  150.5058  134.4548  156.8111 C   0  0  0  0  0  0  0  0  0  0  0  0
  151.0788  133.4628  156.9771 N   0  0  0  0  0  0  0  0  0  0  0  0
  148.7750  136.0657  157.4100 C   0  0  0  0  0  0  0  0  0  0  0  0
  148.2288  135.2352  158.5635 C   0  0  0  0  0  0  0  0  0  0  0  0
  147.2316  137.9341  159.0081 H   0  0  0  0  0  0  0  0  0  0  0  0
  146.1036  137.2493  157.8360 H   0  0  0  0  0  0  0  0  0  0  0  0
  146.6984  138.8931  157.6334 H   0  0  0  0  0  0  0  0  0  0  0  0
  151.0349  138.8631  154.3938 H   0  0  0  0  0  0  0  0  0  0  0  0
  149.8313  138.2228  153.3351 H   0  0  0  0  0  0  0  0  0  0  0  0
  148.0906  139.7889  154.3925 H   0  0  0  0  0  0  0  0  0  0  0  0
  149.4049  140.3891  152.5893 H   0  0  0  0  0  0  0  0  0  0  0  0
  148.7974  141.5591  155.9016 H   0  0  0  0  0  0  0  0  0  0  0  0
  149.2818  140.0278  156.6254 H   0  0  0  0  0  0  0  0  0  0  0  0
  150.9267  140.0694  157.5593 H   0  0  0  0  0  0  0  0  0  0  0  0
  152.4767  140.4454  156.8166 H   0  0  0  0  0  0  0  0  0  0  0  0
  152.5567  141.0595  159.5353 H   0  0  0  0  0  0  0  0  0  0  0  0
  152.7316  143.0932  160.9406 H   0  0  0  0  0  0  0  0  0  0  0  0
  151.8717  145.2721  160.1004 H   0  0  0  0  0  0  0  0  0  0  0  0
  150.8300  145.4101  157.8445 H   0  0  0  0  0  0  0  0  0  0  0  0
  150.6530  143.3795  156.4285 H   0  0  0  0  0  0  0  0  0  0  0  0
  148.7025  134.2560  158.6267 H   0  0  0  0  0  0  0  0  0  0  0  0
  147.1574  135.0694  158.4465 H   0  0  0  0  0  0  0  0  0  0  0  0
  148.3967  135.7459  159.5123 H   0  0  0  0  0  0  0  0  0  0  0  0
  1  2  1  0  0  0  0
  1 24  1  0  0  0  0
  1 25  1  0  0  0  0
  1 26  1  0  0  0  0
  2 22  1  0  0  0  0
  2  3  2  0  0  0  0
  3  4  1  0  0  0  0
  4  5  1  0  0  0  0
  4 17  1  0  0  0  0
  5  6  1  0  0  0  0
  5 27  1  0  0  0  0
  5 28  1  0  0  0  0
  6  7  1  0  0  0  0
  6  8  1  0  0  0  0
  6 29  1  0  0  0  0
  7 30  1  0  0  0  0
  8  9  1  0  0  0  0
  8 31  1  0  0  0  0
  8 32  1  0  0  0  0
  9 10  1  0  0  0  0
 10 11  1  0  0  0  0
 10 33  1  0  0  0  0
 10 34  1  0  0  0  0
 11 16  1  0  0  0  0
 11 12  2  0  0  0  0
 12 13  1  0  0  0  0
 12 35  1  0  0  0  0
 13 14  2  0  0  0  0
 13 36  1  0  0  0  0
 14 15  1  0  0  0  0
 14 37  1  0  0  0  0
 15 16  2  0  0  0  0
 15 38  1  0  0  0  0
 16 39  1  0  0  0  0
 17 18  2  0  0  0  0
 17 19  1  0  0  0  0
 19 20  1  0  0  0  0
 19 22  2  0  0  0  0
 20 21  3  0  0  0  0
 22 23  1  0  0  0  0
 23 40  1  0  0  0  0
 23 41  1  0  0  0  0
 23 42  1  0  0  0  0
M  END
> <s_m_source_file>
AV-unprocessed.smi

> <i_m_source_file_index>
1329

> <i_lp_mmshare_version>
43012

> <i_f3d_flags>
0

> <s_epik_input>
TiNDYyhjMVtDSDNdKWMoPU8pbihuYzFbQ0gzXSlbQ0gyXVtDQEhdKFtPSF0pW0NIMl1PW0NIMl1jMltjSF1bY0hdW2NIXVtjSF1bY0hdMg==

> <s_epik_cmdline>
J2VwaWtfcHl0aG9uJywgJy1waCcsICc3LjAnLCAnLXRuJywgJzgnLCAnLW1hJywgJzIwMCcsICctbWV0YWxfYmluZGluZycsICctaW1hZScsICc8aW5maWxlLm1hZT4nLCAnLW9tYWUnLCAnPG91dGZpbGUubWFlPic=

> <r_lp_tautomer_probability>
1

> <r_epik_Ionization_Penalty>
6.13319e-08

> <r_epik_Ionization_Penalty_Charging>
2.19172e-10

> <r_epik_Ionization_Penalty_Neutral>
6.11128e-08

> <r_epik_State_Penalty>
-0

> <r_epik_Charging_Adjusted_Penalty>
2.19172e-10

> <i_epik_Tot_Q>
0

> <i_epik_Tot_abs_Q>
0

> <r_epik_Metal_State_Penalty>
-0

> <b_epik_Metal_Only>
0

> <s_lp_Force_Field>
OPLS_2005

> <r_lp_Energy>
29.8656

> <b_lp_Chiralities_Consistent>
1

> <s_lp_Variant>
AV-unprocessed.smi:1329-1

> <Gold.Version>
5.8.1

> <Gold.Id.Protein>
6NUR|6NUR_protein|mol2

> <Gold.PLP.Fitness>
46.3202

> <Gold.PLP.PLP>
-38.0843

> <Gold.PLP.part.hbond>
-5.1557

> <Gold.PLP.part.metal>
0.0000

> <Gold.PLP.part.buried>
-5.3214

> <Gold.PLP.part.nonpolar>
-29.2095

> <Gold.PLP.part.repulsive>
0.1970

> <Gold.PLP.ligand.clash>
0.0000

> <Gold.PLP.ligand.torsion>
0.6723

> <Gold.PLP.Chemscore.Hbond>
3.1560

> <Gold.PLP.Chemscore.CHOScore>
0.0000

> <Gold.PLP.Chemscore.Metal>
0.0000

> <Gold.Chemscore.Hbonds>
donor molecule, donor type, donor heavy atom, donor atom, acceptor molecule, acceptor atom, score
      L1  H     7    30       P1  7957  0.88
      P1  H  6896  6908       L1    21  0.26
      P1  H  7989  7998       L1     7  0.27
      P1  H  8011  8017       L1     7  0.25
      P1  H 10752 10764       L1    18  1.00

> <Gold.PLP.Chemscore.Internal.Correction>
0.1125

> <Gold.Rescore>
     Score         DG    S(hbond)    S(metal)    S(lipo)     H(rot)  DE(clash)    DE(int)     intcor
     16.96     -19.06       2.46        0.00     100.19       2.48       0.05       2.06       ----

> <Gold.Chemscore.Fitness>
16.9556

> <Gold.Chemscore.DG>
-19.0647

> <Gold.Chemscore.ZeroCoef>
-5.4800

> <Gold.Chemscore.Hbond>
2.4568

> <Gold.Chemscore.Metal>
0.0000

> <Gold.Chemscore.Lipo>
100.1851

> <Gold.Chemscore.Internal_Hbond>
0.0000

> <Gold.Chemscore.DEClash>
0.0491

> <Gold.Chemscore.DEInternal>
2.0600

> <Gold.Chemscore.Rot>
2.4777

> <Gold.Chemscore.Internal.Correction>
   9.000000E+99

> <Gold.Chemscore.Hbonds>
donor molecule, donor type, donor heavy atom, donor atom, acceptor molecule, acceptor atom, score
      L1  H     7    30       P1  7957  0.85
      P1  H  6896  6908       L1    21  0.13
      P1  H  7989  7998       L1     7  0.04
      P1  H 10752 10764       L1    18  1.00

> <Gold.Chemscore.Hbond.Weighted>
-8.2059

> <Gold.Chemscore.Metal.Weighted>
-0.0000

> <Gold.Chemscore.Lipo.Weighted>
-11.7217

> <Gold.Chemscore.Internal_Hbond.Weighted>
0.0000

> <Gold.Chemscore.DEClash.Weighted>
0.0491

> <Gold.Chemscore.DEInternal.Weighted>
2.0600

> <Gold.Chemscore.Rot.Weighted>
6.3428

> <Gold.Chemscore.Internal.Correction.Weighted>
   9.000000E+99

> <Gold.Protein.RotatedTorsions>
[ 6907 6896 6895 6894 ] final   74.37 input  -60.11 | X-H torsion
[ 7974 7965 7964 7962 ] final   -7.75 input  175.53 | X-H torsion
[ 8008 7997 7996 7995 ] final   59.33 input   59.86 | X-H torsion
[ 10167 10162 10161 10158 ] final  -15.55 input  -65.29 | X-H torsion
[ 10718 10713 10712 10709 ] final   44.15 input   66.30 | X-H torsion
[ 10763 10752 10751 10750 ] final  -58.56 input  -60.55 | X-H torsion
[ 11005 11000 10999 10996 ] final   42.74 input  -57.11 | X-H torsion

> <Gold.Protein.ActiveResidues>
 VAL166  LYS551  ARG553  GLY616  TRP617  ASP618  TYR619  PRO620  LYS621  CYS622 
 ASP623  PHE694  ASN695  SER759  ASP760  ASP761  ALA762  ILE779  LEU786  VAL792 
 PHE793  MET794  SER795  GLU796  ALA797  LYS798  CYS799  TRP800  GLU811  SER814 

> <Gold.Protein.RotatedAtoms>
  152.4972  134.4281  159.9502 H   0  0  0  0  0  0  0  0  0  0  0  0  # atno 6907 bound_to 6896
  151.4258  133.3678  159.2770 H   0  0  0  0  0  0  0  0  0  0  0  0  # atno 6908 bound_to 6896
  150.9190  134.8630  159.7536 H   0  0  0  0  0  0  0  0  0  0  0  0  # atno 6909 bound_to 6896
  146.2299  140.2365  142.8342 H   0  0  0  0  0  0  0  0  0  0  0  0  # atno 7974 bound_to 7965
  155.5644  140.3489  155.4499 H   0  0  0  0  0  0  0  0  0  0  0  0  # atno 8008 bound_to 7997
  156.0490  140.1313  157.0097 H   0  0  0  0  0  0  0  0  0  0  0  0  # atno 8009 bound_to 7997
  154.4426  140.1008  156.6334 H   0  0  0  0  0  0  0  0  0  0  0  0  # atno 8010 bound_to 7997
  140.7220  143.5206  150.9638 H   0  0  0  0  0  0  0  0  0  0  0  0  # atno 10167 bound_to 10162
  157.4237  130.7984  149.7539 H   0  0  0  0  0  0  0  0  0  0  0  0  # atno 10718 bound_to 10713
  154.2400  135.6345  153.5204 H   0  0  0  0  0  0  0  0  0  0  0  0  # atno 10763 bound_to 10752
  152.9932  135.5540  154.5920 H   0  0  0  0  0  0  0  0  0  0  0  0  # atno 10764 bound_to 10752
  154.5424  135.2895  155.1058 H   0  0  0  0  0  0  0  0  0  0  0  0  # atno 10765 bound_to 10752
  140.1710  134.4222  155.8257 H   0  0  0  0  0  0  0  0  0  0  0  0  # atno 11005 bound_to 11000
  144.9517  140.8185  143.5568 LP  0  0  0  0  0  0  0  0  0  0  0  0  # atno 17320 bound_to 7965
  145.2327  139.2108  143.5034 LP  0  0  0  0  0  0  0  0  0  0  0  0  # atno 17321 bound_to 7965
  139.8923  143.6937  152.3143 LP  0  0  0  0  0  0  0  0  0  0  0  0  # atno 17342 bound_to 10162
  139.7258  144.7593  151.0882 LP  0  0  0  0  0  0  0  0  0  0  0  0  # atno 17343 bound_to 10162
  155.9889  130.3955  150.3096 LP  0  0  0  0  0  0  0  0  0  0  0  0  # atno 17370 bound_to 10713
  157.1246  131.0256  151.2995 LP  0  0  0  0  0  0  0  0  0  0  0  0  # atno 17371 bound_to 10713
  141.2217  133.6956  156.7763 LP  0  0  0  0  0  0  0  0  0  0  0  0  # atno 17394 bound_to 11000
  140.2377  134.8637  157.3542 LP  0  0  0  0  0  0  0  0  0  0  0  0  # atno 17395 bound_to 11000

$$$$
