AV-unprocessed.smi:3326|AV-procd|sdf|12786|dock8
  -GOLD-   2272019133D 1   1.00000     0.00000
 Structure written by MMmdl.
 30 31  0  0  0  0  0  0  0  0  1 V2000
  151.2618  144.9801  160.3003 F   0  0  0  0  0  0  0  0  0  0  0  0
  151.3748  144.0401  159.3612 C   0  0  0  0  0  0  0  0  0  0  0  0
  150.1490  143.6182  159.0498 F   0  0  0  0  0  0  0  0  0  0  0  0
  151.9274  144.5974  158.2834 F   0  0  0  0  0  0  0  0  0  0  0  0
  152.2269  142.8654  159.8364 C   0  0  0  0  0  0  0  0  0  0  0  0
  152.8210  142.8847  161.1189 C   0  0  0  0  0  0  0  0  0  0  0  0
  153.6034  141.7918  161.5339 C   0  0  0  0  0  0  0  0  0  0  0  0
  153.7657  140.7132  160.6465 C   0  0  0  0  0  0  0  0  0  0  0  0
  153.2055  140.6776  159.4203 N   0  0  0  0  0  0  0  0  0  0  0  0
  152.4497  141.7277  159.0168 C   0  0  0  0  0  0  0  0  0  0  0  0
  151.8752  141.6665  157.7378 N   0  0  0  0  0  0  0  0  0  0  0  0
  151.7191  140.3996  157.0372 C   0  0  0  0  0  0  0  0  0  0  0  0
  150.3409  140.2915  156.3709 C   0  0  1  0  0  0  0  0  0  0  0  0
  149.2732  141.2005  156.9736 C   0  0  0  0  0  0  0  0  0  0  0  0
  148.2526  141.2813  155.8555 C   0  0  0  0  0  0  0  0  0  0  0  0
  149.0879  141.0695  154.5886 C   0  0  0  0  0  0  0  0  0  0  0  0
  150.4041  140.7467  155.0285 O   0  0  0  0  0  0  0  0  0  0  0  0
  152.6857  143.7227  161.7861 H   0  0  0  0  0  0  0  0  0  0  0  0
  154.0682  141.7808  162.5087 H   0  0  0  0  0  0  0  0  0  0  0  0
  154.3600  139.8564  160.9281 H   0  0  0  0  0  0  0  0  0  0  0  0
  151.5399  142.5101  157.2956 H   0  0  0  0  0  0  0  0  0  0  0  0
  152.5073  140.2915  156.2913 H   0  0  0  0  0  0  0  0  0  0  0  0
  151.8399  139.5864  157.7539 H   0  0  0  0  0  0  0  0  0  0  0  0
  149.9969  139.2553  156.3671 H   0  0  0  0  0  0  0  0  0  0  0  0
  148.8566  140.8127  157.9036 H   0  0  0  0  0  0  0  0  0  0  0  0
  149.6859  142.1908  157.1713 H   0  0  0  0  0  0  0  0  0  0  0  0
  147.5200  140.4797  155.9568 H   0  0  0  0  0  0  0  0  0  0  0  0
  147.7155  142.2302  155.8527 H   0  0  0  0  0  0  0  0  0  0  0  0
  148.6838  140.2531  153.9890 H   0  0  0  0  0  0  0  0  0  0  0  0
  149.1182  141.9641  153.9659 H   0  0  0  0  0  0  0  0  0  0  0  0
  1  2  1  0  0  0  0
  2  3  1  0  0  0  0
  2  4  1  0  0  0  0
  2  5  1  0  0  0  0
  5 10  1  0  0  0  0
  5  6  2  0  0  0  0
  6  7  1  0  0  0  0
  6 18  1  0  0  0  0
  7  8  2  0  0  0  0
  7 19  1  0  0  0  0
  8  9  1  0  0  0  0
  8 20  1  0  0  0  0
  9 10  2  0  0  0  0
 10 11  1  0  0  0  0
 11 12  1  0  0  0  0
 11 21  1  0  0  0  0
 12 13  1  0  0  0  0
 12 22  1  0  0  0  0
 12 23  1  0  0  0  0
 13 17  1  0  0  0  0
 13 14  1  0  0  0  0
 13 24  1  0  0  0  0
 14 15  1  0  0  0  0
 14 25  1  0  0  0  0
 14 26  1  0  0  0  0
 15 16  1  0  0  0  0
 15 27  1  0  0  0  0
 15 28  1  0  0  0  0
 16 17  1  0  0  0  0
 16 29  1  0  0  0  0
 16 30  1  0  0  0  0
M  END
> <s_m_source_file>
AV-unprocessed.smi

> <i_m_source_file_index>
3326

> <i_lp_mmshare_version>
43012

> <i_f3d_flags>
0

> <s_epik_input>
RkMoRikoRiljMVtjSF1bY0hdW2NIXW5jMVtOSF1bQ0gyXVtDQEBIXTJbQ0gyXVtDSDJdW0NIMl1PMg==

> <s_epik_cmdline>
J2VwaWtfcHl0aG9uJywgJy1waCcsICc3LjAnLCAnLXRuJywgJzgnLCAnLW1hJywgJzIwMCcsICctbWV0YWxfYmluZGluZycsICctaW1hZScsICc8aW5maWxlLm1hZT4nLCAnLW9tYWUnLCAnPG91dGZpbGUubWFlPic=

> <r_lp_tautomer_probability>
1

> <r_epik_Ionization_Penalty>
0.000820218

> <r_epik_Ionization_Penalty_Charging>
0

> <r_epik_Ionization_Penalty_Neutral>
0.000820218

> <r_epik_State_Penalty>
0.000527207

> <r_epik_Charging_Adjusted_Penalty>
0.000527207

> <i_epik_Tot_Q>
0

> <i_epik_Tot_abs_Q>
0

> <r_epik_Metal_State_Penalty>
-0

> <b_epik_Metal_Only>
0

> <s_lp_Force_Field>
OPLS_2005

> <r_lp_Energy>
21.9295

> <b_lp_Chiralities_Consistent>
1

> <s_lp_Variant>
AV-unprocessed.smi:3326-2

> <Gold.Version>
5.8.1

> <Gold.Id.Protein>
6NUR|6NUR_protein|mol2

> <Gold.PLP.Fitness>
43.4099

> <Gold.PLP.PLP>
-41.9692

> <Gold.PLP.part.hbond>
-1.0000

> <Gold.PLP.part.metal>
0.0000

> <Gold.PLP.part.buried>
-3.5519

> <Gold.PLP.part.nonpolar>
-37.7431

> <Gold.PLP.part.repulsive>
0.1588

> <Gold.PLP.ligand.clash>
0.4659

> <Gold.PLP.ligand.torsion>
0.6821

> <Gold.PLP.Chemscore.Hbond>
0.9280

> <Gold.PLP.Chemscore.CHOScore>
0.0000

> <Gold.PLP.Chemscore.Metal>
0.0000

> <Gold.Chemscore.Hbonds>
donor molecule, donor type, donor heavy atom, donor atom, acceptor molecule, acceptor atom, score
      P1  H  7989  7998       L1    17  0.86

> <Gold.PLP.Chemscore.Internal.Correction>
0.4868

> <Gold.Rescore>
     Score         DG    S(hbond)    S(metal)    S(lipo)     H(rot)  DE(clash)    DE(int)     intcor
     11.11     -14.96       0.93        0.00      81.76       1.25       0.76       3.09       ----

> <Gold.Chemscore.Fitness>
11.1115

> <Gold.Chemscore.DG>
-14.9604

> <Gold.Chemscore.ZeroCoef>
-5.4800

> <Gold.Chemscore.Hbond>
0.9337

> <Gold.Chemscore.Metal>
0.0000

> <Gold.Chemscore.Lipo>
81.7554

> <Gold.Chemscore.Internal_Hbond>
0.0000

> <Gold.Chemscore.DEClash>
0.7579

> <Gold.Chemscore.DEInternal>
3.0909

> <Gold.Chemscore.Rot>
1.2514

> <Gold.Chemscore.Internal.Correction>
   9.000000E+99

> <Gold.Chemscore.Hbonds>
donor molecule, donor type, donor heavy atom, donor atom, acceptor molecule, acceptor atom, score
      P1  H  7989  7998       L1    17  0.55

> <Gold.Chemscore.Hbond.Weighted>
-3.1185

> <Gold.Chemscore.Metal.Weighted>
-0.0000

> <Gold.Chemscore.Lipo.Weighted>
-9.5654

> <Gold.Chemscore.Internal_Hbond.Weighted>
0.0000

> <Gold.Chemscore.DEClash.Weighted>
0.7579

> <Gold.Chemscore.DEInternal.Weighted>
3.0909

> <Gold.Chemscore.Rot.Weighted>
3.2036

> <Gold.Chemscore.Internal.Correction.Weighted>
   9.000000E+99

> <Gold.Protein.RotatedTorsions>
[ 6907 6896 6895 6894 ] final  111.81 input  -60.11 | X-H torsion
[ 7974 7965 7964 7962 ] final -168.46 input  175.53 | X-H torsion
[ 8008 7997 7996 7995 ] final -105.51 input   59.86 | X-H torsion
[ 10167 10162 10161 10158 ] final   63.31 input  -65.29 | X-H torsion
[ 10718 10713 10712 10709 ] final -176.04 input   66.30 | X-H torsion
[ 10763 10752 10751 10750 ] final    1.27 input  -60.55 | X-H torsion
[ 11005 11000 10999 10996 ] final  -69.09 input  -57.11 | X-H torsion

> <Gold.Protein.ActiveResidues>
 VAL166  LYS551  ARG553  GLY616  TRP617  ASP618  TYR619  PRO620  LYS621  CYS622 
 ASP623  PHE694  ASN695  SER759  ASP760  ASP761  ALA762  ILE779  LEU786  VAL792 
 PHE793  MET794  SER795  GLU796  ALA797  LYS798  CYS799  TRP800  GLU811  SER814 

> <Gold.Protein.RotatedAtoms>
  152.4950  133.8605  159.7247 H   0  0  0  0  0  0  0  0  0  0  0  0  # atno 6907 bound_to 6896
  150.9117  133.6980  159.2860 H   0  0  0  0  0  0  0  0  0  0  0  0  # atno 6908 bound_to 6896
  151.4386  135.1022  159.9716 H   0  0  0  0  0  0  0  0  0  0  0  0  # atno 6909 bound_to 6896
  144.7203  140.2366  143.6297 H   0  0  0  0  0  0  0  0  0  0  0  0  # atno 7974 bound_to 7965
  154.9010  140.0413  157.1893 H   0  0  0  0  0  0  0  0  0  0  0  0  # atno 8008 bound_to 7997
  154.8444  140.2919  155.5617 H   0  0  0  0  0  0  0  0  0  0  0  0  # atno 8009 bound_to 7997
  156.2993  140.2476  156.3392 H   0  0  0  0  0  0  0  0  0  0  0  0  # atno 8010 bound_to 7997
  140.1344  144.4612  150.6846 H   0  0  0  0  0  0  0  0  0  0  0  0  # atno 10167 bound_to 10162
  156.8088  130.9578  151.3116 H   0  0  0  0  0  0  0  0  0  0  0  0  # atno 10718 bound_to 10713
  153.3101  135.6962  153.7123 H   0  0  0  0  0  0  0  0  0  0  0  0  # atno 10763 bound_to 10752
  153.6003  135.3463  155.2944 H   0  0  0  0  0  0  0  0  0  0  0  0  # atno 10764 bound_to 10752
  154.8573  135.4339  154.2237 H   0  0  0  0  0  0  0  0  0  0  0  0  # atno 10765 bound_to 10752
  141.1546  133.6756  156.6545 H   0  0  0  0  0  0  0  0  0  0  0  0  # atno 11005 bound_to 11000
  145.8359  139.2107  143.1855 LP  0  0  0  0  0  0  0  0  0  0  0  0  # atno 17320 bound_to 7965
  146.0389  140.8184  142.9838 LP  0  0  0  0  0  0  0  0  0  0  0  0  # atno 17321 bound_to 7965
  140.6798  143.2321  151.5414 LP  0  0  0  0  0  0  0  0  0  0  0  0  # atno 17342 bound_to 10162
  139.5503  144.2413  152.1518 LP  0  0  0  0  0  0  0  0  0  0  0  0  # atno 17343 bound_to 10162
  157.6516  130.8889  149.9645 LP  0  0  0  0  0  0  0  0  0  0  0  0  # atno 17370 bound_to 10713
  156.1057  130.3653  150.0138 LP  0  0  0  0  0  0  0  0  0  0  0  0  # atno 17371 bound_to 10713
  140.3294  134.7941  157.4315 LP  0  0  0  0  0  0  0  0  0  0  0  0  # atno 17394 bound_to 11000
  140.1029  134.5448  155.8336 LP  0  0  0  0  0  0  0  0  0  0  0  0  # atno 17395 bound_to 11000

$$$$
