AV-unprocessed.smi:3341|AV-procd|sdf|12884|dock6
  -GOLD-   2272019293D 1   1.00000     0.00000
 Structure written by MMmdl.
 46 47  0  0  0  0  0  0  0  0  2 V2000
  152.0906  140.2340  158.9132 C   0  0  0  0  0  0  0  0  0  0  0  0
  151.8524  141.0614  157.6447 C   0  0  0  0  0  0  0  0  0  0  0  0
  151.5470  140.2195  156.5047 N   0  0  0  0  0  0  0  0  0  0  0  0
  150.3414  140.0777  155.8466 C   0  0  0  0  0  0  0  0  0  0  0  0
  150.5712  139.1785  154.8440 C   0  0  0  0  0  0  0  0  0  0  0  0
  149.6774  138.6718  153.8668 N   0  0  0  0  0  0  0  0  0  0  0  0
  148.3942  139.0197  153.6778 C   0  0  0  0  0  0  0  0  0  0  0  0
  147.7796  139.8533  154.3436 O   0  0  0  0  0  0  0  0  0  0  0  0
  147.8470  138.3390  152.6606 N   0  0  0  0  0  0  0  0  0  0  0  0
  146.4742  138.4974  152.1942 C   0  0  0  0  0  0  0  0  0  0  0  0
  145.5547  137.3935  152.7520 C   0  0  0  0  0  0  0  0  0  0  0  0
  146.0271  136.0320  152.3951 N   0  3  2  0  0  0  0  0  0  0  0  0
  145.5162  135.5884  151.0725 C   0  0  0  0  0  0  0  0  0  0  0  0
  146.1447  134.2495  150.6559 C   0  0  0  0  0  0  0  0  0  0  0  0
  145.9091  133.1738  151.7252 C   0  0  0  0  0  0  0  0  0  0  0  0
  146.3810  133.6515  153.1108 C   0  0  1  0  0  0  0  0  0  0  0  0
  147.9135  133.6610  153.2493 C   0  0  0  0  0  0  0  0  0  0  0  0
  145.7564  135.0202  153.4529 C   0  0  0  0  0  0  0  0  0  0  0  0
  151.9389  138.8166  154.9549 C   0  0  0  0  0  0  0  0  0  0  0  0
  152.5225  139.4506  155.9606 N   0  0  0  0  0  0  0  0  0  0  0  0
  152.3257  140.8803  159.7590 H   0  0  0  0  0  0  0  0  0  0  0  0
  152.9233  139.5425  158.7810 H   0  0  0  0  0  0  0  0  0  0  0  0
  151.2077  139.6508  159.1761 H   0  0  0  0  0  0  0  0  0  0  0  0
  151.0296  141.7614  157.7966 H   0  0  0  0  0  0  0  0  0  0  0  0
  152.7361  141.6566  157.4120 H   0  0  0  0  0  0  0  0  0  0  0  0
  149.4571  140.6192  156.1481 H   0  0  0  0  0  0  0  0  0  0  0  0
  150.0583  137.9744  153.2439 H   0  0  0  0  0  0  0  0  0  0  0  0
  148.4245  137.6735  152.1673 H   0  0  0  0  0  0  0  0  0  0  0  0
  146.0988  139.4839  152.4723 H   0  0  0  0  0  0  0  0  0  0  0  0
  146.4990  138.4711  151.1056 H   0  0  0  0  0  0  0  0  0  0  0  0
  145.4545  137.4801  153.8352 H   0  0  0  0  0  0  0  0  0  0  0  0
  144.5553  137.5399  152.3393 H   0  0  0  0  0  0  0  0  0  0  0  0
  144.4292  135.5003  151.1111 H   0  0  0  0  0  0  0  0  0  0  0  0
  145.7472  136.3382  150.3149 H   0  0  0  0  0  0  0  0  0  0  0  0
  145.7249  133.9230  149.7041 H   0  0  0  0  0  0  0  0  0  0  0  0
  147.2140  134.3811  150.4876 H   0  0  0  0  0  0  0  0  0  0  0  0
  144.8436  132.9439  151.7689 H   0  0  0  0  0  0  0  0  0  0  0  0
  146.4097  132.2455  151.4478 H   0  0  0  0  0  0  0  0  0  0  0  0
  146.0125  132.9322  153.8433 H   0  0  0  0  0  0  0  0  0  0  0  0
  148.3797  134.3806  152.5764 H   0  0  0  0  0  0  0  0  0  0  0  0
  148.3330  132.6793  153.0272 H   0  0  0  0  0  0  0  0  0  0  0  0
  148.2119  133.9207  154.2653 H   0  0  0  0  0  0  0  0  0  0  0  0
  146.1388  135.3571  154.4157 H   0  0  0  0  0  0  0  0  0  0  0  0
  144.6770  134.9122  153.5713 H   0  0  0  0  0  0  0  0  0  0  0  0
  152.5163  138.1312  154.3526 H   0  0  0  0  0  0  0  0  0  0  0  0
  147.0305  136.0963  152.2985 H   0  0  0  0  0  0  0  0  0  0  0  0
  1  2  1  0  0  0  0
  1 21  1  0  0  0  0
  1 22  1  0  0  0  0
  1 23  1  0  0  0  0
  2  3  1  0  0  0  0
  2 24  1  0  0  0  0
  2 25  1  0  0  0  0
  3 20  1  0  0  0  0
  3  4  1  0  0  0  0
  4  5  2  0  0  0  0
  4 26  1  0  0  0  0
  5  6  1  0  0  0  0
  5 19  1  0  0  0  0
  6  7  1  0  0  0  0
  6 27  1  0  0  0  0
  7  8  2  0  0  0  0
  7  9  1  0  0  0  0
  9 10  1  0  0  0  0
  9 28  1  0  0  0  0
 10 11  1  0  0  0  0
 10 29  1  0  0  0  0
 10 30  1  0  0  0  0
 11 12  1  0  0  0  0
 11 31  1  0  0  0  0
 11 32  1  0  0  0  0
 12 18  1  0  0  0  0
 12 13  1  0  0  0  0
 12 46  1  0  0  0  0
 13 14  1  0  0  0  0
 13 33  1  0  0  0  0
 13 34  1  0  0  0  0
 14 15  1  0  0  0  0
 14 35  1  0  0  0  0
 14 36  1  0  0  0  0
 15 16  1  0  0  0  0
 15 37  1  0  0  0  0
 15 38  1  0  0  0  0
 16 17  1  0  0  0  0
 16 18  1  0  0  0  0
 16 39  1  0  0  0  0
 17 40  1  0  0  0  0
 17 41  1  0  0  0  0
 17 42  1  0  0  0  0
 18 43  1  0  0  0  0
 18 44  1  0  0  0  0
 19 20  2  0  0  0  0
 19 45  1  0  0  0  0
M  CHG  1  12   1
M  END
> <s_m_source_file>
AV-unprocessed.smi

> <i_m_source_file_index>
3341

> <i_lp_mmshare_version>
43012

> <i_f3d_flags>
0

> <s_epik_input>
W0NIM11bQ0gyXW4xW2NIXWMoW2NIXW4xKVtOSF1DKD1PKVtOSF1bQ0gyXVtDSDJdTjJbQ0gyXVtDSDJdW0NIMl1bQ0BASF0oW0NIM10pW0NIMl0y

> <s_epik_cmdline>
J2VwaWtfcHl0aG9uJywgJy1waCcsICc3LjAnLCAnLXRuJywgJzgnLCAnLW1hJywgJzIwMCcsICctbWV0YWxfYmluZGluZycsICctaW1hZScsICc8aW5maWxlLm1hZT4nLCAnLW9tYWUnLCAnPG91dGZpbGUubWFlPic=

> <r_lp_tautomer_probability>
1

> <r_epik_Ionization_Penalty>
0.00203389

> <r_epik_Ionization_Penalty_Charging>
0.00188267

> <r_epik_Ionization_Penalty_Neutral>
0.000151224

> <r_epik_State_Penalty>
0.0012808

> <r_epik_Charging_Adjusted_Penalty>
0.00316346

> <i_epik_Tot_Q>
1

> <i_epik_Tot_abs_Q>
1

> <r_epik_Metal_State_Penalty>
-0

> <b_epik_Metal_Only>
0

> <s_lp_Force_Field>
OPLS_2005

> <r_lp_Energy>
23.1402

> <b_lp_Chiralities_Consistent>
1

> <s_lp_Variant>
AV-unprocessed.smi:3341-2

> <Gold.Version>
5.8.1

> <Gold.Id.Protein>
6NUR|6NUR_protein|mol2

> <Gold.PLP.Fitness>
46.3329

> <Gold.PLP.PLP>
-35.7510

> <Gold.PLP.part.hbond>
-5.0987

> <Gold.PLP.part.metal>
0.0000

> <Gold.PLP.part.buried>
-3.0272

> <Gold.PLP.part.nonpolar>
-28.1634

> <Gold.PLP.part.repulsive>
0.2597

> <Gold.PLP.ligand.clash>
0.0000

> <Gold.PLP.ligand.torsion>
0.6374

> <Gold.PLP.Chemscore.Hbond>
3.9440

> <Gold.PLP.Chemscore.CHOScore>
0.0000

> <Gold.PLP.Chemscore.Metal>
0.0000

> <Gold.Chemscore.Hbonds>
donor molecule, donor type, donor heavy atom, donor atom, acceptor molecule, acceptor atom, score
      L1  H     9    28       P1  7948  1.00
      L1  H    12    46       P1  7948  2.00
      P1  H  7997  8010       L1    20  0.92

> <Gold.PLP.Chemscore.Internal.Correction>
0.0248

> <Gold.Rescore>
     Score         DG    S(hbond)    S(metal)    S(lipo)     H(rot)  DE(clash)    DE(int)     intcor
     18.27     -19.99       2.94        0.00      74.87       1.59       0.14       1.58       ----

> <Gold.Chemscore.Fitness>
18.2720

> <Gold.Chemscore.DG>
-19.9926

> <Gold.Chemscore.ZeroCoef>
-5.4800

> <Gold.Chemscore.Hbond>
2.9417

> <Gold.Chemscore.Metal>
0.0000

> <Gold.Chemscore.Lipo>
74.8721

> <Gold.Chemscore.Internal_Hbond>
0.0000

> <Gold.Chemscore.DEClash>
0.1358

> <Gold.Chemscore.DEInternal>
1.5847

> <Gold.Chemscore.Rot>
1.5909

> <Gold.Chemscore.Internal.Correction>
   9.000000E+99

> <Gold.Chemscore.Hbonds>
donor molecule, donor type, donor heavy atom, donor atom, acceptor molecule, acceptor atom, score
      L1  H     6    27       P1  7948  0.02
      L1  H     9    28       P1  7948  0.92
      L1  H    12    46       P1  7948  0.99
      P1  H  7997  8010       L1    20  0.62

> <Gold.Chemscore.Hbond.Weighted>
-9.8253

> <Gold.Chemscore.Metal.Weighted>
-0.0000

> <Gold.Chemscore.Lipo.Weighted>
-8.7600

> <Gold.Chemscore.Internal_Hbond.Weighted>
0.0000

> <Gold.Chemscore.DEClash.Weighted>
0.1358

> <Gold.Chemscore.DEInternal.Weighted>
1.5847

> <Gold.Chemscore.Rot.Weighted>
4.0728

> <Gold.Chemscore.Internal.Correction.Weighted>
   9.000000E+99

> <Gold.Protein.RotatedTorsions>
[ 6907 6896 6895 6894 ] final  -82.63 input  -60.11 | X-H torsion
[ 7974 7965 7964 7962 ] final  149.64 input  175.53 | X-H torsion
[ 8008 7997 7996 7995 ] final   59.94 input   59.86 | X-H torsion
[ 10167 10162 10161 10158 ] final  -82.02 input  -65.29 | X-H torsion
[ 10718 10713 10712 10709 ] final -104.83 input   66.30 | X-H torsion
[ 10763 10752 10751 10750 ] final -133.32 input  -60.55 | X-H torsion
[ 11005 11000 10999 10996 ] final   97.73 input  -57.11 | X-H torsion

> <Gold.Protein.ActiveResidues>
 VAL166  LYS551  ARG553  GLY616  TRP617  ASP618  TYR619  PRO620  LYS621  CYS622 
 ASP623  PHE694  ASN695  SER759  ASP760  ASP761  ALA762  ILE779  LEU786  VAL792 
 PHE793  MET794  SER795  GLU796  ALA797  LYS798  CYS799  TRP800  GLU811  SER814 

> <Gold.Protein.RotatedAtoms>
  150.6895  134.3635  159.4960 H   0  0  0  0  0  0  0  0  0  0  0  0  # atno 6907 bound_to 6896
  152.1461  134.9022  160.0560 H   0  0  0  0  0  0  0  0  0  0  0  0  # atno 6908 bound_to 6896
  152.0138  133.3837  159.4267 H   0  0  0  0  0  0  0  0  0  0  0  0  # atno 6909 bound_to 6896
  144.8423  139.6306  143.6011 H   0  0  0  0  0  0  0  0  0  0  0  0  # atno 7974 bound_to 7965
  155.5743  140.3490  155.4523 H   0  0  0  0  0  0  0  0  0  0  0  0  # atno 8008 bound_to 7997
  156.0421  140.1298  157.0169 H   0  0  0  0  0  0  0  0  0  0  0  0  # atno 8009 bound_to 7997
  154.4396  140.1022  156.6238 H   0  0  0  0  0  0  0  0  0  0  0  0  # atno 8010 bound_to 7997
  140.4359  143.2532  151.8695 H   0  0  0  0  0  0  0  0  0  0  0  0  # atno 10167 bound_to 10162
  156.0320  130.5534  150.7453 H   0  0  0  0  0  0  0  0  0  0  0  0  # atno 10718 bound_to 10713
  154.8734  135.3770  154.4553 H   0  0  0  0  0  0  0  0  0  0  0  0  # atno 10763 bound_to 10752
  153.5226  135.7028  153.5729 H   0  0  0  0  0  0  0  0  0  0  0  0  # atno 10764 bound_to 10752
  153.3969  135.3958  155.1927 H   0  0  0  0  0  0  0  0  0  0  0  0  # atno 10765 bound_to 10752
  139.8775  134.9015  156.4350 H   0  0  0  0  0  0  0  0  0  0  0  0  # atno 11005 bound_to 11000
  146.2713  139.6643  142.9294 LP  0  0  0  0  0  0  0  0  0  0  0  0  # atno 17320 bound_to 7965
  145.4669  141.0435  143.2720 LP  0  0  0  0  0  0  0  0  0  0  0  0  # atno 17321 bound_to 7965
  139.4787  144.5284  151.8702 LP  0  0  0  0  0  0  0  0  0  0  0  0  # atno 17342 bound_to 10162
  140.4374  144.2032  150.5890 LP  0  0  0  0  0  0  0  0  0  0  0  0  # atno 17343 bound_to 10162
  157.5011  131.0918  151.0313 LP  0  0  0  0  0  0  0  0  0  0  0  0  # atno 17370 bound_to 10713
  157.0694  130.5858  149.5400 LP  0  0  0  0  0  0  0  0  0  0  0  0  # atno 17371 bound_to 10713
  140.9040  133.7759  155.9713 LP  0  0  0  0  0  0  0  0  0  0  0  0  # atno 17394 bound_to 11000
  140.8620  134.2829  157.5230 LP  0  0  0  0  0  0  0  0  0  0  0  0  # atno 17395 bound_to 11000

$$$$
