AV-unprocessed.smi:1552|AV-procd|sdf|6234|dock10
  -GOLD-   22720 6413D 1   1.00000     0.00000
 Structure written by MMmdl.
 50 51  0  0  0  0  0  0  0  0  2 V2000
  145.5192  137.5281  152.6893 C   0  0  0  0  0  0  0  0  0  0  0  0
  146.1113  136.2137  152.3440 N   0  3  0  0  0  0  0  0  0  0  0  0
  145.4625  135.6074  151.1580 C   0  0  0  0  0  0  0  0  0  0  0  0
  146.2951  135.2606  153.4832 C   0  0  2  0  0  0  0  0  0  0  0  0
  147.0742  135.8840  154.6754 C   0  0  0  0  0  0  0  0  0  0  0  0
  148.0159  136.9220  154.2634 N   0  0  0  0  0  0  0  0  0  0  0  0
  148.2443  138.0912  154.8812 C   0  0  0  0  0  0  0  0  0  0  0  0
  147.6449  138.3781  155.9162 O   0  0  0  0  0  0  0  0  0  0  0  0
  149.2848  139.0605  154.2870 C   0  0  0  0  0  0  0  0  0  0  0  0
  149.5538  140.2214  155.1488 N   0  0  0  0  0  0  0  0  0  0  0  0
  150.3307  140.0815  156.2904 C   0  0  0  0  0  0  0  0  0  0  0  0
  150.6094  141.1045  157.1327 C   0  0  0  0  0  0  0  0  0  0  0  0
  150.0883  142.4415  156.8692 C   0  0  0  0  0  0  0  0  0  0  0  0
  150.2862  143.4309  157.5709 O   0  0  0  0  0  0  0  0  0  0  0  0
  149.3090  142.5412  155.7134 N   0  0  0  0  0  0  0  0  0  0  0  0
  149.0161  141.4909  154.8422 C   0  0  0  0  0  0  0  0  0  0  0  0
  148.3131  141.6864  153.8514 O   0  0  0  0  0  0  0  0  0  0  0  0
  146.8343  133.8802  152.9998 C   0  0  0  0  0  0  0  0  0  0  0  0
  145.6865  132.9218  152.5949 C   0  0  0  0  0  0  0  0  0  0  0  0
  146.2109  131.5580  152.1182 C   0  0  0  0  0  0  0  0  0  0  0  0
  147.0890  130.8953  153.1873 C   0  0  0  0  0  0  0  0  0  0  0  0
  148.2394  131.8235  153.5982 C   0  0  0  0  0  0  0  0  0  0  0  0
  147.7146  133.1890  154.0704 C   0  0  0  0  0  0  0  0  0  0  0  0
  148.9242  143.4480  155.4917 H   0  0  0  0  0  0  0  0  0  0  0  0
  144.4608  137.4375  152.9349 H   0  0  0  0  0  0  0  0  0  0  0  0
  145.6040  138.2111  151.8437 H   0  0  0  0  0  0  0  0  0  0  0  0
  146.0327  137.9908  153.5315 H   0  0  0  0  0  0  0  0  0  0  0  0
  144.4168  135.3669  151.3500 H   0  0  0  0  0  0  0  0  0  0  0  0
  145.9757  134.6947  150.8537 H   0  0  0  0  0  0  0  0  0  0  0  0
  145.4975  136.2965  150.3138 H   0  0  0  0  0  0  0  0  0  0  0  0
  145.2905  135.0599  153.8589 H   0  0  0  0  0  0  0  0  0  0  0  0
  146.3837  136.2735  155.4234 H   0  0  0  0  0  0  0  0  0  0  0  0
  147.6437  135.1018  155.1787 H   0  0  0  0  0  0  0  0  0  0  0  0
  148.5551  136.7333  153.4306 H   0  0  0  0  0  0  0  0  0  0  0  0
  150.2086  138.5072  154.1111 H   0  0  0  0  0  0  0  0  0  0  0  0
  148.9596  139.4035  153.3032 H   0  0  0  0  0  0  0  0  0  0  0  0
  150.7346  139.1079  156.5284 H   0  0  0  0  0  0  0  0  0  0  0  0
  151.2206  140.9326  158.0072 H   0  0  0  0  0  0  0  0  0  0  0  0
  147.4569  134.0342  152.1181 H   0  0  0  0  0  0  0  0  0  0  0  0
  145.0129  132.7749  153.4403 H   0  0  0  0  0  0  0  0  0  0  0  0
  145.0858  133.3549  151.7953 H   0  0  0  0  0  0  0  0  0  0  0  0
  145.3742  130.9045  151.8691 H   0  0  0  0  0  0  0  0  0  0  0  0
  146.7856  131.6873  151.2002 H   0  0  0  0  0  0  0  0  0  0  0  0
  146.4835  130.6520  154.0614 H   0  0  0  0  0  0  0  0  0  0  0  0
  147.4858  129.9513  152.8122 H   0  0  0  0  0  0  0  0  0  0  0  0
  148.8261  131.3574  154.3905 H   0  0  0  0  0  0  0  0  0  0  0  0
  148.9169  131.9637  152.7547 H   0  0  0  0  0  0  0  0  0  0  0  0
  148.5712  133.8110  154.3283 H   0  0  0  0  0  0  0  0  0  0  0  0
  147.1427  133.0588  154.9901 H   0  0  0  0  0  0  0  0  0  0  0  0
  147.0517  136.4207  152.0390 H   0  0  0  0  0  0  0  0  0  0  0  0
  1  2  1  0  0  0  0
  1 25  1  0  0  0  0
  1 26  1  0  0  0  0
  1 27  1  0  0  0  0
  2  3  1  0  0  0  0
  2  4  1  0  0  0  0
  2 50  1  0  0  0  0
  3 28  1  0  0  0  0
  3 29  1  0  0  0  0
  3 30  1  0  0  0  0
  4  5  1  0  0  0  0
  4 18  1  0  0  0  0
  4 31  1  0  0  0  0
  5  6  1  0  0  0  0
  5 32  1  0  0  0  0
  5 33  1  0  0  0  0
  6  7  1  0  0  0  0
  6 34  1  0  0  0  0
  7  8  2  0  0  0  0
  7  9  1  0  0  0  0
  9 10  1  0  0  0  0
  9 35  1  0  0  0  0
  9 36  1  0  0  0  0
 10 16  1  0  0  0  0
 10 11  1  0  0  0  0
 11 12  2  0  0  0  0
 11 37  1  0  0  0  0
 12 13  1  0  0  0  0
 12 38  1  0  0  0  0
 13 14  2  0  0  0  0
 13 15  1  0  0  0  0
 15 24  1  0  0  0  0
 15 16  1  0  0  0  0
 16 17  2  0  0  0  0
 18 23  1  0  0  0  0
 18 19  1  0  0  0  0
 18 39  1  0  0  0  0
 19 20  1  0  0  0  0
 19 40  1  0  0  0  0
 19 41  1  0  0  0  0
 20 21  1  0  0  0  0
 20 42  1  0  0  0  0
 20 43  1  0  0  0  0
 21 22  1  0  0  0  0
 21 44  1  0  0  0  0
 21 45  1  0  0  0  0
 22 23  1  0  0  0  0
 22 46  1  0  0  0  0
 22 47  1  0  0  0  0
 23 48  1  0  0  0  0
 23 49  1  0  0  0  0
M  CHG  1   2   1
M  END
> <s_m_source_file>
AV-unprocessed.smi

> <i_m_source_file_index>
1552

> <i_lp_mmshare_version>
43012

> <i_f3d_flags>
0

> <s_epik_input>
W0NIMl0xW0NIMl1bQ0gyXVtDSDJdW0NIMl1bQ0hdMVtDQEhdKE4oW0NIM10pW0NIM10pW0NIMl1bTkhdQyg9TylbQ0gyXW4yW2NIXVtjSF1jKD1PKVtuSF1jMj1P

> <s_epik_cmdline>
J2VwaWtfcHl0aG9uJywgJy1waCcsICc3LjAnLCAnLXRuJywgJzgnLCAnLW1hJywgJzIwMCcsICctbWV0YWxfYmluZGluZycsICctaW1hZScsICc8aW5maWxlLm1hZT4nLCAnLW9tYWUnLCAnPG91dGZpbGUubWFlPic=

> <r_lp_tautomer_probability>
1

> <r_epik_Ionization_Penalty>
0.00705217

> <r_epik_Ionization_Penalty_Charging>
0.00705209

> <r_epik_Ionization_Penalty_Neutral>
7.66101e-08

> <r_epik_State_Penalty>
-0

> <r_epik_Charging_Adjusted_Penalty>
0.00705209

> <i_epik_Tot_Q>
1

> <i_epik_Tot_abs_Q>
1

> <r_epik_Metal_State_Penalty>
0.375122

> <b_epik_Metal_Only>
0

> <s_lp_Force_Field>
OPLS_2005

> <r_lp_Energy>
35.9588

> <b_lp_Chiralities_Consistent>
1

> <s_lp_Variant>
AV-unprocessed.smi:1552-1

> <Gold.Version>
5.8.1

> <Gold.Id.Protein>
6NUR|6NUR_protein|mol2

> <Gold.PLP.Fitness>
45.7337

> <Gold.PLP.PLP>
-35.1323

> <Gold.PLP.part.hbond>
-3.8963

> <Gold.PLP.part.metal>
0.0000

> <Gold.PLP.part.buried>
-3.1742

> <Gold.PLP.part.nonpolar>
-28.8696

> <Gold.PLP.part.repulsive>
0.5616

> <Gold.PLP.ligand.clash>
0.0000

> <Gold.PLP.ligand.torsion>
1.8493

> <Gold.PLP.Chemscore.Hbond>
4.6633

> <Gold.PLP.Chemscore.CHOScore>
0.0000

> <Gold.PLP.Chemscore.Metal>
0.0000

> <Gold.Chemscore.Hbonds>
donor molecule, donor type, donor heavy atom, donor atom, acceptor molecule, acceptor atom, score
      L1  H     2    50       P1  7948  2.00
      L1  H     6    34       P1  7948  1.00
      L1  H    15    24       P1  8028  0.36
      P1  H  8011  8017       L1    17  0.27

> <Gold.PLP.Chemscore.Internal.Correction>
0.3103

> <Gold.Rescore>
     Score         DG    S(hbond)    S(metal)    S(lipo)     H(rot)  DE(clash)    DE(int)     intcor
     15.94     -18.67       3.65        0.00      63.06       2.50       0.02       2.71       ----

> <Gold.Chemscore.Fitness>
15.9369

> <Gold.Chemscore.DG>
-18.6724

> <Gold.Chemscore.ZeroCoef>
-5.4800

> <Gold.Chemscore.Hbond>
3.6545

> <Gold.Chemscore.Metal>
0.0000

> <Gold.Chemscore.Lipo>
63.0617

> <Gold.Chemscore.Internal_Hbond>
0.0000

> <Gold.Chemscore.DEClash>
0.0218

> <Gold.Chemscore.DEInternal>
2.7137

> <Gold.Chemscore.Rot>
2.4968

> <Gold.Chemscore.Internal.Correction>
   9.000000E+99

> <Gold.Chemscore.Hbonds>
donor molecule, donor type, donor heavy atom, donor atom, acceptor molecule, acceptor atom, score
      L1  H     2    50       P1  7948  0.99
      L1  H     6    34       P1  7948  1.00
      L1  H    15    24       P1  8028  0.36
      P1  H  8011  8017       L1    17  0.11

> <Gold.Chemscore.Hbond.Weighted>
-12.2059

> <Gold.Chemscore.Metal.Weighted>
-0.0000

> <Gold.Chemscore.Lipo.Weighted>
-7.3782

> <Gold.Chemscore.Internal_Hbond.Weighted>
0.0000

> <Gold.Chemscore.DEClash.Weighted>
0.0218

> <Gold.Chemscore.DEInternal.Weighted>
2.7137

> <Gold.Chemscore.Rot.Weighted>
6.3917

> <Gold.Chemscore.Internal.Correction.Weighted>
   9.000000E+99

> <Gold.Protein.RotatedTorsions>
[ 6907 6896 6895 6894 ] final -103.76 input  -60.11 | X-H torsion
[ 7974 7965 7964 7962 ] final  128.04 input  175.53 | X-H torsion
[ 8008 7997 7996 7995 ] final -122.73 input   59.86 | X-H torsion
[ 10167 10162 10161 10158 ] final   54.57 input  -65.29 | X-H torsion
[ 10718 10713 10712 10709 ] final  155.12 input   66.30 | X-H torsion
[ 10763 10752 10751 10750 ] final  -34.54 input  -60.55 | X-H torsion
[ 11005 11000 10999 10996 ] final -133.92 input  -57.11 | X-H torsion

> <Gold.Protein.ActiveResidues>
 VAL166  LYS551  ARG553  GLY616  TRP617  ASP618  TYR619  PRO620  LYS621  CYS622 
 ASP623  PHE694  ASN695  SER759  ASP760  ASP761  ALA762  ILE779  LEU786  VAL792 
 PHE793  MET794  SER795  GLU796  ALA797  LYS798  CYS799  TRP800  GLU811  SER814 

> <Gold.Protein.RotatedAtoms>
  150.7255  134.0380  159.3755 H   0  0  0  0  0  0  0  0  0  0  0  0  # atno 6907 bound_to 6896
  151.8352  135.0606  160.0451 H   0  0  0  0  0  0  0  0  0  0  0  0  # atno 6908 bound_to 6896
  152.2904  133.5520  159.5590 H   0  0  0  0  0  0  0  0  0  0  0  0  # atno 6909 bound_to 6896
  145.0439  139.3940  143.5088 H   0  0  0  0  0  0  0  0  0  0  0  0  # atno 7974 bound_to 7965
  155.1691  140.0407  157.2859 H   0  0  0  0  0  0  0  0  0  0  0  0  # atno 8008 bound_to 7997
  154.6282  140.2517  155.7438 H   0  0  0  0  0  0  0  0  0  0  0  0  # atno 8009 bound_to 7997
  156.2471  140.2880  156.0622 H   0  0  0  0  0  0  0  0  0  0  0  0  # atno 8010 bound_to 7997
  140.2287  144.3710  150.6422 H   0  0  0  0  0  0  0  0  0  0  0  0  # atno 10167 bound_to 10162
  157.2225  131.0721  151.1903 H   0  0  0  0  0  0  0  0  0  0  0  0  # atno 10718 bound_to 10713
  153.8484  135.6851  153.4795 H   0  0  0  0  0  0  0  0  0  0  0  0  # atno 10763 bound_to 10752
  153.1412  135.4657  154.9496 H   0  0  0  0  0  0  0  0  0  0  0  0  # atno 10764 bound_to 10752
  154.7813  135.3270  154.7930 H   0  0  0  0  0  0  0  0  0  0  0  0  # atno 10765 bound_to 10752
  140.9037  134.1658  157.4441 H   0  0  0  0  0  0  0  0  0  0  0  0  # atno 11005 bound_to 11000
  146.3512  140.0054  142.8672 LP  0  0  0  0  0  0  0  0  0  0  0  0  # atno 17320 bound_to 7965
  145.1613  140.9674  143.4376 LP  0  0  0  0  0  0  0  0  0  0  0  0  # atno 17321 bound_to 7965
  140.6201  143.2175  151.6711 LP  0  0  0  0  0  0  0  0  0  0  0  0  # atno 17342 bound_to 10162
  139.5118  144.3498  152.0662 LP  0  0  0  0  0  0  0  0  0  0  0  0  # atno 17343 bound_to 10162
  157.3561  130.7107  149.6471 LP  0  0  0  0  0  0  0  0  0  0  0  0  # atno 17370 bound_to 10713
  155.9681  130.4239  150.4582 LP  0  0  0  0  0  0  0  0  0  0  0  0  # atno 17371 bound_to 10713
  139.8746  134.9908  156.5520 LP  0  0  0  0  0  0  0  0  0  0  0  0  # atno 17394 bound_to 11000
  140.8198  133.8363  155.8885 LP  0  0  0  0  0  0  0  0  0  0  0  0  # atno 17395 bound_to 11000

$$$$
