AV-unprocessed.smi:980|AV-procd|sdf|4311|dock5
  -GOLD-   22720 2213D 1   1.00000     0.00000
 Structure written by MMmdl.
 44 45  0  0  0  0  0  0  0  0  1 V2000
  155.1766  133.3808  161.5253 C   0  0  0  0  0  0  0  0  0  0  0  0
  155.0508  133.7050  163.0293 C   0  0  0  0  0  0  0  0  0  0  0  0
  153.9684  132.7836  163.6255 C   0  0  0  0  0  0  0  0  0  0  0  0
  156.4107  133.4136  163.6938 C   0  0  0  0  0  0  0  0  0  0  0  0
  154.6713  135.1566  163.2464 C   0  0  0  0  0  0  0  0  0  0  0  0
  154.3521  135.7838  164.4296 C   0  0  0  0  0  0  0  0  0  0  0  0
  153.9847  137.4721  164.2069 S   0  0  0  0  0  0  0  0  0  0  0  0
  154.2630  137.2716  162.4840 C   0  0  0  0  0  0  0  0  0  0  0  0
  154.1723  138.3910  161.5023 C   0  0  0  0  0  0  0  0  0  0  0  0
  155.0527  139.5837  161.8953 C   0  0  0  0  0  0  0  0  0  0  0  0
  154.4678  140.8320  161.4264 N   0  0  0  0  0  0  0  0  0  0  0  0
  154.0672  141.0529  160.1661 C   0  0  0  0  0  0  0  0  0  0  0  0
  154.1811  140.2180  159.2681 O   0  0  0  0  0  0  0  0  0  0  0  0
  153.4393  142.4226  159.8753 C   0  0  2  0  0  0  0  0  0  0  0  0
  152.8620  143.0529  161.1634 C   0  0  0  0  0  0  0  0  0  0  0  0
  152.0155  144.2793  160.8720 C   0  0  0  0  0  0  0  0  0  0  0  0
  151.5435  144.5780  159.6494 C   0  0  0  0  0  0  0  0  0  0  0  0
  151.7989  143.7208  158.4223 C   0  0  0  0  0  0  0  0  0  0  0  0
  152.3510  142.3294  158.7868 C   0  0  0  0  0  0  0  0  0  0  0  0
  154.6186  136.0290  162.1510 N   0  0  0  0  0  0  0  0  0  0  0  0
  155.4530  132.3380  161.3659 H   0  0  0  0  0  0  0  0  0  0  0  0
  155.9407  133.9939  161.0458 H   0  0  0  0  0  0  0  0  0  0  0  0
  154.2362  133.5494  160.9992 H   0  0  0  0  0  0  0  0  0  0  0  0
  152.9947  132.9719  163.1719 H   0  0  0  0  0  0  0  0  0  0  0  0
  153.8628  132.9293  164.7010 H   0  0  0  0  0  0  0  0  0  0  0  0
  154.2086  131.7323  163.4640 H   0  0  0  0  0  0  0  0  0  0  0  0
  156.7172  132.3793  163.5351 H   0  0  0  0  0  0  0  0  0  0  0  0
  156.3755  133.5790  164.7712 H   0  0  0  0  0  0  0  0  0  0  0  0
  157.1945  134.0548  163.2886 H   0  0  0  0  0  0  0  0  0  0  0  0
  154.3128  135.3604  165.4222 H   0  0  0  0  0  0  0  0  0  0  0  0
  154.4614  138.0169  160.5192 H   0  0  0  0  0  0  0  0  0  0  0  0
  153.1297  138.7017  161.4256 H   0  0  0  0  0  0  0  0  0  0  0  0
  155.1712  139.6229  162.9794 H   0  0  0  0  0  0  0  0  0  0  0  0
  156.0490  139.4682  161.4648 H   0  0  0  0  0  0  0  0  0  0  0  0
  154.3437  141.5688  162.1054 H   0  0  0  0  0  0  0  0  0  0  0  0
  154.2234  143.0826  159.4992 H   0  0  0  0  0  0  0  0  0  0  0  0
  152.2428  142.3410  161.7115 H   0  0  0  0  0  0  0  0  0  0  0  0
  153.6765  143.3424  161.8285 H   0  0  0  0  0  0  0  0  0  0  0  0
  151.7839  144.9217  161.7090 H   0  0  0  0  0  0  0  0  0  0  0  0
  150.9571  145.4735  159.5049 H   0  0  0  0  0  0  0  0  0  0  0  0
  150.8727  143.6162  157.8570 H   0  0  0  0  0  0  0  0  0  0  0  0
  152.5044  144.2504  157.7816 H   0  0  0  0  0  0  0  0  0  0  0  0
  152.7391  141.8432  157.8910 H   0  0  0  0  0  0  0  0  0  0  0  0
  151.5308  141.7045  159.1444 H   0  0  0  0  0  0  0  0  0  0  0  0
  1  2  1  0  0  0  0
  1 21  1  0  0  0  0
  1 22  1  0  0  0  0
  1 23  1  0  0  0  0
  2  3  1  0  0  0  0
  2  4  1  0  0  0  0
  2  5  1  0  0  0  0
  3 24  1  0  0  0  0
  3 25  1  0  0  0  0
  3 26  1  0  0  0  0
  4 27  1  0  0  0  0
  4 28  1  0  0  0  0
  4 29  1  0  0  0  0
  5 20  1  0  0  0  0
  5  6  2  0  0  0  0
  6  7  1  0  0  0  0
  6 30  1  0  0  0  0
  7  8  1  0  0  0  0
  8  9  1  0  0  0  0
  8 20  2  0  0  0  0
  9 10  1  0  0  0  0
  9 31  1  0  0  0  0
  9 32  1  0  0  0  0
 10 11  1  0  0  0  0
 10 33  1  0  0  0  0
 10 34  1  0  0  0  0
 11 12  1  0  0  0  0
 11 35  1  0  0  0  0
 12 13  2  0  0  0  0
 12 14  1  0  0  0  0
 14 19  1  0  0  0  0
 14 15  1  0  0  0  0
 14 36  1  0  0  0  0
 15 16  1  0  0  0  0
 15 37  1  0  0  0  0
 15 38  1  0  0  0  0
 16 17  2  0  0  0  0
 16 39  1  0  0  0  0
 17 18  1  0  0  0  0
 17 40  1  0  0  0  0
 18 19  1  0  0  0  0
 18 41  1  0  0  0  0
 18 42  1  0  0  0  0
 19 43  1  0  0  0  0
 19 44  1  0  0  0  0
M  END
> <s_m_source_file>
AV-unprocessed.smi

> <i_m_source_file_index>
980

> <i_lp_mmshare_version>
43012

> <i_f3d_flags>
0

> <s_epik_input>
W0NIM11DKFtDSDNdKShbQ0gzXSljMVtjSF1zYyhuMSlbQ0gyXVtDSDJdW05IXUMoPU8pW0NAQEhdMltDSDJdW0NIXT1bQ0hdW0NIMl1bQ0gyXTI=

> <s_epik_cmdline>
J2VwaWtfcHl0aG9uJywgJy1waCcsICc3LjAnLCAnLXRuJywgJzgnLCAnLW1hJywgJzIwMCcsICctbWV0YWxfYmluZGluZycsICctaW1hZScsICc8aW5maWxlLm1hZT4nLCAnLW9tYWUnLCAnPG91dGZpbGUubWFlPic=

> <r_epik_Ionization_Penalty>
0.000809238

> <r_epik_Ionization_Penalty_Charging>
0

> <r_epik_Ionization_Penalty_Neutral>
0.000809238

> <r_epik_State_Penalty>
0.000520038

> <r_epik_Charging_Adjusted_Penalty>
0.000520038

> <i_epik_Tot_Q>
0

> <i_epik_Tot_abs_Q>
0

> <r_epik_Metal_State_Penalty>
-0

> <b_epik_Metal_Only>
0

> <s_lp_Force_Field>
OPLS_2005

> <r_lp_Energy>
0.0985756

> <b_lp_Chiralities_Consistent>
1

> <s_lp_Variant>
AV-unprocessed.smi:980-1

> <Gold.Version>
5.8.1

> <Gold.Id.Protein>
6NUR|6NUR_protein|mol2

> <Gold.PLP.Fitness>
45.0020

> <Gold.PLP.PLP>
-44.5207

> <Gold.PLP.part.hbond>
-1.0669

> <Gold.PLP.part.metal>
0.0000

> <Gold.PLP.part.buried>
-4.4718

> <Gold.PLP.part.nonpolar>
-38.2297

> <Gold.PLP.part.repulsive>
0.0000

> <Gold.PLP.ligand.clash>
0.0000

> <Gold.PLP.ligand.torsion>
1.0793

> <Gold.PLP.Chemscore.Hbond>
0.8590

> <Gold.PLP.Chemscore.CHOScore>
0.0000

> <Gold.PLP.Chemscore.Metal>
0.0000

> <Gold.Chemscore.Hbonds>
donor molecule, donor type, donor heavy atom, donor atom, acceptor molecule, acceptor atom, score
      P1  H  7997  8009       L1    13  0.71

> <Gold.PLP.Chemscore.Internal.Correction>
0.0626

> <Gold.Rescore>
     Score         DG    S(hbond)    S(metal)    S(lipo)     H(rot)  DE(clash)    DE(int)     intcor
     18.11     -20.47       0.97        0.00     131.32       1.41       0.02       2.34       ----

> <Gold.Chemscore.Fitness>
18.1083

> <Gold.Chemscore.DG>
-20.4732

> <Gold.Chemscore.ZeroCoef>
-5.4800

> <Gold.Chemscore.Hbond>
0.9694

> <Gold.Chemscore.Metal>
0.0000

> <Gold.Chemscore.Lipo>
131.3177

> <Gold.Chemscore.Internal_Hbond>
0.0000

> <Gold.Chemscore.DEClash>
0.0213

> <Gold.Chemscore.DEInternal>
2.3436

> <Gold.Chemscore.Rot>
1.4097

> <Gold.Chemscore.Internal.Correction>
   9.000000E+99

> <Gold.Chemscore.Hbonds>
donor molecule, donor type, donor heavy atom, donor atom, acceptor molecule, acceptor atom, score
      P1  H  7997  8009       L1    13  0.68

> <Gold.Chemscore.Hbond.Weighted>
-3.2377

> <Gold.Chemscore.Metal.Weighted>
-0.0000

> <Gold.Chemscore.Lipo.Weighted>
-15.3642

> <Gold.Chemscore.Internal_Hbond.Weighted>
0.0000

> <Gold.Chemscore.DEClash.Weighted>
0.0213

> <Gold.Chemscore.DEInternal.Weighted>
2.3436

> <Gold.Chemscore.Rot.Weighted>
3.6087

> <Gold.Chemscore.Internal.Correction.Weighted>
   9.000000E+99

> <Gold.Protein.RotatedTorsions>
[ 6907 6896 6895 6894 ] final   75.41 input  -60.11 | X-H torsion
[ 7974 7965 7964 7962 ] final -120.04 input  175.53 | X-H torsion
[ 8008 7997 7996 7995 ] final  127.86 input   59.86 | X-H torsion
[ 10167 10162 10161 10158 ] final  -26.60 input  -65.29 | X-H torsion
[ 10718 10713 10712 10709 ] final   87.58 input   66.30 | X-H torsion
[ 10763 10752 10751 10750 ] final   75.91 input  -60.55 | X-H torsion
[ 11005 11000 10999 10996 ] final   92.57 input  -57.11 | X-H torsion

> <Gold.Protein.ActiveResidues>
 VAL166  LYS551  ARG553  GLY616  TRP617  ASP618  TYR619  PRO620  LYS621  CYS622 
 ASP623  PHE694  ASN695  SER759  ASP760  ASP761  ALA762  ILE779  LEU786  VAL792 
 PHE793  MET794  SER795  GLU796  ALA797  LYS798  CYS799  TRP800  GLU811  SER814 

> <Gold.Protein.RotatedAtoms>
  152.5024  134.4124  159.9452 H   0  0  0  0  0  0  0  0  0  0  0  0  # atno 6907 bound_to 6896
  151.4093  133.3726  159.2749 H   0  0  0  0  0  0  0  0  0  0  0  0  # atno 6908 bound_to 6896
  150.9303  134.8740  159.7606 H   0  0  0  0  0  0  0  0  0  0  0  0  # atno 6909 bound_to 6896
  145.0558  140.8253  143.4182 H   0  0  0  0  0  0  0  0  0  0  0  0  # atno 7974 bound_to 7965
  156.2901  140.2658  156.2342 H   0  0  0  0  0  0  0  0  0  0  0  0  # atno 8008 bound_to 7997
  155.0042  140.0387  157.2391 H   0  0  0  0  0  0  0  0  0  0  0  0  # atno 8009 bound_to 7997
  154.7575  140.2754  155.6247 H   0  0  0  0  0  0  0  0  0  0  0  0  # atno 8010 bound_to 7997
  140.7282  143.4164  151.1021 H   0  0  0  0  0  0  0  0  0  0  0  0  # atno 10167 bound_to 10162
  157.6941  131.0261  150.3144 H   0  0  0  0  0  0  0  0  0  0  0  0  # atno 10718 bound_to 10713
  153.0688  135.4971  154.8258 H   0  0  0  0  0  0  0  0  0  0  0  0  # atno 10763 bound_to 10752
  154.6992  135.2998  154.9369 H   0  0  0  0  0  0  0  0  0  0  0  0  # atno 10764 bound_to 10752
  154.0098  135.6756  153.4817 H   0  0  0  0  0  0  0  0  0  0  0  0  # atno 10765 bound_to 10752
  139.8821  134.8740  156.3591 H   0  0  0  0  0  0  0  0  0  0  0  0  # atno 11005 bound_to 11000
  145.1470  139.2537  143.5460 LP  0  0  0  0  0  0  0  0  0  0  0  0  # atno 17320 bound_to 7965
  146.3521  140.1163  142.8602 LP  0  0  0  0  0  0  0  0  0  0  0  0  # atno 17321 bound_to 7965
  139.7805  143.8363  152.3136 LP  0  0  0  0  0  0  0  0  0  0  0  0  # atno 17342 bound_to 10162
  139.8312  144.7253  150.9448 LP  0  0  0  0  0  0  0  0  0  0  0  0  # atno 17343 bound_to 10162
  156.3641  130.3852  149.7228 LP  0  0  0  0  0  0  0  0  0  0  0  0  # atno 17370 bound_to 10713
  156.4664  130.7976  151.2995 LP  0  0  0  0  0  0  0  0  0  0  0  0  # atno 17371 bound_to 10713
  140.9542  133.7431  156.0312 LP  0  0  0  0  0  0  0  0  0  0  0  0  # atno 17394 bound_to 11000
  140.8069  134.3444  157.5423 LP  0  0  0  0  0  0  0  0  0  0  0  0  # atno 17395 bound_to 11000

$$$$
