AV-unprocessed.smi:208|AV-procd|sdf|1605|dock10
  -GOLD-   2262019523D 1   1.00000     0.00000
 Structure written by MMmdl.
 50 53  0  0  0  0  0  0  0  0  1 V2000
  152.0462  144.4171  158.8128 C   0  0  0  0  0  0  0  0  0  0  0  0
  151.9915  143.5470  157.5462 C   0  0  0  0  0  0  0  0  0  0  0  0
  151.1395  142.2570  157.6375 C   0  0  2  0  0  0  0  0  0  0  0  0
  151.6112  141.3033  158.7625 C   0  0  0  0  0  0  0  0  0  0  0  0
  151.7111  141.7531  159.9049 O   0  0  0  0  0  0  0  0  0  0  0  0
  151.8876  140.0093  158.4708 N   0  0  0  0  0  0  0  0  0  0  0  0
  152.3064  139.0777  159.5187 C   0  0  0  0  0  0  0  0  0  0  0  0
  151.7726  139.4323  157.1258 C   0  0  0  0  0  0  0  0  0  0  0  0
  151.8938  140.4883  156.0199 C   0  0  0  0  0  0  0  0  0  0  0  0
  151.0313  141.6258  156.3149 N   0  0  0  0  0  0  0  0  0  0  0  0
  149.8041  141.5543  155.7492 C   0  0  0  0  0  0  0  0  0  0  0  0
  149.7293  141.0406  154.4966 N   0  0  0  0  0  0  0  0  0  0  0  0
  148.5444  140.9333  153.8878 C   0  0  0  0  0  0  0  0  0  0  0  0
  147.3365  141.2672  154.3469 N   0  0  0  0  0  0  0  0  0  0  0  0
  147.4069  141.7740  155.6111 C   0  0  0  0  0  0  0  0  0  0  0  0
  148.5905  141.9468  156.3826 C   0  0  0  0  0  0  0  0  0  0  0  0
  148.2702  142.4691  157.6300 N   0  0  0  0  0  0  0  0  0  0  0  0
  146.9731  142.6034  157.5955 C   0  0  0  0  0  0  0  0  0  0  0  0
  146.3735  142.2219  156.4161 N   0  0  0  0  0  0  0  0  0  0  0  0
  144.9511  142.2689  156.1127 C   0  0  0  0  0  0  0  0  0  0  0  0
  144.5062  143.5427  155.3637 C   0  0  0  0  0  0  0  0  0  0  0  0
  145.2533  143.6820  154.0252 C   0  0  0  0  0  0  0  0  0  0  0  0
  144.6083  144.5995  153.1649 O   0  0  0  0  0  0  0  0  0  0  0  0
  142.9909  143.7715  155.2659 C   0  0  0  0  0  0  0  0  0  0  0  0
  143.1092  145.1245  155.7536 O   0  0  0  0  0  0  0  0  0  0  0  0
  144.4476  144.8263  156.2037 C   0  0  0  0  0  0  0  0  0  0  0  0
  152.5915  145.3403  158.6167 H   0  0  0  0  0  0  0  0  0  0  0  0
  152.5631  143.9076  159.6251 H   0  0  0  0  0  0  0  0  0  0  0  0
  151.0507  144.6935  159.1604 H   0  0  0  0  0  0  0  0  0  0  0  0
  151.6133  144.1612  156.7279 H   0  0  0  0  0  0  0  0  0  0  0  0
  153.0095  143.2818  157.2578 H   0  0  0  0  0  0  0  0  0  0  0  0
  150.1492  142.5908  157.9511 H   0  0  0  0  0  0  0  0  0  0  0  0
  153.3097  139.3259  159.8673 H   0  0  0  0  0  0  0  0  0  0  0  0
  152.3199  138.0452  159.1677 H   0  0  0  0  0  0  0  0  0  0  0  0
  151.6275  139.1169  160.3720 H   0  0  0  0  0  0  0  0  0  0  0  0
  152.5354  138.6679  156.9721 H   0  0  0  0  0  0  0  0  0  0  0  0
  150.8078  138.9291  157.0542 H   0  0  0  0  0  0  0  0  0  0  0  0
  152.9258  140.8294  155.9526 H   0  0  0  0  0  0  0  0  0  0  0  0
  151.6591  140.0465  155.0498 H   0  0  0  0  0  0  0  0  0  0  0  0
  148.5677  140.5204  152.8902 H   0  0  0  0  0  0  0  0  0  0  0  0
  146.4141  142.9943  158.4335 H   0  0  0  0  0  0  0  0  0  0  0  0
  144.7051  141.3787  155.5328 H   0  0  0  0  0  0  0  0  0  0  0  0
  144.4008  142.1654  157.0486 H   0  0  0  0  0  0  0  0  0  0  0  0
  146.2880  143.9927  154.1702 H   0  0  0  0  0  0  0  0  0  0  0  0
  145.2986  142.7212  153.5110 H   0  0  0  0  0  0  0  0  0  0  0  0
  143.9509  144.1353  152.6692 H   0  0  0  0  0  0  0  0  0  0  0  0
  142.5964  143.7203  154.2505 H   0  0  0  0  0  0  0  0  0  0  0  0
  142.3996  143.1562  155.9449 H   0  0  0  0  0  0  0  0  0  0  0  0
  144.4831  144.6538  157.2808 H   0  0  0  0  0  0  0  0  0  0  0  0
  145.1704  145.5875  155.9078 H   0  0  0  0  0  0  0  0  0  0  0  0
  1  2  1  0  0  0  0
  1 27  1  0  0  0  0
  1 28  1  0  0  0  0
  1 29  1  0  0  0  0
  2  3  1  0  0  0  0
  2 30  1  0  0  0  0
  2 31  1  0  0  0  0
  3 10  1  0  0  0  0
  3  4  1  0  0  0  0
  3 32  1  0  0  0  0
  4  5  2  0  0  0  0
  4  6  1  0  0  0  0
  6  7  1  0  0  0  0
  6  8  1  0  0  0  0
  7 33  1  0  0  0  0
  7 34  1  0  0  0  0
  7 35  1  0  0  0  0
  8  9  1  0  0  0  0
  8 36  1  0  0  0  0
  8 37  1  0  0  0  0
  9 10  1  0  0  0  0
  9 38  1  0  0  0  0
  9 39  1  0  0  0  0
 10 11  1  0  0  0  0
 11 16  1  0  0  0  0
 11 12  2  0  0  0  0
 12 13  1  0  0  0  0
 13 14  2  0  0  0  0
 13 40  1  0  0  0  0
 14 15  1  0  0  0  0
 15 19  1  0  0  0  0
 15 16  2  0  0  0  0
 16 17  1  0  0  0  0
 17 18  2  0  0  0  0
 18 19  1  0  0  0  0
 18 41  1  0  0  0  0
 19 20  1  0  0  0  0
 20 21  1  0  0  0  0
 20 42  1  0  0  0  0
 20 43  1  0  0  0  0
 21 26  1  0  0  0  0
 21 22  1  0  0  0  0
 21 24  1  0  0  0  0
 22 23  1  0  0  0  0
 22 44  1  0  0  0  0
 22 45  1  0  0  0  0
 23 46  1  0  0  0  0
 24 25  1  0  0  0  0
 24 47  1  0  0  0  0
 24 48  1  0  0  0  0
 25 26  1  0  0  0  0
 26 49  1  0  0  0  0
 26 50  1  0  0  0  0
M  END
> <s_m_source_file>
AV-unprocessed.smi

> <i_m_source_file_index>
208

> <i_lp_mmshare_version>
43012

> <i_f3d_flags>
0

> <s_epik_input>
W0NIM11bQ0gyXVtDQEBIXTFDKD1PKU4oW0NIM10pW0NIMl1bQ0gyXU4xYyhuW2NIXW4yKWMoYzIzKW5bY0hdbjNbQ0gyXUM0KFtDSDJdW09IXSlbQ0gyXU9bQ0gyXTQ=

> <s_epik_cmdline>
J2VwaWtfcHl0aG9uJywgJy1waCcsICc3LjAnLCAnLXRuJywgJzgnLCAnLW1hJywgJzIwMCcsICctbWV0YWxfYmluZGluZycsICctaW1hZScsICc8aW5maWxlLm1hZT4nLCAnLW9tYWUnLCAnPG91dGZpbGUubWFlPic=

> <r_lp_tautomer_probability>
1

> <r_epik_Ionization_Penalty>
0.000581289

> <r_epik_Ionization_Penalty_Charging>
0

> <r_epik_Ionization_Penalty_Neutral>
0.000581289

> <r_epik_State_Penalty>
0.000280365

> <r_epik_Charging_Adjusted_Penalty>
0.000280365

> <i_epik_Tot_Q>
0

> <i_epik_Tot_abs_Q>
0

> <r_epik_Metal_State_Penalty>
-0

> <b_epik_Metal_Only>
0

> <s_lp_Force_Field>
OPLS_2005

> <r_lp_Energy>
41.1811

> <b_lp_Chiralities_Consistent>
1

> <s_lp_Variant>
AV-unprocessed.smi:208-1

> <Gold.Version>
5.8.1

> <Gold.Id.Protein>
6NUR|6NUR_protein|mol2

> <Gold.PLP.Fitness>
45.6354

> <Gold.PLP.PLP>
-39.7512

> <Gold.PLP.part.hbond>
-2.6478

> <Gold.PLP.part.metal>
0.0000

> <Gold.PLP.part.buried>
-5.0404

> <Gold.PLP.part.nonpolar>
-32.8359

> <Gold.PLP.part.repulsive>
0.4783

> <Gold.PLP.ligand.clash>
0.0000

> <Gold.PLP.ligand.torsion>
1.0112

> <Gold.PLP.Chemscore.Hbond>
1.4186

> <Gold.PLP.Chemscore.CHOScore>
1.0000

> <Gold.PLP.Chemscore.Metal>
0.0000

> <Gold.Chemscore.Hbonds>
donor molecule, donor type, donor heavy atom, donor atom, acceptor molecule, acceptor atom, score
      L1  H    23    46       P1 10174  0.75
      P1  H  7989  7998       L1    12  0.41
      L1  C    13    40       P1  7957  1.00

> <Gold.PLP.Chemscore.Internal.Correction>
0.6508

> <Gold.Rescore>
     Score         DG    S(hbond)    S(metal)    S(lipo)     H(rot)  DE(clash)    DE(int)     intcor
      6.15     -11.39       1.15        0.00      71.59       2.46       0.76       4.48       ----

> <Gold.Chemscore.Fitness>
6.1504

> <Gold.Chemscore.DG>
-11.3882

> <Gold.Chemscore.ZeroCoef>
-5.4800

> <Gold.Chemscore.Hbond>
1.1466

> <Gold.Chemscore.Metal>
0.0000

> <Gold.Chemscore.Lipo>
71.5874

> <Gold.Chemscore.Internal_Hbond>
0.0000

> <Gold.Chemscore.DEClash>
0.7551

> <Gold.Chemscore.DEInternal>
4.4827

> <Gold.Chemscore.Rot>
2.4598

> <Gold.Chemscore.Internal.Correction>
   9.000000E+99

> <Gold.Chemscore.Hbonds>
donor molecule, donor type, donor heavy atom, donor atom, acceptor molecule, acceptor atom, score
      L1  H    23    46       P1 10174  0.58
      P1  H  7989  7998       L1    12  0.36

> <Gold.Chemscore.Hbond.Weighted>
-3.8297

> <Gold.Chemscore.Metal.Weighted>
-0.0000

> <Gold.Chemscore.Lipo.Weighted>
-8.3757

> <Gold.Chemscore.Internal_Hbond.Weighted>
0.0000

> <Gold.Chemscore.DEClash.Weighted>
0.7551

> <Gold.Chemscore.DEInternal.Weighted>
4.4827

> <Gold.Chemscore.Rot.Weighted>
6.2972

> <Gold.Chemscore.Internal.Correction.Weighted>
   9.000000E+99

> <Gold.Protein.RotatedTorsions>
[ 6907 6896 6895 6894 ] final  166.33 input  -60.11 | X-H torsion
[ 7974 7965 7964 7962 ] final -167.99 input  175.53 | X-H torsion
[ 8008 7997 7996 7995 ] final   64.58 input   59.86 | X-H torsion
[ 10167 10162 10161 10158 ] final   89.11 input  -65.29 | X-H torsion
[ 10718 10713 10712 10709 ] final  145.16 input   66.30 | X-H torsion
[ 10763 10752 10751 10750 ] final -164.62 input  -60.55 | X-H torsion
[ 11005 11000 10999 10996 ] final -123.59 input  -57.11 | X-H torsion

> <Gold.Protein.ActiveResidues>
 VAL166  LYS551  ARG553  GLY616  TRP617  ASP618  TYR619  PRO620  LYS621  CYS622 
 ASP623  PHE694  ASN695  SER759  ASP760  ASP761  ALA762  ILE779  LEU786  VAL792 
 PHE793  MET794  SER795  GLU796  ALA797  LYS798  CYS799  TRP800  GLU811  SER814 

> <Gold.Protein.RotatedAtoms>
  151.8806  133.3494  159.3764 H   0  0  0  0  0  0  0  0  0  0  0  0  # atno 6907 bound_to 6896
  150.7128  134.5023  159.5576 H   0  0  0  0  0  0  0  0  0  0  0  0  # atno 6908 bound_to 6896
  152.2573  134.8071  160.0487 H   0  0  0  0  0  0  0  0  0  0  0  0  # atno 6909 bound_to 6896
  144.7212  140.2436  143.6288 H   0  0  0  0  0  0  0  0  0  0  0  0  # atno 7974 bound_to 7965
  155.6483  140.3497  155.4739 H   0  0  0  0  0  0  0  0  0  0  0  0  # atno 8008 bound_to 7997
  155.9869  140.1186  157.0698 H   0  0  0  0  0  0  0  0  0  0  0  0  # atno 8009 bound_to 7997
  154.4207  140.1127  156.5498 H   0  0  0  0  0  0  0  0  0  0  0  0  # atno 8010 bound_to 7997
  139.8605  144.6546  150.9064 H   0  0  0  0  0  0  0  0  0  0  0  0  # atno 10167 bound_to 10162
  157.3485  131.0947  151.1020 H   0  0  0  0  0  0  0  0  0  0  0  0  # atno 10718 bound_to 10713
  154.7011  135.2988  154.9340 H   0  0  0  0  0  0  0  0  0  0  0  0  # atno 10763 bound_to 10752
  154.0272  135.6675  153.4781 H   0  0  0  0  0  0  0  0  0  0  0  0  # atno 10764 bound_to 10752
  153.0682  135.5076  154.8155 H   0  0  0  0  0  0  0  0  0  0  0  0  # atno 10765 bound_to 10752
  140.9907  134.0543  157.3658 H   0  0  0  0  0  0  0  0  0  0  0  0  # atno 11005 bound_to 11000
  145.8295  139.2079  143.1891 LP  0  0  0  0  0  0  0  0  0  0  0  0  # atno 17320 bound_to 7965
  146.0443  140.8134  142.9813 LP  0  0  0  0  0  0  0  0  0  0  0  0  # atno 17321 bound_to 7965
  140.7775  143.3748  151.1582 LP  0  0  0  0  0  0  0  0  0  0  0  0  # atno 17342 bound_to 10162
  139.7378  143.8971  152.3040 LP  0  0  0  0  0  0  0  0  0  0  0  0  # atno 17343 bound_to 10162
  157.2205  130.6479  149.5809 LP  0  0  0  0  0  0  0  0  0  0  0  0  # atno 17370 bound_to 10713
  155.9718  130.4631  150.6168 LP  0  0  0  0  0  0  0  0  0  0  0  0  # atno 17371 bound_to 10713
  139.8991  135.0157  156.7179 LP  0  0  0  0  0  0  0  0  0  0  0  0  # atno 17394 bound_to 11000
  140.7044  133.9278  155.8045 LP  0  0  0  0  0  0  0  0  0  0  0  0  # atno 17395 bound_to 11000

$$$$
