AV-unprocessed.smi:193|AV-procd|sdf|1517|dock9
  -GOLD-   2262019353D 1   1.00000     0.00000
 Structure written by MMmdl.
 61 65  0  0  0  0  0  0  0  0  1 V2000
  150.9645  141.0991  155.9977 C   0  0  0  0  0  0  0  0  0  0  0  0
  151.3464  140.3119  157.2602 C   0  0  1  0  0  0  0  0  0  0  0  0
  151.9420  138.9440  156.8632 C   0  0  0  0  0  0  0  0  0  0  0  0
  151.7982  137.9171  157.8992 N   0  0  0  0  0  0  0  0  0  0  0  0
  150.7925  137.0187  157.7453 C   0  0  0  0  0  0  0  0  0  0  0  0
  149.9075  136.8095  158.7570 N   0  0  0  0  0  0  0  0  0  0  0  0
  148.9358  135.9020  158.6260 C   0  0  0  0  0  0  0  0  0  0  0  0
  148.6716  135.1061  157.5881 N   0  0  0  0  0  0  0  0  0  0  0  0
  149.5511  135.3157  156.5674 C   0  0  0  0  0  0  0  0  0  0  0  0
  150.6325  136.2418  156.5637 C   0  0  0  0  0  0  0  0  0  0  0  0
  151.3096  136.1739  155.3516 N   0  0  0  0  0  0  0  0  0  0  0  0
  150.6700  135.2550  154.6810 C   0  0  0  0  0  0  0  0  0  0  0  0
  149.5962  134.6913  155.3328 N   0  0  0  0  0  0  0  0  0  0  0  0
  148.7169  133.6492  154.8237 C   0  0  0  0  0  0  0  0  0  0  0  0
  149.1813  132.2089  155.1556 C   0  0  0  0  0  0  0  0  0  0  0  0
  148.6411  131.8566  156.4173 O   0  0  0  0  0  0  0  0  0  0  0  0
  148.7007  131.1739  154.1146 C   0  0  0  0  0  0  0  0  0  0  0  0
  149.3440  129.7922  154.3302 C   0  0  0  0  0  0  0  0  0  0  0  0
  150.7617  129.9067  154.3385 O   0  0  0  0  0  0  0  0  0  0  0  0
  151.2404  130.7127  155.4081 C   0  0  0  0  0  0  0  0  0  0  0  0
  150.7194  132.1526  155.2540 C   0  0  0  0  0  0  0  0  0  0  0  0
  152.0238  138.2633  159.3018 C   0  0  0  0  0  0  0  0  0  0  0  0
  153.1027  139.3360  159.5188 C   0  0  0  0  0  0  0  0  0  0  0  0
  152.5007  140.6675  159.4770 N   0  0  0  0  0  0  0  0  0  0  0  0
  153.3792  141.6017  160.1688 C   0  0  2  0  0  0  0  0  0  0  0  0
  152.9131  142.1503  161.4991 C   0  0  0  0  0  0  0  0  0  0  0  0
  152.9545  143.0547  160.2902 C   0  0  2  0  0  0  0  0  0  0  0  0
  151.6662  143.5890  159.6935 C   0  0  0  0  0  0  0  0  0  0  0  0
  152.3458  141.1382  158.1002 C   0  0  0  0  0  0  0  0  0  0  0  0
  151.8364  141.2935  155.3723 H   0  0  0  0  0  0  0  0  0  0  0  0
  150.5159  142.0596  156.2528 H   0  0  0  0  0  0  0  0  0  0  0  0
  150.2379  140.5503  155.3976 H   0  0  0  0  0  0  0  0  0  0  0  0
  150.4265  140.1642  157.8283 H   0  0  0  0  0  0  0  0  0  0  0  0
  151.4857  138.5914  155.9369 H   0  0  0  0  0  0  0  0  0  0  0  0
  153.0003  139.0522  156.6244 H   0  0  0  0  0  0  0  0  0  0  0  0
  148.2784  135.7952  159.4761 H   0  0  0  0  0  0  0  0  0  0  0  0
  150.9625  134.9648  153.6823 H   0  0  0  0  0  0  0  0  0  0  0  0
  147.7220  133.8231  155.2355 H   0  0  0  0  0  0  0  0  0  0  0  0
  148.6224  133.7781  153.7445 H   0  0  0  0  0  0  0  0  0  0  0  0
  147.7807  132.2398  156.4942 H   0  0  0  0  0  0  0  0  0  0  0  0
  147.6148  131.0761  154.1359 H   0  0  0  0  0  0  0  0  0  0  0  0
  148.9586  131.5245  153.1145 H   0  0  0  0  0  0  0  0  0  0  0  0
  148.9995  129.3398  155.2614 H   0  0  0  0  0  0  0  0  0  0  0  0
  149.0521  129.1168  153.5257 H   0  0  0  0  0  0  0  0  0  0  0  0
  150.9397  130.2844  156.3656 H   0  0  0  0  0  0  0  0  0  0  0  0
  152.3306  130.7070  155.3899 H   0  0  0  0  0  0  0  0  0  0  0  0
  151.1543  132.5797  154.3494 H   0  0  0  0  0  0  0  0  0  0  0  0
  151.0729  132.7693  156.0815 H   0  0  0  0  0  0  0  0  0  0  0  0
  151.0855  138.5599  159.7742 H   0  0  0  0  0  0  0  0  0  0  0  0
  152.3504  137.3622  159.8203 H   0  0  0  0  0  0  0  0  0  0  0  0
  153.5034  139.1785  160.5213 H   0  0  0  0  0  0  0  0  0  0  0  0
  153.9461  139.2350  158.8342 H   0  0  0  0  0  0  0  0  0  0  0  0
  154.4539  141.4427  160.0940 H   0  0  0  0  0  0  0  0  0  0  0  0
  151.9367  141.8358  161.8636 H   0  0  0  0  0  0  0  0  0  0  0  0
  153.6664  142.3061  162.2684 H   0  0  0  0  0  0  0  0  0  0  0  0
  153.7674  143.7780  160.2655 H   0  0  0  0  0  0  0  0  0  0  0  0
  150.8587  142.8618  159.7827 H   0  0  0  0  0  0  0  0  0  0  0  0
  151.8101  143.8221  158.6386 H   0  0  0  0  0  0  0  0  0  0  0  0
  151.3659  144.4998  160.2115 H   0  0  0  0  0  0  0  0  0  0  0  0
  153.3166  141.1781  157.6031 H   0  0  0  0  0  0  0  0  0  0  0  0
  151.9860  142.1669  158.1439 H   0  0  0  0  0  0  0  0  0  0  0  0
  1  2  1  0  0  0  0
  1 30  1  0  0  0  0
  1 31  1  0  0  0  0
  1 32  1  0  0  0  0
  2 29  1  0  0  0  0
  2  3  1  0  0  0  0
  2 33  1  0  0  0  0
  3  4  1  0  0  0  0
  3 34  1  0  0  0  0
  3 35  1  0  0  0  0
  4  5  1  0  0  0  0
  4 22  1  0  0  0  0
  5 10  1  0  0  0  0
  5  6  2  0  0  0  0
  6  7  1  0  0  0  0
  7  8  2  0  0  0  0
  7 36  1  0  0  0  0
  8  9  1  0  0  0  0
  9 13  1  0  0  0  0
  9 10  2  0  0  0  0
 10 11  1  0  0  0  0
 11 12  2  0  0  0  0
 12 13  1  0  0  0  0
 12 37  1  0  0  0  0
 13 14  1  0  0  0  0
 14 15  1  0  0  0  0
 14 38  1  0  0  0  0
 14 39  1  0  0  0  0
 15 21  1  0  0  0  0
 15 16  1  0  0  0  0
 15 17  1  0  0  0  0
 16 40  1  0  0  0  0
 17 18  1  0  0  0  0
 17 41  1  0  0  0  0
 17 42  1  0  0  0  0
 18 19  1  0  0  0  0
 18 43  1  0  0  0  0
 18 44  1  0  0  0  0
 19 20  1  0  0  0  0
 20 21  1  0  0  0  0
 20 45  1  0  0  0  0
 20 46  1  0  0  0  0
 21 47  1  0  0  0  0
 21 48  1  0  0  0  0
 22 23  1  0  0  0  0
 22 49  1  0  0  0  0
 22 50  1  0  0  0  0
 23 24  1  0  0  0  0
 23 51  1  0  0  0  0
 23 52  1  0  0  0  0
 24 25  1  0  0  0  0
 24 29  1  0  0  0  0
 25 27  1  0  0  0  0
 25 26  1  0  0  0  0
 25 53  1  0  0  0  0
 26 27  1  0  0  0  0
 26 54  1  0  0  0  0
 26 55  1  0  0  0  0
 27 28  1  0  0  0  0
 27 56  1  0  0  0  0
 28 57  1  0  0  0  0
 28 58  1  0  0  0  0
 28 59  1  0  0  0  0
 29 60  1  0  0  0  0
 29 61  1  0  0  0  0
M  END
> <s_m_source_file>
AV-unprocessed.smi

> <i_m_source_file_index>
193

> <i_lp_mmshare_version>
43012

> <i_f3d_flags>
0

> <s_epik_input>
W0NIM11bQ0BASF0xW0NIMl1bQ0BIXTFOKFtDSDJdMilbQ0gyXVtDSDJdTihbQ0gyXVtDQEhdMltDSDNdKWMobltjSF1uMyljKGMzNCluW2NIXW40W0NIMl1DNShbT0hdKVtDSDJdW0NIMl1PW0NIMl1bQ0gyXTU=

> <s_epik_cmdline>
J2VwaWtfcHl0aG9uJywgJy1waCcsICc3LjAnLCAnLXRuJywgJzgnLCAnLW1hJywgJzIwMCcsICctbWV0YWxfYmluZGluZycsICctaW1hZScsICc8aW5maWxlLm1hZT4nLCAnLW9tYWUnLCAnPG91dGZpbGUubWFlPic=

> <r_lp_tautomer_probability>
1

> <r_epik_Ionization_Penalty>
1.45227

> <r_epik_Ionization_Penalty_Charging>
0

> <r_epik_Ionization_Penalty_Neutral>
1.45227

> <r_epik_State_Penalty>
2.02377

> <r_epik_Charging_Adjusted_Penalty>
2.02377

> <i_epik_Tot_Q>
0

> <i_epik_Tot_abs_Q>
0

> <r_epik_Metal_State_Penalty>
2.01937

> <b_epik_Metal_Only>
0

> <s_lp_Force_Field>
OPLS_2005

> <r_lp_Energy>
53.149

> <b_lp_Chiralities_Consistent>
1

> <s_lp_Variant>
AV-unprocessed.smi:193-22

> <Gold.Version>
5.8.1

> <Gold.Id.Protein>
6NUR|6NUR_protein|mol2

> <Gold.PLP.Fitness>
45.9601

> <Gold.PLP.PLP>
-43.7588

> <Gold.PLP.part.hbond>
-1.0000

> <Gold.PLP.part.metal>
0.0000

> <Gold.PLP.part.buried>
-5.6292

> <Gold.PLP.part.nonpolar>
-35.8579

> <Gold.PLP.part.repulsive>
0.1919

> <Gold.PLP.ligand.clash>
0.0000

> <Gold.PLP.ligand.torsion>
1.8807

> <Gold.PLP.Chemscore.Hbond>
0.7500

> <Gold.PLP.Chemscore.CHOScore>
0.6702

> <Gold.PLP.Chemscore.Metal>
0.0000

> <Gold.Chemscore.Hbonds>
donor molecule, donor type, donor heavy atom, donor atom, acceptor molecule, acceptor atom, score
      P1  H 10752 10765       L1    11  0.70
      L1  C    12    37       P1  7949  0.65

> <Gold.PLP.Chemscore.Internal.Correction>
1.7021

> <Gold.Rescore>
     Score         DG    S(hbond)    S(metal)    S(lipo)     H(rot)  DE(clash)    DE(int)     intcor
     12.86     -14.70       0.61        0.00     108.96       2.17       0.02       1.82       ----

> <Gold.Chemscore.Fitness>
12.8622

> <Gold.Chemscore.DG>
-14.7043

> <Gold.Chemscore.ZeroCoef>
-5.4800

> <Gold.Chemscore.Hbond>
0.6053

> <Gold.Chemscore.Metal>
0.0000

> <Gold.Chemscore.Lipo>
108.9614

> <Gold.Chemscore.Internal_Hbond>
0.0000

> <Gold.Chemscore.DEClash>
0.0203

> <Gold.Chemscore.DEInternal>
1.8217

> <Gold.Chemscore.Rot>
2.1664

> <Gold.Chemscore.Internal.Correction>
   9.000000E+99

> <Gold.Chemscore.Hbonds>
donor molecule, donor type, donor heavy atom, donor atom, acceptor molecule, acceptor atom, score
      P1  H 10752 10765       L1    11  0.07

> <Gold.Chemscore.Hbond.Weighted>
-2.0217

> <Gold.Chemscore.Metal.Weighted>
-0.0000

> <Gold.Chemscore.Lipo.Weighted>
-12.7485

> <Gold.Chemscore.Internal_Hbond.Weighted>
0.0000

> <Gold.Chemscore.DEClash.Weighted>
0.0203

> <Gold.Chemscore.DEInternal.Weighted>
1.8217

> <Gold.Chemscore.Rot.Weighted>
5.5459

> <Gold.Chemscore.Internal.Correction.Weighted>
   9.000000E+99

> <Gold.Protein.RotatedTorsions>
[ 6907 6896 6895 6894 ] final -100.93 input  -60.11 | X-H torsion
[ 7974 7965 7964 7962 ] final  151.08 input  175.53 | X-H torsion
[ 8008 7997 7996 7995 ] final   -4.67 input   59.86 | X-H torsion
[ 10167 10162 10161 10158 ] final -109.43 input  -65.29 | X-H torsion
[ 10718 10713 10712 10709 ] final  -10.87 input   66.30 | X-H torsion
[ 10763 10752 10751 10750 ] final -160.39 input  -60.55 | X-H torsion
[ 11005 11000 10999 10996 ] final -146.38 input  -57.11 | X-H torsion

> <Gold.Protein.ActiveResidues>
 VAL166  LYS551  ARG553  GLY616  TRP617  ASP618  TYR619  PRO620  LYS621  CYS622 
 ASP623  PHE694  ASN695  SER759  ASP760  ASP761  ALA762  ILE779  LEU786  VAL792 
 PHE793  MET794  SER795  GLU796  ALA797  LYS798  CYS799  TRP800  GLU811  SER814 

> <Gold.Protein.RotatedAtoms>
  150.7135  134.0812  159.3898 H   0  0  0  0  0  0  0  0  0  0  0  0  # atno 6907 bound_to 6896
  151.8796  135.0456  160.0497 H   0  0  0  0  0  0  0  0  0  0  0  0  # atno 6908 bound_to 6896
  152.2578  133.5235  159.5400 H   0  0  0  0  0  0  0  0  0  0  0  0  # atno 6909 bound_to 6896
  144.8318  139.6492  143.6055 H   0  0  0  0  0  0  0  0  0  0  0  0  # atno 7974 bound_to 7965
  154.6119  140.2478  155.7658 H   0  0  0  0  0  0  0  0  0  0  0  0  # atno 8008 bound_to 7997
  156.2375  140.2944  156.0304 H   0  0  0  0  0  0  0  0  0  0  0  0  # atno 8009 bound_to 7997
  155.2038  140.0395  157.2912 H   0  0  0  0  0  0  0  0  0  0  0  0  # atno 8010 bound_to 7997
  140.1553  143.4165  152.1465 H   0  0  0  0  0  0  0  0  0  0  0  0  # atno 10167 bound_to 10162
  156.6673  130.4999  149.6011 H   0  0  0  0  0  0  0  0  0  0  0  0  # atno 10718 bound_to 10713
  154.7394  135.3065  154.8754 H   0  0  0  0  0  0  0  0  0  0  0  0  # atno 10763 bound_to 10752
  153.9573  135.6757  153.4749 H   0  0  0  0  0  0  0  0  0  0  0  0  # atno 10764 bound_to 10752
  153.0994  135.4919  154.8764 H   0  0  0  0  0  0  0  0  0  0  0  0  # atno 10765 bound_to 10752
  140.7826  134.3062  157.5040 H   0  0  0  0  0  0  0  0  0  0  0  0  # atno 11005 bound_to 11000
  146.2620  139.6432  142.9355 LP  0  0  0  0  0  0  0  0  0  0  0  0  # atno 17320 bound_to 7965
  145.4880  141.0438  143.2609 LP  0  0  0  0  0  0  0  0  0  0  0  0  # atno 17321 bound_to 7965
  139.5406  144.7253  151.4746 LP  0  0  0  0  0  0  0  0  0  0  0  0  # atno 17342 bound_to 10162
  140.6677  143.8363  150.6961 LP  0  0  0  0  0  0  0  0  0  0  0  0  # atno 17343 bound_to 10162
  156.1965  130.6593  151.1120 LP  0  0  0  0  0  0  0  0  0  0  0  0  # atno 17370 bound_to 10713
  157.7089  131.0743  150.6570 LP  0  0  0  0  0  0  0  0  0  0  0  0  # atno 17371 bound_to 10713
  139.8741  134.9327  156.3561 LP  0  0  0  0  0  0  0  0  0  0  0  0  # atno 17394 bound_to 11000
  140.9468  133.7477  156.0219 LP  0  0  0  0  0  0  0  0  0  0  0  0  # atno 17395 bound_to 11000

$$$$
