AV-unprocessed.smi:1082|AV-procd|sdf|4713|dock9
  -GOLD-   22720 3243D 1   1.00000     0.00000
 Structure written by MMmdl.
 49 51  0  0  0  0  0  0  0  0  3 V2000
  144.9680  137.8554  153.9480 O   0  0  0  0  0  0  0  0  0  0  0  0
  145.1649  137.7175  152.7410 C   0  0  0  0  0  0  0  0  0  0  0  0
  146.0497  138.4475  152.0494 N   0  0  0  0  0  0  0  0  0  0  0  0
  146.8835  139.4925  152.6278 C   0  0  0  0  0  0  0  0  0  0  0  0
  148.0563  138.8752  153.4061 C   0  0  0  0  0  0  0  0  0  0  0  0
  149.1855  139.8215  153.5698 N   0  3  0  0  0  0  0  0  0  0  0  0
  148.7907  141.1504  154.0979 C   0  0  0  0  0  0  0  0  0  0  0  0
  149.7568  141.4827  155.2408 C   0  0  0  0  0  0  0  0  0  0  0  0
  150.9521  140.5708  154.9949 C   0  0  0  0  0  0  0  0  0  0  0  0
  150.3040  139.3239  154.4017 C   0  0  0  0  0  0  0  0  0  0  0  0
  144.5216  136.8474  151.9447 N   0  0  0  0  0  0  0  0  0  0  0  0
  143.4910  135.9303  152.2971 C   0  0  0  0  0  0  0  0  0  0  0  0
  142.4466  136.2625  153.1974 C   0  0  0  0  0  0  0  0  0  0  0  0
  141.4689  135.3000  153.5185 C   0  0  0  0  0  0  0  0  0  0  0  0
  141.5529  134.0188  152.9423 C   0  0  0  0  0  0  0  0  0  0  0  0
  142.5668  133.7293  152.1002 N   0  3  0  0  0  0  0  0  0  0  0  0
  143.5337  134.6177  151.7621 C   0  0  0  0  0  0  0  0  0  0  0  0
  144.5431  134.2117  150.8718 N   0  0  0  0  0  0  0  0  0  0  0  0
  145.7048  133.5909  151.5023 C   0  0  0  0  0  0  0  0  0  0  0  0
  146.1783  132.5020  150.5401 C   0  0  0  0  0  0  0  0  0  0  0  0
  144.8813  132.0566  149.8774 C   0  0  0  0  0  0  0  0  0  0  0  0
  144.0847  133.3584  149.7793 C   0  0  0  0  0  0  0  0  0  0  0  0
  146.1483  138.2737  151.0597 H   0  0  0  0  0  0  0  0  0  0  0  0
  147.2495  140.1344  151.8251 H   0  0  0  0  0  0  0  0  0  0  0  0
  146.2795  140.1146  153.2905 H   0  0  0  0  0  0  0  0  0  0  0  0
  147.7059  138.5809  154.3967 H   0  0  0  0  0  0  0  0  0  0  0  0
  148.4080  137.9668  152.9140 H   0  0  0  0  0  0  0  0  0  0  0  0
  148.8817  141.8797  153.2924 H   0  0  0  0  0  0  0  0  0  0  0  0
  147.7570  141.1729  154.4466 H   0  0  0  0  0  0  0  0  0  0  0  0
  150.0283  142.5383  155.2723 H   0  0  0  0  0  0  0  0  0  0  0  0
  149.2955  141.2287  156.1961 H   0  0  0  0  0  0  0  0  0  0  0  0
  151.6247  141.0261  154.2666 H   0  0  0  0  0  0  0  0  0  0  0  0
  151.5230  140.3627  155.9002 H   0  0  0  0  0  0  0  0  0  0  0  0
  149.9191  138.6976  155.2084 H   0  0  0  0  0  0  0  0  0  0  0  0
  151.0066  138.7278  153.8185 H   0  0  0  0  0  0  0  0  0  0  0  0
  144.7250  136.9123  150.9581 H   0  0  0  0  0  0  0  0  0  0  0  0
  142.3857  137.2365  153.6588 H   0  0  0  0  0  0  0  0  0  0  0  0
  140.6676  135.5411  154.2016 H   0  0  0  0  0  0  0  0  0  0  0  0
  140.8491  133.2213  153.1321 H   0  0  0  0  0  0  0  0  0  0  0  0
  146.4868  134.3291  151.6821 H   0  0  0  0  0  0  0  0  0  0  0  0
  145.4420  133.1490  152.4647 H   0  0  0  0  0  0  0  0  0  0  0  0
  146.8480  132.9298  149.7924 H   0  0  0  0  0  0  0  0  0  0  0  0
  146.7045  131.6894  151.0419 H   0  0  0  0  0  0  0  0  0  0  0  0
  145.0363  131.5792  148.9096 H   0  0  0  0  0  0  0  0  0  0  0  0
  144.3594  131.3500  150.5244 H   0  0  0  0  0  0  0  0  0  0  0  0
  143.0097  133.1730  149.8010 H   0  0  0  0  0  0  0  0  0  0  0  0
  144.3083  133.8658  148.8404 H   0  0  0  0  0  0  0  0  0  0  0  0
  149.5670  139.9949  152.6505 H   0  0  0  0  0  0  0  0  0  0  0  0
  142.6080  132.7922  151.6988 H   0  0  0  0  0  0  0  0  0  0  0  0
  1  2  2  0  0  0  0
  2  3  1  0  0  0  0
  2 11  1  0  0  0  0
  3  4  1  0  0  0  0
  3 23  1  0  0  0  0
  4  5  1  0  0  0  0
  4 24  1  0  0  0  0
  4 25  1  0  0  0  0
  5  6  1  0  0  0  0
  5 26  1  0  0  0  0
  5 27  1  0  0  0  0
  6 10  1  0  0  0  0
  6  7  1  0  0  0  0
  6 48  1  0  0  0  0
  7  8  1  0  0  0  0
  7 28  1  0  0  0  0
  7 29  1  0  0  0  0
  8  9  1  0  0  0  0
  8 30  1  0  0  0  0
  8 31  1  0  0  0  0
  9 10  1  0  0  0  0
  9 32  1  0  0  0  0
  9 33  1  0  0  0  0
 10 34  1  0  0  0  0
 10 35  1  0  0  0  0
 11 12  1  0  0  0  0
 11 36  1  0  0  0  0
 12 17  1  0  0  0  0
 12 13  2  0  0  0  0
 13 14  1  0  0  0  0
 13 37  1  0  0  0  0
 14 15  2  0  0  0  0
 14 38  1  0  0  0  0
 15 16  1  0  0  0  0
 15 39  1  0  0  0  0
 16 17  2  0  0  0  0
 16 49  1  0  0  0  0
 17 18  1  0  0  0  0
 18 22  1  0  0  0  0
 18 19  1  0  0  0  0
 19 20  1  0  0  0  0
 19 40  1  0  0  0  0
 19 41  1  0  0  0  0
 20 21  1  0  0  0  0
 20 42  1  0  0  0  0
 20 43  1  0  0  0  0
 21 22  1  0  0  0  0
 21 44  1  0  0  0  0
 21 45  1  0  0  0  0
 22 46  1  0  0  0  0
 22 47  1  0  0  0  0
M  CHG  1   6   1
M  CHG  1  16   1
M  END
> <s_m_source_file>
AV-unprocessed.smi

> <i_m_source_file_index>
1082

> <i_lp_mmshare_version>
43012

> <i_f3d_flags>
0

> <s_epik_input>
W0NIMl0xW0NIMl1bQ0gyXVtDSDJdTjFbQ0gyXVtDSDJdW05IXUMoPU8pW05IXWMyW2NIXVtjSF1bY0hdbmMyTjNbQ0gyXVtDSDJdW0NIMl1bQ0gyXTM=

> <s_epik_cmdline>
J2VwaWtfcHl0aG9uJywgJy1waCcsICc3LjAnLCAnLXRuJywgJzgnLCAnLW1hJywgJzIwMCcsICctbWV0YWxfYmluZGluZycsICctaW1hZScsICc8aW5maWxlLm1hZT4nLCAnLW9tYWUnLCAnPG91dGZpbGUubWFlPic=

> <r_lp_tautomer_probability>
0.999994

> <r_epik_Ionization_Penalty>
1.21588

> <r_epik_Ionization_Penalty_Charging>
1.21586

> <r_epik_Ionization_Penalty_Neutral>
1.99004e-05

> <r_epik_State_Penalty>
1.28011

> <r_epik_Charging_Adjusted_Penalty>
2.49596

> <i_epik_Tot_Q>
2

> <i_epik_Tot_abs_Q>
2

> <r_epik_Metal_State_Penalty>
1.35385

> <b_epik_Metal_Only>
0

> <s_lp_Force_Field>
OPLS_2005

> <r_lp_Energy>
65.6653

> <b_lp_Chiralities_Consistent>
1

> <s_lp_Variant>
AV-unprocessed.smi:1082-2

> <Gold.Version>
5.8.1

> <Gold.Id.Protein>
6NUR|6NUR_protein|mol2

> <Gold.PLP.Fitness>
43.6812

> <Gold.PLP.PLP>
-42.4688

> <Gold.PLP.part.hbond>
-4.3046

> <Gold.PLP.part.metal>
0.0000

> <Gold.PLP.part.buried>
-3.0625

> <Gold.PLP.part.nonpolar>
-36.8601

> <Gold.PLP.part.repulsive>
0.4676

> <Gold.PLP.ligand.clash>
0.0000

> <Gold.PLP.ligand.torsion>
1.2395

> <Gold.PLP.Chemscore.Hbond>
1.1966

> <Gold.PLP.Chemscore.CHOScore>
0.0000

> <Gold.PLP.Chemscore.Metal>
0.0000

> <Gold.Chemscore.Hbonds>
donor molecule, donor type, donor heavy atom, donor atom, acceptor molecule, acceptor atom, score
      L1  H     6    48       P1  7957  0.89
      L1  H    11    36       P1 10171  0.22

> <Gold.PLP.Chemscore.Internal.Correction>
0.1018

> <Gold.Rescore>
     Score         DG    S(hbond)    S(metal)    S(lipo)     H(rot)  DE(clash)    DE(int)     intcor
     14.78     -17.14       1.28        0.00      98.84       1.63       0.30       2.07       ----

> <Gold.Chemscore.Fitness>
14.7750

> <Gold.Chemscore.DG>
-17.1378

> <Gold.Chemscore.ZeroCoef>
-5.4800

> <Gold.Chemscore.Hbond>
1.2790

> <Gold.Chemscore.Metal>
0.0000

> <Gold.Chemscore.Lipo>
98.8432

> <Gold.Chemscore.Internal_Hbond>
0.0000

> <Gold.Chemscore.DEClash>
0.2951

> <Gold.Chemscore.DEInternal>
2.0676

> <Gold.Chemscore.Rot>
1.6323

> <Gold.Chemscore.Internal.Correction>
   9.000000E+99

> <Gold.Chemscore.Hbonds>
donor molecule, donor type, donor heavy atom, donor atom, acceptor molecule, acceptor atom, score
      L1  H     6    48       P1  7957  0.86
      L1  H    11    36       P1 10171  0.22

> <Gold.Chemscore.Hbond.Weighted>
-4.2717

> <Gold.Chemscore.Metal.Weighted>
-0.0000

> <Gold.Chemscore.Lipo.Weighted>
-11.5647

> <Gold.Chemscore.Internal_Hbond.Weighted>
0.0000

> <Gold.Chemscore.DEClash.Weighted>
0.2951

> <Gold.Chemscore.DEInternal.Weighted>
2.0676

> <Gold.Chemscore.Rot.Weighted>
4.1786

> <Gold.Chemscore.Internal.Correction.Weighted>
   9.000000E+99

> <Gold.Protein.RotatedTorsions>
[ 6907 6896 6895 6894 ] final  -55.14 input  -60.11 | X-H torsion
[ 7974 7965 7964 7962 ] final  -84.69 input  175.53 | X-H torsion
[ 8008 7997 7996 7995 ] final  -62.12 input   59.86 | X-H torsion
[ 10167 10162 10161 10158 ] final   76.99 input  -65.29 | X-H torsion
[ 10718 10713 10712 10709 ] final  168.45 input   66.30 | X-H torsion
[ 10763 10752 10751 10750 ] final -127.80 input  -60.55 | X-H torsion
[ 11005 11000 10999 10996 ] final  -31.09 input  -57.11 | X-H torsion

> <Gold.Protein.ActiveResidues>
 VAL166  LYS551  ARG553  GLY616  TRP617  ASP618  TYR619  PRO620  LYS621  CYS622 
 ASP623  PHE694  ASN695  SER759  ASP760  ASP761  ALA762  ILE779  LEU786  VAL792 
 PHE793  MET794  SER795  GLU796  ALA797  LYS798  CYS799  TRP800  GLU811  SER814 

> <Gold.Protein.RotatedAtoms>
  150.8277  134.7515  159.6826 H   0  0  0  0  0  0  0  0  0  0  0  0  # atno 6907 bound_to 6896
  152.4385  134.5634  159.9910 H   0  0  0  0  0  0  0  0  0  0  0  0  # atno 6908 bound_to 6896
  151.5803  133.3341  159.3043 H   0  0  0  0  0  0  0  0  0  0  0  0  # atno 6909 bound_to 6896
  145.5032  140.9545  143.1748 H   0  0  0  0  0  0  0  0  0  0  0  0  # atno 7974 bound_to 7965
  154.4483  140.1003  156.6537 H   0  0  0  0  0  0  0  0  0  0  0  0  # atno 8008 bound_to 7997
  155.5369  140.3482  155.4420 H   0  0  0  0  0  0  0  0  0  0  0  0  # atno 8009 bound_to 7997
  156.0624  140.1329  156.9914 H   0  0  0  0  0  0  0  0  0  0  0  0  # atno 8010 bound_to 7997
  139.9863  144.5790  150.7856 H   0  0  0  0  0  0  0  0  0  0  0  0  # atno 10167 bound_to 10162
  157.0369  131.0275  151.2726 H   0  0  0  0  0  0  0  0  0  0  0  0  # atno 10718 bound_to 10713
  154.8754  135.3950  154.3653 H   0  0  0  0  0  0  0  0  0  0  0  0  # atno 10763 bound_to 10752
  153.4420  135.7027  153.6168 H   0  0  0  0  0  0  0  0  0  0  0  0  # atno 10764 bound_to 10752
  153.4745  135.3783  155.2378 H   0  0  0  0  0  0  0  0  0  0  0  0  # atno 10765 bound_to 10752
  140.9438  133.7262  156.1116 H   0  0  0  0  0  0  0  0  0  0  0  0  # atno 11005 bound_to 11000
  144.7768  139.6612  143.7171 LP  0  0  0  0  0  0  0  0  0  0  0  0  # atno 17320 bound_to 7965
  146.2213  139.5641  142.9616 LP  0  0  0  0  0  0  0  0  0  0  0  0  # atno 17321 bound_to 7965
  140.7471  143.2901  151.3355 LP  0  0  0  0  0  0  0  0  0  0  0  0  # atno 17342 bound_to 10162
  139.6372  144.0607  152.2526 LP  0  0  0  0  0  0  0  0  0  0  0  0  # atno 17343 bound_to 10162
  157.5135  130.7953  149.7730 LP  0  0  0  0  0  0  0  0  0  0  0  0  # atno 17370 bound_to 10713
  156.0051  130.3860  150.2461 LP  0  0  0  0  0  0  0  0  0  0  0  0  # atno 17371 bound_to 10713
  140.7697  134.3847  157.5510 LP  0  0  0  0  0  0  0  0  0  0  0  0  # atno 17394 bound_to 11000
  139.8828  134.9014  156.2810 LP  0  0  0  0  0  0  0  0  0  0  0  0  # atno 17395 bound_to 11000

$$$$
