AV-unprocessed.smi:3207|AV-procd|sdf|12259|dock2
  -GOLD-   2272018 93D 1   1.00000     0.00000
 Structure written by MMmdl.
 32 33  0  0  0  0  0  0  0  0  1 V2000
  154.5010  140.8968  160.9577 C   0  0  0  0  0  0  0  0  0  0  0  0
  153.1107  141.2366  160.4008 C   0  0  1  0  0  0  0  0  0  0  0  0
  153.0244  142.6554  160.2989 O   0  0  0  0  0  0  0  0  0  0  0  0
  152.0274  143.2654  161.1093 C   0  0  0  0  0  0  0  0  0  0  0  0
  151.7939  144.6758  160.6134 C   0  0  0  0  0  0  0  0  0  0  0  0
  150.5370  145.0169  159.8456 C   0  0  0  0  0  0  0  0  0  0  0  0
  151.8677  144.9944  159.1373 C   0  0  0  0  0  0  0  0  0  0  0  0
  152.8851  140.5869  159.0257 C   0  0  0  0  0  0  0  0  0  0  0  0
  153.6451  139.6984  158.6413 O   0  0  0  0  0  0  0  0  0  0  0  0
  151.8580  141.0838  158.3114 N   0  0  0  0  0  0  0  0  0  0  0  0
  151.3990  140.7150  157.0177 C   0  0  0  0  0  0  0  0  0  0  0  0
  152.1155  139.7095  156.3362 C   0  0  0  0  0  0  0  0  0  0  0  0
  151.6955  139.3307  155.0457 C   0  0  0  0  0  0  0  0  0  0  0  0
  150.6396  139.8875  154.4164 N   0  0  0  0  0  0  0  0  0  0  0  0
  149.9616  140.8581  155.0646 C   0  0  0  0  0  0  0  0  0  0  0  0
  150.2978  141.3110  156.3562 C   0  0  0  0  0  0  0  0  0  0  0  0
  154.6367  139.8190  161.0525 H   0  0  0  0  0  0  0  0  0  0  0  0
  154.6374  141.3336  161.9472 H   0  0  0  0  0  0  0  0  0  0  0  0
  155.2959  141.2807  160.3170 H   0  0  0  0  0  0  0  0  0  0  0  0
  152.3613  140.8793  161.1102 H   0  0  0  0  0  0  0  0  0  0  0  0
  151.0887  142.7110  161.0784 H   0  0  0  0  0  0  0  0  0  0  0  0
  152.3580  143.3073  162.1479 H   0  0  0  0  0  0  0  0  0  0  0  0
  152.1576  145.4464  161.2903 H   0  0  0  0  0  0  0  0  0  0  0  0
  149.8399  144.2098  159.6284 H   0  0  0  0  0  0  0  0  0  0  0  0
  150.0830  145.9880  160.0320 H   0  0  0  0  0  0  0  0  0  0  0  0
  152.3032  145.9500  158.8521 H   0  0  0  0  0  0  0  0  0  0  0  0
  152.0586  144.1720  158.4505 H   0  0  0  0  0  0  0  0  0  0  0  0
  151.3714  141.8615  158.7329 H   0  0  0  0  0  0  0  0  0  0  0  0
  152.9703  139.2307  156.7913 H   0  0  0  0  0  0  0  0  0  0  0  0
  152.2243  138.5605  154.5041 H   0  0  0  0  0  0  0  0  0  0  0  0
  149.1275  141.2933  154.5345 H   0  0  0  0  0  0  0  0  0  0  0  0
  149.7162  142.1047  156.7978 H   0  0  0  0  0  0  0  0  0  0  0  0
  1  2  1  0  0  0  0
  1 17  1  0  0  0  0
  1 18  1  0  0  0  0
  1 19  1  0  0  0  0
  2  3  1  0  0  0  0
  2  8  1  0  0  0  0
  2 20  1  0  0  0  0
  3  4  1  0  0  0  0
  4  5  1  0  0  0  0
  4 21  1  0  0  0  0
  4 22  1  0  0  0  0
  5  7  1  0  0  0  0
  5  6  1  0  0  0  0
  5 23  1  0  0  0  0
  6  7  1  0  0  0  0
  6 24  1  0  0  0  0
  6 25  1  0  0  0  0
  7 26  1  0  0  0  0
  7 27  1  0  0  0  0
  8  9  2  0  0  0  0
  8 10  1  0  0  0  0
 10 11  1  0  0  0  0
 10 28  1  0  0  0  0
 11 16  1  0  0  0  0
 11 12  2  0  0  0  0
 12 13  1  0  0  0  0
 12 29  1  0  0  0  0
 13 14  2  0  0  0  0
 13 30  1  0  0  0  0
 14 15  1  0  0  0  0
 15 16  2  0  0  0  0
 15 31  1  0  0  0  0
 16 32  1  0  0  0  0
M  END
> <s_m_source_file>
AV-unprocessed.smi

> <i_m_source_file_index>
3207

> <i_lp_mmshare_version>
43012

> <i_f3d_flags>
0

> <s_epik_input>
W0NIMl0xW0NIMl1bQ0hdMVtDSDJdT1tDQEBIXShbQ0gzXSlDKD1PKVtOSF1jMltjSF1bY0hdbltjSF1bY0hdMg==

> <s_epik_cmdline>
J2VwaWtfcHl0aG9uJywgJy1waCcsICc3LjAnLCAnLXRuJywgJzgnLCAnLW1hJywgJzIwMCcsICctbWV0YWxfYmluZGluZycsICctaW1hZScsICc8aW5maWxlLm1hZT4nLCAnLW9tYWUnLCAnPG91dGZpbGUubWFlPic=

> <r_epik_Ionization_Penalty>
0.00446435

> <r_epik_Ionization_Penalty_Charging>
0

> <r_epik_Ionization_Penalty_Neutral>
0.00446435

> <r_epik_State_Penalty>
0.00321941

> <r_epik_Charging_Adjusted_Penalty>
0.00321941

> <i_epik_Tot_Q>
0

> <i_epik_Tot_abs_Q>
0

> <r_epik_Metal_State_Penalty>
-0

> <b_epik_Metal_Only>
0

> <s_lp_Force_Field>
OPLS_2005

> <r_lp_Energy>
19.7696

> <b_lp_Chiralities_Consistent>
1

> <s_lp_Variant>
AV-unprocessed.smi:3207-2

> <Gold.Version>
5.8.1

> <Gold.Id.Protein>
6NUR|6NUR_protein|mol2

> <Gold.PLP.Fitness>
42.2742

> <Gold.PLP.PLP>
-40.1766

> <Gold.PLP.part.hbond>
-2.0000

> <Gold.PLP.part.metal>
0.0000

> <Gold.PLP.part.buried>
-2.8806

> <Gold.PLP.part.nonpolar>
-34.2165

> <Gold.PLP.part.repulsive>
0.2013

> <Gold.PLP.ligand.clash>
0.0000

> <Gold.PLP.ligand.torsion>
1.6353

> <Gold.PLP.Chemscore.Hbond>
1.6000

> <Gold.PLP.Chemscore.CHOScore>
0.0000

> <Gold.PLP.Chemscore.Metal>
0.0000

> <Gold.Chemscore.Hbonds>
donor molecule, donor type, donor heavy atom, donor atom, acceptor molecule, acceptor atom, score
      P1  H  7989  7998       L1    14  0.54
      P1  H  7997  8010       L1     9  0.99

> <Gold.PLP.Chemscore.Internal.Correction>
0.5682

> <Gold.Rescore>
     Score         DG    S(hbond)    S(metal)    S(lipo)     H(rot)  DE(clash)    DE(int)     intcor
     13.83     -16.75       0.98        0.00     100.72       1.48       0.03       2.89       ----

> <Gold.Chemscore.Fitness>
13.8297

> <Gold.Chemscore.DG>
-16.7535

> <Gold.Chemscore.ZeroCoef>
-5.4800

> <Gold.Chemscore.Hbond>
0.9818

> <Gold.Chemscore.Metal>
0.0000

> <Gold.Chemscore.Lipo>
100.7250

> <Gold.Chemscore.Internal_Hbond>
0.0000

> <Gold.Chemscore.DEClash>
0.0339

> <Gold.Chemscore.DEInternal>
2.8899

> <Gold.Chemscore.Rot>
1.4807

> <Gold.Chemscore.Internal.Correction>
   9.000000E+99

> <Gold.Chemscore.Hbonds>
donor molecule, donor type, donor heavy atom, donor atom, acceptor molecule, acceptor atom, score
      P1  H  7989  7998       L1    14  0.01
      P1  H  7997  8010       L1     9  0.92

> <Gold.Chemscore.Hbond.Weighted>
-3.2792

> <Gold.Chemscore.Metal.Weighted>
-0.0000

> <Gold.Chemscore.Lipo.Weighted>
-11.7848

> <Gold.Chemscore.Internal_Hbond.Weighted>
0.0000

> <Gold.Chemscore.DEClash.Weighted>
0.0339

> <Gold.Chemscore.DEInternal.Weighted>
2.8899

> <Gold.Chemscore.Rot.Weighted>
3.7905

> <Gold.Chemscore.Internal.Correction.Weighted>
   9.000000E+99

> <Gold.Protein.RotatedTorsions>
[ 6907 6896 6895 6894 ] final -128.32 input  -60.11 | X-H torsion
[ 7974 7965 7964 7962 ] final  -41.53 input  175.53 | X-H torsion
[ 8008 7997 7996 7995 ] final    5.72 input   59.86 | X-H torsion
[ 10167 10162 10161 10158 ] final  -76.01 input  -65.29 | X-H torsion
[ 10718 10713 10712 10709 ] final   37.31 input   66.30 | X-H torsion
[ 10763 10752 10751 10750 ] final  -42.30 input  -60.55 | X-H torsion
[ 11005 11000 10999 10996 ] final -120.48 input  -57.11 | X-H torsion

> <Gold.Protein.ActiveResidues>
 VAL166  LYS551  ARG553  GLY616  TRP617  ASP618  TYR619  PRO620  LYS621  CYS622 
 ASP623  PHE694  ASN695  SER759  ASP760  ASP761  ALA762  ILE779  LEU786  VAL792 
 PHE793  MET794  SER795  GLU796  ALA797  LYS798  CYS799  TRP800  GLU811  SER814 

> <Gold.Protein.RotatedAtoms>
  150.9167  133.6931  159.2841 H   0  0  0  0  0  0  0  0  0  0  0  0  # atno 6907 bound_to 6896
  151.4399  135.1018  159.9677 H   0  0  0  0  0  0  0  0  0  0  0  0  # atno 6908 bound_to 6896
  152.4958  133.8577  159.7289 H   0  0  0  0  0  0  0  0  0  0  0  0  # atno 6909 bound_to 6896
  146.0202  140.6858  142.9182 H   0  0  0  0  0  0  0  0  0  0  0  0  # atno 7974 bound_to 7965
  154.7319  140.2732  155.6448 H   0  0  0  0  0  0  0  0  0  0  0  0  # atno 8008 bound_to 7997
  156.2852  140.2714  156.1947 H   0  0  0  0  0  0  0  0  0  0  0  0  # atno 8009 bound_to 7997
  155.0370  140.0371  157.2485 H   0  0  0  0  0  0  0  0  0  0  0  0  # atno 8010 bound_to 7997
  140.4894  143.2384  151.7932 H   0  0  0  0  0  0  0  0  0  0  0  0  # atno 10167 bound_to 10162
  157.3454  130.7570  149.6941 H   0  0  0  0  0  0  0  0  0  0  0  0  # atno 10718 bound_to 10713
  153.9767  135.6722  153.4748 H   0  0  0  0  0  0  0  0  0  0  0  0  # atno 10763 bound_to 10752
  153.0767  135.4945  154.8416 H   0  0  0  0  0  0  0  0  0  0  0  0  # atno 10764 bound_to 10752
  154.7188  135.3112  154.9042 H   0  0  0  0  0  0  0  0  0  0  0  0  # atno 10765 bound_to 10752
  141.0140  134.0222  157.3374 H   0  0  0  0  0  0  0  0  0  0  0  0  # atno 11005 bound_to 11000
  144.6987  140.3553  143.7174 LP  0  0  0  0  0  0  0  0  0  0  0  0  # atno 17320 bound_to 7965
  145.7204  139.1708  143.2487 LP  0  0  0  0  0  0  0  0  0  0  0  0  # atno 17321 bound_to 7965
  139.4848  144.4669  151.9473 LP  0  0  0  0  0  0  0  0  0  0  0  0  # atno 17342 bound_to 10162
  140.3756  144.2801  150.5914 LP  0  0  0  0  0  0  0  0  0  0  0  0  # atno 17343 bound_to 10162
  155.9713  130.4156  150.4188 LP  0  0  0  0  0  0  0  0  0  0  0  0  # atno 17370 bound_to 10713
  157.2242  131.0489  151.2529 LP  0  0  0  0  0  0  0  0  0  0  0  0  # atno 17371 bound_to 10713
  139.9106  135.0189  156.7676 LP  0  0  0  0  0  0  0  0  0  0  0  0  # atno 17394 bound_to 11000
  140.6685  133.9581  155.7843 LP  0  0  0  0  0  0  0  0  0  0  0  0  # atno 17395 bound_to 11000

$$$$
