AV-unprocessed.smi:1354|AV-procd|sdf|5535|dock1
  -GOLD-   22720 5123D 1   1.00000     0.00000
 Structure written by MMmdl.
 40 42  0  0  0  0  0  0  0  0  2 V2000
  150.6839  135.8119  154.3394 O   0  0  0  0  0  0  0  0  0  0  0  0
  151.5206  136.5641  155.1909 C   0  0  0  0  0  0  0  0  0  0  0  0
  151.8879  137.8926  154.5158 C   0  0  0  0  0  0  0  0  0  0  0  0
  150.6985  138.7873  154.3813 C   0  0  0  0  0  0  0  0  0  0  0  0
  149.6133  138.5583  153.5889 N   0  3  0  0  0  0  0  0  0  0  0  0
  148.6978  139.6023  153.7273 C   0  0  0  0  0  0  0  0  0  0  0  0
  147.4618  139.8155  153.1248 C   0  0  0  0  0  0  0  0  0  0  0  0
  146.7772  140.9948  153.4847 C   0  0  0  0  0  0  0  0  0  0  0  0
  147.3227  141.9061  154.4118 C   0  0  0  0  0  0  0  0  0  0  0  0
  148.5750  141.6773  155.0184 C   0  0  0  0  0  0  0  0  0  0  0  0
  149.2476  140.5104  154.6551 C   0  0  0  0  0  0  0  0  0  0  0  0
  150.4814  139.9666  155.0327 N   0  0  0  0  0  0  0  0  0  0  0  0
  151.3259  140.6850  155.9993 C   0  0  0  0  0  0  0  0  0  0  0  0
  150.9999  140.3076  157.4519 C   0  0  0  0  0  0  0  0  0  0  0  0
  152.0104  140.8146  158.3134 O   0  0  0  0  0  0  0  0  0  0  0  0
  152.0226  142.1649  158.5929 C   0  0  0  0  0  0  0  0  0  0  0  0
  151.4524  143.1518  157.7486 C   0  0  0  0  0  0  0  0  0  0  0  0
  151.5067  144.5136  158.1031 C   0  0  0  0  0  0  0  0  0  0  0  0
  152.1294  144.9076  159.3013 C   0  0  0  0  0  0  0  0  0  0  0  0
  152.6977  143.9372  160.1460 C   0  0  0  0  0  0  0  0  0  0  0  0
  152.6442  142.5740  159.7944 C   0  0  0  0  0  0  0  0  0  0  0  0
  153.3460  141.4033  160.8531 Cl  0  0  0  0  0  0  0  0  0  0  0  0
  151.0502  135.8247  153.4680 H   0  0  0  0  0  0  0  0  0  0  0  0
  151.0021  136.7403  156.1339 H   0  0  0  0  0  0  0  0  0  0  0  0
  152.4147  135.9811  155.4134 H   0  0  0  0  0  0  0  0  0  0  0  0
  152.6595  138.4088  155.0879 H   0  0  0  0  0  0  0  0  0  0  0  0
  152.3053  137.7081  153.5252 H   0  0  0  0  0  0  0  0  0  0  0  0
  147.0423  139.1191  152.4136 H   0  0  0  0  0  0  0  0  0  0  0  0
  145.8152  141.2052  153.0404 H   0  0  0  0  0  0  0  0  0  0  0  0
  146.7717  142.8017  154.6601 H   0  0  0  0  0  0  0  0  0  0  0  0
  148.9866  142.3875  155.7200 H   0  0  0  0  0  0  0  0  0  0  0  0
  152.3747  140.4959  155.7705 H   0  0  0  0  0  0  0  0  0  0  0  0
  151.1693  141.7534  155.8495 H   0  0  0  0  0  0  0  0  0  0  0  0
  150.0291  140.7235  157.7242 H   0  0  0  0  0  0  0  0  0  0  0  0
  150.9398  139.2217  157.5410 H   0  0  0  0  0  0  0  0  0  0  0  0
  150.9675  142.8906  156.8204 H   0  0  0  0  0  0  0  0  0  0  0  0
  151.0697  145.2578  157.4537 H   0  0  0  0  0  0  0  0  0  0  0  0
  152.1713  145.9523  159.5719 H   0  0  0  0  0  0  0  0  0  0  0  0
  153.1754  144.2404  161.0662 H   0  0  0  0  0  0  0  0  0  0  0  0
  149.5109  137.7465  152.9933 H   0  0  0  0  0  0  0  0  0  0  0  0
  1  2  1  0  0  0  0
  1 23  1  0  0  0  0
  2  3  1  0  0  0  0
  2 24  1  0  0  0  0
  2 25  1  0  0  0  0
  3  4  1  0  0  0  0
  3 26  1  0  0  0  0
  3 27  1  0  0  0  0
  4 12  1  0  0  0  0
  4  5  2  0  0  0  0
  5  6  1  0  0  0  0
  5 40  1  0  0  0  0
  6 11  2  0  0  0  0
  6  7  1  0  0  0  0
  7  8  2  0  0  0  0
  7 28  1  0  0  0  0
  8  9  1  0  0  0  0
  8 29  1  0  0  0  0
  9 10  2  0  0  0  0
  9 30  1  0  0  0  0
 10 11  1  0  0  0  0
 10 31  1  0  0  0  0
 11 12  1  0  0  0  0
 12 13  1  0  0  0  0
 13 14  1  0  0  0  0
 13 32  1  0  0  0  0
 13 33  1  0  0  0  0
 14 15  1  0  0  0  0
 14 34  1  0  0  0  0
 14 35  1  0  0  0  0
 15 16  1  0  0  0  0
 16 21  1  0  0  0  0
 16 17  2  0  0  0  0
 17 18  1  0  0  0  0
 17 36  1  0  0  0  0
 18 19  2  0  0  0  0
 18 37  1  0  0  0  0
 19 20  1  0  0  0  0
 19 38  1  0  0  0  0
 20 21  2  0  0  0  0
 20 39  1  0  0  0  0
 21 22  1  0  0  0  0
M  CHG  1   5   1
M  END
> <s_m_source_file>
AV-unprocessed.smi

> <i_m_source_file_index>
1354

> <i_lp_mmshare_version>
43012

> <i_f3d_flags>
0

> <s_epik_input>
W2NIXTFbY0hdW2NIXVtjSF1jKGMxMiluKGMobjIpW0NIMl1bQ0gyXVtPSF0pW0NIMl1bQ0gyXU9jM1tjSF1bY0hdW2NIXVtjSF1jM0Ns

> <s_epik_cmdline>
J2VwaWtfcHl0aG9uJywgJy1waCcsICc3LjAnLCAnLXRuJywgJzgnLCAnLW1hJywgJzIwMCcsICctbWV0YWxfYmluZGluZycsICctaW1hZScsICc8aW5maWxlLm1hZT4nLCAnLW9tYWUnLCAnPG91dGZpbGUubWFlPic=

> <r_lp_tautomer_probability>
1

> <r_epik_Ionization_Penalty>
0.752951

> <r_epik_Ionization_Penalty_Charging>
0.752951

> <r_epik_Ionization_Penalty_Neutral>
5.89567e-08

> <r_epik_State_Penalty>
0.780107

> <r_epik_Charging_Adjusted_Penalty>
1.53306

> <i_epik_Tot_Q>
1

> <i_epik_Tot_abs_Q>
1

> <r_epik_Metal_State_Penalty>
4.68821

> <b_epik_Metal_Only>
0

> <s_lp_Force_Field>
OPLS_2005

> <r_lp_Energy>
19.8379

> <b_lp_Chiralities_Consistent>
1

> <s_lp_Variant>
AV-unprocessed.smi:1354-2

> <Gold.Version>
5.8.1

> <Gold.Id.Protein>
6NUR|6NUR_protein|mol2

> <Gold.PLP.Fitness>
60.6848

> <Gold.PLP.PLP>
-53.1788

> <Gold.PLP.part.hbond>
-4.3899

> <Gold.PLP.part.metal>
0.0000

> <Gold.PLP.part.buried>
3.6824

> <Gold.PLP.part.nonpolar>
-52.5785

> <Gold.PLP.part.repulsive>
0.0769

> <Gold.PLP.ligand.clash>
0.0000

> <Gold.PLP.ligand.torsion>
0.8730

> <Gold.PLP.Chemscore.Hbond>
3.0000

> <Gold.PLP.Chemscore.CHOScore>
0.0000

> <Gold.PLP.Chemscore.Metal>
0.0000

> <Gold.Chemscore.Hbonds>
donor molecule, donor type, donor heavy atom, donor atom, acceptor molecule, acceptor atom, score
      L1  H     1    23       P1  7949  0.95
      L1  H     5    40       P1  7948  2.00

> <Gold.PLP.Chemscore.Internal.Correction>
0.2520

> <Gold.Rescore>
     Score         DG    S(hbond)    S(metal)    S(lipo)     H(rot)  DE(clash)    DE(int)     intcor
     18.22     -21.03       1.49        0.00     142.88       2.39       1.88       0.92       ----

> <Gold.Chemscore.Fitness>
18.2200

> <Gold.Chemscore.DG>
-21.0286

> <Gold.Chemscore.ZeroCoef>
-5.4800

> <Gold.Chemscore.Hbond>
1.4857

> <Gold.Chemscore.Metal>
0.0000

> <Gold.Chemscore.Lipo>
142.8827

> <Gold.Chemscore.Internal_Hbond>
0.0000

> <Gold.Chemscore.DEClash>
1.8844

> <Gold.Chemscore.DEInternal>
0.9243

> <Gold.Chemscore.Rot>
2.3948

> <Gold.Chemscore.Internal.Correction>
   9.000000E+99

> <Gold.Chemscore.Hbonds>
donor molecule, donor type, donor heavy atom, donor atom, acceptor molecule, acceptor atom, score
      L1  H     1    23       P1  7949  0.21
      L1  H     5    40       P1  7948  0.85

> <Gold.Chemscore.Hbond.Weighted>
-4.9622

> <Gold.Chemscore.Metal.Weighted>
-0.0000

> <Gold.Chemscore.Lipo.Weighted>
-16.7173

> <Gold.Chemscore.Internal_Hbond.Weighted>
0.0000

> <Gold.Chemscore.DEClash.Weighted>
1.8844

> <Gold.Chemscore.DEInternal.Weighted>
0.9243

> <Gold.Chemscore.Rot.Weighted>
6.1308

> <Gold.Chemscore.Internal.Correction.Weighted>
   9.000000E+99

> <Gold.Protein.RotatedTorsions>
[ 6907 6896 6895 6894 ] final  145.50 input  -60.11 | X-H torsion
[ 7974 7965 7964 7962 ] final  109.00 input  175.53 | X-H torsion
[ 8008 7997 7996 7995 ] final   22.67 input   59.86 | X-H torsion
[ 10167 10162 10161 10158 ] final  -68.07 input  -65.29 | X-H torsion
[ 10718 10713 10712 10709 ] final -125.68 input   66.30 | X-H torsion
[ 10763 10752 10751 10750 ] final  133.10 input  -60.55 | X-H torsion
[ 11005 11000 10999 10996 ] final   14.33 input  -57.11 | X-H torsion

> <Gold.Protein.ActiveResidues>
 VAL166  LYS551  ARG553  GLY616  TRP617  ASP618  TYR619  PRO620  LYS621  CYS622 
 ASP623  PHE694  ASN695  SER759  ASP760  ASP761  ALA762  ILE779  LEU786  VAL792 
 PHE793  MET794  SER795  GLU796  ALA797  LYS798  CYS799  TRP800  GLU811  SER814 

> <Gold.Protein.RotatedAtoms>
  152.1800  133.4701  159.4953 H   0  0  0  0  0  0  0  0  0  0  0  0  # atno 6907 bound_to 6896
  150.6933  134.1845  159.4270 H   0  0  0  0  0  0  0  0  0  0  0  0  # atno 6908 bound_to 6896
  151.9756  135.0054  160.0605 H   0  0  0  0  0  0  0  0  0  0  0  0  # atno 6909 bound_to 6896
  145.2734  139.2658  143.3954 H   0  0  0  0  0  0  0  0  0  0  0  0  # atno 7974 bound_to 7965
  154.9692  140.3088  155.4995 H   0  0  0  0  0  0  0  0  0  0  0  0  # atno 8008 bound_to 7997
  156.2968  140.2287  156.4722 H   0  0  0  0  0  0  0  0  0  0  0  0  # atno 8009 bound_to 7997
  154.7893  140.0441  157.1176 H   0  0  0  0  0  0  0  0  0  0  0  0  # atno 8010 bound_to 7997
  140.5535  143.2312  151.6865 H   0  0  0  0  0  0  0  0  0  0  0  0  # atno 10167 bound_to 10162
  156.1697  130.6659  151.0163 H   0  0  0  0  0  0  0  0  0  0  0  0  # atno 10718 bound_to 10713
  153.8016  135.3141  155.3391 H   0  0  0  0  0  0  0  0  0  0  0  0  # atno 10763 bound_to 10752
  154.8087  135.4681  154.0461 H   0  0  0  0  0  0  0  0  0  0  0  0  # atno 10764 bound_to 10752
  153.1811  135.6893  153.8564 H   0  0  0  0  0  0  0  0  0  0  0  0  # atno 10765 bound_to 10752
  140.4707  134.1033  155.7732 H   0  0  0  0  0  0  0  0  0  0  0  0  # atno 11005 bound_to 11000
  146.3239  140.3183  142.8631 LP  0  0  0  0  0  0  0  0  0  0  0  0  # atno 17320 bound_to 7965
  144.9315  140.7980  143.5686 LP  0  0  0  0  0  0  0  0  0  0  0  0  # atno 17321 bound_to 7965
  139.5038  144.3778  152.0406 LP  0  0  0  0  0  0  0  0  0  0  0  0  # atno 17342 bound_to 10162
  140.2898  144.3767  150.6092 LP  0  0  0  0  0  0  0  0  0  0  0  0  # atno 17343 bound_to 10162
  157.6794  131.0842  150.7410 LP  0  0  0  0  0  0  0  0  0  0  0  0  # atno 17370 bound_to 10713
  156.7470  130.4757  149.5465 LP  0  0  0  0  0  0  0  0  0  0  0  0  # atno 17371 bound_to 10713
  141.1578  133.8850  157.1930 LP  0  0  0  0  0  0  0  0  0  0  0  0  # atno 17394 bound_to 11000
  139.9887  135.0073  156.9923 LP  0  0  0  0  0  0  0  0  0  0  0  0  # atno 17395 bound_to 11000

$$$$
