AV-unprocessed.smi:1952|AV-procd|sdf|7885|dock10
  -GOLD-   2272010 33D 1   1.00000     0.00000
 Structure written by MMmdl.
 40 41  0  0  0  0  0  0  0  0  2 V2000
  153.7281  141.7993  160.8926 C   0  0  0  0  0  0  0  0  0  0  0  0
  152.8751  142.4016  159.8293 C   0  0  0  0  0  0  0  0  0  0  0  0
  152.0983  141.8613  158.8431 C   0  0  0  0  0  0  0  0  0  0  0  0
  151.5637  143.0062  158.1949 C   0  0  0  0  0  0  0  0  0  0  0  0
  150.6863  142.8729  157.0886 N   0  0  0  0  0  0  0  0  0  0  0  0
  150.3859  141.7504  156.4140 C   0  0  0  0  0  0  0  0  0  0  0  0
  150.8530  140.6357  156.6486 O   0  0  0  0  0  0  0  0  0  0  0  0
  149.4925  141.9885  155.4418 N   0  0  0  0  0  0  0  0  0  0  0  0
  148.9731  141.0056  154.4893 C   0  0  2  0  0  0  0  0  0  0  0  0
  147.8153  141.6384  153.7050 C   0  0  0  0  0  0  0  0  0  0  0  0
  148.5223  139.7076  155.1998 C   0  0  0  0  0  0  0  0  0  0  0  0
  149.6389  138.7641  155.4610 N   0  3  0  0  0  0  0  0  0  0  0  0
  149.1955  137.3545  155.5661 C   0  0  0  0  0  0  0  0  0  0  0  0
  150.3874  136.4453  155.9116 C   0  0  0  0  0  0  0  0  0  0  0  0
  151.4089  136.5998  154.9338 O   0  0  0  0  0  0  0  0  0  0  0  0
  151.8990  137.9340  154.8805 C   0  0  0  0  0  0  0  0  0  0  0  0
  150.7552  138.8848  154.4916 C   0  0  0  0  0  0  0  0  0  0  0  0
  151.9802  144.1424  158.7326 N   0  0  0  0  0  0  0  0  0  0  0  0
  152.8215  143.7606  159.7844 O   0  0  0  0  0  0  0  0  0  0  0  0
  153.8746  140.7334  160.7169 H   0  0  0  0  0  0  0  0  0  0  0  0
  153.2660  141.9201  161.8725 H   0  0  0  0  0  0  0  0  0  0  0  0
  154.7086  142.2746  160.9191 H   0  0  0  0  0  0  0  0  0  0  0  0
  151.9393  140.8156  158.6252 H   0  0  0  0  0  0  0  0  0  0  0  0
  150.2397  143.7241  156.7801 H   0  0  0  0  0  0  0  0  0  0  0  0
  149.1665  142.9375  155.3277 H   0  0  0  0  0  0  0  0  0  0  0  0
  149.7515  140.7694  153.7628 H   0  0  0  0  0  0  0  0  0  0  0  0
  147.4226  140.9464  152.9592 H   0  0  0  0  0  0  0  0  0  0  0  0
  148.1414  142.5360  153.1786 H   0  0  0  0  0  0  0  0  0  0  0  0
  146.9926  141.9185  154.3639 H   0  0  0  0  0  0  0  0  0  0  0  0
  148.0592  139.9847  156.1482 H   0  0  0  0  0  0  0  0  0  0  0  0
  147.7473  139.2004  154.6230 H   0  0  0  0  0  0  0  0  0  0  0  0
  148.4304  137.2619  156.3377 H   0  0  0  0  0  0  0  0  0  0  0  0
  148.7436  137.0411  154.6236 H   0  0  0  0  0  0  0  0  0  0  0  0
  150.7792  136.6768  156.9035 H   0  0  0  0  0  0  0  0  0  0  0  0
  150.0711  135.4023  155.9296 H   0  0  0  0  0  0  0  0  0  0  0  0
  152.3317  138.2165  155.8418 H   0  0  0  0  0  0  0  0  0  0  0  0
  152.6996  137.9874  154.1426 H   0  0  0  0  0  0  0  0  0  0  0  0
  150.3993  138.6497  153.4873 H   0  0  0  0  0  0  0  0  0  0  0  0
  151.1292  139.9078  154.4655 H   0  0  0  0  0  0  0  0  0  0  0  0
  150.0129  139.0103  156.3669 H   0  0  0  0  0  0  0  0  0  0  0  0
  1  2  1  0  0  0  0
  1 20  1  0  0  0  0
  1 21  1  0  0  0  0
  1 22  1  0  0  0  0
  2 19  1  0  0  0  0
  2  3  2  0  0  0  0
  3  4  1  0  0  0  0
  3 23  1  0  0  0  0
  4  5  1  0  0  0  0
  4 18  2  0  0  0  0
  5  6  1  0  0  0  0
  5 24  1  0  0  0  0
  6  7  2  0  0  0  0
  6  8  1  0  0  0  0
  8  9  1  0  0  0  0
  8 25  1  0  0  0  0
  9 10  1  0  0  0  0
  9 11  1  0  0  0  0
  9 26  1  0  0  0  0
 10 27  1  0  0  0  0
 10 28  1  0  0  0  0
 10 29  1  0  0  0  0
 11 12  1  0  0  0  0
 11 30  1  0  0  0  0
 11 31  1  0  0  0  0
 12 17  1  0  0  0  0
 12 13  1  0  0  0  0
 12 40  1  0  0  0  0
 13 14  1  0  0  0  0
 13 32  1  0  0  0  0
 13 33  1  0  0  0  0
 14 15  1  0  0  0  0
 14 34  1  0  0  0  0
 14 35  1  0  0  0  0
 15 16  1  0  0  0  0
 16 17  1  0  0  0  0
 16 36  1  0  0  0  0
 16 37  1  0  0  0  0
 17 38  1  0  0  0  0
 17 39  1  0  0  0  0
 18 19  1  0  0  0  0
M  CHG  1  12   1
M  END
> <s_m_source_file>
AV-unprocessed.smi

> <i_m_source_file_index>
1952

> <i_lp_mmshare_version>
43012

> <i_f3d_flags>
0

> <s_epik_input>
W0NIM11jMVtjSF1jKG5vMSlbTkhdQyg9TylbTkhdW0NASF0oW0NIM10pW0NIMl1OMltDSDJdW0NIMl1PW0NIMl1bQ0gyXTI=

> <s_epik_cmdline>
J2VwaWtfcHl0aG9uJywgJy1waCcsICc3LjAnLCAnLXRuJywgJzgnLCAnLW1hJywgJzIwMCcsICctbWV0YWxfYmluZGluZycsICctaW1hZScsICc8aW5maWxlLm1hZT4nLCAnLW9tYWUnLCAnPG91dGZpbGUubWFlPic=

> <r_epik_Ionization_Penalty>
0.707079

> <r_epik_Ionization_Penalty_Charging>
0.707039

> <r_epik_Ionization_Penalty_Neutral>
4.01892e-05

> <r_epik_State_Penalty>
0.730276

> <r_epik_Charging_Adjusted_Penalty>
1.43732

> <i_epik_Tot_Q>
1

> <i_epik_Tot_abs_Q>
1

> <r_epik_Metal_State_Penalty>
0.744847

> <b_epik_Metal_Only>
0

> <s_lp_Force_Field>
OPLS_2005

> <r_lp_Energy>
19.2222

> <b_lp_Chiralities_Consistent>
1

> <s_lp_Variant>
AV-unprocessed.smi:1952-3

> <Gold.Version>
5.8.1

> <Gold.Id.Protein>
6NUR|6NUR_protein|mol2

> <Gold.PLP.Fitness>
43.5128

> <Gold.PLP.PLP>
-35.9501

> <Gold.PLP.part.hbond>
-3.0000

> <Gold.PLP.part.metal>
0.0000

> <Gold.PLP.part.buried>
-7.6749

> <Gold.PLP.part.nonpolar>
-26.2250

> <Gold.PLP.part.repulsive>
0.4291

> <Gold.PLP.ligand.clash>
0.0000

> <Gold.PLP.ligand.torsion>
0.7374

> <Gold.PLP.Chemscore.Hbond>
3.0000

> <Gold.PLP.Chemscore.CHOScore>
0.0000

> <Gold.PLP.Chemscore.Metal>
0.0000

> <Gold.Chemscore.Hbonds>
donor molecule, donor type, donor heavy atom, donor atom, acceptor molecule, acceptor atom, score
      L1  H     5    24       P1  8028  1.00
      L1  H     8    25       P1  8028  1.00
      P1  H 10752 10765       L1    15  1.00

> <Gold.PLP.Chemscore.Internal.Correction>
0.0374

> <Gold.Rescore>
     Score         DG    S(hbond)    S(metal)    S(lipo)     H(rot)  DE(clash)    DE(int)     intcor
     15.28     -19.91       2.87        0.00      76.65       1.61       0.11       4.53       ----

> <Gold.Chemscore.Fitness>
15.2756

> <Gold.Chemscore.DG>
-19.9067

> <Gold.Chemscore.ZeroCoef>
-5.4800

> <Gold.Chemscore.Hbond>
2.8667

> <Gold.Chemscore.Metal>
0.0000

> <Gold.Chemscore.Lipo>
76.6489

> <Gold.Chemscore.Internal_Hbond>
0.0000

> <Gold.Chemscore.DEClash>
0.1057

> <Gold.Chemscore.DEInternal>
4.5253

> <Gold.Chemscore.Rot>
1.6078

> <Gold.Chemscore.Internal.Correction>
   9.000000E+99

> <Gold.Chemscore.Hbonds>
donor molecule, donor type, donor heavy atom, donor atom, acceptor molecule, acceptor atom, score
      L1  H     5    24       P1  8028  0.92
      L1  H     8    25       P1  8028  1.00
      P1  H 10752 10765       L1    15  0.25

> <Gold.Chemscore.Hbond.Weighted>
-9.5746

> <Gold.Chemscore.Metal.Weighted>
-0.0000

> <Gold.Chemscore.Lipo.Weighted>
-8.9679

> <Gold.Chemscore.Internal_Hbond.Weighted>
0.0000

> <Gold.Chemscore.DEClash.Weighted>
0.1057

> <Gold.Chemscore.DEInternal.Weighted>
4.5253

> <Gold.Chemscore.Rot.Weighted>
4.1158

> <Gold.Chemscore.Internal.Correction.Weighted>
   9.000000E+99

> <Gold.Protein.RotatedTorsions>
[ 6907 6896 6895 6894 ] final  -98.70 input  -60.11 | X-H torsion
[ 7974 7965 7964 7962 ] final -109.82 input  175.53 | X-H torsion
[ 8008 7997 7996 7995 ] final   30.06 input   59.86 | X-H torsion
[ 10167 10162 10161 10158 ] final   38.00 input  -65.29 | X-H torsion
[ 10718 10713 10712 10709 ] final -169.33 input   66.30 | X-H torsion
[ 10763 10752 10751 10750 ] final  163.16 input  -60.55 | X-H torsion
[ 11005 11000 10999 10996 ] final    5.18 input  -57.11 | X-H torsion

> <Gold.Protein.ActiveResidues>
 VAL166  LYS551  ARG553  GLY616  TRP617  ASP618  TYR619  PRO620  LYS621  CYS622 
 ASP623  PHE694  ASN695  SER759  ASP760  ASP761  ALA762  ILE779  LEU786  VAL792 
 PHE793  MET794  SER795  GLU796  ALA797  LYS798  CYS799  TRP800  GLU811  SER814 

> <Gold.Protein.RotatedAtoms>
  150.7055  134.1155  159.4015 H   0  0  0  0  0  0  0  0  0  0  0  0  # atno 6907 bound_to 6896
  151.9141  135.0324  160.0526 H   0  0  0  0  0  0  0  0  0  0  0  0  # atno 6908 bound_to 6896
  152.2311  133.5023  159.5253 H   0  0  0  0  0  0  0  0  0  0  0  0  # atno 6909 bound_to 6896
  145.1758  140.8947  143.3509 H   0  0  0  0  0  0  0  0  0  0  0  0  # atno 7974 bound_to 7965
  155.0845  140.3213  155.4592 H   0  0  0  0  0  0  0  0  0  0  0  0  # atno 8008 bound_to 7997
  156.2759  140.2089  156.5918 H   0  0  0  0  0  0  0  0  0  0  0  0  # atno 8009 bound_to 7997
  154.6952  140.0512  157.0391 H   0  0  0  0  0  0  0  0  0  0  0  0  # atno 8010 bound_to 7997
  140.3979  144.1764  150.6132 H   0  0  0  0  0  0  0  0  0  0  0  0  # atno 10167 bound_to 10162
  156.7099  130.9229  151.3088 H   0  0  0  0  0  0  0  0  0  0  0  0  # atno 10718 bound_to 10713
  154.2894  135.2761  155.2661 H   0  0  0  0  0  0  0  0  0  0  0  0  # atno 10763 bound_to 10752
  154.5147  135.5773  153.6636 H   0  0  0  0  0  0  0  0  0  0  0  0  # atno 10764 bound_to 10752
  152.9916  135.6190  154.3058 H   0  0  0  0  0  0  0  0  0  0  0  0  # atno 10765 bound_to 10752
  140.5736  134.0079  155.8018 H   0  0  0  0  0  0  0  0  0  0  0  0  # atno 11005 bound_to 11000
  145.0186  139.3444  143.6084 LP  0  0  0  0  0  0  0  0  0  0  0  0  # atno 17320 bound_to 7965
  146.3461  139.9478  142.8733 LP  0  0  0  0  0  0  0  0  0  0  0  0  # atno 17321 bound_to 7965
  140.4771  143.2392  151.9008 LP  0  0  0  0  0  0  0  0  0  0  0  0  # atno 17342 bound_to 10162
  139.4786  144.5309  151.8668 LP  0  0  0  0  0  0  0  0  0  0  0  0  # atno 17343 bound_to 10162
  157.6940  130.9262  150.0592 LP  0  0  0  0  0  0  0  0  0  0  0  0  # atno 17370 bound_to 10713
  156.1668  130.3645  149.9221 LP  0  0  0  0  0  0  0  0  0  0  0  0  # atno 17371 bound_to 10713
  141.1041  133.9722  157.3028 LP  0  0  0  0  0  0  0  0  0  0  0  0  # atno 17394 bound_to 11000
  139.9350  135.0197  156.8526 LP  0  0  0  0  0  0  0  0  0  0  0  0  # atno 17395 bound_to 11000

$$$$
