AV-unprocessed.smi:2193|AV-procd|sdf|8898|dock5
  -GOLD-   2272012103D 1   1.00000     0.00000
 Structure written by MMmdl.
 40 42  0  0  0  0  0  0  0  0  1 V2000
  154.6729  138.4579  158.4861 O   0  0  0  0  0  0  0  0  0  0  0  0
  153.4432  138.7163  159.1278 C   0  0  0  0  0  0  0  0  0  0  0  0
  152.9893  140.1360  158.9711 C   0  0  0  0  0  0  0  0  0  0  0  0
  153.6108  141.1395  159.5918 N   0  0  0  0  0  0  0  0  0  0  0  0
  152.9030  142.2465  159.1678 C   0  0  0  0  0  0  0  0  0  0  0  0
  153.0740  143.6167  159.4691 C   0  0  0  0  0  0  0  0  0  0  0  0
  152.2181  144.5843  158.9034 C   0  0  0  0  0  0  0  0  0  0  0  0
  151.1826  144.1969  158.0284 C   0  0  0  0  0  0  0  0  0  0  0  0
  150.9954  142.8369  157.7147 C   0  0  0  0  0  0  0  0  0  0  0  0
  151.8500  141.8742  158.2855 C   0  0  0  0  0  0  0  0  0  0  0  0
  151.9329  140.4879  158.1927 N   0  0  0  0  0  0  0  0  0  0  0  0
  151.0591  139.6348  157.3955 C   0  0  0  0  0  0  0  0  0  0  0  0
  151.5475  139.4737  155.9411 C   0  0  2  0  0  0  0  0  0  0  0  0
  151.1183  140.5721  155.1628 O   0  0  0  0  0  0  0  0  0  0  0  0
  151.0300  138.1833  155.2896 C   0  0  0  0  0  0  0  0  0  0  0  0
  151.4881  137.0708  156.0472 O   0  0  0  0  0  0  0  0  0  0  0  0
  151.0144  135.8182  155.7214 C   0  0  0  0  0  0  0  0  0  0  0  0
  151.4860  134.7358  156.4931 C   0  0  0  0  0  0  0  0  0  0  0  0
  151.0550  133.4211  156.2308 C   0  0  0  0  0  0  0  0  0  0  0  0
  150.1435  133.1751  155.1876 C   0  0  0  0  0  0  0  0  0  0  0  0
  149.7277  131.9116  154.9336 F   0  0  0  0  0  0  0  0  0  0  0  0
  149.6653  134.2452  154.4088 C   0  0  0  0  0  0  0  0  0  0  0  0
  150.0960  135.5604  154.6718 C   0  0  0  0  0  0  0  0  0  0  0  0
  154.5412  137.7714  157.8505 H   0  0  0  0  0  0  0  0  0  0  0  0
  152.6896  138.0497  158.7066 H   0  0  0  0  0  0  0  0  0  0  0  0
  153.5187  138.4662  160.1859 H   0  0  0  0  0  0  0  0  0  0  0  0
  153.8661  143.9238  160.1361 H   0  0  0  0  0  0  0  0  0  0  0  0
  152.3578  145.6287  159.1409 H   0  0  0  0  0  0  0  0  0  0  0  0
  150.5320  144.9443  157.5982 H   0  0  0  0  0  0  0  0  0  0  0  0
  150.2037  142.5376  157.0440 H   0  0  0  0  0  0  0  0  0  0  0  0
  151.0157  138.6602  157.8830 H   0  0  0  0  0  0  0  0  0  0  0  0
  150.0416  140.0230  157.4094 H   0  0  0  0  0  0  0  0  0  0  0  0
  152.6374  139.4659  155.9152 H   0  0  0  0  0  0  0  0  0  0  0  0
  151.1193  141.3445  155.7077 H   0  0  0  0  0  0  0  0  0  0  0  0
  149.9396  138.1984  155.2417 H   0  0  0  0  0  0  0  0  0  0  0  0
  151.4131  138.1081  154.2704 H   0  0  0  0  0  0  0  0  0  0  0  0
  152.1861  134.9155  157.2958 H   0  0  0  0  0  0  0  0  0  0  0  0
  151.4244  132.6022  156.8303 H   0  0  0  0  0  0  0  0  0  0  0  0
  148.9662  134.0579  153.6071 H   0  0  0  0  0  0  0  0  0  0  0  0
  149.7069  136.3543  154.0527 H   0  0  0  0  0  0  0  0  0  0  0  0
  1  2  1  0  0  0  0
  1 24  1  0  0  0  0
  2  3  1  0  0  0  0
  2 25  1  0  0  0  0
  2 26  1  0  0  0  0
  3 11  1  0  0  0  0
  3  4  2  0  0  0  0
  4  5  1  0  0  0  0
  5 10  2  0  0  0  0
  5  6  1  0  0  0  0
  6  7  2  0  0  0  0
  6 27  1  0  0  0  0
  7  8  1  0  0  0  0
  7 28  1  0  0  0  0
  8  9  2  0  0  0  0
  8 29  1  0  0  0  0
  9 10  1  0  0  0  0
  9 30  1  0  0  0  0
 10 11  1  0  0  0  0
 11 12  1  0  0  0  0
 12 13  1  0  0  0  0
 12 31  1  0  0  0  0
 12 32  1  0  0  0  0
 13 14  1  0  0  0  0
 13 15  1  0  0  0  0
 13 33  1  0  0  0  0
 14 34  1  0  0  0  0
 15 16  1  0  0  0  0
 15 35  1  0  0  0  0
 15 36  1  0  0  0  0
 16 17  1  0  0  0  0
 17 23  1  0  0  0  0
 17 18  2  0  0  0  0
 18 19  1  0  0  0  0
 18 37  1  0  0  0  0
 19 20  2  0  0  0  0
 19 38  1  0  0  0  0
 20 21  1  0  0  0  0
 20 22  1  0  0  0  0
 22 23  2  0  0  0  0
 22 39  1  0  0  0  0
 23 40  1  0  0  0  0
M  END
> <s_m_source_file>
AV-unprocessed.smi

> <i_m_source_file_index>
2193

> <i_lp_mmshare_version>
43012

> <i_f3d_flags>
0

> <s_epik_input>
W2NIXTFbY0hdW2NIXVtjSF1jKGMxMiluKGMobjIpW0NIMl1bT0hdKVtDSDJdW0NASF0oW09IXSlbQ0gyXU9jM1tjSF1bY0hdYyhGKVtjSF1bY0hdMw==

> <s_epik_cmdline>
J2VwaWtfcHl0aG9uJywgJy1waCcsICc3LjAnLCAnLXRuJywgJzgnLCAnLW1hJywgJzIwMCcsICctbWV0YWxfYmluZGluZycsICctaW1hZScsICc8aW5maWxlLm1hZT4nLCAnLW9tYWUnLCAnPG91dGZpbGUubWFlPic=

> <r_lp_tautomer_probability>
1

> <r_epik_Ionization_Penalty>
0.0549747

> <r_epik_Ionization_Penalty_Charging>
0

> <r_epik_Ionization_Penalty_Neutral>
0.0549747

> <r_epik_State_Penalty>
0.0472568

> <r_epik_Charging_Adjusted_Penalty>
0.0472568

> <i_epik_Tot_Q>
0

> <i_epik_Tot_abs_Q>
0

> <r_epik_Metal_State_Penalty>
4.91905e-05

> <b_epik_Metal_Only>
0

> <s_lp_Force_Field>
OPLS_2005

> <r_lp_Energy>
14.0704

> <b_lp_Chiralities_Consistent>
1

> <s_lp_Variant>
AV-unprocessed.smi:2193-1

> <Gold.Version>
5.8.1

> <Gold.Id.Protein>
6NUR|6NUR_protein|mol2

> <Gold.PLP.Fitness>
48.3397

> <Gold.PLP.PLP>
-43.8158

> <Gold.PLP.part.hbond>
-2.0000

> <Gold.PLP.part.metal>
0.0000

> <Gold.PLP.part.buried>
-2.1048

> <Gold.PLP.part.nonpolar>
-38.8926

> <Gold.PLP.part.repulsive>
0.0131

> <Gold.PLP.ligand.clash>
0.0000

> <Gold.PLP.ligand.torsion>
0.7405

> <Gold.PLP.Chemscore.Hbond>
1.9440

> <Gold.PLP.Chemscore.CHOScore>
0.0000

> <Gold.PLP.Chemscore.Metal>
0.0000

> <Gold.Chemscore.Hbonds>
donor molecule, donor type, donor heavy atom, donor atom, acceptor molecule, acceptor atom, score
      P1  H  7989  7998       L1    14  0.93
      P1  H  7997  8010       L1     1  1.00

> <Gold.PLP.Chemscore.Internal.Correction>
0.1730

> <Gold.Rescore>
     Score         DG    S(hbond)    S(metal)    S(lipo)     H(rot)  DE(clash)    DE(int)     intcor
     15.50     -16.31       1.50        0.00     120.13       3.22       0.02       0.80       ----

> <Gold.Chemscore.Fitness>
15.4968

> <Gold.Chemscore.DG>
-16.3112

> <Gold.Chemscore.ZeroCoef>
-5.4800

> <Gold.Chemscore.Hbond>
1.5024

> <Gold.Chemscore.Metal>
0.0000

> <Gold.Chemscore.Lipo>
120.1321

> <Gold.Chemscore.Internal_Hbond>
0.0000

> <Gold.Chemscore.DEClash>
0.0185

> <Gold.Chemscore.DEInternal>
0.7959

> <Gold.Chemscore.Rot>
3.2196

> <Gold.Chemscore.Internal.Correction>
   9.000000E+99

> <Gold.Chemscore.Hbonds>
donor molecule, donor type, donor heavy atom, donor atom, acceptor molecule, acceptor atom, score
      P1  H  7989  7998       L1    14  0.76
      P1  H  7997  8010       L1     1  0.25

> <Gold.Chemscore.Hbond.Weighted>
-5.0180

> <Gold.Chemscore.Metal.Weighted>
-0.0000

> <Gold.Chemscore.Lipo.Weighted>
-14.0555

> <Gold.Chemscore.Internal_Hbond.Weighted>
0.0000

> <Gold.Chemscore.DEClash.Weighted>
0.0185

> <Gold.Chemscore.DEInternal.Weighted>
0.7959

> <Gold.Chemscore.Rot.Weighted>
8.2422

> <Gold.Chemscore.Internal.Correction.Weighted>
   9.000000E+99

> <Gold.Protein.RotatedTorsions>
[ 6907 6896 6895 6894 ] final  -52.33 input  -60.11 | X-H torsion
[ 7974 7965 7964 7962 ] final  -70.61 input  175.53 | X-H torsion
[ 8008 7997 7996 7995 ] final   -3.32 input   59.86 | X-H torsion
[ 10167 10162 10161 10158 ] final -130.14 input  -65.29 | X-H torsion
[ 10718 10713 10712 10709 ] final  -46.19 input   66.30 | X-H torsion
[ 10763 10752 10751 10750 ] final -101.75 input  -60.55 | X-H torsion
[ 11005 11000 10999 10996 ] final  153.60 input  -57.11 | X-H torsion

> <Gold.Protein.ActiveResidues>
 VAL166  LYS551  ARG553  GLY616  TRP617  ASP618  TYR619  PRO620  LYS621  CYS622 
 ASP623  PHE694  ASN695  SER759  ASP760  ASP761  ALA762  ILE779  LEU786  VAL792 
 PHE793  MET794  SER795  GLU796  ALA797  LYS798  CYS799  TRP800  GLU811  SER814 

> <Gold.Protein.RotatedAtoms>
  150.8528  134.7858  159.7021 H   0  0  0  0  0  0  0  0  0  0  0  0  # atno 6907 bound_to 6896
  152.4588  134.5228  159.9797 H   0  0  0  0  0  0  0  0  0  0  0  0  # atno 6908 bound_to 6896
  151.5346  133.3405  159.2960 H   0  0  0  0  0  0  0  0  0  0  0  0  # atno 6909 bound_to 6896
  145.6887  140.9161  143.0793 H   0  0  0  0  0  0  0  0  0  0  0  0  # atno 7974 bound_to 7965
  154.6262  140.2512  155.7489 H   0  0  0  0  0  0  0  0  0  0  0  0  # atno 8008 bound_to 7997
  156.2454  140.2916  156.0512 H   0  0  0  0  0  0  0  0  0  0  0  0  # atno 8009 bound_to 7997
  155.1818  140.0389  157.2874 H   0  0  0  0  0  0  0  0  0  0  0  0  # atno 8010 bound_to 7997
  139.9324  143.6257  152.2526 H   0  0  0  0  0  0  0  0  0  0  0  0  # atno 10167 bound_to 10162
  156.2208  130.4166  149.8996 H   0  0  0  0  0  0  0  0  0  0  0  0  # atno 10718 bound_to 10713
  154.7682  135.4886  153.9596 H   0  0  0  0  0  0  0  0  0  0  0  0  # atno 10763 bound_to 10752
  153.1334  135.6757  153.9149 H   0  0  0  0  0  0  0  0  0  0  0  0  # atno 10764 bound_to 10752
  153.8846  135.3128  155.3424 H   0  0  0  0  0  0  0  0  0  0  0  0  # atno 10765 bound_to 10752
  140.1413  134.8737  157.2334 H   0  0  0  0  0  0  0  0  0  0  0  0  # atno 11005 bound_to 11000
  144.7003  139.8793  143.7446 LP  0  0  0  0  0  0  0  0  0  0  0  0  # atno 17320 bound_to 7965
  146.0901  139.3890  143.0411 LP  0  0  0  0  0  0  0  0  0  0  0  0  # atno 17321 bound_to 7965
  139.6771  144.7658  151.1676 LP  0  0  0  0  0  0  0  0  0  0  0  0  # atno 17342 bound_to 10162
  140.7634  143.5779  150.8926 LP  0  0  0  0  0  0  0  0  0  0  0  0  # atno 17343 bound_to 10162
  156.6643  130.8794  151.3552 LP  0  0  0  0  0  0  0  0  0  0  0  0  # atno 17370 bound_to 10713
  157.7086  130.9414  150.1014 LP  0  0  0  0  0  0  0  0  0  0  0  0  # atno 17371 bound_to 10713
  140.2719  134.3450  155.7371 LP  0  0  0  0  0  0  0  0  0  0  0  0  # atno 17394 bound_to 11000
  141.2186  133.7428  156.9235 LP  0  0  0  0  0  0  0  0  0  0  0  0  # atno 17395 bound_to 11000

$$$$
