AV-unprocessed.smi:66|AV-procd|sdf|617|dock5
  -GOLD-   2262016513D 1   1.00000     0.00000
 Structure written by MMmdl.
 28 30  0  0  0  0  0  0  0  0  2 V2000
  152.4160  136.8635  156.3727 O   0  0  0  0  0  0  0  0  0  0  0  0
  152.5925  138.0945  156.5026 C   0  0  0  0  0  0  0  0  0  0  0  0
  153.6915  138.6829  156.3918 O   0  5  0  0  0  0  0  0  0  0  0  0
  151.3487  138.9418  156.8174 C   0  0  2  0  0  0  0  0  0  0  0  0
  150.2925  138.8756  155.6995 C   0  0  0  0  0  0  0  0  0  0  0  0
  150.6074  140.0830  154.8182 C   0  0  1  0  0  0  0  0  0  0  0  0
  149.4926  140.5141  154.0658 O   0  0  0  0  0  0  0  0  0  0  0  0
  151.0683  141.1316  155.8304 C   0  0  0  0  0  0  0  0  0  0  0  0
  151.6733  140.3689  156.9143 N   0  0  0  0  0  0  0  0  0  0  0  0
  152.1275  140.9485  158.0599 C   0  0  0  0  0  0  0  0  0  0  0  0
  152.7218  140.1588  158.9945 N   0  0  0  0  0  0  0  0  0  0  0  0
  153.1883  140.6756  160.1342 C   0  0  0  0  0  0  0  0  0  0  0  0
  153.1660  141.9441  160.5454 N   0  0  0  0  0  0  0  0  0  0  0  0
  152.5736  142.7445  159.6170 C   0  0  0  0  0  0  0  0  0  0  0  0
  152.3708  144.1063  159.6854 N   0  0  0  0  0  0  0  0  0  0  0  0
  151.7412  144.4541  158.5173 C   0  0  0  0  0  0  0  0  0  0  0  0
  151.5177  143.4586  157.7034 N   0  0  0  0  0  0  0  0  0  0  0  0
  152.0311  142.3418  158.3612 C   0  0  0  0  0  0  0  0  0  0  0  0
  152.6535  144.6792  160.4672 H   0  0  0  0  0  0  0  0  0  0  0  0
  150.9031  138.5821  157.7460 H   0  0  0  0  0  0  0  0  0  0  0  0
  150.3023  137.9371  155.1434 H   0  0  0  0  0  0  0  0  0  0  0  0
  149.3003  138.9827  156.1408 H   0  0  0  0  0  0  0  0  0  0  0  0
  151.4257  139.8388  154.1394 H   0  0  0  0  0  0  0  0  0  0  0  0
  149.6487  140.3069  153.1572 H   0  0  0  0  0  0  0  0  0  0  0  0
  151.7761  141.8239  155.3740 H   0  0  0  0  0  0  0  0  0  0  0  0
  150.2231  141.6996  156.2227 H   0  0  0  0  0  0  0  0  0  0  0  0
  153.6437  139.9698  160.8132 H   0  0  0  0  0  0  0  0  0  0  0  0
  151.4538  145.4697  158.2880 H   0  0  0  0  0  0  0  0  0  0  0  0
  1  2  2  0  0  0  0
  2  3  1  0  0  0  0
  2  4  1  0  0  0  0
  4  5  1  0  0  0  0
  4 20  1  0  0  0  0
  4  9  1  0  0  0  0
  5  6  1  0  0  0  0
  5 21  1  0  0  0  0
  5 22  1  0  0  0  0
  6  7  1  0  0  0  0
  6  8  1  0  0  0  0
  6 23  1  0  0  0  0
  7 24  1  0  0  0  0
  8 25  1  0  0  0  0
  8 26  1  0  0  0  0
  8  9  1  0  0  0  0
  9 10  1  0  0  0  0
 10 11  1  0  0  0  0
 10 18  2  0  0  0  0
 11 12  2  0  0  0  0
 12 27  1  0  0  0  0
 12 13  1  0  0  0  0
 13 14  2  0  0  0  0
 14 15  1  0  0  0  0
 14 18  1  0  0  0  0
 15 16  1  0  0  0  0
 15 19  1  0  0  0  0
 16 17  2  0  0  0  0
 16 28  1  0  0  0  0
 17 18  1  0  0  0  0
M  CHG  1   3  -1
M  END
> <s_m_source_file>
AV-unprocessed.smi

> <i_m_source_file_index>
66

> <i_lp_mmshare_version>
43012

> <i_f3d_flags>
0

> <s_epik_input>
Tz1DKFtPSF0pW0NAQEhdMVtDSDJdW0NAQEhdKFtPSF0pW0NIMl1OMWMobltjSF1uMiljKGMyMylbbkhdW2NIXW4z

> <s_epik_cmdline>
J2VwaWtfcHl0aG9uJywgJy1waCcsICc3LjAnLCAnLXRuJywgJzgnLCAnLW1hJywgJzIwMCcsICctbWV0YWxfYmluZGluZycsICctaW1hZScsICc8aW5maWxlLm1hZT4nLCAnLW9tYWUnLCAnPG91dGZpbGUubWFlPic=

> <r_lp_tautomer_probability>
0.955585

> <r_epik_Ionization_Penalty>
0.00455415

> <r_epik_Ionization_Penalty_Charging>
0.000248217

> <r_epik_Ionization_Penalty_Neutral>
0.00430593

> <r_epik_State_Penalty>
0.0207074

> <r_epik_Charging_Adjusted_Penalty>
0.0209557

> <i_epik_Tot_Q>
-1

> <i_epik_Tot_abs_Q>
1

> <r_epik_Metal_State_Penalty>
0.337372

> <b_epik_Metal_Only>
0

> <s_lp_Force_Field>
OPLS_2005

> <r_lp_Energy>
24.8214

> <b_lp_Chiralities_Consistent>
1

> <s_lp_Variant>
AV-unprocessed.smi:66-1

> <Gold.Version>
5.8.1

> <Gold.Id.Protein>
6NUR|6NUR_protein|mol2

> <Gold.PLP.Fitness>
43.4237

> <Gold.PLP.PLP>
-29.8484

> <Gold.PLP.part.hbond>
-3.5142

> <Gold.PLP.part.metal>
0.0000

> <Gold.PLP.part.buried>
-3.8159

> <Gold.PLP.part.nonpolar>
-22.6182

> <Gold.PLP.part.repulsive>
0.1398

> <Gold.PLP.ligand.clash>
0.0000

> <Gold.PLP.ligand.torsion>
0.1164

> <Gold.PLP.Chemscore.Hbond>
4.5680

> <Gold.PLP.Chemscore.CHOScore>
0.0000

> <Gold.PLP.Chemscore.Metal>
0.0000

> <Gold.Chemscore.Hbonds>
donor molecule, donor type, donor heavy atom, donor atom, acceptor molecule, acceptor atom, score
      L1  H     7    24       P1  7957  1.00
      P1  H  7997  8010       L1     3  1.57
      P1  H 10752 10765       L1     1  1.98

> <Gold.PLP.Chemscore.Internal.Correction>
0.1041

> <Gold.Rescore>
     Score         DG    S(hbond)    S(metal)    S(lipo)     H(rot)  DE(clash)    DE(int)     intcor
     12.58     -13.90       2.76        0.00      32.13       1.78       0.24       1.09       ----

> <Gold.Chemscore.Fitness>
12.5757

> <Gold.Chemscore.DG>
-13.9047

> <Gold.Chemscore.ZeroCoef>
-5.4800

> <Gold.Chemscore.Hbond>
2.7645

> <Gold.Chemscore.Metal>
0.0000

> <Gold.Chemscore.Lipo>
32.1280

> <Gold.Chemscore.Internal_Hbond>
0.0000

> <Gold.Chemscore.DEClash>
0.2386

> <Gold.Chemscore.DEInternal>
1.0903

> <Gold.Chemscore.Rot>
1.7842

> <Gold.Chemscore.Internal.Correction>
   9.000000E+99

> <Gold.Chemscore.Hbonds>
donor molecule, donor type, donor heavy atom, donor atom, acceptor molecule, acceptor atom, score
      L1  H     7    24       P1  7957  0.95
      P1  H  7997  8010       L1     3  0.73
      P1  H 10752 10765       L1     1  0.88

> <Gold.Chemscore.Hbond.Weighted>
-9.2333

> <Gold.Chemscore.Metal.Weighted>
-0.0000

> <Gold.Chemscore.Lipo.Weighted>
-3.7590

> <Gold.Chemscore.Internal_Hbond.Weighted>
0.0000

> <Gold.Chemscore.DEClash.Weighted>
0.2386

> <Gold.Chemscore.DEInternal.Weighted>
1.0903

> <Gold.Chemscore.Rot.Weighted>
4.5676

> <Gold.Chemscore.Internal.Correction.Weighted>
   9.000000E+99

> <Gold.Protein.RotatedTorsions>
[ 6907 6896 6895 6894 ] final  160.08 input  -60.11 | X-H torsion
[ 7974 7965 7964 7962 ] final  122.92 input  175.53 | X-H torsion
[ 8008 7997 7996 7995 ] final   62.29 input   59.86 | X-H torsion
[ 10167 10162 10161 10158 ] final  107.12 input  -65.29 | X-H torsion
[ 10718 10713 10712 10709 ] final  179.72 input   66.30 | X-H torsion
[ 10763 10752 10751 10750 ] final -140.31 input  -60.55 | X-H torsion
[ 11005 11000 10999 10996 ] final  131.00 input  -57.11 | X-H torsion

> <Gold.Protein.ActiveResidues>
 VAL166  LYS551  ARG553  GLY616  TRP617  ASP618  TYR619  PRO620  LYS621  CYS622 
 ASP623  PHE694  ASN695  SER759  ASP760  ASP761  ALA762  ILE779  LEU786  VAL792 
 PHE793  MET794  SER795  GLU796  ALA797  LYS798  CYS799  TRP800  GLU811  SER814 

> <Gold.Protein.RotatedAtoms>
  151.9759  133.3741  159.4088 H   0  0  0  0  0  0  0  0  0  0  0  0  # atno 6907 bound_to 6896
  150.6942  134.4090  159.5162 H   0  0  0  0  0  0  0  0  0  0  0  0  # atno 6908 bound_to 6896
  152.1801  134.8761  160.0578 H   0  0  0  0  0  0  0  0  0  0  0  0  # atno 6909 bound_to 6896
  145.1019  139.3512  143.4807 H   0  0  0  0  0  0  0  0  0  0  0  0  # atno 7974 bound_to 7965
  155.6120  140.3495  155.4625 H   0  0  0  0  0  0  0  0  0  0  0  0  # atno 8008 bound_to 7997
  156.0147  140.1240  157.0443 H   0  0  0  0  0  0  0  0  0  0  0  0  # atno 8009 bound_to 7997
  154.4293  140.1074  156.5865 H   0  0  0  0  0  0  0  0  0  0  0  0  # atno 8010 bound_to 7997
  139.6953  144.7102  151.1277 H   0  0  0  0  0  0  0  0  0  0  0  0  # atno 10167 bound_to 10162
  156.8716  130.9785  151.3072 H   0  0  0  0  0  0  0  0  0  0  0  0  # atno 10718 bound_to 10713
  154.8582  135.3557  154.5687 H   0  0  0  0  0  0  0  0  0  0  0  0  # atno 10763 bound_to 10752
  153.6300  135.7002  153.5283 H   0  0  0  0  0  0  0  0  0  0  0  0  # atno 10764 bound_to 10752
  153.3057  135.4193  155.1251 H   0  0  0  0  0  0  0  0  0  0  0  0  # atno 10765 bound_to 10752
  139.9705  134.9579  156.9375 H   0  0  0  0  0  0  0  0  0  0  0  0  # atno 11005 bound_to 11000
  146.3529  140.0900  142.8613 LP  0  0  0  0  0  0  0  0  0  0  0  0  # atno 17320 bound_to 7965
  145.0945  140.9306  143.4749 LP  0  0  0  0  0  0  0  0  0  0  0  0  # atno 17321 bound_to 7965
  140.7694  143.5500  150.9215 LP  0  0  0  0  0  0  0  0  0  0  0  0  # atno 17342 bound_to 10162
  139.9180  143.6641  152.3102 LP  0  0  0  0  0  0  0  0  0  0  0  0  # atno 17343 bound_to 10162
  157.6192  130.8642  149.9080 LP  0  0  0  0  0  0  0  0  0  0  0  0  # atno 17370 bound_to 10713
  156.0723  130.3683  150.0749 LP  0  0  0  0  0  0  0  0  0  0  0  0  # atno 17371 bound_to 10713
  140.5304  134.0819  155.7314 LP  0  0  0  0  0  0  0  0  0  0  0  0  # atno 17394 bound_to 11000
  141.1384  133.9181  157.2381 LP  0  0  0  0  0  0  0  0  0  0  0  0  # atno 17395 bound_to 11000

$$$$
