AV-unprocessed.smi:2926|AV-procd|sdf|11228|dock7
  -GOLD-   2272016123D 1   1.00000     0.00000
 Structure written by MMmdl.
 31 31  0  0  0  0  0  0  0  0  2 V2000
  150.6404  140.5993  155.8631 C   0  0  0  0  0  0  0  0  0  0  0  0
  151.2982  139.2094  155.6846 C   0  0  0  0  0  0  0  0  0  0  0  0
  150.5716  138.4637  154.5421 C   0  0  0  0  0  0  0  0  0  0  0  0
  151.3687  138.3948  157.0158 C   0  0  1  0  0  0  0  0  0  0  0  0
  152.0111  139.1481  158.2038 C   0  0  0  0  0  0  0  0  0  0  0  0
  153.3924  139.3846  158.0065 O   0  0  0  0  0  0  0  0  0  0  0  0
  150.0313  137.9557  157.3993 N   0  5  0  0  0  0  0  0  0  0  0  0
  149.8511  136.8864  158.6053 S   0  0  0  0  0  0  0  0  0  0  0  0
  149.8401  135.4933  158.1287 O   0  0  0  0  0  0  0  0  0  0  0  0
  150.7176  137.1962  159.7544 O   0  0  0  0  0  0  0  0  0  0  0  0
  148.1309  137.2711  159.1574 C   0  0  0  0  0  0  0  0  0  0  0  0
  147.8006  136.5323  160.4260 C   0  0  0  0  0  0  0  0  0  0  0  0
  147.7170  135.1275  160.6357 C   0  0  0  0  0  0  0  0  0  0  0  0
  147.3869  135.0197  161.9553 C   0  0  0  0  0  0  0  0  0  0  0  0
  147.2627  136.2491  162.5158 O   0  0  0  0  0  0  0  0  0  0  0  0
  147.5243  137.2085  161.5310 N   0  0  0  0  0  0  0  0  0  0  0  0
  152.0114  137.5362  156.8157 H   0  0  0  0  0  0  0  0  0  0  0  0
  149.6066  140.5239  156.2058 H   0  0  0  0  0  0  0  0  0  0  0  0
  150.6243  141.1408  154.9170 H   0  0  0  0  0  0  0  0  0  0  0  0
  151.1788  141.2339  156.5690 H   0  0  0  0  0  0  0  0  0  0  0  0
  152.3204  139.3827  155.3442 H   0  0  0  0  0  0  0  0  0  0  0  0
  149.5399  138.2161  154.7998 H   0  0  0  0  0  0  0  0  0  0  0  0
  151.0792  137.5421  154.2541 H   0  0  0  0  0  0  0  0  0  0  0  0
  150.5358  139.0814  153.6442 H   0  0  0  0  0  0  0  0  0  0  0  0
  151.5155  140.1077  158.3557 H   0  0  0  0  0  0  0  0  0  0  0  0
  151.8786  138.5927  159.1318 H   0  0  0  0  0  0  0  0  0  0  0  0
  153.8785  138.7378  158.4940 H   0  0  0  0  0  0  0  0  0  0  0  0
  148.0710  138.3485  159.3128 H   0  0  0  0  0  0  0  0  0  0  0  0
  147.4403  137.0197  158.3528 H   0  0  0  0  0  0  0  0  0  0  0  0
  147.8840  134.3278  159.9289 H   0  0  0  0  0  0  0  0  0  0  0  0
  147.2107  134.1790  162.6098 H   0  0  0  0  0  0  0  0  0  0  0  0
  1  2  1  0  0  0  0
  1 18  1  0  0  0  0
  1 19  1  0  0  0  0
  1 20  1  0  0  0  0
  2  3  1  0  0  0  0
  2  4  1  0  0  0  0
  2 21  1  0  0  0  0
  3 22  1  0  0  0  0
  3 23  1  0  0  0  0
  3 24  1  0  0  0  0
  4 17  1  0  0  0  0
  4  5  1  0  0  0  0
  4  7  1  0  0  0  0
  5  6  1  0  0  0  0
  5 25  1  0  0  0  0
  5 26  1  0  0  0  0
  6 27  1  0  0  0  0
  7  8  1  0  0  0  0
  8  9  2  0  0  0  0
  8 10  2  0  0  0  0
  8 11  1  0  0  0  0
 11 12  1  0  0  0  0
 11 28  1  0  0  0  0
 11 29  1  0  0  0  0
 12 16  2  0  0  0  0
 12 13  1  0  0  0  0
 13 14  2  0  0  0  0
 13 30  1  0  0  0  0
 14 15  1  0  0  0  0
 14 31  1  0  0  0  0
 15 16  1  0  0  0  0
M  CHG  1   7  -1
M  END
> <s_m_source_file>
AV-unprocessed.smi

> <i_m_source_file_index>
2926

> <i_lp_mmshare_version>
43012

> <i_f3d_flags>
0

> <s_epik_input>
W0NIM11bQ0hdKFtDSDNdKVtDQEBIXShbQ0gyXVtPSF0pW05IXVMoPU8pKD1PKVtDSDJdYzFbY0hdW2NIXW9uMQ==

> <s_epik_cmdline>
J2VwaWtfcHl0aG9uJywgJy1waCcsICc3LjAnLCAnLXRuJywgJzgnLCAnLW1hJywgJzIwMCcsICctbWV0YWxfYmluZGluZycsICctaW1hZScsICc8aW5maWxlLm1hZT4nLCAnLW9tYWUnLCAnPG91dGZpbGUubWFlPic=

> <r_lp_tautomer_probability>
1

> <r_epik_Ionization_Penalty>
4.75719

> <r_epik_Ionization_Penalty_Charging>
4.75718

> <r_epik_Ionization_Penalty_Neutral>
1.48962e-06

> <r_epik_State_Penalty>
4.75699

> <r_epik_Charging_Adjusted_Penalty>
9.51417

> <i_epik_Tot_Q>
-1

> <i_epik_Tot_abs_Q>
1

> <r_epik_Metal_State_Penalty>
0.961449

> <b_epik_Metal_Only>
1

> <s_lp_Force_Field>
OPLS_2005

> <r_lp_Energy>
4.17098

> <b_lp_Chiralities_Consistent>
1

> <s_lp_Variant>
AV-unprocessed.smi:2926-3

> <Gold.Version>
5.8.1

> <Gold.Id.Protein>
6NUR|6NUR_protein|mol2

> <Gold.PLP.Fitness>
37.4087

> <Gold.PLP.PLP>
-26.8182

> <Gold.PLP.part.hbond>
-5.0032

> <Gold.PLP.part.metal>
0.0000

> <Gold.PLP.part.buried>
-4.7632

> <Gold.PLP.part.nonpolar>
-17.5989

> <Gold.PLP.part.repulsive>
0.0000

> <Gold.PLP.ligand.clash>
0.0000

> <Gold.PLP.ligand.torsion>
0.8922

> <Gold.PLP.Chemscore.Hbond>
3.7680

> <Gold.PLP.Chemscore.CHOScore>
0.0000

> <Gold.PLP.Chemscore.Metal>
0.0000

> <Gold.Chemscore.Hbonds>
donor molecule, donor type, donor heavy atom, donor atom, acceptor molecule, acceptor atom, score
      P1  H  6896  6907       L1     9  1.00
      P1  H  6931  6943       L1    16  0.94
      P1  H  6934  6947       L1    16  0.83
      P1  H  7997  8009       L1     6  1.00

> <Gold.PLP.Chemscore.Internal.Correction>
1.0710

> <Gold.Rescore>
     Score         DG    S(hbond)    S(metal)    S(lipo)     H(rot)  DE(clash)    DE(int)     intcor
     13.14     -15.68       3.24        0.00      51.09       2.58       0.00       2.54       ----

> <Gold.Chemscore.Fitness>
13.1383

> <Gold.Chemscore.DG>
-15.6810

> <Gold.Chemscore.ZeroCoef>
-5.4800

> <Gold.Chemscore.Hbond>
3.2401

> <Gold.Chemscore.Metal>
0.0000

> <Gold.Chemscore.Lipo>
51.0911

> <Gold.Chemscore.Internal_Hbond>
0.0000

> <Gold.Chemscore.DEClash>
0.0021

> <Gold.Chemscore.DEInternal>
2.5406

> <Gold.Chemscore.Rot>
2.5776

> <Gold.Chemscore.Internal.Correction>
   9.000000E+99

> <Gold.Chemscore.Hbonds>
donor molecule, donor type, donor heavy atom, donor atom, acceptor molecule, acceptor atom, score
      P1  H  6896  6907       L1     9  0.47
      P1  H  6931  6943       L1    16  0.47
      P1  H  6934  6947       L1    16  0.41
      P1  H  7997  8009       L1     6  0.35

> <Gold.Chemscore.Hbond.Weighted>
-10.8221

> <Gold.Chemscore.Metal.Weighted>
-0.0000

> <Gold.Chemscore.Lipo.Weighted>
-5.9777

> <Gold.Chemscore.Internal_Hbond.Weighted>
0.0000

> <Gold.Chemscore.DEClash.Weighted>
0.0021

> <Gold.Chemscore.DEInternal.Weighted>
2.5406

> <Gold.Chemscore.Rot.Weighted>
6.5987

> <Gold.Chemscore.Internal.Correction.Weighted>
   9.000000E+99

> <Gold.Protein.RotatedTorsions>
[ 6907 6896 6895 6894 ] final  -74.91 input  -60.11 | X-H torsion
[ 7974 7965 7964 7962 ] final -112.51 input  175.53 | X-H torsion
[ 8008 7997 7996 7995 ] final  155.94 input   59.86 | X-H torsion
[ 10167 10162 10161 10158 ] final -158.39 input  -65.29 | X-H torsion
[ 10718 10713 10712 10709 ] final   76.85 input   66.30 | X-H torsion
[ 10763 10752 10751 10750 ] final   11.83 input  -60.55 | X-H torsion
[ 11005 11000 10999 10996 ] final  -60.20 input  -57.11 | X-H torsion

> <Gold.Protein.ActiveResidues>
 VAL166  LYS551  ARG553  GLY616  TRP617  ASP618  TYR619  PRO620  LYS621  CYS622 
 ASP623  PHE694  ASN695  SER759  ASP760  ASP761  ALA762  ILE779  LEU786  VAL792 
 PHE793  MET794  SER795  GLU796  ALA797  LYS798  CYS799  TRP800  GLU811  SER814 

> <Gold.Protein.RotatedAtoms>
  150.7076  134.4798  159.5464 H   0  0  0  0  0  0  0  0  0  0  0  0  # atno 6907 bound_to 6896
  152.2438  134.8199  160.0465 H   0  0  0  0  0  0  0  0  0  0  0  0  # atno 6908 bound_to 6896
  151.8971  133.3494  159.3855 H   0  0  0  0  0  0  0  0  0  0  0  0  # atno 6909 bound_to 6896
  145.1432  140.8789  143.3690 H   0  0  0  0  0  0  0  0  0  0  0  0  # atno 7974 bound_to 7965
  156.2450  140.1926  156.6879 H   0  0  0  0  0  0  0  0  0  0  0  0  # atno 8008 bound_to 7997
  154.6273  140.0600  156.9715 H   0  0  0  0  0  0  0  0  0  0  0  0  # atno 8009 bound_to 7997
  155.1766  140.3273  155.4385 H   0  0  0  0  0  0  0  0  0  0  0  0  # atno 8010 bound_to 7997
  139.6696  143.9769  152.2275 H   0  0  0  0  0  0  0  0  0  0  0  0  # atno 10167 bound_to 10162
  157.6689  130.9794  150.1557 H   0  0  0  0  0  0  0  0  0  0  0  0  # atno 10718 bound_to 10713
  153.1885  135.6839  153.8383 H   0  0  0  0  0  0  0  0  0  0  0  0  # atno 10763 bound_to 10752
  153.7690  135.3199  155.3350 H   0  0  0  0  0  0  0  0  0  0  0  0  # atno 10764 bound_to 10752
  154.8103  135.4721  154.0597 H   0  0  0  0  0  0  0  0  0  0  0  0  # atno 10765 bound_to 10752
  141.1278  133.6620  156.5187 H   0  0  0  0  0  0  0  0  0  0  0  0  # atno 11005 bound_to 11000
  145.0510  139.3181  143.5928 LP  0  0  0  0  0  0  0  0  0  0  0  0  # atno 17320 bound_to 7965
  146.3503  139.9918  142.8685 LP  0  0  0  0  0  0  0  0  0  0  0  0  # atno 17321 bound_to 7965
  139.9530  144.6608  150.8153 LP  0  0  0  0  0  0  0  0  0  0  0  0  # atno 17342 bound_to 10162
  140.7613  143.3170  151.2710 LP  0  0  0  0  0  0  0  0  0  0  0  0  # atno 17343 bound_to 10162
  156.2345  130.3685  149.8407 LP  0  0  0  0  0  0  0  0  0  0  0  0  # atno 17370 bound_to 10713
  156.6224  130.8632  151.3478 LP  0  0  0  0  0  0  0  0  0  0  0  0  # atno 17371 bound_to 10713
  140.4310  134.7102  157.4942 LP  0  0  0  0  0  0  0  0  0  0  0  0  # atno 17394 bound_to 11000
  140.0294  134.6429  155.9128 LP  0  0  0  0  0  0  0  0  0  0  0  0  # atno 17395 bound_to 11000

$$$$
