#       Name:                AV-unprocessed.smi:2734
#       Creating user name   scv26
#       Creation time:       Fri Mar 27 14:58:17 2020


#       File generated by GOLD software.
#

@<TRIPOS>MOLECULE
AV-unprocessed.smi:2734
    46    48     1
SMALL
NO_CHARGES


@<TRIPOS>ATOM
      1 ****        -1.7434   5.2208   2.4611 C.3            1 S1                 0.0000
      2 ****        -1.6974   3.9936   1.5678 C.ar           1 S1                 0.0000
      3 ****        -2.0626   4.1194   0.2084 C.ar           1 S1                 0.0000
      4 ****        -2.0318   3.0032  -0.6561 C.ar           1 S1                 0.0000
      5 ****        -2.3418   2.8989  -2.0012 N.2            1 S1                 0.0000
      6 ****        -2.1143   1.6083  -2.2291 C.2            1 S1                 0.0000
      7 ****        -1.6937   0.8634  -1.1886 N.pl3          1 S1                 0.0000
      8 ****        -1.3843  -0.5551  -1.1917 C.3            1 S1                 0.0000
      9 ****         0.1317  -0.8267  -1.2178 C.3            1 S1                 0.0000
     10 ****         0.6914  -0.2694  -2.3917 O.3            1 S1                 0.0000
     11 ****         0.4460  -2.3304  -1.1711 C.3            1 S1                 0.0000
     12 ****         2.2305  -2.6517  -1.0204 S.3            1 S1                 0.0000
     13 ****         2.2181  -4.4179  -0.9963 C.2            1 S1                 0.0000
     14 ****         1.1476  -5.2039  -1.0224 N.2            1 S1                 0.0000
     15 ****         1.6701  -6.4826  -0.9851 N.2            1 S1                 0.0000
     16 ****         2.9702  -6.4594  -0.9384 N.2            1 S1                 0.0000
     17 ****         3.3350  -5.1544  -0.9453 N.pl3          1 S1                 0.0000
     18 ****         4.7308  -4.7668  -0.9001 C.3            1 S1                 0.0000
     19 ****        -1.6239   1.7477  -0.1184 C.ar           1 S1                 0.0000
     20 ****        -1.2588   1.6094   1.2322 C.ar           1 S1                 0.0000
     21 ****        -1.2934   2.7350   2.0817 C.ar           1 S1                 0.0000
     22 ****        -0.8940   2.5765   3.5381 C.3            1 S1                 0.0000
     23 ****        -2.0889   6.0988   1.9147 H              1 S1                 0.0000
     24 ****        -0.7518   5.4419   2.8568 H              1 S1                 0.0000
     25 ****        -2.4230   5.0597   3.2980 H              1 S1                 0.0000
     26 ****        -2.3698   5.0777  -0.1837 H              1 S1                 0.0000
     27 ****        -2.2595   1.1791  -3.2098 H              1 S1                 0.0000
     28 ****        -1.8320  -1.0002  -0.3024 H              1 S1                 0.0000
     29 ****        -1.8711  -1.0187  -2.0512 H              1 S1                 0.0000
     30 ****         0.5953  -0.3402  -0.3586 H              1 S1                 0.0000
     31 ****         1.6255  -0.4131  -2.3749 H              1 S1                 0.0000
     32 ****        -0.0556  -2.7808  -0.3137 H              1 S1                 0.0000
     33 ****         0.0625  -2.8247  -2.0648 H              1 S1                 0.0000
     34 ****         4.9326  -4.2350   0.0297 H              1 S1                 0.0000
     35 ****         4.9581  -4.1130  -1.7424 H              1 S1                 0.0000
     36 ****         5.3744  -5.6458  -0.9521 H              1 S1                 0.0000
     37 ****        -0.9531   0.6447   1.6094 H              1 S1                 0.0000
     38 ****        -0.6002   1.5503   3.7607 H              1 S1                 0.0000
     39 ****        -1.7261   2.8359   4.1928 H              1 S1                 0.0000
     40 ****        -0.0502   3.2247   3.7755 H              1 S1                 0.0000
     41 ****        -2.6543   3.6070  -2.6344 LP             1 S1                 0.0000
     42 ****         0.5013   0.7119  -2.4233 LP             1 S1                 0.0000
     43 ****         0.2963  -0.7116  -3.1969 LP             1 S1                 0.0000
     44 ****         0.1858  -4.9329  -1.0603 LP             1 S1                 0.0000
     45 ****         1.1202  -7.3177  -0.9930 LP             1 S1                 0.0000
     46 ****         3.5811  -7.2504  -0.9041 LP             1 S1                 0.0000
@<TRIPOS>BOND
    1    1    2 1     
    2    1   23 1     
    3    1   24 1     
    4    1   25 1     
    5    2   21 ar    
    6    2    3 ar    
    7    3    4 ar    
    8    3   26 1     
    9    4   19 ar    
   10    4    5 1     
   11    5    6 2     
   12    6    7 1     
   13    6   27 1     
   14    7    8 1     
   15    7   19 1     
   16    8    9 1     
   17    8   28 1     
   18    8   29 1     
   19    9   10 1     
   20    9   11 1     
   21    9   30 1     
   22   10   31 1     
   23   11   12 1     
   24   11   32 1     
   25   11   33 1     
   26   12   13 1     
   27   13   17 1     
   28   13   14 2     
   29   14   15 1     
   30   15   16 2     
   31   16   17 1     
   32   17   18 1     
   33   18   34 1     
   34   18   35 1     
   35   18   36 1     
   36   19   20 ar    
   37   20   21 ar    
   38   20   37 1     
   39   21   22 1     
   40   22   38 1     
   41   22   39 1     
   42   22   40 1     
   43    5   41 1     
   44   10   42 1     
   45   10   43 1     
   46   14   44 1     
   47   15   45 1     
   48   16   46 1     
@<TRIPOS>SUBSTRUCTURE
      1 S1             1
@<TRIPOS>SET
LONE_PAIRS      STATIC     ATOMS    <user>   **** ""
6 41 42 43 44 45 46
DONOR_HYDROGENS      STATIC     ATOMS    <user>   **** ""
1 31
ATOM$BLUE        STATIC     ATOMS    COLORGROUP SYSTEM
6 41 42 43 44 45 46
ATOM$RED        STATIC     ATOMS    COLORGROUP SYSTEM
1 31
