AV-unprocessed.smi:2336|AV-procd|sdf|9330|dock5
  -GOLD-   2272012553D 1   1.00000     0.00000
 Structure written by MMmdl.
 50 51  0  0  0  0  0  0  0  0  2 V2000
  145.7192  141.4120  155.0629 C   0  0  0  0  0  0  0  0  0  0  0  0
  147.1498  140.8430  154.9774 C   0  0  0  0  0  0  0  0  0  0  0  0
  147.9786  141.7313  154.0295 C   0  0  0  0  0  0  0  0  0  0  0  0
  147.1602  139.3405  154.5668 C   0  0  1  0  0  0  0  0  0  0  0  0
  146.5760  139.1077  153.1424 C   0  0  0  0  0  0  0  0  0  0  0  0
  146.8367  137.7689  152.6194 N   0  0  0  0  0  0  0  0  0  0  0  0
  145.9116  136.8332  152.3598 C   0  0  0  0  0  0  0  0  0  0  0  0
  144.7077  136.9947  152.5560 O   0  0  0  0  0  0  0  0  0  0  0  0
  146.4773  135.7180  151.8682 N   0  0  0  0  0  0  0  0  0  0  0  0
  145.8504  134.5262  151.4108 C   0  0  0  0  0  0  0  0  0  0  0  0
  144.5754  134.4825  150.7961 C   0  0  0  0  0  0  0  0  0  0  0  0
  144.0751  133.2356  150.3691 C   0  0  0  0  0  0  0  0  0  0  0  0
  144.7510  132.0755  150.5072 N   0  0  0  0  0  0  0  0  0  0  0  0
  145.9717  132.1229  151.0811 C   0  0  0  0  0  0  0  0  0  0  0  0
  146.5641  133.3161  151.5415 C   0  0  0  0  0  0  0  0  0  0  0  0
  147.7974  133.2957  152.1023 F   0  0  0  0  0  0  0  0  0  0  0  0
  148.5293  138.7669  154.7664 N   0  3  0  0  0  0  0  0  0  0  0  0
  149.0942  138.8723  156.1360 C   0  0  0  0  0  0  0  0  0  0  0  0
  150.3767  138.0232  156.2501 C   0  0  0  0  0  0  0  0  0  0  0  0
  151.3782  138.3993  155.2501 N   0  0  0  0  0  0  0  0  0  0  0  0
  151.9862  139.7006  155.5076 C   0  0  0  0  0  0  0  0  0  0  0  0
  150.8088  138.2856  153.9060 C   0  0  0  0  0  0  0  0  0  0  0  0
  149.5355  139.1402  153.7401 C   0  0  0  0  0  0  0  0  0  0  0  0
  145.1952  141.3127  154.1118 H   0  0  0  0  0  0  0  0  0  0  0  0
  145.7331  142.4712  155.3221 H   0  0  0  0  0  0  0  0  0  0  0  0
  145.1237  140.9124  155.8270 H   0  0  0  0  0  0  0  0  0  0  0  0
  147.5958  140.9355  155.9682 H   0  0  0  0  0  0  0  0  0  0  0  0
  147.6556  141.6185  152.9941 H   0  0  0  0  0  0  0  0  0  0  0  0
  149.0427  141.5037  154.0794 H   0  0  0  0  0  0  0  0  0  0  0  0
  147.8779  142.7850  154.2919 H   0  0  0  0  0  0  0  0  0  0  0  0
  146.4989  138.8328  155.2708 H   0  0  0  0  0  0  0  0  0  0  0  0
  145.4913  139.1979  153.1619 H   0  0  0  0  0  0  0  0  0  0  0  0
  146.9239  139.8846  152.4598 H   0  0  0  0  0  0  0  0  0  0  0  0
  147.8029  137.5348  152.4424 H   0  0  0  0  0  0  0  0  0  0  0  0
  147.4869  135.7011  151.8523 H   0  0  0  0  0  0  0  0  0  0  0  0
  143.9811  135.3681  150.6332 H   0  0  0  0  0  0  0  0  0  0  0  0
  143.1064  133.1700  149.8964 H   0  0  0  0  0  0  0  0  0  0  0  0
  146.4936  131.1819  151.1739 H   0  0  0  0  0  0  0  0  0  0  0  0
  149.3065  139.9068  156.3952 H   0  0  0  0  0  0  0  0  0  0  0  0
  148.3664  138.5143  156.8635 H   0  0  0  0  0  0  0  0  0  0  0  0
  150.8049  138.1136  157.2492 H   0  0  0  0  0  0  0  0  0  0  0  0
  150.1296  136.9694  156.1142 H   0  0  0  0  0  0  0  0  0  0  0  0
  152.7666  139.9032  154.7733 H   0  0  0  0  0  0  0  0  0  0  0  0
  152.4510  139.7109  156.4940 H   0  0  0  0  0  0  0  0  0  0  0  0
  151.2668  140.5177  155.4671 H   0  0  0  0  0  0  0  0  0  0  0  0
  151.5574  138.5699  153.1655 H   0  0  0  0  0  0  0  0  0  0  0  0
  150.5718  137.2377  153.7169 H   0  0  0  0  0  0  0  0  0  0  0  0
  149.1234  138.9666  152.7456 H   0  0  0  0  0  0  0  0  0  0  0  0
  149.7850  140.1978  153.7914 H   0  0  0  0  0  0  0  0  0  0  0  0
  148.3968  137.7765  154.6195 H   0  0  0  0  0  0  0  0  0  0  0  0
  1  2  1  0  0  0  0
  1 24  1  0  0  0  0
  1 25  1  0  0  0  0
  1 26  1  0  0  0  0
  2  3  1  0  0  0  0
  2  4  1  0  0  0  0
  2 27  1  0  0  0  0
  3 28  1  0  0  0  0
  3 29  1  0  0  0  0
  3 30  1  0  0  0  0
  4  5  1  0  0  0  0
  4 17  1  0  0  0  0
  4 31  1  0  0  0  0
  5  6  1  0  0  0  0
  5 32  1  0  0  0  0
  5 33  1  0  0  0  0
  6  7  1  0  0  0  0
  6 34  1  0  0  0  0
  7  8  2  0  0  0  0
  7  9  1  0  0  0  0
  9 10  1  0  0  0  0
  9 35  1  0  0  0  0
 10 15  1  0  0  0  0
 10 11  2  0  0  0  0
 11 12  1  0  0  0  0
 11 36  1  0  0  0  0
 12 13  2  0  0  0  0
 12 37  1  0  0  0  0
 13 14  1  0  0  0  0
 14 15  2  0  0  0  0
 14 38  1  0  0  0  0
 15 16  1  0  0  0  0
 17 23  1  0  0  0  0
 17 18  1  0  0  0  0
 17 50  1  0  0  0  0
 18 19  1  0  0  0  0
 18 39  1  0  0  0  0
 18 40  1  0  0  0  0
 19 20  1  0  0  0  0
 19 41  1  0  0  0  0
 19 42  1  0  0  0  0
 20 21  1  0  0  0  0
 20 22  1  0  0  0  0
 21 43  1  0  0  0  0
 21 44  1  0  0  0  0
 21 45  1  0  0  0  0
 22 23  1  0  0  0  0
 22 46  1  0  0  0  0
 22 47  1  0  0  0  0
 23 48  1  0  0  0  0
 23 49  1  0  0  0  0
M  CHG  1  17   1
M  END
> <s_m_source_file>
AV-unprocessed.smi

> <i_m_source_file_index>
2336

> <i_lp_mmshare_version>
43012

> <i_f3d_flags>
0

> <s_epik_input>
W0NIMl0xW0NIMl1OKFtDSDNdKVtDSDJdW0NIMl1OMVtDQEhdKFtDSF0oW0NIM10pW0NIM10pW0NIMl1bTkhdQyg9TylbTkhdYzJbY0hdW2NIXW5bY0hdYzJG

> <s_epik_cmdline>
J2VwaWtfcHl0aG9uJywgJy1waCcsICc3LjAnLCAnLXRuJywgJzgnLCAnLW1hJywgJzIwMCcsICctbWV0YWxfYmluZGluZycsICctaW1hZScsICc8aW5maWxlLm1hZT4nLCAnLW9tYWUnLCAnPG91dGZpbGUubWFlPic=

> <r_epik_Ionization_Penalty>
0.204575

> <r_epik_Ionization_Penalty_Charging>
0.20006

> <r_epik_Ionization_Penalty_Neutral>
0.00451444

> <r_epik_State_Penalty>
1.43207

> <r_epik_Charging_Adjusted_Penalty>
1.63213

> <i_epik_Tot_Q>
1

> <i_epik_Tot_abs_Q>
1

> <r_epik_Metal_State_Penalty>
1.43277

> <b_epik_Metal_Only>
0

> <s_lp_Force_Field>
OPLS_2005

> <r_lp_Energy>
38.4551

> <b_lp_Chiralities_Consistent>
1

> <s_lp_Variant>
AV-unprocessed.smi:2336-4

> <Gold.Version>
5.8.1

> <Gold.Id.Protein>
6NUR|6NUR_protein|mol2

> <Gold.PLP.Fitness>
43.3279

> <Gold.PLP.PLP>
-34.0091

> <Gold.PLP.part.hbond>
-1.8551

> <Gold.PLP.part.metal>
0.0000

> <Gold.PLP.part.buried>
-2.8773

> <Gold.PLP.part.nonpolar>
-29.6055

> <Gold.PLP.part.repulsive>
0.6499

> <Gold.PLP.ligand.clash>
0.0000

> <Gold.PLP.ligand.torsion>
0.4768

> <Gold.PLP.Chemscore.Hbond>
1.9033

> <Gold.PLP.Chemscore.CHOScore>
1.4019

> <Gold.PLP.Chemscore.Metal>
0.0000

> <Gold.Chemscore.Hbonds>
donor molecule, donor type, donor heavy atom, donor atom, acceptor molecule, acceptor atom, score
      L1  H     6    34       P1  7948  0.91
      L1  H     9    35       P1  7948  0.99
      L1  C    12    37       P1 10186  1.00
      L1  C    14    38       P1 10747  0.57

> <Gold.PLP.Chemscore.Internal.Correction>
0.3568

> <Gold.Rescore>
     Score         DG    S(hbond)    S(metal)    S(lipo)     H(rot)  DE(clash)    DE(int)     intcor
     16.15     -17.34       1.90        0.00      83.71       1.67       0.58       0.62       ----

> <Gold.Chemscore.Fitness>
16.1465

> <Gold.Chemscore.DG>
-17.3420

> <Gold.Chemscore.ZeroCoef>
-5.4800

> <Gold.Chemscore.Hbond>
1.9022

> <Gold.Chemscore.Metal>
0.0000

> <Gold.Chemscore.Lipo>
83.7078

> <Gold.Chemscore.Internal_Hbond>
0.0000

> <Gold.Chemscore.DEClash>
0.5787

> <Gold.Chemscore.DEInternal>
0.6168

> <Gold.Chemscore.Rot>
1.6739

> <Gold.Chemscore.Internal.Correction>
   9.000000E+99

> <Gold.Chemscore.Hbonds>
donor molecule, donor type, donor heavy atom, donor atom, acceptor molecule, acceptor atom, score
      L1  H     6    34       P1  7948  0.90
      L1  H     9    35       P1  7948  0.92

> <Gold.Chemscore.Hbond.Weighted>
-6.3533

> <Gold.Chemscore.Metal.Weighted>
-0.0000

> <Gold.Chemscore.Lipo.Weighted>
-9.7938

> <Gold.Chemscore.Internal_Hbond.Weighted>
0.0000

> <Gold.Chemscore.DEClash.Weighted>
0.5787

> <Gold.Chemscore.DEInternal.Weighted>
0.6168

> <Gold.Chemscore.Rot.Weighted>
4.2851

> <Gold.Chemscore.Internal.Correction.Weighted>
   9.000000E+99

> <Gold.Protein.RotatedTorsions>
[ 6907 6896 6895 6894 ] final -115.08 input  -60.11 | X-H torsion
[ 7974 7965 7964 7962 ] final  171.94 input  175.53 | X-H torsion
[ 8008 7997 7996 7995 ] final  -89.78 input   59.86 | X-H torsion
[ 10167 10162 10161 10158 ] final   84.49 input  -65.29 | X-H torsion
[ 10718 10713 10712 10709 ] final -140.65 input   66.30 | X-H torsion
[ 10763 10752 10751 10750 ] final -138.50 input  -60.55 | X-H torsion
[ 11005 11000 10999 10996 ] final -177.90 input  -57.11 | X-H torsion

> <Gold.Protein.ActiveResidues>
 VAL166  LYS551  ARG553  GLY616  TRP617  ASP618  TYR619  PRO620  LYS621  CYS622 
 ASP623  PHE694  ASN695  SER759  ASP760  ASP761  ALA762  ILE779  LEU786  VAL792 
 PHE793  MET794  SER795  GLU796  ALA797  LYS798  CYS799  TRP800  GLU811  SER814 

> <Gold.Protein.RotatedAtoms>
  150.7951  133.8709  159.3258 H   0  0  0  0  0  0  0  0  0  0  0  0  # atno 6907 bound_to 6896
  151.6536  135.0996  160.0175 H   0  0  0  0  0  0  0  0  0  0  0  0  # atno 6908 bound_to 6896
  152.4031  133.6809  159.6368 H   0  0  0  0  0  0  0  0  0  0  0  0  # atno 6909 bound_to 6896
  144.7281  139.9424  143.6429 H   0  0  0  0  0  0  0  0  0  0  0  0  # atno 7974 bound_to 7965
  154.6907  140.0538  157.0360 H   0  0  0  0  0  0  0  0  0  0  0  0  # atno 8008 bound_to 7997
  155.0821  140.3210  155.4579 H   0  0  0  0  0  0  0  0  0  0  0  0  # atno 8009 bound_to 7997
  156.2727  140.2063  156.5948 H   0  0  0  0  0  0  0  0  0  0  0  0  # atno 8010 bound_to 7997
  139.9075  144.6292  150.8572 H   0  0  0  0  0  0  0  0  0  0  0  0  # atno 10167 bound_to 10162
  156.3248  130.7554  151.1659 H   0  0  0  0  0  0  0  0  0  0  0  0  # atno 10718 bound_to 10713
  154.8635  135.3610  154.5396 H   0  0  0  0  0  0  0  0  0  0  0  0  # atno 10763 bound_to 10752
  153.6018  135.7012  153.5386 H   0  0  0  0  0  0  0  0  0  0  0  0  # atno 10764 bound_to 10752
  153.3284  135.4131  155.1436 H   0  0  0  0  0  0  0  0  0  0  0  0  # atno 10765 bound_to 10752
  140.4358  134.6477  157.4734 H   0  0  0  0  0  0  0  0  0  0  0  0  # atno 11005 bound_to 11000
  146.0774  139.3762  143.0485 LP  0  0  0  0  0  0  0  0  0  0  0  0  # atno 17320 bound_to 7965
  145.7887  140.9824  143.1061 LP  0  0  0  0  0  0  0  0  0  0  0  0  # atno 17321 bound_to 7965
  140.7693  143.3390  151.2247 LP  0  0  0  0  0  0  0  0  0  0  0  0  # atno 17342 bound_to 10162
  139.6971  143.9594  152.2888 LP  0  0  0  0  0  0  0  0  0  0  0  0  # atno 17343 bound_to 10162
  157.7419  131.0497  150.5064 LP  0  0  0  0  0  0  0  0  0  0  0  0  # atno 17370 bound_to 10713
  156.5221  130.4164  149.6245 LP  0  0  0  0  0  0  0  0  0  0  0  0  # atno 17371 bound_to 10713
  140.0103  134.6700  155.9391 LP  0  0  0  0  0  0  0  0  0  0  0  0  # atno 17394 bound_to 11000
  141.1726  133.6538  156.4709 LP  0  0  0  0  0  0  0  0  0  0  0  0  # atno 17395 bound_to 11000

$$$$
