AV-unprocessed.smi:1575|AV-procd|sdf|6339|dock5
  -GOLD-   22720 6553D 1   1.00000     0.00000
 Structure written by MMmdl.
 41 41  0  0  0  0  0  0  0  0  1 V2000
  150.3067  136.0079  155.1321 C   0  0  0  0  0  0  0  0  0  0  0  0
  149.4461  137.0039  154.5132 N   0  0  0  0  0  0  0  0  0  0  0  0
  149.3002  138.2588  154.9623 C   0  0  0  0  0  0  0  0  0  0  0  0
  149.9001  138.6937  155.9470 O   0  0  0  0  0  0  0  0  0  0  0  0
  148.3432  139.1600  154.1633 C   0  0  2  0  0  0  0  0  0  0  0  0
  147.3796  139.8372  155.1669 C   0  0  0  0  0  0  0  0  0  0  0  0
  146.5971  141.0495  154.6105 C   0  0  0  0  0  0  0  0  0  0  0  0
  147.5228  142.1413  154.0477 C   0  0  0  0  0  0  0  0  0  0  0  0
  145.6725  141.6360  155.6879 C   0  0  0  0  0  0  0  0  0  0  0  0
  147.5574  138.3505  153.2325 N   0  0  0  0  0  0  0  0  0  0  0  0
  146.5319  137.5538  153.5697 C   0  0  0  0  0  0  0  0  0  0  0  0
  146.1340  137.4199  154.7278 O   0  0  0  0  0  0  0  0  0  0  0  0
  145.8411  136.8170  152.4144 C   0  0  0  0  0  0  0  0  0  0  0  0
  144.5116  136.3076  152.7788 N   0  0  0  0  0  0  0  0  0  0  0  0
  143.3893  137.1114  152.6370 C   0  0  0  0  0  0  0  0  0  0  0  0
  142.1378  136.7077  152.9603 C   0  0  0  0  0  0  0  0  0  0  0  0
  141.9072  135.3674  153.4887 C   0  0  0  0  0  0  0  0  0  0  0  0
  140.8124  134.9094  153.8076 O   0  0  0  0  0  0  0  0  0  0  0  0
  143.0614  134.5904  153.6196 N   0  0  0  0  0  0  0  0  0  0  0  0
  144.3543  135.0012  153.2911 C   0  0  0  0  0  0  0  0  0  0  0  0
  145.3054  134.2370  153.4507 O   0  0  0  0  0  0  0  0  0  0  0  0
  142.9512  133.6553  153.9837 H   0  0  0  0  0  0  0  0  0  0  0  0
  150.2663  135.0777  154.5655 H   0  0  0  0  0  0  0  0  0  0  0  0
  149.9852  135.7996  156.1534 H   0  0  0  0  0  0  0  0  0  0  0  0
  151.3426  136.3485  155.1550 H   0  0  0  0  0  0  0  0  0  0  0  0
  148.9239  136.7213  153.6965 H   0  0  0  0  0  0  0  0  0  0  0  0
  148.9206  139.9122  153.6231 H   0  0  0  0  0  0  0  0  0  0  0  0
  146.6634  139.0969  155.5285 H   0  0  0  0  0  0  0  0  0  0  0  0
  147.9388  140.1600  156.0469 H   0  0  0  0  0  0  0  0  0  0  0  0
  145.9552  140.7080  153.7977 H   0  0  0  0  0  0  0  0  0  0  0  0
  148.2296  142.4896  154.8015 H   0  0  0  0  0  0  0  0  0  0  0  0
  146.9484  143.0038  153.7087 H   0  0  0  0  0  0  0  0  0  0  0  0
  148.0941  141.7837  153.1913 H   0  0  0  0  0  0  0  0  0  0  0  0
  146.2428  142.0162  156.5362 H   0  0  0  0  0  0  0  0  0  0  0  0
  144.9779  140.8841  156.0636 H   0  0  0  0  0  0  0  0  0  0  0  0
  145.0783  142.4593  155.2904 H   0  0  0  0  0  0  0  0  0  0  0  0
  147.8074  138.4126  152.2563 H   0  0  0  0  0  0  0  0  0  0  0  0
  145.7660  137.5066  151.5725 H   0  0  0  0  0  0  0  0  0  0  0  0
  146.4718  135.9987  152.0603 H   0  0  0  0  0  0  0  0  0  0  0  0
  143.5130  138.1140  152.2528 H   0  0  0  0  0  0  0  0  0  0  0  0
  141.3028  137.3805  152.8279 H   0  0  0  0  0  0  0  0  0  0  0  0
  1  2  1  0  0  0  0
  1 23  1  0  0  0  0
  1 24  1  0  0  0  0
  1 25  1  0  0  0  0
  2  3  1  0  0  0  0
  2 26  1  0  0  0  0
  3  4  2  0  0  0  0
  3  5  1  0  0  0  0
  5  6  1  0  0  0  0
  5 10  1  0  0  0  0
  5 27  1  0  0  0  0
  6  7  1  0  0  0  0
  6 28  1  0  0  0  0
  6 29  1  0  0  0  0
  7  8  1  0  0  0  0
  7  9  1  0  0  0  0
  7 30  1  0  0  0  0
  8 31  1  0  0  0  0
  8 32  1  0  0  0  0
  8 33  1  0  0  0  0
  9 34  1  0  0  0  0
  9 35  1  0  0  0  0
  9 36  1  0  0  0  0
 10 11  1  0  0  0  0
 10 37  1  0  0  0  0
 11 12  2  0  0  0  0
 11 13  1  0  0  0  0
 13 14  1  0  0  0  0
 13 38  1  0  0  0  0
 13 39  1  0  0  0  0
 14 20  1  0  0  0  0
 14 15  1  0  0  0  0
 15 16  2  0  0  0  0
 15 40  1  0  0  0  0
 16 17  1  0  0  0  0
 16 41  1  0  0  0  0
 17 18  2  0  0  0  0
 17 19  1  0  0  0  0
 19 22  1  0  0  0  0
 19 20  1  0  0  0  0
 20 21  2  0  0  0  0
M  END
> <s_m_source_file>
AV-unprocessed.smi

> <i_m_source_file_index>
1575

> <i_lp_mmshare_version>
43012

> <i_f3d_flags>
0

> <s_epik_input>
W0NIM11bTkhdQyg9TylbQ0BIXShbQ0gyXVtDSF0oW0NIM10pW0NIM10pW05IXUMoPU8pW0NIMl1uMVtjSF1bY0hdYyg9TylbbkhdYzE9Tw==

> <s_epik_cmdline>
J2VwaWtfcHl0aG9uJywgJy1waCcsICc3LjAnLCAnLXRuJywgJzgnLCAnLW1hJywgJzIwMCcsICctbWV0YWxfYmluZGluZycsICctaW1hZScsICc8aW5maWxlLm1hZT4nLCAnLW9tYWUnLCAnPG91dGZpbGUubWFlPic=

> <r_lp_tautomer_probability>
0.999537

> <r_epik_Ionization_Penalty>
0.00357166

> <r_epik_Ionization_Penalty_Charging>
0.00357161

> <r_epik_Ionization_Penalty_Neutral>
5.44484e-08

> <r_epik_State_Penalty>
0.00253761

> <r_epik_Charging_Adjusted_Penalty>
0.00610921

> <i_epik_Tot_Q>
0

> <i_epik_Tot_abs_Q>
0

> <r_epik_Metal_State_Penalty>
0.368734

> <b_epik_Metal_Only>
0

> <s_lp_Force_Field>
OPLS_2005

> <r_lp_Energy>
6.26633

> <b_lp_Chiralities_Consistent>
1

> <s_lp_Variant>
AV-unprocessed.smi:1575-1

> <Gold.Version>
5.8.1

> <Gold.Id.Protein>
6NUR|6NUR_protein|mol2

> <Gold.PLP.Fitness>
39.2580

> <Gold.PLP.PLP>
-27.0681

> <Gold.PLP.part.hbond>
-4.9694

> <Gold.PLP.part.metal>
0.0000

> <Gold.PLP.part.buried>
-5.8891

> <Gold.PLP.part.nonpolar>
-16.7455

> <Gold.PLP.part.repulsive>
0.4219

> <Gold.PLP.ligand.clash>
0.0000

> <Gold.PLP.ligand.torsion>
1.1634

> <Gold.PLP.Chemscore.Hbond>
2.8960

> <Gold.PLP.Chemscore.CHOScore>
1.8896

> <Gold.PLP.Chemscore.Metal>
0.0000

> <Gold.Chemscore.Hbonds>
donor molecule, donor type, donor heavy atom, donor atom, acceptor molecule, acceptor atom, score
      L1  H     2    26       P1  7948  0.93
      L1  H    19    22       P1 10957  0.89
      P1  H 11000 11005       L1    18  0.93
      L1  C    15    40       P1 10171  0.86
      L1  C    15    40       P1 10175  1.00

> <Gold.PLP.Chemscore.Internal.Correction>
0.1596

> <Gold.Rescore>
     Score         DG    S(hbond)    S(metal)    S(lipo)     H(rot)  DE(clash)    DE(int)     intcor
     10.27     -13.18       2.96        0.00      42.71       2.81       0.01       2.90       ----

> <Gold.Chemscore.Fitness>
10.2716

> <Gold.Chemscore.DG>
-13.1837

> <Gold.Chemscore.ZeroCoef>
-5.4800

> <Gold.Chemscore.Hbond>
2.9621

> <Gold.Chemscore.Metal>
0.0000

> <Gold.Chemscore.Lipo>
42.7064

> <Gold.Chemscore.Internal_Hbond>
0.0000

> <Gold.Chemscore.DEClash>
0.0082

> <Gold.Chemscore.DEInternal>
2.9039

> <Gold.Chemscore.Rot>
2.8072

> <Gold.Chemscore.Internal.Correction>
   9.000000E+99

> <Gold.Chemscore.Hbonds>
donor molecule, donor type, donor heavy atom, donor atom, acceptor molecule, acceptor atom, score
      L1  H     2    26       P1  7948  0.91
      L1  H    19    22       P1 10957  0.87
      P1  H 11000 11005       L1    18  0.88

> <Gold.Chemscore.Hbond.Weighted>
-9.8935

> <Gold.Chemscore.Metal.Weighted>
-0.0000

> <Gold.Chemscore.Lipo.Weighted>
-4.9967

> <Gold.Chemscore.Internal_Hbond.Weighted>
0.0000

> <Gold.Chemscore.DEClash.Weighted>
0.0082

> <Gold.Chemscore.DEInternal.Weighted>
2.9039

> <Gold.Chemscore.Rot.Weighted>
7.1864

> <Gold.Chemscore.Internal.Correction.Weighted>
   9.000000E+99

> <Gold.Protein.RotatedTorsions>
[ 6907 6896 6895 6894 ] final -163.56 input  -60.11 | X-H torsion
[ 7974 7965 7964 7962 ] final -129.53 input  175.53 | X-H torsion
[ 8008 7997 7996 7995 ] final -128.41 input   59.86 | X-H torsion
[ 10167 10162 10161 10158 ] final  -11.79 input  -65.29 | X-H torsion
[ 10718 10713 10712 10709 ] final   22.01 input   66.30 | X-H torsion
[ 10763 10752 10751 10750 ] final  -32.21 input  -60.55 | X-H torsion
[ 11005 11000 10999 10996 ] final   21.20 input  -57.11 | X-H torsion

> <Gold.Protein.ActiveResidues>
 VAL166  LYS551  ARG553  GLY616  TRP617  ASP618  TYR619  PRO620  LYS621  CYS622 
 ASP623  PHE694  ASN695  SER759  ASP760  ASP761  ALA762  ILE779  LEU786  VAL792 
 PHE793  MET794  SER795  GLU796  ALA797  LYS798  CYS799  TRP800  GLU811  SER814 

> <Gold.Protein.RotatedAtoms>
  151.3980  133.3767  159.2728 H   0  0  0  0  0  0  0  0  0  0  0  0  # atno 6907 bound_to 6896
  150.9455  134.8861  159.7649 H   0  0  0  0  0  0  0  0  0  0  0  0  # atno 6908 bound_to 6896
  152.5089  134.3933  159.9443 H   0  0  0  0  0  0  0  0  0  0  0  0  # atno 6909 bound_to 6896
  144.9563  140.7399  143.4756 H   0  0  0  0  0  0  0  0  0  0  0  0  # atno 7974 bound_to 7965
  155.2623  140.0436  157.2998 H   0  0  0  0  0  0  0  0  0  0  0  0  # atno 8008 bound_to 7997
  154.5703  140.2372  155.8170 H   0  0  0  0  0  0  0  0  0  0  0  0  # atno 8009 bound_to 7997
  156.2117  140.2997  155.9756 H   0  0  0  0  0  0  0  0  0  0  0  0  # atno 8010 bound_to 7997
  140.7147  143.5601  150.9205 H   0  0  0  0  0  0  0  0  0  0  0  0  # atno 10167 bound_to 10162
  157.1464  130.6655  149.5997 H   0  0  0  0  0  0  0  0  0  0  0  0  # atno 10718 bound_to 10713
  153.8100  135.6883  153.4842 H   0  0  0  0  0  0  0  0  0  0  0  0  # atno 10763 bound_to 10752
  153.1634  135.4571  154.9802 H   0  0  0  0  0  0  0  0  0  0  0  0  # atno 10764 bound_to 10752
  154.7971  135.3323  154.7582 H   0  0  0  0  0  0  0  0  0  0  0  0  # atno 10765 bound_to 10752
  140.3942  134.1786  155.7663 H   0  0  0  0  0  0  0  0  0  0  0  0  # atno 11005 bound_to 11000
  145.2767  139.1934  143.4812 LP  0  0  0  0  0  0  0  0  0  0  0  0  # atno 17320 bound_to 7965
  146.3338  140.2723  142.8606 LP  0  0  0  0  0  0  0  0  0  0  0  0  # atno 17321 bound_to 7965
  139.9327  143.6474  152.3072 LP  0  0  0  0  0  0  0  0  0  0  0  0  # atno 17342 bound_to 10162
  139.6931  144.7644  151.1404 LP  0  0  0  0  0  0  0  0  0  0  0  0  # atno 17343 bound_to 10162
  155.9779  130.4760  150.6620 LP  0  0  0  0  0  0  0  0  0  0  0  0  # atno 17370 bound_to 10713
  157.4261  131.0843  151.1084 LP  0  0  0  0  0  0  0  0  0  0  0  0  # atno 17371 bound_to 10713
  141.1880  133.8270  157.1012 LP  0  0  0  0  0  0  0  0  0  0  0  0  # atno 17394 bound_to 11000
  140.0384  134.9867  157.0914 LP  0  0  0  0  0  0  0  0  0  0  0  0  # atno 17395 bound_to 11000

$$$$
