#       Name:                AV-unprocessed.smi:1698
#       Creating user name   scv26
#       Creation time:       Fri Mar 27 07:59:20 2020


#       File generated by GOLD software.
#

@<TRIPOS>MOLECULE
AV-unprocessed.smi:1698
    31    32     1
SMALL
NO_CHARGES


@<TRIPOS>ATOM
      1 ****         0.8753   2.7740   0.4432 O.2            1 S1                 0.0000
      2 ****         0.5308   1.5972   0.3541 C.2            1 S1                 0.0000
      3 ****         1.3826   0.5593   0.2512 N.am           1 S1                 0.0000
      4 ****         2.7990   0.6028   0.2205 C.2            1 S1                 0.0000
      5 ****         3.6401  -0.5368   0.1017 C.2            1 S1                 0.0000
      6 ****         4.9205  -0.1945   0.0995 N.2            1 S1                 0.0000
      7 ****         4.9045   1.1526   0.2159 N.pl3          1 S1                 0.0000
      8 ****         3.6350   1.6816   0.2929 C.2            1 S1                 0.0000
      9 ****        -0.7690   1.2502   0.3481 N.am           1 S1                 0.0000
     10 ****        -1.9410   2.1220   0.4427 C.3            1 S1                 0.0000
     11 ****        -3.2055   1.3994  -0.0585 C.3            1 S1                 0.0000
     12 ****        -4.4389   2.1978   0.3829 C.3            1 S1                 0.0000
     13 ****        -3.9780   3.0202   1.9552 S.o2           1 S1                 0.0000
     14 ****        -4.1211   4.4746   1.7903 O.2            1 S1                 0.0000
     15 ****        -4.6088   2.3199   3.0840 O.2            1 S1                 0.0000
     16 ****        -2.2029   2.5734   1.8889 C.3            1 S1                 0.0000
     17 ****         5.7588   1.6911   0.2411 H              1 S1                 0.0000
     18 ****         0.9704  -0.3595   0.1827 H              1 S1                 0.0000
     19 ****         3.3698  -1.5791   0.0180 H              1 S1                 0.0000
     20 ****         3.4552   2.7421   0.3885 H              1 S1                 0.0000
     21 ****        -0.9659   0.2641   0.2546 H              1 S1                 0.0000
     22 ****        -1.8014   3.0054  -0.1831 H              1 S1                 0.0000
     23 ****        -3.1891   1.2548  -1.1392 H              1 S1                 0.0000
     24 ****        -3.2544   0.4072   0.3931 H              1 S1                 0.0000
     25 ****        -4.6782   2.9743  -0.3439 H              1 S1                 0.0000
     26 ****        -5.3203   1.5731   0.5280 H              1 S1                 0.0000
     27 ****        -2.0398   1.7565   2.5929 H              1 S1                 0.0000
     28 ****        -1.5916   3.4226   2.1949 H              1 S1                 0.0000
     29 ****         1.8465   3.0122   0.4423 LP             1 S1                 0.0000
     30 ****         0.1843   3.4931   0.5167 LP             1 S1                 0.0000
     31 ****         5.7167  -0.7953   0.0281 LP             1 S1                 0.0000
@<TRIPOS>BOND
    1    1    2 2     
    2    2    3 am    
    3    2    9 am    
    4    3    4 1     
    5    3   18 1     
    6    4    8 2     
    7    4    5 1     
    8    5    6 2     
    9    5   19 1     
   10    6    7 1     
   11    7   17 1     
   12    7    8 1     
   13    8   20 1     
   14    9   10 1     
   15    9   21 1     
   16   10   16 1     
   17   10   11 1     
   18   10   22 1     
   19   11   12 1     
   20   11   23 1     
   21   11   24 1     
   22   12   13 1     
   23   12   25 1     
   24   12   26 1     
   25   13   14 2     
   26   13   15 2     
   27   13   16 1     
   28   16   27 1     
   29   16   28 1     
   30    1   29 1     
   31    1   30 1     
   32    6   31 1     
@<TRIPOS>SUBSTRUCTURE
      1 S1             1
@<TRIPOS>SET
LONE_PAIRS      STATIC     ATOMS    <user>   **** ""
5 29 30 31 14 15
DONOR_HYDROGENS      STATIC     ATOMS    <user>   **** ""
3 18 17 21
ATOM$BLUE        STATIC     ATOMS    COLORGROUP SYSTEM
5 29 30 31 14 15
ATOM$RED        STATIC     ATOMS    COLORGROUP SYSTEM
3 18 17 21
