#       Name:                AV-unprocessed.smi:2178
#       Creating user name   scv26
#       Creation time:       Fri Mar 27 12:04:42 2020


#       File generated by GOLD software.
#

@<TRIPOS>MOLECULE
AV-unprocessed.smi:2178
    53    55     1
SMALL
NO_CHARGES


@<TRIPOS>ATOM
      1 ****        -2.3391  -0.8878  -2.1832 C.3            1 S1                 0.0000
      2 ****        -3.3116  -1.0930  -1.0367 C.ar           1 S1                 0.0000
      3 ****        -4.5880  -1.6355  -1.2919 C.ar           1 S1                 0.0000
      4 ****        -5.5023  -1.8207  -0.2385 C.ar           1 S1                 0.0000
      5 ****        -5.1467  -1.4577   1.0736 C.ar           1 S1                 0.0000
      6 ****        -3.8738  -0.9125   1.3406 C.ar           1 S1                 0.0000
      7 ****        -3.5187  -0.5121   2.7604 C.3            1 S1                 0.0000
      8 ****        -2.9469  -0.7426   0.2845 C.ar           1 S1                 0.0000
      9 ****        -1.7058  -0.2142   0.5291 O.3            1 S1                 0.0000
     10 ****        -0.7306  -1.1857   0.8792 C.3            1 S1                 0.0000
     11 ****         0.6555  -0.5273   0.8568 C.3            1 S1                 0.0000
     12 ****         1.5909  -1.4253   1.4195 O.3            1 S1                 0.0000
     13 ****         1.0935  -0.1339  -0.5682 C.3            1 S1                 0.0000
     14 ****         2.3842   0.5413  -0.5886 N.pl3          1 S1                 0.0000
     15 ****         3.5942   0.0429  -0.9489 C.2            1 S1                 0.0000
     16 ****         3.7518  -1.3790  -1.4084 C.3            1 S1                 0.0000
     17 ****         5.0954  -1.7807  -1.5875 O.3            1 S1                 0.0000
     18 ****         4.6156   0.9001  -0.8722 N.2            1 S1                 0.0000
     19 ****         4.0128   2.0567  -0.4190 C.ar           1 S1                 0.0000
     20 ****         4.5609   3.3272  -0.1315 C.ar           1 S1                 0.0000
     21 ****         3.7342   4.3742   0.3264 C.ar           1 S1                 0.0000
     22 ****         2.3504   4.1670   0.5011 C.ar           1 S1                 0.0000
     23 ****         1.7843   2.9086   0.2200 C.ar           1 S1                 0.0000
     24 ****         2.6147   1.8665  -0.2343 C.ar           1 S1                 0.0000
     25 ****        -2.8290  -1.0216  -3.1480 H              1 S1                 0.0000
     26 ****        -1.5179  -1.6015  -2.1175 H              1 S1                 0.0000
     27 ****        -1.9230   0.1196  -2.1557 H              1 S1                 0.0000
     28 ****        -4.8724  -1.9102  -2.2972 H              1 S1                 0.0000
     29 ****        -6.4789  -2.2364  -0.4380 H              1 S1                 0.0000
     30 ****        -5.8574  -1.5966   1.8753 H              1 S1                 0.0000
     31 ****        -2.8949   0.3820   2.7715 H              1 S1                 0.0000
     32 ****        -2.9775  -1.3180   3.2561 H              1 S1                 0.0000
     33 ****        -4.4163  -0.2974   3.3410 H              1 S1                 0.0000
     34 ****        -0.9485  -1.5649   1.8785 H              1 S1                 0.0000
     35 ****        -0.7577  -2.0386   0.1985 H              1 S1                 0.0000
     36 ****         0.6340   0.3596   1.4912 H              1 S1                 0.0000
     37 ****         1.3346  -1.6066   2.3109 H              1 S1                 0.0000
     38 ****         1.1221  -1.0091  -1.2170 H              1 S1                 0.0000
     39 ****         0.3598   0.5417  -1.0089 H              1 S1                 0.0000
     40 ****         3.2909  -2.0475  -0.6815 H              1 S1                 0.0000
     41 ****         3.2223  -1.5066  -2.3530 H              1 S1                 0.0000
     42 ****         5.1039  -2.6801  -1.8761 H              1 S1                 0.0000
     43 ****         5.6194   3.4961  -0.2630 H              1 S1                 0.0000
     44 ****         4.1641   5.3409   0.5444 H              1 S1                 0.0000
     45 ****         1.7241   4.9743   0.8515 H              1 S1                 0.0000
     46 ****         0.7251   2.7457   0.3532 H              1 S1                 0.0000
     47 ****        -1.7839   0.4401   1.2813 LP             1 S1                 0.0000
     48 ****        -1.3968   0.2606  -0.2949 LP             1 S1                 0.0000
     49 ****         2.5023  -1.0140   1.4078 LP             1 S1                 0.0000
     50 ****         1.6018  -2.2750   0.8924 LP             1 S1                 0.0000
     51 ****         5.5898  -1.6996  -0.7220 LP             1 S1                 0.0000
     52 ****         5.5316  -1.2015  -2.2761 LP             1 S1                 0.0000
     53 ****         5.5790   0.7430  -1.0893 LP             1 S1                 0.0000
@<TRIPOS>BOND
    1    1    2 1     
    2    1   25 1     
    3    1   26 1     
    4    1   27 1     
    5    2    8 ar    
    6    2    3 ar    
    7    3    4 ar    
    8    3   28 1     
    9    4    5 ar    
   10    4   29 1     
   11    5    6 ar    
   12    5   30 1     
   13    6    7 1     
   14    6    8 ar    
   15    7   31 1     
   16    7   32 1     
   17    7   33 1     
   18    8    9 1     
   19    9   10 1     
   20   10   11 1     
   21   10   34 1     
   22   10   35 1     
   23   11   12 1     
   24   11   13 1     
   25   11   36 1     
   26   12   37 1     
   27   13   14 1     
   28   13   38 1     
   29   13   39 1     
   30   14   24 1     
   31   14   15 1     
   32   15   16 1     
   33   15   18 2     
   34   16   17 1     
   35   16   40 1     
   36   16   41 1     
   37   17   42 1     
   38   18   19 1     
   39   19   24 ar    
   40   19   20 ar    
   41   20   21 ar    
   42   20   43 1     
   43   21   22 ar    
   44   21   44 1     
   45   22   23 ar    
   46   22   45 1     
   47   23   24 ar    
   48   23   46 1     
   49    9   47 1     
   50    9   48 1     
   51   12   49 1     
   52   12   50 1     
   53   17   51 1     
   54   17   52 1     
   55   18   53 1     
@<TRIPOS>SUBSTRUCTURE
      1 S1             1
@<TRIPOS>SET
LONE_PAIRS      STATIC     ATOMS    <user>   **** ""
7 47 48 49 50 51 52 53
DONOR_HYDROGENS      STATIC     ATOMS    <user>   **** ""
2 37 42
ATOM$BLUE        STATIC     ATOMS    COLORGROUP SYSTEM
7 47 48 49 50 51 52 53
ATOM$RED        STATIC     ATOMS    COLORGROUP SYSTEM
2 37 42
