#       Name:                AV-unprocessed.smi:21
#       Creating user name   scv26
#       Creation time:       Thu Mar 26 15:30:20 2020


#       File generated by GOLD software.
#

@<TRIPOS>MOLECULE
AV-unprocessed.smi:21
    72    75     1
SMALL
NO_CHARGES


@<TRIPOS>ATOM
      1 ****        -4.9320  -2.8489  -5.1889 C.3            1 S1                 0.0000
      2 ****        -4.8963  -1.7393  -4.3058 O.3            1 S1                 0.0000
      3 ****        -3.9118  -1.8563  -3.2894 C.3            1 S1                 0.0000
      4 ****        -3.7844  -0.5510  -2.5158 C.3            1 S1                 0.0000
      5 ****        -3.1686  -0.9968  -1.1865 C.3            1 S1                 0.0000
      6 ****        -3.4467  -0.0184  -0.0256 C.3            1 S1                 0.0000
      7 ****        -2.8330   1.2956  -0.2083 N.3            1 S1                 0.0000
      8 ****        -3.2722   2.3339   0.7126 C.3            1 S1                 0.0000
      9 ****        -1.4890   1.2904  -0.3457 C.ar           1 S1                 0.0000
     10 ****        -0.9831   1.7950  -1.4972 N.ar           1 S1                 0.0000
     11 ****         0.3389   1.8117  -1.6941 C.ar           1 S1                 0.0000
     12 ****         1.3096   1.3834  -0.8835 N.ar           1 S1                 0.0000
     13 ****         0.8013   0.8811   0.2782 C.ar           1 S1                 0.0000
     14 ****        -0.5755   0.7935   0.6264 C.ar           1 S1                 0.0000
     15 ****        -0.7112   0.2214   1.8857 N.2            1 S1                 0.0000
     16 ****         0.5165  -0.0121   2.2627 C.2            1 S1                 0.0000
     17 ****         1.4877   0.3605   1.3607 N.pl3          1 S1                 0.0000
     18 ****         2.9250   0.2200   1.5201 C.3            1 S1                 0.0000
     19 ****         3.6526   1.5732   1.7410 C.3            1 S1                 0.0000
     20 ****         3.0515   2.3697   2.9250 C.3            1 S1                 0.0000
     21 ****         3.5742   3.6807   2.9815 O.3            1 S1                 0.0000
     22 ****         5.1968   1.4396   1.8676 C.3            1 S1                 0.0000
     23 ****         5.9230   0.7795   0.7095 C.3            1 S1                 0.0000
     24 ****         7.2950   0.5278   1.3253 C.3            1 S1                 0.0000
     25 ****         7.0437   0.2199   2.6933 O.3            1 S1                 0.0000
     26 ****         5.7300   0.6370   3.0593 C.3            1 S1                 0.0000
     27 ****        -3.7537  -2.3320  -0.9203 N.4            1 S1                 1.0000
     28 ****        -2.8426  -3.2606  -0.2158 C.3            1 S1                 0.0000
     29 ****        -4.2855  -2.8664  -2.1966 C.3            1 S1                 0.0000
     30 ****        -2.9386  -2.1069  -3.7161 H              1 S1                 0.0000
     31 ****        -2.0944  -1.1240  -1.3345 H              1 S1                 0.0000
     32 ****        -5.6950  -2.6849  -5.9497 H              1 S1                 0.0000
     33 ****        -5.1781  -3.7724  -4.6640 H              1 S1                 0.0000
     34 ****        -3.9758  -2.9793  -5.6968 H              1 S1                 0.0000
     35 ****        -3.1793   0.1918  -3.0368 H              1 S1                 0.0000
     36 ****        -4.7731  -0.1207  -2.3481 H              1 S1                 0.0000
     37 ****        -4.5237   0.1156   0.0829 H              1 S1                 0.0000
     38 ****        -3.1036  -0.4478   0.9155 H              1 S1                 0.0000
     39 ****        -2.7989   3.2895   0.4818 H              1 S1                 0.0000
     40 ****        -3.0315   2.0703   1.7434 H              1 S1                 0.0000
     41 ****        -4.3514   2.4711   0.6391 H              1 S1                 0.0000
     42 ****         0.6662   2.2295  -2.6348 H              1 S1                 0.0000
     43 ****         0.7493  -0.4588   3.2185 H              1 S1                 0.0000
     44 ****         3.1047  -0.4563   2.3552 H              1 S1                 0.0000
     45 ****         3.2953  -0.2820   0.6274 H              1 S1                 0.0000
     46 ****         3.4715   2.1678   0.8442 H              1 S1                 0.0000
     47 ****         1.9707   2.4678   2.8290 H              1 S1                 0.0000
     48 ****         3.2404   1.8634   3.8719 H              1 S1                 0.0000
     49 ****         3.1634   4.1377   3.6996 H              1 S1                 0.0000
     50 ****         5.6138   2.4449   1.9473 H              1 S1                 0.0000
     51 ****         5.4741  -0.1754   0.4400 H              1 S1                 0.0000
     52 ****         5.9656   1.4039  -0.1833 H              1 S1                 0.0000
     53 ****         7.8377  -0.2760   0.8272 H              1 S1                 0.0000
     54 ****         7.9055   1.4305   1.2769 H              1 S1                 0.0000
     55 ****         5.7480   1.2259   3.9767 H              1 S1                 0.0000
     56 ****         5.1376  -0.2572   3.2471 H              1 S1                 0.0000
     57 ****        -1.9609  -3.4811  -0.8194 H              1 S1                 0.0000
     58 ****        -3.3515  -4.1997   0.0029 H              1 S1                 0.0000
     59 ****        -2.5120  -2.8304   0.7302 H              1 S1                 0.0000
     60 ****        -5.3697  -2.9350  -2.0979 H              1 S1                 0.0000
     61 ****        -3.9143  -3.8656  -2.4293 H              1 S1                 0.0000
     62 ****        -4.5545  -2.1859  -0.3223 H              1 S1                 0.0000
     63 ****        -5.7922  -1.6524  -3.8702 LP             1 S1                 0.0000
     64 ****        -4.7039  -0.9159  -4.8396 LP             1 S1                 0.0000
     65 ****        -3.2045   1.5533  -1.1002 LP             1 S1                 0.0000
     66 ****        -1.5982   2.1545  -2.1989 LP             1 S1                 0.0000
     67 ****         2.2849   1.4255  -1.1005 LP             1 S1                 0.0000
     68 ****        -1.5552   0.0321   2.3876 LP             1 S1                 0.0000
     69 ****         3.3814   4.1577   2.1240 LP             1 S1                 0.0000
     70 ****         4.5629   3.6434   3.1272 LP             1 S1                 0.0000
     71 ****         7.7123   0.6935   3.2666 LP             1 S1                 0.0000
     72 ****         7.1270  -0.7672   2.8303 LP             1 S1                 0.0000
@<TRIPOS>BOND
    1    1    2 1     
    2    1   32 1     
    3    1   33 1     
    4    1   34 1     
    5    2    3 1     
    6    3   30 1     
    7    3   29 1     
    8    3    4 1     
    9    4    5 1     
   10    4   35 1     
   11    4   36 1     
   12    5   31 1     
   13    5    6 1     
   14    5   27 1     
   15    6    7 1     
   16    6   37 1     
   17    6   38 1     
   18    7    8 1     
   19    7    9 1     
   20    8   39 1     
   21    8   40 1     
   22    8   41 1     
   23    9   14 ar    
   24    9   10 ar    
   25   10   11 ar    
   26   11   12 ar    
   27   11   42 1     
   28   12   13 ar    
   29   13   17 1     
   30   13   14 ar    
   31   14   15 1     
   32   15   16 2     
   33   16   17 1     
   34   16   43 1     
   35   17   18 1     
   36   18   19 1     
   37   18   44 1     
   38   18   45 1     
   39   19   20 1     
   40   19   22 1     
   41   19   46 1     
   42   20   21 1     
   43   20   47 1     
   44   20   48 1     
   45   21   49 1     
   46   22   26 1     
   47   22   23 1     
   48   22   50 1     
   49   23   24 1     
   50   23   51 1     
   51   23   52 1     
   52   24   25 1     
   53   24   53 1     
   54   24   54 1     
   55   25   26 1     
   56   26   55 1     
   57   26   56 1     
   58   27   28 1     
   59   27   29 1     
   60   27   62 1     
   61   28   57 1     
   62   28   58 1     
   63   28   59 1     
   64   29   60 1     
   65   29   61 1     
   66    2   63 1     
   67    2   64 1     
   68    7   65 1     
   69   10   66 1     
   70   12   67 1     
   71   15   68 1     
   72   21   69 1     
   73   21   70 1     
   74   25   71 1     
   75   25   72 1     
@<TRIPOS>SUBSTRUCTURE
      1 S1             1
@<TRIPOS>SET
LONE_PAIRS      STATIC     ATOMS    <user>   **** ""
10 63 64 65 66 67 68 69 70 71 72
DONOR_HYDROGENS      STATIC     ATOMS    <user>   **** ""
2 49 62
ATOM$BLUE        STATIC     ATOMS    COLORGROUP SYSTEM
10 63 64 65 66 67 68 69 70 71 72
ATOM$RED        STATIC     ATOMS    COLORGROUP SYSTEM
2 49 62
