AV-unprocessed.smi:2104|AV-procd|sdf|8589|dock5
  -GOLD-   2272011323D 1   1.00000     0.00000
 Structure written by MMmdl.
 42 43  0  0  0  0  0  0  0  0  2 V2000
  148.5717  140.3031  154.5313 C   0  0  0  0  0  0  0  0  0  0  0  0
  149.4708  139.1261  154.6932 C   0  0  0  0  0  0  0  0  0  0  0  0
  149.2438  137.8229  155.0344 C   0  0  0  0  0  0  0  0  0  0  0  0
  150.5440  137.2494  155.0069 C   0  0  0  0  0  0  0  0  0  0  0  0
  150.8502  135.9699  155.2700 N   0  5  0  0  0  0  0  0  0  0  0  0
  149.8668  135.0816  155.5421 C   0  0  0  0  0  0  0  0  0  0  0  0
  149.7025  134.4789  156.6054 O   0  0  0  0  0  0  0  0  0  0  0  0
  149.0366  134.8632  154.5120 N   0  0  0  0  0  0  0  0  0  0  0  0
  147.9692  133.8683  154.4692 C   0  0  0  0  0  0  0  0  0  0  0  0
  146.7912  134.3603  153.6148 C   0  0  0  0  0  0  0  0  0  0  0  0
  146.1388  133.2410  153.0352 O   0  0  0  0  0  0  0  0  0  0  0  0
  146.6658  132.8143  151.7855 C   0  0  2  0  0  0  0  0  0  0  0  0
  146.4887  133.9782  150.7928 C   0  0  0  0  0  0  0  0  0  0  0  0
  145.0046  134.2708  150.5115 C   0  0  0  0  0  0  0  0  0  0  0  0
  144.2703  133.0137  150.0223 C   0  0  0  0  0  0  0  0  0  0  0  0
  144.4350  131.8504  151.0127 C   0  0  0  0  0  0  0  0  0  0  0  0
  145.9213  131.5492  151.2907 C   0  0  2  0  0  0  0  0  0  0  0  0
  146.0863  130.3463  152.2318 C   0  0  0  0  0  0  0  0  0  0  0  0
  151.4755  138.1233  154.6624 N   0  0  0  0  0  0  0  0  0  0  0  0
  150.7959  139.3311  154.4651 O   0  0  0  0  0  0  0  0  0  0  0  0
  148.2944  140.4346  153.4854 H   0  0  0  0  0  0  0  0  0  0  0  0
  149.0611  141.2165  154.8704 H   0  0  0  0  0  0  0  0  0  0  0  0
  147.6573  140.1749  155.1110 H   0  0  0  0  0  0  0  0  0  0  0  0
  148.3006  137.3544  155.2725 H   0  0  0  0  0  0  0  0  0  0  0  0
  149.2060  135.3857  153.6652 H   0  0  0  0  0  0  0  0  0  0  0  0
  148.3383  132.9074  154.1074 H   0  0  0  0  0  0  0  0  0  0  0  0
  147.6314  133.7045  155.4924 H   0  0  0  0  0  0  0  0  0  0  0  0
  146.0775  134.9054  154.2336 H   0  0  0  0  0  0  0  0  0  0  0  0
  147.1503  135.0499  152.8499 H   0  0  0  0  0  0  0  0  0  0  0  0
  147.7335  132.6016  151.8692 H   0  0  0  0  0  0  0  0  0  0  0  0
  146.9773  134.8736  151.1782 H   0  0  0  0  0  0  0  0  0  0  0  0
  146.9914  133.7337  149.8564 H   0  0  0  0  0  0  0  0  0  0  0  0
  144.5254  134.6424  151.4183 H   0  0  0  0  0  0  0  0  0  0  0  0
  144.9168  135.0647  149.7696 H   0  0  0  0  0  0  0  0  0  0  0  0
  143.2116  133.2332  149.8812 H   0  0  0  0  0  0  0  0  0  0  0  0
  144.6585  132.7203  149.0462 H   0  0  0  0  0  0  0  0  0  0  0  0
  143.9233  132.0898  151.9456 H   0  0  0  0  0  0  0  0  0  0  0  0
  143.9417  130.9626  150.6156 H   0  0  0  0  0  0  0  0  0  0  0  0
  146.3759  131.2632  150.3410 H   0  0  0  0  0  0  0  0  0  0  0  0
  145.6055  130.5225  153.1937 H   0  0  0  0  0  0  0  0  0  0  0  0
  147.1389  130.1312  152.4160 H   0  0  0  0  0  0  0  0  0  0  0  0
  145.6372  129.4505  151.8027 H   0  0  0  0  0  0  0  0  0  0  0  0
  1  2  1  0  0  0  0
  1 21  1  0  0  0  0
  1 22  1  0  0  0  0
  1 23  1  0  0  0  0
  2 20  1  0  0  0  0
  2  3  2  0  0  0  0
  3  4  1  0  0  0  0
  3 24  1  0  0  0  0
  4  5  1  0  0  0  0
  4 19  2  0  0  0  0
  5  6  1  0  0  0  0
  6  7  2  0  0  0  0
  6  8  1  0  0  0  0
  8  9  1  0  0  0  0
  8 25  1  0  0  0  0
  9 10  1  0  0  0  0
  9 26  1  0  0  0  0
  9 27  1  0  0  0  0
 10 11  1  0  0  0  0
 10 28  1  0  0  0  0
 10 29  1  0  0  0  0
 11 12  1  0  0  0  0
 12 17  1  0  0  0  0
 12 13  1  0  0  0  0
 12 30  1  0  0  0  0
 13 14  1  0  0  0  0
 13 31  1  0  0  0  0
 13 32  1  0  0  0  0
 14 15  1  0  0  0  0
 14 33  1  0  0  0  0
 14 34  1  0  0  0  0
 15 16  1  0  0  0  0
 15 35  1  0  0  0  0
 15 36  1  0  0  0  0
 16 17  1  0  0  0  0
 16 37  1  0  0  0  0
 16 38  1  0  0  0  0
 17 18  1  0  0  0  0
 17 39  1  0  0  0  0
 18 40  1  0  0  0  0
 18 41  1  0  0  0  0
 18 42  1  0  0  0  0
 19 20  1  0  0  0  0
M  CHG  1   5  -1
M  END
> <s_m_source_file>
AV-unprocessed.smi

> <i_m_source_file_index>
2104

> <i_lp_mmshare_version>
43012

> <i_f3d_flags>
0

> <s_epik_input>
W0NIM11jMVtjSF1jKG5vMSlbTkhdQyg9TylbTkhdW0NIMl1bQ0gyXU9bQ0BASF0yW0NIMl1bQ0gyXVtDSDJdW0NIMl1bQ0BIXTJbQ0gzXQ==

> <s_epik_cmdline>
J2VwaWtfcHl0aG9uJywgJy1waCcsICc3LjAnLCAnLXRuJywgJzgnLCAnLW1hJywgJzIwMCcsICctbWV0YWxfYmluZGluZycsICctaW1hZScsICc8aW5maWxlLm1hZT4nLCAnLW9tYWUnLCAnPG91dGZpbGUubWFlPic=

> <r_lp_tautomer_probability>
1

> <r_epik_Ionization_Penalty>
6.47137

> <r_epik_Ionization_Penalty_Charging>
6.47125

> <r_epik_Ionization_Penalty_Neutral>
0.000118933

> <r_epik_State_Penalty>
6.47124

> <r_epik_Charging_Adjusted_Penalty>
12.9425

> <i_epik_Tot_Q>
-1

> <i_epik_Tot_abs_Q>
1

> <r_epik_Metal_State_Penalty>
2.3995

> <b_epik_Metal_Only>
1

> <s_lp_Force_Field>
OPLS_2005

> <r_lp_Energy>
3.94735

> <b_lp_Chiralities_Consistent>
1

> <s_lp_Variant>
AV-unprocessed.smi:2104-7

> <Gold.Version>
5.8.1

> <Gold.Id.Protein>
6NUR|6NUR_protein|mol2

> <Gold.PLP.Fitness>
43.0079

> <Gold.PLP.PLP>
-33.1144

> <Gold.PLP.part.hbond>
-3.0000

> <Gold.PLP.part.metal>
0.0000

> <Gold.PLP.part.buried>
-6.1688

> <Gold.PLP.part.nonpolar>
-25.0652

> <Gold.PLP.part.repulsive>
0.5856

> <Gold.PLP.ligand.clash>
0.0000

> <Gold.PLP.ligand.torsion>
1.1493

> <Gold.PLP.Chemscore.Hbond>
4.0000

> <Gold.PLP.Chemscore.CHOScore>
0.0000

> <Gold.PLP.Chemscore.Metal>
0.0000

> <Gold.Chemscore.Hbonds>
donor molecule, donor type, donor heavy atom, donor atom, acceptor molecule, acceptor atom, score
      L1  H     8    25       P1  7948  1.00
      P1  H  7989  7998       L1    20  1.00
      P1  H 10752 10763       L1     5  0.85

> <Gold.PLP.Chemscore.Internal.Correction>
0.1921

> <Gold.Rescore>
     Score         DG    S(hbond)    S(metal)    S(lipo)     H(rot)  DE(clash)    DE(int)     intcor
     16.41     -17.53       2.32        0.00      74.28       1.71       0.02       1.10       ----

> <Gold.Chemscore.Fitness>
16.4143

> <Gold.Chemscore.DG>
-17.5342

> <Gold.Chemscore.ZeroCoef>
-5.4800

> <Gold.Chemscore.Hbond>
2.3180

> <Gold.Chemscore.Metal>
0.0000

> <Gold.Chemscore.Lipo>
74.2767

> <Gold.Chemscore.Internal_Hbond>
0.0000

> <Gold.Chemscore.DEClash>
0.0155

> <Gold.Chemscore.DEInternal>
1.1044

> <Gold.Chemscore.Rot>
1.7103

> <Gold.Chemscore.Internal.Correction>
   9.000000E+99

> <Gold.Chemscore.Hbonds>
donor molecule, donor type, donor heavy atom, donor atom, acceptor molecule, acceptor atom, score
      L1  H     8    25       P1  7948  0.44
      P1  H  7989  7998       L1    20  0.96
      P1  H 10752 10763       L1     5  0.25

> <Gold.Chemscore.Hbond.Weighted>
-7.7422

> <Gold.Chemscore.Metal.Weighted>
-0.0000

> <Gold.Chemscore.Lipo.Weighted>
-8.6904

> <Gold.Chemscore.Internal_Hbond.Weighted>
0.0000

> <Gold.Chemscore.DEClash.Weighted>
0.0155

> <Gold.Chemscore.DEInternal.Weighted>
1.1044

> <Gold.Chemscore.Rot.Weighted>
4.3784

> <Gold.Chemscore.Internal.Correction.Weighted>
   9.000000E+99

> <Gold.Protein.RotatedTorsions>
[ 6907 6896 6895 6894 ] final   13.30 input  -60.11 | X-H torsion
[ 7974 7965 7964 7962 ] final  176.59 input  175.53 | X-H torsion
[ 8008 7997 7996 7995 ] final  -12.42 input   59.86 | X-H torsion
[ 10167 10162 10161 10158 ] final   18.40 input  -65.29 | X-H torsion
[ 10718 10713 10712 10709 ] final  -65.56 input   66.30 | X-H torsion
[ 10763 10752 10751 10750 ] final   48.90 input  -60.55 | X-H torsion
[ 11005 11000 10999 10996 ] final  -36.82 input  -57.11 | X-H torsion

> <Gold.Protein.ActiveResidues>
 VAL166  LYS551  ARG553  GLY616  TRP617  ASP618  TYR619  PRO620  LYS621  CYS622 
 ASP623  PHE694  ASN695  SER759  ASP760  ASP761  ALA762  ILE779  LEU786  VAL792 
 PHE793  MET794  SER795  GLU796  ALA797  LYS798  CYS799  TRP800  GLU811  SER814 

> <Gold.Protein.RotatedAtoms>
  151.7840  135.0754  160.0377 H   0  0  0  0  0  0  0  0  0  0  0  0  # atno 6907 bound_to 6896
  152.3203  133.5842  159.5748 H   0  0  0  0  0  0  0  0  0  0  0  0  # atno 6908 bound_to 6896
  150.7366  133.9937  159.3657 H   0  0  0  0  0  0  0  0  0  0  0  0  # atno 6909 bound_to 6896
  144.7182  140.0119  143.6440 H   0  0  0  0  0  0  0  0  0  0  0  0  # atno 7974 bound_to 7965
  154.5379  140.2276  155.8691 H   0  0  0  0  0  0  0  0  0  0  0  0  # atno 8008 bound_to 7997
  156.1830  140.3095  155.9146 H   0  0  0  0  0  0  0  0  0  0  0  0  # atno 8009 bound_to 7997
  155.3317  140.0445  157.3033 H   0  0  0  0  0  0  0  0  0  0  0  0  # atno 8010 bound_to 7997
  140.5655  143.9258  150.6674 H   0  0  0  0  0  0  0  0  0  0  0  0  # atno 10167 bound_to 10162
  156.0663  130.4249  150.1581 H   0  0  0  0  0  0  0  0  0  0  0  0  # atno 10718 bound_to 10713
  152.9789  135.5929  154.4001 H   0  0  0  0  0  0  0  0  0  0  0  0  # atno 10763 bound_to 10752
  154.3647  135.2767  155.2302 H   0  0  0  0  0  0  0  0  0  0  0  0  # atno 10764 bound_to 10752
  154.4283  135.6042  153.6108 H   0  0  0  0  0  0  0  0  0  0  0  0  # atno 10765 bound_to 10752
  140.9904  133.7008  156.1840 H   0  0  0  0  0  0  0  0  0  0  0  0  # atno 11005 bound_to 11000
  146.0251  139.3285  143.0789 LP  0  0  0  0  0  0  0  0  0  0  0  0  # atno 17320 bound_to 7965
  145.8520  140.9523  143.0744 LP  0  0  0  0  0  0  0  0  0  0  0  0  # atno 17321 bound_to 7965
  140.2720  143.3449  152.1230 LP  0  0  0  0  0  0  0  0  0  0  0  0  # atno 17342 bound_to 10162
  139.5091  144.6861  151.5883 LP  0  0  0  0  0  0  0  0  0  0  0  0  # atno 17343 bound_to 10162
  156.9640  130.9814  151.3473 LP  0  0  0  0  0  0  0  0  0  0  0  0  # atno 17370 bound_to 10713
  157.5706  130.8308  149.8386 LP  0  0  0  0  0  0  0  0  0  0  0  0  # atno 17371 bound_to 10713
  140.7048  134.4525  157.5584 LP  0  0  0  0  0  0  0  0  0  0  0  0  # atno 17394 bound_to 11000
  139.8990  134.8601  156.1979 LP  0  0  0  0  0  0  0  0  0  0  0  0  # atno 17395 bound_to 11000

$$$$
