AV-unprocessed.smi:549|AV-procd|sdf|2893|dock7
  -GOLD-   2262023383D 1   1.00000     0.00000
 Structure written by MMmdl.
 44 45  0  0  0  0  0  0  0  0  2 V2000
  146.6601  136.8961  151.5988 C   0  0  0  0  0  0  0  0  0  0  0  0
  146.1809  138.2645  151.6937 N   0  0  0  0  0  0  0  0  0  0  0  0
  146.8553  139.2011  152.4875 C   0  0  0  0  0  0  0  0  0  0  0  0
  146.4577  140.5501  152.6412 C   0  0  0  0  0  0  0  0  0  0  0  0
  147.2142  141.4042  153.4699 C   0  0  0  0  0  0  0  0  0  0  0  0
  148.3605  140.9106  154.1290 C   0  0  0  0  0  0  0  0  0  0  0  0
  149.0808  141.8077  154.9644 N   0  0  0  0  0  0  0  0  0  0  0  0
  150.1538  141.5592  155.7354 C   0  0  0  0  0  0  0  0  0  0  0  0
  150.7343  140.4774  155.8201 O   0  0  0  0  0  0  0  0  0  0  0  0
  150.5379  142.6571  156.4023 N   0  0  0  0  0  0  0  0  0  0  0  0
  151.6702  142.7273  157.3217 C   0  0  0  0  0  0  0  0  0  0  0  0
  151.4490  141.7648  158.4977 C   0  0  0  0  0  0  0  0  0  0  0  0
  152.5983  141.8518  159.5175 C   0  0  0  0  0  0  0  0  0  0  0  0
  152.8191  143.2388  159.9740 N   0  0  0  0  0  0  0  0  0  0  0  0
  152.2110  143.7520  161.5219 S   0  0  0  0  0  0  0  0  0  0  0  0
  153.3261  142.9352  162.7356 C   0  0  0  0  0  0  0  0  0  0  0  0
  152.4094  145.2060  161.6234 O   0  0  0  0  0  0  0  0  0  0  0  0
  150.8627  143.1871  161.6852 O   0  0  0  0  0  0  0  0  0  0  0  0
  152.9981  144.2239  158.8883 C   0  0  0  0  0  0  0  0  0  0  0  0
  151.8529  144.1555  157.8630 C   0  0  0  0  0  0  0  0  0  0  0  0
  148.7049  139.5491  153.9448 C   0  0  0  0  0  0  0  0  0  0  0  0
  147.9522  138.7642  153.1436 N   0  3  0  0  0  0  0  0  0  0  0  0
  146.0146  136.3229  150.9333 H   0  0  0  0  0  0  0  0  0  0  0  0
  146.6537  136.4150  152.5773 H   0  0  0  0  0  0  0  0  0  0  0  0
  147.6734  136.8667  151.1974 H   0  0  0  0  0  0  0  0  0  0  0  0
  145.3398  138.5262  151.1996 H   0  0  0  0  0  0  0  0  0  0  0  0
  145.5851  140.9407  152.1391 H   0  0  0  0  0  0  0  0  0  0  0  0
  146.9141  142.4348  153.5933 H   0  0  0  0  0  0  0  0  0  0  0  0
  148.7619  142.7655  154.9476 H   0  0  0  0  0  0  0  0  0  0  0  0
  150.0077  143.5059  156.2705 H   0  0  0  0  0  0  0  0  0  0  0  0
  152.5777  142.4243  156.7955 H   0  0  0  0  0  0  0  0  0  0  0  0
  150.5012  141.9870  158.9871 H   0  0  0  0  0  0  0  0  0  0  0  0
  151.3685  140.7411  158.1302 H   0  0  0  0  0  0  0  0  0  0  0  0
  152.4019  141.1984  160.3671 H   0  0  0  0  0  0  0  0  0  0  0  0
  153.5198  141.4904  159.0593 H   0  0  0  0  0  0  0  0  0  0  0  0
  153.0099  143.2027  163.7436 H   0  0  0  0  0  0  0  0  0  0  0  0
  154.3497  143.2735  162.5858 H   0  0  0  0  0  0  0  0  0  0  0  0
  153.2688  141.8541  162.6237 H   0  0  0  0  0  0  0  0  0  0  0  0
  153.0815  145.2303  159.2978 H   0  0  0  0  0  0  0  0  0  0  0  0
  153.9453  144.0166  158.3890 H   0  0  0  0  0  0  0  0  0  0  0  0
  152.0641  144.8439  157.0439 H   0  0  0  0  0  0  0  0  0  0  0  0
  150.9250  144.5017  158.3172 H   0  0  0  0  0  0  0  0  0  0  0  0
  149.5398  139.0473  154.4097 H   0  0  0  0  0  0  0  0  0  0  0  0
  148.2284  137.7882  153.0321 H   0  0  0  0  0  0  0  0  0  0  0  0
  1  2  1  0  0  0  0
  1 23  1  0  0  0  0
  1 24  1  0  0  0  0
  1 25  1  0  0  0  0
  2  3  1  0  0  0  0
  2 26  1  0  0  0  0
  3 22  1  0  0  0  0
  3  4  2  0  0  0  0
  4  5  1  0  0  0  0
  4 27  1  0  0  0  0
  5  6  2  0  0  0  0
  5 28  1  0  0  0  0
  6  7  1  0  0  0  0
  6 21  1  0  0  0  0
  7  8  1  0  0  0  0
  7 29  1  0  0  0  0
  8  9  2  0  0  0  0
  8 10  1  0  0  0  0
 10 11  1  0  0  0  0
 10 30  1  0  0  0  0
 11 20  1  0  0  0  0
 11 12  1  0  0  0  0
 11 31  1  0  0  0  0
 12 13  1  0  0  0  0
 12 32  1  0  0  0  0
 12 33  1  0  0  0  0
 13 14  1  0  0  0  0
 13 34  1  0  0  0  0
 13 35  1  0  0  0  0
 14 15  1  0  0  0  0
 14 19  1  0  0  0  0
 15 16  1  0  0  0  0
 15 17  2  0  0  0  0
 15 18  2  0  0  0  0
 16 36  1  0  0  0  0
 16 37  1  0  0  0  0
 16 38  1  0  0  0  0
 19 20  1  0  0  0  0
 19 39  1  0  0  0  0
 19 40  1  0  0  0  0
 20 41  1  0  0  0  0
 20 42  1  0  0  0  0
 21 22  2  0  0  0  0
 21 43  1  0  0  0  0
 22 44  1  0  0  0  0
M  CHG  1  22   1
M  END
> <s_m_source_file>
AV-unprocessed.smi

> <i_m_source_file_index>
549

> <i_lp_mmshare_version>
43012

> <i_f3d_flags>
0

> <s_epik_input>
W0NIM11bTkhdYzFbY0hdW2NIXWMoW2NIXW4xKVtOSF1DKD1PKVtOSF1bQ0hdMltDSDJdW0NIMl1OKFMoPU8pKD1PKVtDSDNdKVtDSDJdW0NIMl0y

> <s_epik_cmdline>
J2VwaWtfcHl0aG9uJywgJy1waCcsICc3LjAnLCAnLXRuJywgJzgnLCAnLW1hJywgJzIwMCcsICctbWV0YWxfYmluZGluZycsICctaW1hZScsICc8aW5maWxlLm1hZT4nLCAnLW9tYWUnLCAnPG91dGZpbGUubWFlPic=

> <r_lp_tautomer_probability>
0.999994

> <r_epik_Ionization_Penalty>
0.450019

> <r_epik_Ionization_Penalty_Charging>
0.449999

> <r_epik_Ionization_Penalty_Neutral>
1.96337e-05

> <r_epik_State_Penalty>
0.452724

> <r_epik_Charging_Adjusted_Penalty>
0.902724

> <i_epik_Tot_Q>
1

> <i_epik_Tot_abs_Q>
1

> <r_epik_Metal_State_Penalty>
0.680753

> <b_epik_Metal_Only>
0

> <s_lp_Force_Field>
OPLS_2005

> <r_lp_Energy>
8.99887

> <b_lp_Chiralities_Consistent>
1

> <s_lp_Variant>
AV-unprocessed.smi:549-2

> <Gold.Version>
5.8.1

> <Gold.Id.Protein>
6NUR|6NUR_protein|mol2

> <Gold.PLP.Fitness>
50.2440

> <Gold.PLP.PLP>
-34.7299

> <Gold.PLP.part.hbond>
-5.2502

> <Gold.PLP.part.metal>
0.0000

> <Gold.PLP.part.buried>
6.1066

> <Gold.PLP.part.nonpolar>
-40.1037

> <Gold.PLP.part.repulsive>
5.1724

> <Gold.PLP.ligand.clash>
0.1118

> <Gold.PLP.ligand.torsion>
1.0825

> <Gold.PLP.Chemscore.Hbond>
5.2460

> <Gold.PLP.Chemscore.CHOScore>
0.0000

> <Gold.PLP.Chemscore.Metal>
0.0000

> <Gold.Chemscore.Hbonds>
donor molecule, donor type, donor heavy atom, donor atom, acceptor molecule, acceptor atom, score
      L1  H     2    26       P1 10171  1.00
      L1  H     7    29       P1  8028  0.91
      L1  H    10    30       P1  8028  1.00
      L1  H    22    44       P1  7948  1.81
      P1  H  6933  6945       L1    18  0.32

> <Gold.PLP.Chemscore.Internal.Correction>
2.0528

> <Gold.Rescore>
     Score         DG    S(hbond)    S(metal)    S(lipo)     H(rot)  DE(clash)    DE(int)     intcor
     18.31     -28.20       3.93        0.00     103.86       1.00       6.83       3.05       ----

> <Gold.Chemscore.Fitness>
18.3127

> <Gold.Chemscore.DG>
-28.2007

> <Gold.Chemscore.ZeroCoef>
-5.4800

> <Gold.Chemscore.Hbond>
3.9308

> <Gold.Chemscore.Metal>
0.0000

> <Gold.Chemscore.Lipo>
103.8632

> <Gold.Chemscore.Internal_Hbond>
0.0000

> <Gold.Chemscore.DEClash>
6.8335

> <Gold.Chemscore.DEInternal>
3.0545

> <Gold.Chemscore.Rot>
1.0000

> <Gold.Chemscore.Internal.Correction>
   9.000000E+99

> <Gold.Chemscore.Hbonds>
donor molecule, donor type, donor heavy atom, donor atom, acceptor molecule, acceptor atom, score
      L1  H     2    26       P1 10171  0.95
      L1  H     7    29       P1  8028  0.83
      L1  H    10    30       P1  8028  1.00
      L1  H    22    44       P1  7948  0.84
      P1  H  6933  6945       L1    18  0.32

> <Gold.Chemscore.Hbond.Weighted>
-13.1287

> <Gold.Chemscore.Metal.Weighted>
-0.0000

> <Gold.Chemscore.Lipo.Weighted>
-12.1520

> <Gold.Chemscore.Internal_Hbond.Weighted>
0.0000

> <Gold.Chemscore.DEClash.Weighted>
6.8335

> <Gold.Chemscore.DEInternal.Weighted>
3.0545

> <Gold.Chemscore.Rot.Weighted>
2.5600

> <Gold.Chemscore.Internal.Correction.Weighted>
   9.000000E+99

> <Gold.Protein.RotatedTorsions>
[ 6907 6896 6895 6894 ] final -103.75 input  -60.11 | X-H torsion
[ 7974 7965 7964 7962 ] final   60.02 input  175.53 | X-H torsion
[ 8008 7997 7996 7995 ] final  -82.37 input   59.86 | X-H torsion
[ 10167 10162 10161 10158 ] final -105.04 input  -65.29 | X-H torsion
[ 10718 10713 10712 10709 ] final  145.06 input   66.30 | X-H torsion
[ 10763 10752 10751 10750 ] final  -80.46 input  -60.55 | X-H torsion
[ 11005 11000 10999 10996 ] final  170.04 input  -57.11 | X-H torsion

> <Gold.Protein.ActiveResidues>
 VAL166  LYS551  ARG553  GLY616  TRP617  ASP618  TYR619  PRO620  LYS621  CYS622 
 ASP623  PHE694  ASN695  SER759  ASP760  ASP761  ALA762  ILE779  LEU786  VAL792 
 PHE793  MET794  SER795  GLU796  ALA797  LYS798  CYS799  TRP800  GLU811  SER814 

> <Gold.Protein.RotatedAtoms>
  150.7254  134.0382  159.3756 H   0  0  0  0  0  0  0  0  0  0  0  0  # atno 6907 bound_to 6896
  151.8355  135.0605  160.0451 H   0  0  0  0  0  0  0  0  0  0  0  0  # atno 6908 bound_to 6896
  152.2902  133.5518  159.5589 H   0  0  0  0  0  0  0  0  0  0  0  0  # atno 6909 bound_to 6896
  145.9006  139.3578  143.0594 H   0  0  0  0  0  0  0  0  0  0  0  0  # atno 7974 bound_to 7965
  154.6079  140.0634  156.9455 H   0  0  0  0  0  0  0  0  0  0  0  0  # atno 8008 bound_to 7997
  155.2022  140.3316  155.4323 H   0  0  0  0  0  0  0  0  0  0  0  0  # atno 8009 bound_to 7997
  156.2359  140.1862  156.7105 H   0  0  0  0  0  0  0  0  0  0  0  0  # atno 8010 bound_to 7997
  140.2028  143.3805  152.1115 H   0  0  0  0  0  0  0  0  0  0  0  0  # atno 10167 bound_to 10162
  157.3498  131.0949  151.1010 H   0  0  0  0  0  0  0  0  0  0  0  0  # atno 10718 bound_to 10713
  154.5515  135.5660  153.6926 H   0  0  0  0  0  0  0  0  0  0  0  0  # atno 10763 bound_to 10752
  152.9991  135.6252  154.2367 H   0  0  0  0  0  0  0  0  0  0  0  0  # atno 10764 bound_to 10752
  154.2302  135.2866  155.2872 H   0  0  0  0  0  0  0  0  0  0  0  0  # atno 10765 bound_to 10752
  140.3041  134.7571  157.3940 H   0  0  0  0  0  0  0  0  0  0  0  0  # atno 11005 bound_to 11000
  145.8795  140.9371  143.0608 LP  0  0  0  0  0  0  0  0  0  0  0  0  # atno 17320 bound_to 7965
  144.6735  140.0761  143.7471 LP  0  0  0  0  0  0  0  0  0  0  0  0  # atno 17321 bound_to 7965
  139.5210  144.7040  151.5408 LP  0  0  0  0  0  0  0  0  0  0  0  0  # atno 17342 bound_to 10162
  140.6378  143.8949  150.6663 LP  0  0  0  0  0  0  0  0  0  0  0  0  # atno 17343 bound_to 10162
  157.2190  130.6472  149.5803 LP  0  0  0  0  0  0  0  0  0  0  0  0  # atno 17370 bound_to 10713
  155.9720  130.4635  150.6185 LP  0  0  0  0  0  0  0  0  0  0  0  0  # atno 17371 bound_to 10713
  140.1083  134.5380  155.8289 LP  0  0  0  0  0  0  0  0  0  0  0  0  # atno 17394 bound_to 11000
  141.2122  133.6716  156.6640 LP  0  0  0  0  0  0  0  0  0  0  0  0  # atno 17395 bound_to 11000

$$$$
