AV-unprocessed.smi:1240|AV-procd|sdf|5209|dock2
  -GOLD-   22720 4303D 1   1.00000     0.00000
 Structure written by MMmdl.
 49 51  0  0  0  0  0  0  0  0  3 V2000
  145.4725  138.3314  153.0653 O   0  0  0  0  0  0  0  0  0  0  0  0
  146.6027  138.0462  152.6712 C   0  0  0  0  0  0  0  0  0  0  0  0
  146.9057  136.8756  152.0945 N   0  0  0  0  0  0  0  0  0  0  0  0
  145.9510  135.7883  151.8989 C   0  0  0  0  0  0  0  0  0  0  0  0
  146.6359  134.3986  151.9549 C   0  0  2  0  0  0  0  0  0  0  0  0
  145.5827  133.2412  151.9420 C   0  0  1  0  0  0  0  0  0  0  0  0
  144.5599  133.3359  150.8147 C   0  0  0  0  0  0  0  0  0  0  0  0
  144.0687  131.9038  150.6875 C   0  0  0  0  0  0  0  0  0  0  0  0
  145.2610  131.1509  150.8104 O   0  0  0  0  0  0  0  0  0  0  0  0
  146.1517  131.8278  151.6909 C   0  0  0  0  0  0  0  0  0  0  0  0
  147.5951  134.3979  153.1119 N   0  3  0  0  0  0  0  0  0  0  0  0
  147.0559  134.6692  154.4703 C   0  0  0  0  0  0  0  0  0  0  0  0
  148.1972  134.7467  155.4993 C   0  0  0  0  0  0  0  0  0  0  0  0
  148.9439  133.5382  155.4823 O   0  0  0  0  0  0  0  0  0  0  0  0
  149.5398  133.3042  154.2138 C   0  0  0  0  0  0  0  0  0  0  0  0
  148.4403  133.1756  153.1471 C   0  0  0  0  0  0  0  0  0  0  0  0
  147.6755  138.8535  152.7397 N   0  0  0  0  0  0  0  0  0  0  0  0
  147.7610  140.1557  153.3036 C   0  0  0  0  0  0  0  0  0  0  0  0
  148.9077  140.4667  154.0676 C   0  0  0  0  0  0  0  0  0  0  0  0
  149.0252  141.7417  154.6580 C   0  0  0  0  0  0  0  0  0  0  0  0
  148.0385  142.6498  154.4991 N   0  3  0  0  0  0  0  0  0  0  0  0
  146.9171  142.3932  153.7920 C   0  0  0  0  0  0  0  0  0  0  0  0
  146.7438  141.1360  153.1780 C   0  0  0  0  0  0  0  0  0  0  0  0
  147.8583  136.7141  151.8021 H   0  0  0  0  0  0  0  0  0  0  0  0
  145.1605  135.8645  152.6463 H   0  0  0  0  0  0  0  0  0  0  0  0
  145.4501  135.9312  150.9413 H   0  0  0  0  0  0  0  0  0  0  0  0
  147.2199  134.2920  151.0390 H   0  0  0  0  0  0  0  0  0  0  0  0
  145.0179  133.2377  152.8754 H   0  0  0  0  0  0  0  0  0  0  0  0
  143.7490  134.0337  151.0265 H   0  0  0  0  0  0  0  0  0  0  0  0
  145.0393  133.6400  149.8829 H   0  0  0  0  0  0  0  0  0  0  0  0
  143.3894  131.6502  151.5028 H   0  0  0  0  0  0  0  0  0  0  0  0
  143.5641  131.7093  149.7409 H   0  0  0  0  0  0  0  0  0  0  0  0
  147.1374  131.8597  151.2258 H   0  0  0  0  0  0  0  0  0  0  0  0
  146.2362  131.2605  152.6176 H   0  0  0  0  0  0  0  0  0  0  0  0
  146.5193  135.6165  154.4950 H   0  0  0  0  0  0  0  0  0  0  0  0
  146.3629  133.8789  154.7601 H   0  0  0  0  0  0  0  0  0  0  0  0
  148.8513  135.5957  155.2937 H   0  0  0  0  0  0  0  0  0  0  0  0
  147.7905  134.8941  156.4998 H   0  0  0  0  0  0  0  0  0  0  0  0
  150.2328  134.1104  153.9666 H   0  0  0  0  0  0  0  0  0  0  0  0
  150.1241  132.3853  154.2634 H   0  0  0  0  0  0  0  0  0  0  0  0
  147.8154  132.3072  153.3624 H   0  0  0  0  0  0  0  0  0  0  0  0
  148.9038  132.9965  152.1776 H   0  0  0  0  0  0  0  0  0  0  0  0
  148.5153  138.5195  152.2903 H   0  0  0  0  0  0  0  0  0  0  0  0
  149.6968  139.7401  154.1972 H   0  0  0  0  0  0  0  0  0  0  0  0
  149.8717  142.0593  155.2493 H   0  0  0  0  0  0  0  0  0  0  0  0
  146.1936  143.1939  153.7433 H   0  0  0  0  0  0  0  0  0  0  0  0
  145.8308  140.9447  152.6349 H   0  0  0  0  0  0  0  0  0  0  0  0
  148.2235  135.1667  152.9274 H   0  0  0  0  0  0  0  0  0  0  0  0
  148.1423  143.5664  154.9355 H   0  0  0  0  0  0  0  0  0  0  0  0
  1  2  2  0  0  0  0
  2  3  1  0  0  0  0
  2 17  1  0  0  0  0
  3  4  1  0  0  0  0
  3 24  1  0  0  0  0
  4  5  1  0  0  0  0
  4 25  1  0  0  0  0
  4 26  1  0  0  0  0
  5  6  1  0  0  0  0
  5 11  1  0  0  0  0
  5 27  1  0  0  0  0
  6 10  1  0  0  0  0
  6  7  1  0  0  0  0
  6 28  1  0  0  0  0
  7  8  1  0  0  0  0
  7 29  1  0  0  0  0
  7 30  1  0  0  0  0
  8  9  1  0  0  0  0
  8 31  1  0  0  0  0
  8 32  1  0  0  0  0
  9 10  1  0  0  0  0
 10 33  1  0  0  0  0
 10 34  1  0  0  0  0
 11 16  1  0  0  0  0
 11 12  1  0  0  0  0
 11 48  1  0  0  0  0
 12 13  1  0  0  0  0
 12 35  1  0  0  0  0
 12 36  1  0  0  0  0
 13 14  1  0  0  0  0
 13 37  1  0  0  0  0
 13 38  1  0  0  0  0
 14 15  1  0  0  0  0
 15 16  1  0  0  0  0
 15 39  1  0  0  0  0
 15 40  1  0  0  0  0
 16 41  1  0  0  0  0
 16 42  1  0  0  0  0
 17 18  1  0  0  0  0
 17 43  1  0  0  0  0
 18 23  1  0  0  0  0
 18 19  2  0  0  0  0
 19 20  1  0  0  0  0
 19 44  1  0  0  0  0
 20 21  2  0  0  0  0
 20 45  1  0  0  0  0
 21 22  1  0  0  0  0
 21 49  1  0  0  0  0
 22 23  2  0  0  0  0
 22 46  1  0  0  0  0
 23 47  1  0  0  0  0
M  CHG  1  11   1
M  CHG  1  21   1
M  END
> <s_m_source_file>
AV-unprocessed.smi

> <i_m_source_file_index>
1240

> <i_lp_mmshare_version>
43012

> <i_f3d_flags>
0

> <s_epik_input>
W2NIXTFbY0hdbltjSF1bY0hdYzFbTkhdQyg9TylbTkhdW0NIMl1bQ0BIXShbQ0BASF0yW0NIMl1bQ0gyXU9bQ0gyXTIpTjNbQ0gyXVtDSDJdT1tDSDJdW0NIMl0z

> <s_epik_cmdline>
J2VwaWtfcHl0aG9uJywgJy1waCcsICc3LjAnLCAnLXRuJywgJzgnLCAnLW1hJywgJzIwMCcsICctbWV0YWxfYmluZGluZycsICctaW1hZScsICc8aW5maWxlLm1hZT4nLCAnLW9tYWUnLCAnPG91dGZpbGUubWFlPic=

> <r_epik_Ionization_Penalty>
2.08105

> <r_epik_Ionization_Penalty_Charging>
2.08103

> <r_epik_Ionization_Penalty_Neutral>
2.04144e-05

> <r_epik_State_Penalty>
2.15598

> <r_epik_Charging_Adjusted_Penalty>
4.23701

> <i_epik_Tot_Q>
2

> <i_epik_Tot_abs_Q>
2

> <r_epik_Metal_State_Penalty>
2.25158

> <b_epik_Metal_Only>
0

> <s_lp_Force_Field>
OPLS_2005

> <r_lp_Energy>
62.0114

> <b_lp_Chiralities_Consistent>
1

> <s_lp_Variant>
AV-unprocessed.smi:1240-15

> <Gold.Version>
5.8.1

> <Gold.Id.Protein>
6NUR|6NUR_protein|mol2

> <Gold.PLP.Fitness>
53.2297

> <Gold.PLP.PLP>
-38.9494

> <Gold.PLP.part.hbond>
-5.2900

> <Gold.PLP.part.metal>
0.0000

> <Gold.PLP.part.buried>
-2.5875

> <Gold.PLP.part.nonpolar>
-35.5728

> <Gold.PLP.part.repulsive>
2.4073

> <Gold.PLP.ligand.clash>
0.0000

> <Gold.PLP.ligand.torsion>
0.6947

> <Gold.PLP.Chemscore.Hbond>
5.1326

> <Gold.PLP.Chemscore.CHOScore>
0.0000

> <Gold.PLP.Chemscore.Metal>
0.0000

> <Gold.Chemscore.Hbonds>
donor molecule, donor type, donor heavy atom, donor atom, acceptor molecule, acceptor atom, score
      L1  H     3    24       P1  7948  0.10
      L1  H    11    48       P1  7948  1.98
      L1  H    17    43       P1  7957  0.20
      L1  H    21    49       P1  8028  1.92

> <Gold.PLP.Chemscore.Internal.Correction>
0.2720

> <Gold.Rescore>
     Score         DG    S(hbond)    S(metal)    S(lipo)     H(rot)  DE(clash)    DE(int)     intcor
     19.63     -23.21       3.25        0.00      96.75       1.74       1.49       2.09       ----

> <Gold.Chemscore.Fitness>
19.6291

> <Gold.Chemscore.DG>
-23.2097

> <Gold.Chemscore.ZeroCoef>
-5.4800

> <Gold.Chemscore.Hbond>
3.2542

> <Gold.Chemscore.Metal>
0.0000

> <Gold.Chemscore.Lipo>
96.7549

> <Gold.Chemscore.Internal_Hbond>
0.0000

> <Gold.Chemscore.DEClash>
1.4897

> <Gold.Chemscore.DEInternal>
2.0909

> <Gold.Chemscore.Rot>
1.7421

> <Gold.Chemscore.Internal.Correction>
   9.000000E+99

> <Gold.Chemscore.Hbonds>
donor molecule, donor type, donor heavy atom, donor atom, acceptor molecule, acceptor atom, score
      L1  H     3    24       P1  7948  0.13
      L1  H    11    48       P1  7948  0.90
      L1  H    17    43       P1  7957  0.17
      L1  H    21    49       P1  8028  0.76

> <Gold.Chemscore.Hbond.Weighted>
-10.8690

> <Gold.Chemscore.Metal.Weighted>
-0.0000

> <Gold.Chemscore.Lipo.Weighted>
-11.3203

> <Gold.Chemscore.Internal_Hbond.Weighted>
0.0000

> <Gold.Chemscore.DEClash.Weighted>
1.4897

> <Gold.Chemscore.DEInternal.Weighted>
2.0909

> <Gold.Chemscore.Rot.Weighted>
4.4597

> <Gold.Chemscore.Internal.Correction.Weighted>
   9.000000E+99

> <Gold.Protein.RotatedTorsions>
[ 6907 6896 6895 6894 ] final  -75.53 input  -60.11 | X-H torsion
[ 7974 7965 7964 7962 ] final  -27.26 input  175.53 | X-H torsion
[ 8008 7997 7996 7995 ] final  -41.78 input   59.86 | X-H torsion
[ 10167 10162 10161 10158 ] final -143.66 input  -65.29 | X-H torsion
[ 10718 10713 10712 10709 ] final  -45.70 input   66.30 | X-H torsion
[ 10763 10752 10751 10750 ] final  108.86 input  -60.55 | X-H torsion
[ 11005 11000 10999 10996 ] final  -37.82 input  -57.11 | X-H torsion

> <Gold.Protein.ActiveResidues>
 VAL166  LYS551  ARG553  GLY616  TRP617  ASP618  TYR619  PRO620  LYS621  CYS622 
 ASP623  PHE694  ASN695  SER759  ASP760  ASP761  ALA762  ILE779  LEU786  VAL792 
 PHE793  MET794  SER795  GLU796  ALA797  LYS798  CYS799  TRP800  GLU811  SER814 

> <Gold.Protein.RotatedAtoms>
  150.7056  134.4708  159.5424 H   0  0  0  0  0  0  0  0  0  0  0  0  # atno 6907 bound_to 6896
  152.2364  134.8268  160.0475 H   0  0  0  0  0  0  0  0  0  0  0  0  # atno 6908 bound_to 6896
  151.9066  133.3516  159.3886 H   0  0  0  0  0  0  0  0  0  0  0  0  # atno 6909 bound_to 6896
  146.1370  140.5128  142.8668 H   0  0  0  0  0  0  0  0  0  0  0  0  # atno 7974 bound_to 7965
  154.4002  140.1490  156.3248 H   0  0  0  0  0  0  0  0  0  0  0  0  # atno 8008 bound_to 7997
  155.8497  140.3458  155.5664 H   0  0  0  0  0  0  0  0  0  0  0  0  # atno 8009 bound_to 7997
  155.7997  140.0868  157.1954 H   0  0  0  0  0  0  0  0  0  0  0  0  # atno 8010 bound_to 7997
  139.7973  143.7883  152.2655 H   0  0  0  0  0  0  0  0  0  0  0  0  # atno 10167 bound_to 10162
  156.2257  130.4169  149.8937 H   0  0  0  0  0  0  0  0  0  0  0  0  # atno 10718 bound_to 10713
  153.4266  135.3798  155.2144 H   0  0  0  0  0  0  0  0  0  0  0  0  # atno 10763 bound_to 10752
  154.8748  135.3830  154.4319 H   0  0  0  0  0  0  0  0  0  0  0  0  # atno 10764 bound_to 10752
  153.4846  135.7088  153.5981 H   0  0  0  0  0  0  0  0  0  0  0  0  # atno 10765 bound_to 10752
  140.9981  133.6970  156.1971 H   0  0  0  0  0  0  0  0  0  0  0  0  # atno 11005 bound_to 11000
  144.7750  140.5721  143.6644 LP  0  0  0  0  0  0  0  0  0  0  0  0  # atno 17320 bound_to 7965
  145.5133  139.1478  143.3592 LP  0  0  0  0  0  0  0  0  0  0  0  0  # atno 17321 bound_to 7965
  139.7992  144.7380  150.9848 LP  0  0  0  0  0  0  0  0  0  0  0  0  # atno 17342 bound_to 10162
  140.7820  143.4362  151.0619 LP  0  0  0  0  0  0  0  0  0  0  0  0  # atno 17343 bound_to 10162
  156.6569  130.8766  151.3541 LP  0  0  0  0  0  0  0  0  0  0  0  0  # atno 17370 bound_to 10713
  157.7109  130.9439  150.1086 LP  0  0  0  0  0  0  0  0  0  0  0  0  # atno 17371 bound_to 10713
  140.6934  134.4642  157.5588 LP  0  0  0  0  0  0  0  0  0  0  0  0  # atno 17394 bound_to 11000
  139.9024  134.8524  156.1839 LP  0  0  0  0  0  0  0  0  0  0  0  0  # atno 17395 bound_to 11000

$$$$
