AV-unprocessed.smi:2519|AV-procd|sdf|9904|dock6
  -GOLD-   2272013543D 1   1.00000     0.00000
 Structure written by MMmdl.
 43 44  0  0  0  0  0  0  0  0  1 V2000
  157.0182  139.1973  152.9524 C   0  0  0  0  0  0  0  0  0  0  0  0
  157.1829  138.8257  154.3488 N   0  0  0  0  0  0  0  0  0  0  0  0
  157.1179  137.5676  154.8146 C   0  0  0  0  0  0  0  0  0  0  0  0
  156.9039  136.5945  154.0900 O   0  0  0  0  0  0  0  0  0  0  0  0
  157.3009  137.4038  156.3012 C   0  0  0  0  0  0  0  0  0  0  0  0
  158.0617  136.3260  156.8064 C   0  0  0  0  0  0  0  0  0  0  0  0
  158.2199  136.2036  158.1981 C   0  0  0  0  0  0  0  0  0  0  0  0
  157.6158  137.1570  159.0381 C   0  0  0  0  0  0  0  0  0  0  0  0
  156.8689  138.2082  158.4647 C   0  0  0  0  0  0  0  0  0  0  0  0
  156.2926  139.1153  159.3920 N   0  0  0  0  0  0  0  0  0  0  0  0
  155.0753  139.6934  159.3507 C   0  0  0  0  0  0  0  0  0  0  0  0
  154.2606  139.5470  158.4409 O   0  0  0  0  0  0  0  0  0  0  0  0
  154.7964  140.4709  160.4136 N   0  0  0  0  0  0  0  0  0  0  0  0
  153.5796  141.2387  160.6880 C   0  0  1  0  0  0  0  0  0  0  0  0
  153.6960  141.8986  162.0736 C   0  0  0  0  0  0  0  0  0  0  0  0
  152.4647  142.7614  162.3874 C   0  0  0  0  0  0  0  0  0  0  0  0
  152.2321  143.8178  161.2958 C   0  0  0  0  0  0  0  0  0  0  0  0
  152.1017  143.1733  159.8997 C   0  0  1  0  0  0  0  0  0  0  0  0
  151.8492  144.2221  158.7972 C   0  0  0  0  0  0  0  0  0  0  0  0
  150.9214  145.0996  159.1804 F   0  0  0  0  0  0  0  0  0  0  0  0
  152.9773  144.8784  158.5253 F   0  0  0  0  0  0  0  0  0  0  0  0
  151.4394  143.6208  157.6804 F   0  0  0  0  0  0  0  0  0  0  0  0
  153.3437  142.3075  159.5986 C   0  0  0  0  0  0  0  0  0  0  0  0
  156.7261  138.3167  157.1216 N   0  0  0  0  0  0  0  0  0  0  0  0
  157.1450  140.2738  152.8369 H   0  0  0  0  0  0  0  0  0  0  0  0
  156.0228  138.9303  152.5951 H   0  0  0  0  0  0  0  0  0  0  0  0
  157.7594  138.6976  152.3274 H   0  0  0  0  0  0  0  0  0  0  0  0
  157.3598  139.5673  155.0121 H   0  0  0  0  0  0  0  0  0  0  0  0
  158.5182  135.6020  156.1470 H   0  0  0  0  0  0  0  0  0  0  0  0
  158.7954  135.3906  158.6156 H   0  0  0  0  0  0  0  0  0  0  0  0
  157.7253  137.0769  160.1100 H   0  0  0  0  0  0  0  0  0  0  0  0
  156.8609  139.3310  160.1975 H   0  0  0  0  0  0  0  0  0  0  0  0
  155.5157  140.5317  161.1199 H   0  0  0  0  0  0  0  0  0  0  0  0
  152.7248  140.5603  160.7153 H   0  0  0  0  0  0  0  0  0  0  0  0
  153.8144  141.1351  162.8437 H   0  0  0  0  0  0  0  0  0  0  0  0
  154.5916  142.5205  162.1148 H   0  0  0  0  0  0  0  0  0  0  0  0
  151.5838  142.1243  162.4750 H   0  0  0  0  0  0  0  0  0  0  0  0
  152.5904  143.2485  163.3548 H   0  0  0  0  0  0  0  0  0  0  0  0
  151.3341  144.3892  161.5317 H   0  0  0  0  0  0  0  0  0  0  0  0
  153.0586  144.5296  161.2985 H   0  0  0  0  0  0  0  0  0  0  0  0
  151.2349  142.5107  159.9214 H   0  0  0  0  0  0  0  0  0  0  0  0
  154.2236  142.9472  159.5176 H   0  0  0  0  0  0  0  0  0  0  0  0
  153.2257  141.8284  158.6264 H   0  0  0  0  0  0  0  0  0  0  0  0
  1  2  1  0  0  0  0
  1 25  1  0  0  0  0
  1 26  1  0  0  0  0
  1 27  1  0  0  0  0
  2  3  1  0  0  0  0
  2 28  1  0  0  0  0
  3  4  2  0  0  0  0
  3  5  1  0  0  0  0
  5 24  1  0  0  0  0
  5  6  2  0  0  0  0
  6  7  1  0  0  0  0
  6 29  1  0  0  0  0
  7  8  2  0  0  0  0
  7 30  1  0  0  0  0
  8  9  1  0  0  0  0
  8 31  1  0  0  0  0
  9 10  1  0  0  0  0
  9 24  2  0  0  0  0
 10 11  1  0  0  0  0
 10 32  1  0  0  0  0
 11 12  2  0  0  0  0
 11 13  1  0  0  0  0
 13 14  1  0  0  0  0
 13 33  1  0  0  0  0
 14 23  1  0  0  0  0
 14 15  1  0  0  0  0
 14 34  1  0  0  0  0
 15 16  1  0  0  0  0
 15 35  1  0  0  0  0
 15 36  1  0  0  0  0
 16 17  1  0  0  0  0
 16 37  1  0  0  0  0
 16 38  1  0  0  0  0
 17 18  1  0  0  0  0
 17 39  1  0  0  0  0
 17 40  1  0  0  0  0
 18 19  1  0  0  0  0
 18 23  1  0  0  0  0
 18 41  1  0  0  0  0
 19 20  1  0  0  0  0
 19 21  1  0  0  0  0
 19 22  1  0  0  0  0
 23 42  1  0  0  0  0
 23 43  1  0  0  0  0
M  END
> <s_m_source_file>
AV-unprocessed.smi

> <i_m_source_file_index>
2519

> <i_lp_mmshare_version>
43012

> <i_f3d_flags>
0

> <s_epik_input>
W0NIM11bTkhdQyg9TyljMVtjSF1bY0hdW2NIXWMobjEpW05IXUMoPU8pW05IXVtDQEBIXTJbQ0gyXVtDSDJdW0NIMl1bQ0BASF0oQyhGKShGKUYpW0NIMl0y

> <s_epik_cmdline>
J2VwaWtfcHl0aG9uJywgJy1waCcsICc3LjAnLCAnLXRuJywgJzgnLCAnLW1hJywgJzIwMCcsICctbWV0YWxfYmluZGluZycsICctaW1hZScsICc8aW5maWxlLm1hZT4nLCAnLW9tYWUnLCAnPG91dGZpbGUubWFlPic=

> <r_lp_tautomer_probability>
1

> <r_epik_Ionization_Penalty>
3.74915e-05

> <r_epik_Ionization_Penalty_Charging>
0

> <r_epik_Ionization_Penalty_Neutral>
3.74915e-05

> <r_epik_State_Penalty>
-0

> <r_epik_Charging_Adjusted_Penalty>
0

> <i_epik_Tot_Q>
0

> <i_epik_Tot_abs_Q>
0

> <r_epik_Metal_State_Penalty>
-0

> <b_epik_Metal_Only>
0

> <s_lp_Force_Field>
OPLS_2005

> <r_lp_Energy>
27.1439

> <b_lp_Chiralities_Consistent>
1

> <s_lp_Variant>
AV-unprocessed.smi:2519-2

> <Gold.Version>
5.8.1

> <Gold.Id.Protein>
6NUR|6NUR_protein|mol2

> <Gold.PLP.Fitness>
55.6206

> <Gold.PLP.PLP>
-51.0821

> <Gold.PLP.part.hbond>
-3.0000

> <Gold.PLP.part.metal>
0.0000

> <Gold.PLP.part.buried>
-4.1955

> <Gold.PLP.part.nonpolar>
-44.4848

> <Gold.PLP.part.repulsive>
0.3370

> <Gold.PLP.ligand.clash>
0.0000

> <Gold.PLP.ligand.torsion>
1.1918

> <Gold.PLP.Chemscore.Hbond>
2.2993

> <Gold.PLP.Chemscore.CHOScore>
0.0000

> <Gold.PLP.Chemscore.Metal>
0.0000

> <Gold.Chemscore.Hbonds>
donor molecule, donor type, donor heavy atom, donor atom, acceptor molecule, acceptor atom, score
      P1  H  7997  8008       L1    12  0.86
      P1  H  7997  8010       L1    24  0.53
      P1  H 10752 10764       L1     4  0.28

> <Gold.PLP.Chemscore.Internal.Correction>
0.0244

> <Gold.Rescore>
     Score         DG    S(hbond)    S(metal)    S(lipo)     H(rot)  DE(clash)    DE(int)     intcor
     19.32     -22.17       2.03        0.00     106.70       1.00       0.38       2.48       ----

> <Gold.Chemscore.Fitness>
19.3166

> <Gold.Chemscore.DG>
-22.1725

> <Gold.Chemscore.ZeroCoef>
-5.4800

> <Gold.Chemscore.Hbond>
2.0264

> <Gold.Chemscore.Metal>
0.0000

> <Gold.Chemscore.Lipo>
106.7027

> <Gold.Chemscore.Internal_Hbond>
0.0000

> <Gold.Chemscore.DEClash>
0.3804

> <Gold.Chemscore.DEInternal>
2.4755

> <Gold.Chemscore.Rot>
1.0000

> <Gold.Chemscore.Internal.Correction>
   9.000000E+99

> <Gold.Chemscore.Hbonds>
donor molecule, donor type, donor heavy atom, donor atom, acceptor molecule, acceptor atom, score
      P1  H  7997  8008       L1    12  0.78
      P1  H  7997  8010       L1    24  0.34
      P1  H 10752 10764       L1     4  0.29

> <Gold.Chemscore.Hbond.Weighted>
-6.7682

> <Gold.Chemscore.Metal.Weighted>
-0.0000

> <Gold.Chemscore.Lipo.Weighted>
-12.4842

> <Gold.Chemscore.Internal_Hbond.Weighted>
0.0000

> <Gold.Chemscore.DEClash.Weighted>
0.3804

> <Gold.Chemscore.DEInternal.Weighted>
2.4755

> <Gold.Chemscore.Rot.Weighted>
2.5600

> <Gold.Chemscore.Internal.Correction.Weighted>
   9.000000E+99

> <Gold.Protein.RotatedTorsions>
[ 6907 6896 6895 6894 ] final -133.33 input  -60.11 | X-H torsion
[ 7974 7965 7964 7962 ] final    9.65 input  175.53 | X-H torsion
[ 8008 7997 7996 7995 ] final  -83.60 input   59.86 | X-H torsion
[ 10167 10162 10161 10158 ] final -161.71 input  -65.29 | X-H torsion
[ 10718 10713 10712 10709 ] final   46.94 input   66.30 | X-H torsion
[ 10763 10752 10751 10750 ] final  134.92 input  -60.55 | X-H torsion
[ 11005 11000 10999 10996 ] final  174.74 input  -57.11 | X-H torsion

> <Gold.Protein.ActiveResidues>
 VAL166  LYS551  ARG553  GLY616  TRP617  ASP618  TYR619  PRO620  LYS621  CYS622 
 ASP623  PHE694  ASN695  SER759  ASP760  ASP761  ALA762  ILE779  LEU786  VAL792 
 PHE793  MET794  SER795  GLU796  ALA797  LYS798  CYS799  TRP800  GLU811  SER814 

> <Gold.Protein.RotatedAtoms>
  150.9728  133.6326  159.2734 H   0  0  0  0  0  0  0  0  0  0  0  0  # atno 6907 bound_to 6896
  151.3608  135.0902  159.9443 H   0  0  0  0  0  0  0  0  0  0  0  0  # atno 6908 bound_to 6896
  152.5189  133.9302  159.7631 H   0  0  0  0  0  0  0  0  0  0  0  0  # atno 6909 bound_to 6896
  146.2400  139.9752  142.8442 H   0  0  0  0  0  0  0  0  0  0  0  0  # atno 7974 bound_to 7965
  154.6208  140.0616  156.9612 H   0  0  0  0  0  0  0  0  0  0  0  0  # atno 8008 bound_to 7997
  155.1821  140.3300  155.4355 H   0  0  0  0  0  0  0  0  0  0  0  0  # atno 8009 bound_to 7997
  156.2430  140.1896  156.6916 H   0  0  0  0  0  0  0  0  0  0  0  0  # atno 8010 bound_to 7997
  139.6445  144.0198  152.2117 H   0  0  0  0  0  0  0  0  0  0  0  0  # atno 10167 bound_to 10162
  157.4534  130.8152  149.7811 H   0  0  0  0  0  0  0  0  0  0  0  0  # atno 10718 bound_to 10713
  153.8314  135.3103  155.3419 H   0  0  0  0  0  0  0  0  0  0  0  0  # atno 10763 bound_to 10752
  154.7971  135.4749  154.0190 H   0  0  0  0  0  0  0  0  0  0  0  0  # atno 10764 bound_to 10752
  153.1632  135.6864  153.8804 H   0  0  0  0  0  0  0  0  0  0  0  0  # atno 10765 bound_to 10752
  140.3546  134.7165  157.4291 H   0  0  0  0  0  0  0  0  0  0  0  0  # atno 11005 bound_to 11000
  145.1644  140.9689  143.4358 LP  0  0  0  0  0  0  0  0  0  0  0  0  # atno 17320 bound_to 7965
  145.0086  139.3531  143.6131 LP  0  0  0  0  0  0  0  0  0  0  0  0  # atno 17321 bound_to 7965
  139.9896  144.6371  150.7826 LP  0  0  0  0  0  0  0  0  0  0  0  0  # atno 17342 bound_to 10162
  140.7507  143.2961  151.3202 LP  0  0  0  0  0  0  0  0  0  0  0  0  # atno 17343 bound_to 10162
  155.9997  130.3887  150.2656 LP  0  0  0  0  0  0  0  0  0  0  0  0  # atno 17370 bound_to 10713
  157.0829  131.0148  151.3150 LP  0  0  0  0  0  0  0  0  0  0  0  0  # atno 17371 bound_to 10713
  140.0675  134.5908  155.8678 LP  0  0  0  0  0  0  0  0  0  0  0  0  # atno 17394 bound_to 11000
  141.2002  133.6611  156.5885 LP  0  0  0  0  0  0  0  0  0  0  0  0  # atno 17395 bound_to 11000

$$$$
