AV-unprocessed.smi:3004|AV-procd|sdf|11441|dock6
  -GOLD-   2272016373D 1   1.00000     0.00000
 Structure written by MMmdl.
 47 48  0  0  0  0  0  0  0  0  2 V2000
  147.4591  131.5032  153.4342 C   0  0  0  0  0  0  0  0  0  0  0  0
  146.5964  132.1844  152.4135 C   0  0  0  0  0  0  0  0  0  0  0  0
  145.5614  131.6205  151.6165 C   0  0  0  0  0  0  0  0  0  0  0  0
  145.1049  132.6667  150.8654 C   0  0  0  0  0  0  0  0  0  0  0  0
  144.0222  132.7144  149.8380 C   0  0  0  0  0  0  0  0  0  0  0  0
  145.8537  133.7740  151.2230 N   0  0  0  0  0  0  0  0  0  0  0  0
  145.7685  135.1392  150.7277 C   0  0  0  0  0  0  0  0  0  0  0  0
  145.3943  136.1131  151.8460 C   0  0  0  0  0  0  0  0  0  0  0  0
  144.2600  136.0979  152.3242 O   0  0  0  0  0  0  0  0  0  0  0  0
  146.3563  136.9552  152.2548 N   0  0  0  0  0  0  0  0  0  0  0  0
  146.2019  137.9526  153.3058 C   0  0  0  0  0  0  0  0  0  0  0  0
  147.4764  138.8066  153.4600 C   0  0  0  0  0  0  0  0  0  0  0  0
  148.6708  138.0221  153.8757 N   0  3  2  0  0  0  0  0  0  0  0  0
  148.3646  137.1061  155.0080 C   0  0  0  0  0  0  0  0  0  0  0  0
  149.5338  136.1493  155.2900 C   0  0  0  0  0  0  0  0  0  0  0  0
  150.8283  136.9249  155.5543 C   0  0  0  0  0  0  0  0  0  0  0  0
  151.1136  137.8731  154.3819 C   0  0  0  0  0  0  0  0  0  0  0  0
  149.9249  138.8131  154.0873 C   0  0  2  0  0  0  0  0  0  0  0  0
  149.7838  139.9268  155.1471 C   0  0  0  0  0  0  0  0  0  0  0  0
  146.7650  133.4746  152.1749 N   0  0  0  0  0  0  0  0  0  0  0  0
  147.2776  130.4283  153.4488 H   0  0  0  0  0  0  0  0  0  0  0  0
  147.2594  131.8866  154.4351 H   0  0  0  0  0  0  0  0  0  0  0  0
  148.5174  131.6572  153.2215 H   0  0  0  0  0  0  0  0  0  0  0  0
  145.2076  130.6003  151.5986 H   0  0  0  0  0  0  0  0  0  0  0  0
  143.5431  131.7409  149.7319 H   0  0  0  0  0  0  0  0  0  0  0  0
  144.4220  132.9984  148.8644 H   0  0  0  0  0  0  0  0  0  0  0  0
  143.2542  133.4364  150.1149 H   0  0  0  0  0  0  0  0  0  0  0  0
  146.7252  135.4280  150.2893 H   0  0  0  0  0  0  0  0  0  0  0  0
  145.0284  135.1834  149.9278 H   0  0  0  0  0  0  0  0  0  0  0  0
  147.2598  136.8937  151.8070 H   0  0  0  0  0  0  0  0  0  0  0  0
  145.3537  138.5884  153.0509 H   0  0  0  0  0  0  0  0  0  0  0  0
  145.9449  137.4405  154.2332 H   0  0  0  0  0  0  0  0  0  0  0  0
  147.6924  139.3576  152.5444 H   0  0  0  0  0  0  0  0  0  0  0  0
  147.2809  139.5630  154.2216 H   0  0  0  0  0  0  0  0  0  0  0  0
  148.1208  137.6826  155.9009 H   0  0  0  0  0  0  0  0  0  0  0  0
  147.4791  136.5153  154.7708 H   0  0  0  0  0  0  0  0  0  0  0  0
  149.2987  135.5140  156.1444 H   0  0  0  0  0  0  0  0  0  0  0  0
  149.6740  135.4824  154.4382 H   0  0  0  0  0  0  0  0  0  0  0  0
  150.7428  137.4889  156.4838 H   0  0  0  0  0  0  0  0  0  0  0  0
  151.6598  136.2323  155.6874 H   0  0  0  0  0  0  0  0  0  0  0  0
  152.0162  138.4523  154.5802 H   0  0  0  0  0  0  0  0  0  0  0  0
  151.3280  137.2792  153.4923 H   0  0  0  0  0  0  0  0  0  0  0  0
  150.1717  139.3033  153.1465 H   0  0  0  0  0  0  0  0  0  0  0  0
  150.7290  140.4541  155.2779 H   0  0  0  0  0  0  0  0  0  0  0  0
  149.4932  139.5382  156.1226 H   0  0  0  0  0  0  0  0  0  0  0  0
  149.0485  140.6753  154.8531 H   0  0  0  0  0  0  0  0  0  0  0  0
  148.8713  137.4128  153.0955 H   0  0  0  0  0  0  0  0  0  0  0  0
  1  2  1  0  0  0  0
  1 21  1  0  0  0  0
  1 22  1  0  0  0  0
  1 23  1  0  0  0  0
  2 20  2  0  0  0  0
  2  3  1  0  0  0  0
  3  4  2  0  0  0  0
  3 24  1  0  0  0  0
  4  5  1  0  0  0  0
  4  6  1  0  0  0  0
  5 25  1  0  0  0  0
  5 26  1  0  0  0  0
  5 27  1  0  0  0  0
  6  7  1  0  0  0  0
  6 20  1  0  0  0  0
  7  8  1  0  0  0  0
  7 28  1  0  0  0  0
  7 29  1  0  0  0  0
  8  9  2  0  0  0  0
  8 10  1  0  0  0  0
 10 11  1  0  0  0  0
 10 30  1  0  0  0  0
 11 12  1  0  0  0  0
 11 31  1  0  0  0  0
 11 32  1  0  0  0  0
 12 13  1  0  0  0  0
 12 33  1  0  0  0  0
 12 34  1  0  0  0  0
 13 18  1  0  0  0  0
 13 14  1  0  0  0  0
 13 47  1  0  0  0  0
 14 15  1  0  0  0  0
 14 35  1  0  0  0  0
 14 36  1  0  0  0  0
 15 16  1  0  0  0  0
 15 37  1  0  0  0  0
 15 38  1  0  0  0  0
 16 17  1  0  0  0  0
 16 39  1  0  0  0  0
 16 40  1  0  0  0  0
 17 18  1  0  0  0  0
 17 41  1  0  0  0  0
 17 42  1  0  0  0  0
 18 19  1  0  0  0  0
 18 43  1  0  0  0  0
 19 44  1  0  0  0  0
 19 45  1  0  0  0  0
 19 46  1  0  0  0  0
M  CHG  1  13   1
M  END
> <s_m_source_file>
AV-unprocessed.smi

> <i_m_source_file_index>
3004

> <i_lp_mmshare_version>
43012

> <i_f3d_flags>
0

> <s_epik_input>
W0NIM11jMVtjSF1jKFtDSDNdKW4objEpW0NIMl1DKD1PKVtOSF1bQ0gyXVtDSDJdTjJbQ0gyXVtDSDJdW0NIMl1bQ0gyXVtDQEhdMltDSDNd

> <s_epik_cmdline>
J2VwaWtfcHl0aG9uJywgJy1waCcsICc3LjAnLCAnLXRuJywgJzgnLCAnLW1hJywgJzIwMCcsICctbWV0YWxfYmluZGluZycsICctaW1hZScsICc8aW5maWxlLm1hZT4nLCAnLW9tYWUnLCAnPG91dGZpbGUubWFlPic=

> <r_lp_tautomer_probability>
1

> <r_epik_Ionization_Penalty>
0.00303644

> <r_epik_Ionization_Penalty_Charging>
0.00284254

> <r_epik_Ionization_Penalty_Neutral>
0.000193908

> <r_epik_State_Penalty>
-0

> <r_epik_Charging_Adjusted_Penalty>
0.00284254

> <i_epik_Tot_Q>
1

> <i_epik_Tot_abs_Q>
1

> <r_epik_Metal_State_Penalty>
-0

> <b_epik_Metal_Only>
0

> <s_lp_Force_Field>
OPLS_2005

> <r_lp_Energy>
17.6316

> <b_lp_Chiralities_Consistent>
1

> <s_lp_Variant>
AV-unprocessed.smi:3004-3

> <Gold.Version>
5.8.1

> <Gold.Id.Protein>
6NUR|6NUR_protein|mol2

> <Gold.PLP.Fitness>
42.6701

> <Gold.PLP.PLP>
-33.9588

> <Gold.PLP.part.hbond>
-2.0000

> <Gold.PLP.part.metal>
0.0000

> <Gold.PLP.part.buried>
-5.9936

> <Gold.PLP.part.nonpolar>
-26.9726

> <Gold.PLP.part.repulsive>
0.3191

> <Gold.PLP.ligand.clash>
0.0000

> <Gold.PLP.ligand.torsion>
0.1547

> <Gold.PLP.Chemscore.Hbond>
2.9920

> <Gold.PLP.Chemscore.CHOScore>
0.0000

> <Gold.PLP.Chemscore.Metal>
0.0000

> <Gold.Chemscore.Hbonds>
donor molecule, donor type, donor heavy atom, donor atom, acceptor molecule, acceptor atom, score
      L1  H    10    30       P1  7948  0.98
      L1  H    13    47       P1  7948  2.00

> <Gold.PLP.Chemscore.Internal.Correction>
0.0447

> <Gold.Rescore>
     Score         DG    S(hbond)    S(metal)    S(lipo)     H(rot)  DE(clash)    DE(int)     intcor
     17.93     -18.06       1.99        0.00      87.19       1.67       0.06       0.07       ----

> <Gold.Chemscore.Fitness>
17.9321

> <Gold.Chemscore.DG>
-18.0588

> <Gold.Chemscore.ZeroCoef>
-5.4800

> <Gold.Chemscore.Hbond>
1.9885

> <Gold.Chemscore.Metal>
0.0000

> <Gold.Chemscore.Lipo>
87.1894

> <Gold.Chemscore.Internal_Hbond>
0.0000

> <Gold.Chemscore.DEClash>
0.0588

> <Gold.Chemscore.DEInternal>
0.0679

> <Gold.Chemscore.Rot>
1.6657

> <Gold.Chemscore.Internal.Correction>
   9.000000E+99

> <Gold.Chemscore.Hbonds>
donor molecule, donor type, donor heavy atom, donor atom, acceptor molecule, acceptor atom, score
      L1  H    10    30       P1  7948  0.93
      L1  H    13    47       P1  7948  1.00

> <Gold.Chemscore.Hbond.Weighted>
-6.6417

> <Gold.Chemscore.Metal.Weighted>
-0.0000

> <Gold.Chemscore.Lipo.Weighted>
-10.2012

> <Gold.Chemscore.Internal_Hbond.Weighted>
0.0000

> <Gold.Chemscore.DEClash.Weighted>
0.0588

> <Gold.Chemscore.DEInternal.Weighted>
0.0679

> <Gold.Chemscore.Rot.Weighted>
4.2641

> <Gold.Chemscore.Internal.Correction.Weighted>
   9.000000E+99

> <Gold.Protein.RotatedTorsions>
[ 6907 6896 6895 6894 ] final   85.65 input  -60.11 | X-H torsion
[ 7974 7965 7964 7962 ] final  -78.49 input  175.53 | X-H torsion
[ 8008 7997 7996 7995 ] final   82.35 input   59.86 | X-H torsion
[ 10167 10162 10161 10158 ] final  -28.89 input  -65.29 | X-H torsion
[ 10718 10713 10712 10709 ] final   91.93 input   66.30 | X-H torsion
[ 10763 10752 10751 10750 ] final  -68.58 input  -60.55 | X-H torsion
[ 11005 11000 10999 10996 ] final -159.45 input  -57.11 | X-H torsion

> <Gold.Protein.ActiveResidues>
 VAL166  LYS551  ARG553  GLY616  TRP617  ASP618  TYR619  PRO620  LYS621  CYS622 
 ASP623  PHE694  ASN695  SER759  ASP760  ASP761  ALA762  ILE779  LEU786  VAL792 
 PHE793  MET794  SER795  GLU796  ALA797  LYS798  CYS799  TRP800  GLU811  SER814 

> <Gold.Protein.RotatedAtoms>
  152.5379  134.2553  159.8914 H   0  0  0  0  0  0  0  0  0  0  0  0  # atno 6907 bound_to 6896
  151.2515  133.4341  159.2619 H   0  0  0  0  0  0  0  0  0  0  0  0  # atno 6908 bound_to 6896
  151.0535  134.9703  159.8280 H   0  0  0  0  0  0  0  0  0  0  0  0  # atno 6909 bound_to 6896
  145.5858  140.9439  143.1319 H   0  0  0  0  0  0  0  0  0  0  0  0  # atno 7974 bound_to 7965
  155.9095  140.3428  155.6087 H   0  0  0  0  0  0  0  0  0  0  0  0  # atno 8008 bound_to 7997
  155.7405  140.0807  157.2267 H   0  0  0  0  0  0  0  0  0  0  0  0  # atno 8009 bound_to 7997
  154.4054  140.1571  156.2597 H   0  0  0  0  0  0  0  0  0  0  0  0  # atno 8010 bound_to 7997
  140.7266  143.3973  151.1325 H   0  0  0  0  0  0  0  0  0  0  0  0  # atno 10167 bound_to 10162
  157.6959  131.0425  150.3805 H   0  0  0  0  0  0  0  0  0  0  0  0  # atno 10718 bound_to 10713
  154.3911  135.6052  153.5844 H   0  0  0  0  0  0  0  0  0  0  0  0  # atno 10763 bound_to 10752
  152.9787  135.5884  154.4296 H   0  0  0  0  0  0  0  0  0  0  0  0  # atno 10764 bound_to 10752
  154.4080  135.2844  155.2033 H   0  0  0  0  0  0  0  0  0  0  0  0  # atno 10765 bound_to 10752
  140.6424  134.4537  157.5233 H   0  0  0  0  0  0  0  0  0  0  0  0  # atno 11005 bound_to 11000
  144.7373  139.7548  143.7324 LP  0  0  0  0  0  0  0  0  0  0  0  0  # atno 17320 bound_to 7965
  146.1683  139.4823  142.9944 LP  0  0  0  0  0  0  0  0  0  0  0  0  # atno 17321 bound_to 7965
  139.7588  143.8667  152.3095 LP  0  0  0  0  0  0  0  0  0  0  0  0  # atno 17342 bound_to 10162
  139.8546  144.7148  150.9173 LP  0  0  0  0  0  0  0  0  0  0  0  0  # atno 17343 bound_to 10162
  156.4219  130.3954  149.6819 LP  0  0  0  0  0  0  0  0  0  0  0  0  # atno 17370 bound_to 10713
  156.4067  130.7701  151.2712 LP  0  0  0  0  0  0  0  0  0  0  0  0  # atno 17371 bound_to 10713
  139.9075  134.8417  156.1651 LP  0  0  0  0  0  0  0  0  0  0  0  0  # atno 17394 bound_to 11000
  141.0597  133.6848  156.1928 LP  0  0  0  0  0  0  0  0  0  0  0  0  # atno 17395 bound_to 11000

$$$$
