AV-unprocessed.smi:521|AV-procd|sdf|2800|dock4
  -GOLD-   2262023273D 1   1.00000     0.00000
 Structure written by MMmdl.
 41 43  0  0  0  0  0  0  0  0  2 V2000
  151.7783  144.9874  160.1166 C   0  0  0  0  0  0  0  0  0  0  0  0
  151.5269  143.7383  159.4899 O   0  0  0  0  0  0  0  0  0  0  0  0
  152.2838  142.6498  159.8724 C   0  0  0  0  0  0  0  0  0  0  0  0
  153.2029  142.6735  160.9521 C   0  0  0  0  0  0  0  0  0  0  0  0
  153.9435  141.5253  161.2856 C   0  0  0  0  0  0  0  0  0  0  0  0
  153.7747  140.3420  160.5474 C   0  0  0  0  0  0  0  0  0  0  0  0
  152.8656  140.3063  159.4747 C   0  0  0  0  0  0  0  0  0  0  0  0
  152.1154  141.4588  159.1279 C   0  0  0  0  0  0  0  0  0  0  0  0
  151.2107  141.4972  158.0867 O   0  0  0  0  0  0  0  0  0  0  0  0
  151.0136  140.3208  157.3169 C   0  0  0  0  0  0  0  0  0  0  0  0
  151.3389  140.6406  155.8533 C   0  0  0  0  0  0  0  0  0  0  0  0
  150.4361  139.9439  154.9287 N   0  0  0  0  0  0  0  0  0  0  0  0
  150.5736  138.7389  154.3053 C   0  0  0  0  0  0  0  0  0  0  0  0
  151.7343  137.8037  154.4275 C   0  0  0  0  0  0  0  0  0  0  0  0
  151.3766  136.5317  154.9268 O   0  0  0  0  0  0  0  0  0  0  0  0
  149.4523  138.5472  153.5522 N   0  3  0  0  0  0  0  0  0  0  0  0
  148.5893  139.6335  153.7016 C   0  0  0  0  0  0  0  0  0  0  0  0
  147.3405  139.8898  153.1440 C   0  0  0  0  0  0  0  0  0  0  0  0
  146.7196  141.1012  153.5135 C   0  0  0  0  0  0  0  0  0  0  0  0
  147.3389  142.0024  154.4040 C   0  0  0  0  0  0  0  0  0  0  0  0
  148.6064  141.7325  154.9612 C   0  0  0  0  0  0  0  0  0  0  0  0
  149.2138  140.5336  154.5890 C   0  0  0  0  0  0  0  0  0  0  0  0
  151.1129  145.7409  159.6954 H   0  0  0  0  0  0  0  0  0  0  0  0
  152.8026  145.3209  159.9445 H   0  0  0  0  0  0  0  0  0  0  0  0
  151.5870  144.9415  161.1895 H   0  0  0  0  0  0  0  0  0  0  0  0
  153.3590  143.5632  161.5427 H   0  0  0  0  0  0  0  0  0  0  0  0
  154.6420  141.5533  162.1089 H   0  0  0  0  0  0  0  0  0  0  0  0
  154.3432  139.4600  160.8037 H   0  0  0  0  0  0  0  0  0  0  0  0
  152.7633  139.3792  158.9320 H   0  0  0  0  0  0  0  0  0  0  0  0
  151.6685  139.5228  157.6705 H   0  0  0  0  0  0  0  0  0  0  0  0
  149.9804  139.9812  157.4044 H   0  0  0  0  0  0  0  0  0  0  0  0
  151.2881  141.7129  155.6622 H   0  0  0  0  0  0  0  0  0  0  0  0
  152.3585  140.3325  155.6195 H   0  0  0  0  0  0  0  0  0  0  0  0
  152.1994  137.6827  153.4491 H   0  0  0  0  0  0  0  0  0  0  0  0
  152.4799  138.2445  155.0900 H   0  0  0  0  0  0  0  0  0  0  0  0
  150.6163  136.6299  155.4801 H   0  0  0  0  0  0  0  0  0  0  0  0
  146.8633  139.2001  152.4634 H   0  0  0  0  0  0  0  0  0  0  0  0
  145.7483  141.3432  153.1068 H   0  0  0  0  0  0  0  0  0  0  0  0
  146.8316  142.9198  154.6654 H   0  0  0  0  0  0  0  0  0  0  0  0
  149.0717  142.4283  155.6437 H   0  0  0  0  0  0  0  0  0  0  0  0
  149.2942  137.7255  152.9829 H   0  0  0  0  0  0  0  0  0  0  0  0
  1  2  1  0  0  0  0
  1 23  1  0  0  0  0
  1 24  1  0  0  0  0
  1 25  1  0  0  0  0
  2  3  1  0  0  0  0
  3  8  1  0  0  0  0
  3  4  2  0  0  0  0
  4  5  1  0  0  0  0
  4 26  1  0  0  0  0
  5  6  2  0  0  0  0
  5 27  1  0  0  0  0
  6  7  1  0  0  0  0
  6 28  1  0  0  0  0
  7  8  2  0  0  0  0
  7 29  1  0  0  0  0
  8  9  1  0  0  0  0
  9 10  1  0  0  0  0
 10 11  1  0  0  0  0
 10 30  1  0  0  0  0
 10 31  1  0  0  0  0
 11 12  1  0  0  0  0
 11 32  1  0  0  0  0
 11 33  1  0  0  0  0
 12 22  1  0  0  0  0
 12 13  1  0  0  0  0
 13 14  1  0  0  0  0
 13 16  2  0  0  0  0
 14 15  1  0  0  0  0
 14 34  1  0  0  0  0
 14 35  1  0  0  0  0
 15 36  1  0  0  0  0
 16 17  1  0  0  0  0
 16 41  1  0  0  0  0
 17 22  2  0  0  0  0
 17 18  1  0  0  0  0
 18 19  2  0  0  0  0
 18 37  1  0  0  0  0
 19 20  1  0  0  0  0
 19 38  1  0  0  0  0
 20 21  2  0  0  0  0
 20 39  1  0  0  0  0
 21 22  1  0  0  0  0
 21 40  1  0  0  0  0
M  CHG  1  16   1
M  END
> <s_m_source_file>
AV-unprocessed.smi

> <i_m_source_file_index>
521

> <i_lp_mmshare_version>
43012

> <i_f3d_flags>
0

> <s_epik_input>
W0NIM11PYzFbY0hdW2NIXVtjSF1bY0hdYzFPW0NIMl1bQ0gyXW4oYyhuMilbQ0gyXVtPSF0pYyhjMjMpW2NIXVtjSF1bY0hdW2NIXTM=

> <s_epik_cmdline>
J2VwaWtfcHl0aG9uJywgJy1waCcsICc3LjAnLCAnLXRuJywgJzgnLCAnLW1hJywgJzIwMCcsICctbWV0YWxfYmluZGluZycsICctaW1hZScsICc8aW5maWxlLm1hZT4nLCAnLW9tYWUnLCAnPG91dGZpbGUubWFlPic=

> <r_lp_tautomer_probability>
1

> <r_epik_Ionization_Penalty>
1.50718

> <r_epik_Ionization_Penalty_Charging>
1.50632

> <r_epik_Ionization_Penalty_Neutral>
0.000855784

> <r_epik_State_Penalty>
1.59697

> <r_epik_Charging_Adjusted_Penalty>
3.1033

> <i_epik_Tot_Q>
1

> <i_epik_Tot_abs_Q>
1

> <r_epik_Metal_State_Penalty>
5.64835

> <b_epik_Metal_Only>
0

> <s_lp_Force_Field>
OPLS_2005

> <r_lp_Energy>
22.6327

> <b_lp_Chiralities_Consistent>
1

> <s_lp_Variant>
AV-unprocessed.smi:521-2

> <Gold.Version>
5.8.1

> <Gold.Id.Protein>
6NUR|6NUR_protein|mol2

> <Gold.PLP.Fitness>
58.3400

> <Gold.PLP.PLP>
-51.3362

> <Gold.PLP.part.hbond>
-3.0000

> <Gold.PLP.part.metal>
0.0000

> <Gold.PLP.part.buried>
0.0973

> <Gold.PLP.part.nonpolar>
-48.8578

> <Gold.PLP.part.repulsive>
0.1316

> <Gold.PLP.ligand.clash>
0.0000

> <Gold.PLP.ligand.torsion>
1.0421

> <Gold.PLP.Chemscore.Hbond>
3.0000

> <Gold.PLP.Chemscore.CHOScore>
0.0000

> <Gold.PLP.Chemscore.Metal>
0.0000

> <Gold.Chemscore.Hbonds>
donor molecule, donor type, donor heavy atom, donor atom, acceptor molecule, acceptor atom, score
      L1  H    16    41       P1  7948  2.00
      P1  H 10752 10765       L1    15  0.95

> <Gold.PLP.Chemscore.Internal.Correction>
0.0880

> <Gold.Rescore>
     Score         DG    S(hbond)    S(metal)    S(lipo)     H(rot)  DE(clash)    DE(int)     intcor
     18.91     -20.17       1.97        0.00     124.97       2.54       0.13       1.14       ----

> <Gold.Chemscore.Fitness>
18.9068

> <Gold.Chemscore.DG>
-20.1728

> <Gold.Chemscore.ZeroCoef>
-5.4800

> <Gold.Chemscore.Hbond>
1.9706

> <Gold.Chemscore.Metal>
0.0000

> <Gold.Chemscore.Lipo>
124.9691

> <Gold.Chemscore.Internal_Hbond>
0.0000

> <Gold.Chemscore.DEClash>
0.1265

> <Gold.Chemscore.DEInternal>
1.1395

> <Gold.Chemscore.Rot>
2.5431

> <Gold.Chemscore.Internal.Correction>
   9.000000E+99

> <Gold.Chemscore.Hbonds>
donor molecule, donor type, donor heavy atom, donor atom, acceptor molecule, acceptor atom, score
      L1  H    16    41       P1  7948  0.97
      P1  H 10752 10765       L1    15  0.22

> <Gold.Chemscore.Hbond.Weighted>
-6.5818

> <Gold.Chemscore.Metal.Weighted>
-0.0000

> <Gold.Chemscore.Lipo.Weighted>
-14.6214

> <Gold.Chemscore.Internal_Hbond.Weighted>
0.0000

> <Gold.Chemscore.DEClash.Weighted>
0.1265

> <Gold.Chemscore.DEInternal.Weighted>
1.1395

> <Gold.Chemscore.Rot.Weighted>
6.5103

> <Gold.Chemscore.Internal.Correction.Weighted>
   9.000000E+99

> <Gold.Protein.RotatedTorsions>
[ 6907 6896 6895 6894 ] final -149.54 input  -60.11 | X-H torsion
[ 7974 7965 7964 7962 ] final   -0.23 input  175.53 | X-H torsion
[ 8008 7997 7996 7995 ] final  110.46 input   59.86 | X-H torsion
[ 10167 10162 10161 10158 ] final  -41.68 input  -65.29 | X-H torsion
[ 10718 10713 10712 10709 ] final -135.14 input   66.30 | X-H torsion
[ 10763 10752 10751 10750 ] final  174.34 input  -60.55 | X-H torsion
[ 11005 11000 10999 10996 ] final   94.37 input  -57.11 | X-H torsion

> <Gold.Protein.ActiveResidues>
 VAL166  LYS551  ARG553  GLY616  TRP617  ASP618  TYR619  PRO620  LYS621  CYS622 
 ASP623  PHE694  ASN695  SER759  ASP760  ASP761  ALA762  ILE779  LEU786  VAL792 
 PHE793  MET794  SER795  GLU796  ALA797  LYS798  CYS799  TRP800  GLU811  SER814 

> <Gold.Protein.RotatedAtoms>
  151.1856  133.4698  159.2594 H   0  0  0  0  0  0  0  0  0  0  0  0  # atno 6907 bound_to 6896
  151.1215  135.0081  159.8550 H   0  0  0  0  0  0  0  0  0  0  0  0  # atno 6908 bound_to 6896
  152.5456  134.1767  159.8672 H   0  0  0  0  0  0  0  0  0  0  0  0  # atno 6909 bound_to 6896
  146.2429  140.1238  142.8340 H   0  0  0  0  0  0  0  0  0  0  0  0  # atno 7974 bound_to 7965
  156.2054  140.3038  155.9616 H   0  0  0  0  0  0  0  0  0  0  0  0  # atno 8008 bound_to 7997
  155.2853  140.0439  157.3036 H   0  0  0  0  0  0  0  0  0  0  0  0  # atno 8009 bound_to 7997
  154.5626  140.2325  155.8320 H   0  0  0  0  0  0  0  0  0  0  0  0  # atno 8010 bound_to 7997
  140.6994  143.3080  151.3101 H   0  0  0  0  0  0  0  0  0  0  0  0  # atno 10167 bound_to 10162
  156.2629  130.7220  151.1161 H   0  0  0  0  0  0  0  0  0  0  0  0  # atno 10718 bound_to 10713
  154.4526  135.2765  155.1770 H   0  0  0  0  0  0  0  0  0  0  0  0  # atno 10763 bound_to 10752
  154.3591  135.6133  153.5685 H   0  0  0  0  0  0  0  0  0  0  0  0  # atno 10764 bound_to 10752
  152.9848  135.5830  154.4873 H   0  0  0  0  0  0  0  0  0  0  0  0  # atno 10765 bound_to 10752
  139.8799  134.8841  156.3854 H   0  0  0  0  0  0  0  0  0  0  0  0  # atno 11005 bound_to 11000
  145.0383  140.8926  143.5067 LP  0  0  0  0  0  0  0  0  0  0  0  0  # atno 17320 bound_to 7965
  145.1315  139.2629  143.5537 LP  0  0  0  0  0  0  0  0  0  0  0  0  # atno 17321 bound_to 7965
  139.6493  144.0392  152.2614 LP  0  0  0  0  0  0  0  0  0  0  0  0  # atno 17342 bound_to 10162
  139.9923  144.6353  150.7803 LP  0  0  0  0  0  0  0  0  0  0  0  0  # atno 17343 bound_to 10162
  157.7257  131.0651  150.5941 LP  0  0  0  0  0  0  0  0  0  0  0  0  # atno 17370 bound_to 10713
  156.6031  130.4360  149.5889 LP  0  0  0  0  0  0  0  0  0  0  0  0  # atno 17371 bound_to 10713
  140.9370  133.7540  156.0097 LP  0  0  0  0  0  0  0  0  0  0  0  0  # atno 17394 bound_to 11000
  140.8264  134.3229  157.5364 LP  0  0  0  0  0  0  0  0  0  0  0  0  # atno 17395 bound_to 11000

$$$$
