AV-unprocessed.smi:2461|AV-procd|sdf|9716|dock5
  -GOLD-   2272013353D 1   1.00000     0.00000
 Structure written by MMmdl.
 36 37  0  0  0  0  0  0  0  0  1 V2000
  144.1254  132.6074  149.0906 C   0  0  0  0  0  0  0  0  0  0  0  0
  143.8241  132.9042  150.5665 C   0  0  0  0  0  0  0  0  0  0  0  0
  144.9017  133.7380  151.2517 C   0  0  0  0  0  0  0  0  0  0  0  0
  146.2770  133.0688  151.1842 C   0  0  0  0  0  0  0  0  0  0  0  0
  147.3210  133.6789  151.9997 N   0  0  0  0  0  0  0  0  0  0  0  0
  147.8591  133.1288  153.0973 C   0  0  0  0  0  0  0  0  0  0  0  0
  147.4931  132.0510  153.5664 O   0  0  0  0  0  0  0  0  0  0  0  0
  148.8421  133.8994  153.5948 N   0  0  0  0  0  0  0  0  0  0  0  0
  149.6626  133.6478  154.7258 C   0  0  0  0  0  0  0  0  0  0  0  0
  150.4961  134.7153  155.1282 C   0  0  0  0  0  0  0  0  0  0  0  0
  151.3334  134.5038  156.2427 C   0  0  0  0  0  0  0  0  0  0  0  0
  152.1704  135.5175  156.6609 O   0  0  0  0  0  0  0  0  0  0  0  0
  151.7569  136.8621  156.4459 C   0  0  0  0  0  0  0  0  0  0  0  0
  151.3333  133.3235  156.9083 N   0  0  0  0  0  0  0  0  0  0  0  0
  150.5077  132.3793  156.4553 C   0  0  0  0  0  0  0  0  0  0  0  0
  149.6831  132.4778  155.4109 N   0  0  0  0  0  0  0  0  0  0  0  0
  144.8008  135.2545  151.2018 C   0  0  0  0  0  0  0  0  0  0  0  0
  144.5356  134.5321  152.4923 C   0  0  0  0  0  0  0  0  0  0  0  0
  143.3422  131.9864  148.6559 H   0  0  0  0  0  0  0  0  0  0  0  0
  145.0694  132.0732  148.9808 H   0  0  0  0  0  0  0  0  0  0  0  0
  144.1869  133.5197  148.4978 H   0  0  0  0  0  0  0  0  0  0  0  0
  142.8630  133.4106  150.6590 H   0  0  0  0  0  0  0  0  0  0  0  0
  143.7181  131.9574  151.0972 H   0  0  0  0  0  0  0  0  0  0  0  0
  146.1751  132.0340  151.5111 H   0  0  0  0  0  0  0  0  0  0  0  0
  146.6243  133.0095  150.1518 H   0  0  0  0  0  0  0  0  0  0  0  0
  147.6790  134.5696  151.6873 H   0  0  0  0  0  0  0  0  0  0  0  0
  149.0417  134.7524  153.0937 H   0  0  0  0  0  0  0  0  0  0  0  0
  150.5019  135.6589  154.6022 H   0  0  0  0  0  0  0  0  0  0  0  0
  152.5146  137.5394  156.8397 H   0  0  0  0  0  0  0  0  0  0  0  0
  150.8201  137.0790  156.9614 H   0  0  0  0  0  0  0  0  0  0  0  0
  151.6396  137.0789  155.3832 H   0  0  0  0  0  0  0  0  0  0  0  0
  150.5063  131.4395  156.9875 H   0  0  0  0  0  0  0  0  0  0  0  0
  145.7173  135.8379  151.1445 H   0  0  0  0  0  0  0  0  0  0  0  0
  143.9469  135.6911  150.6880 H   0  0  0  0  0  0  0  0  0  0  0  0
  143.5047  134.4887  152.8376 H   0  0  0  0  0  0  0  0  0  0  0  0
  145.2823  134.6290  153.2780 H   0  0  0  0  0  0  0  0  0  0  0  0
  1  2  1  0  0  0  0
  1 19  1  0  0  0  0
  1 20  1  0  0  0  0
  1 21  1  0  0  0  0
  2  3  1  0  0  0  0
  2 22  1  0  0  0  0
  2 23  1  0  0  0  0
  3 18  1  0  0  0  0
  3  4  1  0  0  0  0
  3 17  1  0  0  0  0
  4  5  1  0  0  0  0
  4 24  1  0  0  0  0
  4 25  1  0  0  0  0
  5  6  1  0  0  0  0
  5 26  1  0  0  0  0
  6  7  2  0  0  0  0
  6  8  1  0  0  0  0
  8  9  1  0  0  0  0
  8 27  1  0  0  0  0
  9 16  1  0  0  0  0
  9 10  2  0  0  0  0
 10 11  1  0  0  0  0
 10 28  1  0  0  0  0
 11 12  1  0  0  0  0
 11 14  2  0  0  0  0
 12 13  1  0  0  0  0
 13 29  1  0  0  0  0
 13 30  1  0  0  0  0
 13 31  1  0  0  0  0
 14 15  1  0  0  0  0
 15 16  2  0  0  0  0
 15 32  1  0  0  0  0
 17 18  1  0  0  0  0
 17 33  1  0  0  0  0
 17 34  1  0  0  0  0
 18 35  1  0  0  0  0
 18 36  1  0  0  0  0
M  END
> <s_m_source_file>
AV-unprocessed.smi

> <i_m_source_file_index>
2461

> <i_lp_mmshare_version>
43012

> <i_f3d_flags>
0

> <s_epik_input>
W0NIM11bQ0gyXUMxKFtDSDJdW0NIMl0xKVtDSDJdW05IXUMoPU8pW05IXWMyW2NIXWMoT1tDSDNdKW5bY0hdbjI=

> <s_epik_cmdline>
J2VwaWtfcHl0aG9uJywgJy1waCcsICc3LjAnLCAnLXRuJywgJzgnLCAnLW1hJywgJzIwMCcsICctbWV0YWxfYmluZGluZycsICctaW1hZScsICc8aW5maWxlLm1hZT4nLCAnLW9tYWUnLCAnPG91dGZpbGUubWFlPic=

> <r_lp_tautomer_probability>
1

> <r_epik_Ionization_Penalty>
2.7206e-05

> <r_epik_Ionization_Penalty_Charging>
0

> <r_epik_Ionization_Penalty_Neutral>
2.7206e-05

> <r_epik_State_Penalty>
-0

> <r_epik_Charging_Adjusted_Penalty>
0

> <i_epik_Tot_Q>
0

> <i_epik_Tot_abs_Q>
0

> <r_epik_Metal_State_Penalty>
-0

> <b_epik_Metal_Only>
0

> <s_lp_Force_Field>
OPLS_2005

> <r_lp_Energy>
17.684

> <b_lp_Chiralities_Consistent>
1

> <s_lp_Variant>
AV-unprocessed.smi:2461-1

> <Gold.Version>
5.8.1

> <Gold.Id.Protein>
6NUR|6NUR_protein|mol2

> <Gold.PLP.Fitness>
39.5138

> <Gold.PLP.PLP>
-31.0067

> <Gold.PLP.part.hbond>
-4.0000

> <Gold.PLP.part.metal>
0.0000

> <Gold.PLP.part.buried>
-4.9464

> <Gold.PLP.part.nonpolar>
-22.5980

> <Gold.PLP.part.repulsive>
0.1122

> <Gold.PLP.ligand.clash>
0.0000

> <Gold.PLP.ligand.torsion>
1.0488

> <Gold.PLP.Chemscore.Hbond>
3.1242

> <Gold.PLP.Chemscore.CHOScore>
0.0000

> <Gold.PLP.Chemscore.Metal>
0.0000

> <Gold.Chemscore.Hbonds>
donor molecule, donor type, donor heavy atom, donor atom, acceptor molecule, acceptor atom, score
      L1  H     5    26       P1  7948  0.98
      L1  H     8    27       P1  7948  0.65
      P1  H  6896  6909       L1    14  0.25
      P1  H 10752 10763       L1    12  0.95

> <Gold.PLP.Chemscore.Internal.Correction>
1.2323

> <Gold.Rescore>
     Score         DG    S(hbond)    S(metal)    S(lipo)     H(rot)  DE(clash)    DE(int)     intcor
     11.00     -13.43       2.14        0.00      47.73       1.87       0.06       2.38       ----

> <Gold.Chemscore.Fitness>
10.9969

> <Gold.Chemscore.DG>
-13.4340

> <Gold.Chemscore.ZeroCoef>
-5.4800

> <Gold.Chemscore.Hbond>
2.1400

> <Gold.Chemscore.Metal>
0.0000

> <Gold.Chemscore.Lipo>
47.7313

> <Gold.Chemscore.Internal_Hbond>
0.0000

> <Gold.Chemscore.DEClash>
0.0580

> <Gold.Chemscore.DEInternal>
2.3791

> <Gold.Chemscore.Rot>
1.8664

> <Gold.Chemscore.Internal.Correction>
   9.000000E+99

> <Gold.Chemscore.Hbonds>
donor molecule, donor type, donor heavy atom, donor atom, acceptor molecule, acceptor atom, score
      L1  H     5    26       P1  7948  0.23
      L1  H     8    27       P1  7948  0.06
      P1  H  6896  6909       L1    14  0.18
      P1  H 10752 10763       L1    12  0.05

> <Gold.Chemscore.Hbond.Weighted>
-7.1475

> <Gold.Chemscore.Metal.Weighted>
-0.0000

> <Gold.Chemscore.Lipo.Weighted>
-5.5846

> <Gold.Chemscore.Internal_Hbond.Weighted>
0.0000

> <Gold.Chemscore.DEClash.Weighted>
0.0580

> <Gold.Chemscore.DEInternal.Weighted>
2.3791

> <Gold.Chemscore.Rot.Weighted>
4.7781

> <Gold.Chemscore.Internal.Correction.Weighted>
   9.000000E+99

> <Gold.Protein.RotatedTorsions>
[ 6907 6896 6895 6894 ] final  -35.49 input  -60.11 | X-H torsion
[ 7974 7965 7964 7962 ] final  100.60 input  175.53 | X-H torsion
[ 8008 7997 7996 7995 ] final  109.78 input   59.86 | X-H torsion
[ 10167 10162 10161 10158 ] final  -18.93 input  -65.29 | X-H torsion
[ 10718 10713 10712 10709 ] final -119.30 input   66.30 | X-H torsion
[ 10763 10752 10751 10750 ] final  118.37 input  -60.55 | X-H torsion
[ 11005 11000 10999 10996 ] final   30.03 input  -57.11 | X-H torsion

> <Gold.Protein.ActiveResidues>
 VAL166  LYS551  ARG553  GLY616  TRP617  ASP618  TYR619  PRO620  LYS621  CYS622 
 ASP623  PHE694  ASN695  SER759  ASP760  ASP761  ALA762  ILE779  LEU786  VAL792 
 PHE793  MET794  SER795  GLU796  ALA797  LYS798  CYS799  TRP800  GLU811  SER814 

> <Gold.Protein.RotatedAtoms>
  151.0391  134.9594  159.8151 H   0  0  0  0  0  0  0  0  0  0  0  0  # atno 6907 bound_to 6896
  152.5360  134.2681  159.8971 H   0  0  0  0  0  0  0  0  0  0  0  0  # atno 6908 bound_to 6896
  151.2693  133.4220  159.2654 H   0  0  0  0  0  0  0  0  0  0  0  0  # atno 6909 bound_to 6896
  145.3834  139.2376  143.3391 H   0  0  0  0  0  0  0  0  0  0  0  0  # atno 7974 bound_to 7965
  156.2005  140.3051  155.9516 H   0  0  0  0  0  0  0  0  0  0  0  0  # atno 8008 bound_to 7997
  155.2966  140.0444  157.3044 H   0  0  0  0  0  0  0  0  0  0  0  0  # atno 8009 bound_to 7997
  154.5564  140.2307  155.8412 H   0  0  0  0  0  0  0  0  0  0  0  0  # atno 8010 bound_to 7997
  140.7263  143.4868  151.0045 H   0  0  0  0  0  0  0  0  0  0  0  0  # atno 10167 bound_to 10162
  156.1171  130.6294  150.9399 H   0  0  0  0  0  0  0  0  0  0  0  0  # atno 10718 bound_to 10713
  153.5666  135.3510  155.2821 H   0  0  0  0  0  0  0  0  0  0  0  0  # atno 10763 bound_to 10752
  154.8688  135.4149  154.2772 H   0  0  0  0  0  0  0  0  0  0  0  0  # atno 10764 bound_to 10752
  153.3529  135.7056  153.6844 H   0  0  0  0  0  0  0  0  0  0  0  0  # atno 10765 bound_to 10752
  140.2987  134.2781  155.7759 H   0  0  0  0  0  0  0  0  0  0  0  0  # atno 11005 bound_to 11000
  146.2832  140.4505  142.8768 LP  0  0  0  0  0  0  0  0  0  0  0  0  # atno 17320 bound_to 7965
  144.8492  140.6975  143.6179 LP  0  0  0  0  0  0  0  0  0  0  0  0  # atno 17321 bound_to 7965
  139.8570  143.7364  152.3175 LP  0  0  0  0  0  0  0  0  0  0  0  0  # atno 17342 bound_to 10162
  139.7566  144.7519  151.0426 LP  0  0  0  0  0  0  0  0  0  0  0  0  # atno 17343 bound_to 10162
  157.6354  131.0916  150.8358 LP  0  0  0  0  0  0  0  0  0  0  0  0  # atno 17370 bound_to 10713
  156.8460  130.5064  149.5316 LP  0  0  0  0  0  0  0  0  0  0  0  0  # atno 17371 bound_to 10713
  141.2132  133.7632  156.9734 LP  0  0  0  0  0  0  0  0  0  0  0  0  # atno 17394 bound_to 11000
  140.1129  134.9465  157.2092 LP  0  0  0  0  0  0  0  0  0  0  0  0  # atno 17395 bound_to 11000

$$$$
