AV-unprocessed.smi:2997|AV-procd|sdf|11412|dock9
  -GOLD-   2272016333D 1   1.00000     0.00000
 Structure written by MMmdl.
 38 40  0  0  0  0  0  0  0  0  1 V2000
  152.8986  142.9630  161.3063 C   0  0  0  0  0  0  0  0  0  0  0  0
  152.3756  142.6386  159.9181 C   0  0  0  0  0  0  0  0  0  0  0  0
  152.8155  141.4588  159.2766 C   0  0  0  0  0  0  0  0  0  0  0  0
  152.3499  141.1185  157.9875 C   0  0  0  0  0  0  0  0  0  0  0  0
  152.6419  140.0291  157.1846 N   0  0  0  0  0  0  0  0  0  0  0  0
  151.8963  140.2797  156.1118 C   0  0  0  0  0  0  0  0  0  0  0  0
  151.1568  141.4055  156.1245 N   0  0  0  0  0  0  0  0  0  0  0  0
  150.2714  141.8865  155.0794 C   0  0  0  0  0  0  0  0  0  0  0  0
  149.4390  140.7552  154.4478 C   0  0  2  0  0  0  0  0  0  0  0  0
  150.2667  139.9660  153.6135 O   0  0  0  0  0  0  0  0  0  0  0  0
  148.2481  141.3007  153.6373 C   0  0  0  0  0  0  0  0  0  0  0  0
  147.2716  141.9771  154.4733 N   0  0  0  0  0  0  0  0  0  0  0  0
  146.2158  142.7722  154.0802 C   0  0  0  0  0  0  0  0  0  0  0  0
  145.5784  143.1908  155.2128 C   0  0  0  0  0  0  0  0  0  0  0  0
  146.3279  142.5915  156.2634 C   0  0  0  0  0  0  0  0  0  0  0  0
  147.3406  141.8657  155.8177 N   0  0  0  0  0  0  0  0  0  0  0  0
  151.4251  141.9983  157.3529 C   0  0  0  0  0  0  0  0  0  0  0  0
  150.9812  143.1758  157.9801 C   0  0  0  0  0  0  0  0  0  0  0  0
  151.4569  143.5011  159.2677 C   0  0  0  0  0  0  0  0  0  0  0  0
  150.9744  144.7767  159.9356 C   0  0  0  0  0  0  0  0  0  0  0  0
  153.6007  142.2050  161.6547 H   0  0  0  0  0  0  0  0  0  0  0  0
  152.0772  143.0119  162.0217 H   0  0  0  0  0  0  0  0  0  0  0  0
  153.4156  143.9227  161.3062 H   0  0  0  0  0  0  0  0  0  0  0  0
  153.5161  140.8022  159.7713 H   0  0  0  0  0  0  0  0  0  0  0  0
  151.8837  139.6047  155.2683 H   0  0  0  0  0  0  0  0  0  0  0  0
  149.6140  142.6407  155.5134 H   0  0  0  0  0  0  0  0  0  0  0  0
  150.8686  142.3934  154.3200 H   0  0  0  0  0  0  0  0  0  0  0  0
  149.0579  140.1106  155.2412 H   0  0  0  0  0  0  0  0  0  0  0  0
  149.9123  139.9833  152.7372 H   0  0  0  0  0  0  0  0  0  0  0  0
  148.6004  142.0128  152.8901 H   0  0  0  0  0  0  0  0  0  0  0  0
  147.7546  140.4952  153.0906 H   0  0  0  0  0  0  0  0  0  0  0  0
  146.0097  142.9727  153.0391 H   0  0  0  0  0  0  0  0  0  0  0  0
  144.7094  143.8284  155.2807 H   0  0  0  0  0  0  0  0  0  0  0  0
  146.1672  142.6624  157.3291 H   0  0  0  0  0  0  0  0  0  0  0  0
  150.2803  143.8224  157.4730 H   0  0  0  0  0  0  0  0  0  0  0  0
  150.2557  145.3062  159.3094 H   0  0  0  0  0  0  0  0  0  0  0  0
  151.8120  145.4485  160.1245 H   0  0  0  0  0  0  0  0  0  0  0  0
  150.4889  144.5525  160.8855 H   0  0  0  0  0  0  0  0  0  0  0  0
  1  2  1  0  0  0  0
  1 21  1  0  0  0  0
  1 22  1  0  0  0  0
  1 23  1  0  0  0  0
  2 19  1  0  0  0  0
  2  3  2  0  0  0  0
  3  4  1  0  0  0  0
  3 24  1  0  0  0  0
  4 17  2  0  0  0  0
  4  5  1  0  0  0  0
  5  6  2  0  0  0  0
  6  7  1  0  0  0  0
  6 25  1  0  0  0  0
  7  8  1  0  0  0  0
  7 17  1  0  0  0  0
  8  9  1  0  0  0  0
  8 26  1  0  0  0  0
  8 27  1  0  0  0  0
  9 10  1  0  0  0  0
  9 11  1  0  0  0  0
  9 28  1  0  0  0  0
 10 29  1  0  0  0  0
 11 12  1  0  0  0  0
 11 30  1  0  0  0  0
 11 31  1  0  0  0  0
 12 16  1  0  0  0  0
 12 13  1  0  0  0  0
 13 14  2  0  0  0  0
 13 32  1  0  0  0  0
 14 15  1  0  0  0  0
 14 33  1  0  0  0  0
 15 16  2  0  0  0  0
 15 34  1  0  0  0  0
 17 18  1  0  0  0  0
 18 19  2  0  0  0  0
 18 35  1  0  0  0  0
 19 20  1  0  0  0  0
 20 36  1  0  0  0  0
 20 37  1  0  0  0  0
 20 38  1  0  0  0  0
M  END
> <s_m_source_file>
AV-unprocessed.smi

> <i_m_source_file_index>
2997

> <i_lp_mmshare_version>
43012

> <i_f3d_flags>
0

> <s_epik_input>
W0NIM11jKFtjSF0xKWMoW0NIM10pW2NIXWMoYzEyKW4oW2NIXW4yKVtDSDJdW0NASF0oW09IXSlbQ0gyXW4zW2NIXVtjSF1bY0hdbjM=

> <s_epik_cmdline>
J2VwaWtfcHl0aG9uJywgJy1waCcsICc3LjAnLCAnLXRuJywgJzgnLCAnLW1hJywgJzIwMCcsICctbWV0YWxfYmluZGluZycsICctaW1hZScsICc8aW5maWxlLm1hZT4nLCAnLW9tYWUnLCAnPG91dGZpbGUubWFlPic=

> <r_lp_tautomer_probability>
1

> <r_epik_Ionization_Penalty>
0.102113

> <r_epik_Ionization_Penalty_Charging>
0

> <r_epik_Ionization_Penalty_Neutral>
0.102113

> <r_epik_State_Penalty>
0.0920694

> <r_epik_Charging_Adjusted_Penalty>
0.0920694

> <i_epik_Tot_Q>
0

> <i_epik_Tot_abs_Q>
0

> <r_epik_Metal_State_Penalty>
0.0784306

> <b_epik_Metal_Only>
0

> <s_lp_Force_Field>
OPLS_2005

> <r_lp_Energy>
8.0564

> <b_lp_Chiralities_Consistent>
1

> <s_lp_Variant>
AV-unprocessed.smi:2997-1

> <Gold.Version>
5.8.1

> <Gold.Id.Protein>
6NUR|6NUR_protein|mol2

> <Gold.PLP.Fitness>
54.4652

> <Gold.PLP.PLP>
-46.8916

> <Gold.PLP.part.hbond>
-3.0000

> <Gold.PLP.part.metal>
0.0000

> <Gold.PLP.part.buried>
-5.0185

> <Gold.PLP.part.nonpolar>
-38.9585

> <Gold.PLP.part.repulsive>
0.1260

> <Gold.PLP.ligand.clash>
0.0229

> <Gold.PLP.ligand.torsion>
0.5129

> <Gold.PLP.Chemscore.Hbond>
2.8713

> <Gold.PLP.Chemscore.CHOScore>
0.0000

> <Gold.PLP.Chemscore.Metal>
0.0000

> <Gold.Chemscore.Hbonds>
donor molecule, donor type, donor heavy atom, donor atom, acceptor molecule, acceptor atom, score
      L1  H    10    29       P1  7957  1.00
      P1  H  7989  7998       L1    10  0.80
      P1  H  7997  8010       L1     5  1.00

> <Gold.PLP.Chemscore.Internal.Correction>
0.0086

> <Gold.Rescore>
     Score         DG    S(hbond)    S(metal)    S(lipo)     H(rot)  DE(clash)    DE(int)     intcor
     16.12     -19.21       1.50        0.00     121.74       2.15       1.23       1.86       ----

> <Gold.Chemscore.Fitness>
16.1157

> <Gold.Chemscore.DG>
-19.2063

> <Gold.Chemscore.ZeroCoef>
-5.4800

> <Gold.Chemscore.Hbond>
1.4956

> <Gold.Chemscore.Metal>
0.0000

> <Gold.Chemscore.Lipo>
121.7404

> <Gold.Chemscore.Internal_Hbond>
0.0000

> <Gold.Chemscore.DEClash>
1.2330

> <Gold.Chemscore.DEInternal>
1.8576

> <Gold.Chemscore.Rot>
2.1534

> <Gold.Chemscore.Internal.Correction>
   9.000000E+99

> <Gold.Chemscore.Hbonds>
donor molecule, donor type, donor heavy atom, donor atom, acceptor molecule, acceptor atom, score
      L1  H    10    29       P1  7957  0.99
      P1  H  7989  7998       L1    10  0.11
      P1  H  7997  8010       L1     5  0.39

> <Gold.Chemscore.Hbond.Weighted>
-4.9954

> <Gold.Chemscore.Metal.Weighted>
-0.0000

> <Gold.Chemscore.Lipo.Weighted>
-14.2436

> <Gold.Chemscore.Internal_Hbond.Weighted>
0.0000

> <Gold.Chemscore.DEClash.Weighted>
1.2330

> <Gold.Chemscore.DEInternal.Weighted>
1.8576

> <Gold.Chemscore.Rot.Weighted>
5.5127

> <Gold.Chemscore.Internal.Correction.Weighted>
   9.000000E+99

> <Gold.Protein.RotatedTorsions>
[ 6907 6896 6895 6894 ] final  111.88 input  -60.11 | X-H torsion
[ 7974 7965 7964 7962 ] final  -29.30 input  175.53 | X-H torsion
[ 8008 7997 7996 7995 ] final   64.01 input   59.86 | X-H torsion
[ 10167 10162 10161 10158 ] final  150.18 input  -65.29 | X-H torsion
[ 10718 10713 10712 10709 ] final  103.59 input   66.30 | X-H torsion
[ 10763 10752 10751 10750 ] final  -90.02 input  -60.55 | X-H torsion
[ 11005 11000 10999 10996 ] final  -17.06 input  -57.11 | X-H torsion

> <Gold.Protein.ActiveResidues>
 VAL166  LYS551  ARG553  GLY616  TRP617  ASP618  TYR619  PRO620  LYS621  CYS622 
 ASP623  PHE694  ASN695  SER759  ASP760  ASP761  ALA762  ILE779  LEU786  VAL792 
 PHE793  MET794  SER795  GLU796  ALA797  LYS798  CYS799  TRP800  GLU811  SER814 

> <Gold.Protein.RotatedAtoms>
  152.4946  133.8595  159.7242 H   0  0  0  0  0  0  0  0  0  0  0  0  # atno 6907 bound_to 6896
  150.9110  133.6988  159.2861 H   0  0  0  0  0  0  0  0  0  0  0  0  # atno 6908 bound_to 6896
  151.4397  135.1023  159.9719 H   0  0  0  0  0  0  0  0  0  0  0  0  # atno 6909 bound_to 6896
  146.1226  140.5394  142.8728 H   0  0  0  0  0  0  0  0  0  0  0  0  # atno 7974 bound_to 7965
  155.6393  140.3496  155.4709 H   0  0  0  0  0  0  0  0  0  0  0  0  # atno 8008 bound_to 7997
  155.9939  140.1199  157.0635 H   0  0  0  0  0  0  0  0  0  0  0  0  # atno 8009 bound_to 7997
  154.4227  140.1114  156.5590 H   0  0  0  0  0  0  0  0  0  0  0  0  # atno 8010 bound_to 7997
  139.4853  144.5543  151.7346 H   0  0  0  0  0  0  0  0  0  0  0  0  # atno 10167 bound_to 10162
  157.6768  131.0782  150.5577 H   0  0  0  0  0  0  0  0  0  0  0  0  # atno 10718 bound_to 10713
  154.6614  135.5319  153.8022 H   0  0  0  0  0  0  0  0  0  0  0  0  # atno 10763 bound_to 10752
  153.0444  135.6506  154.0866 H   0  0  0  0  0  0  0  0  0  0  0  0  # atno 10764 bound_to 10752
  154.0774  135.2949  155.3276 H   0  0  0  0  0  0  0  0  0  0  0  0  # atno 10765 bound_to 10752
  140.8130  133.8126  155.9582 H   0  0  0  0  0  0  0  0  0  0  0  0  # atno 11005 bound_to 11000
  144.7612  140.5426  143.6734 LP  0  0  0  0  0  0  0  0  0  0  0  0  # atno 17320 bound_to 7965
  145.5433  139.1475  143.3435 LP  0  0  0  0  0  0  0  0  0  0  0  0  # atno 17321 bound_to 7965
  140.5102  144.1037  150.5993 LP  0  0  0  0  0  0  0  0  0  0  0  0  # atno 17342 bound_to 10162
  140.3960  143.2728  152.0004 LP  0  0  0  0  0  0  0  0  0  0  0  0  # atno 17343 bound_to 10162
  156.5881  130.4322  149.5948 LP  0  0  0  0  0  0  0  0  0  0  0  0  # atno 17370 bound_to 10713
  156.2606  130.6960  151.1727 LP  0  0  0  0  0  0  0  0  0  0  0  0  # atno 17371 bound_to 10713
  140.9178  134.2180  157.4946 LP  0  0  0  0  0  0  0  0  0  0  0  0  # atno 17394 bound_to 11000
  139.8713  134.9779  156.4975 LP  0  0  0  0  0  0  0  0  0  0  0  0  # atno 17395 bound_to 11000

$$$$
