AV-unprocessed.smi:1546|AV-procd|sdf|6219|dock3
  -GOLD-   22720 6393D 1   1.00000     0.00000
 Structure written by MMmdl.
 29 30  0  0  0  0  0  0  0  0  2 V2000
  150.3917  141.9042  156.5488 O   0  0  0  0  0  0  0  0  0  0  0  0
  151.0555  140.8700  156.6281 C   0  0  0  0  0  0  0  0  0  0  0  0
  151.0179  139.8429  155.4953 C   0  0  0  0  0  0  0  0  0  0  0  0
  150.2091  140.3270  154.4335 O   0  0  0  0  0  0  0  0  0  0  0  0
  148.8428  140.4279  154.7936 C   0  0  0  0  0  0  0  0  0  0  0  0
  148.0875  141.1196  153.6792 C   0  0  0  0  0  0  0  0  0  0  0  0
  146.6798  141.6227  153.9058 C   0  0  0  0  0  0  0  0  0  0  0  0
  146.9191  140.4395  153.0023 C   0  0  0  0  0  0  0  0  0  0  0  0
  151.8322  140.5348  157.6738 N   0  0  0  0  0  0  0  0  0  0  0  0
  152.0814  141.2580  158.8742 C   0  0  0  0  0  0  0  0  0  0  0  0
  151.2272  142.2753  159.3698 C   0  0  0  0  0  0  0  0  0  0  0  0
  151.4744  142.9748  160.4983 N   0  0  0  0  0  0  0  0  0  0  0  0
  152.6007  142.6895  161.1841 C   0  0  0  0  0  0  0  0  0  0  0  0
  153.5279  141.7117  160.7765 C   0  0  0  0  0  0  0  0  0  0  0  0
  153.2667  140.9861  159.5979 C   0  0  0  0  0  0  0  0  0  0  0  0
  154.1582  140.0367  159.1802 O   0  5  0  0  0  0  0  0  0  0  0  0
  152.0344  139.6596  155.1434 H   0  0  0  0  0  0  0  0  0  0  0  0
  150.6180  138.9021  155.8769 H   0  0  0  0  0  0  0  0  0  0  0  0
  148.4196  139.4371  154.9672 H   0  0  0  0  0  0  0  0  0  0  0  0
  148.7319  141.0077  155.7109 H   0  0  0  0  0  0  0  0  0  0  0  0
  148.7163  141.7367  153.0399 H   0  0  0  0  0  0  0  0  0  0  0  0
  146.2200  141.4294  154.8731 H   0  0  0  0  0  0  0  0  0  0  0  0
  146.4030  142.5658  153.4387 H   0  0  0  0  0  0  0  0  0  0  0  0
  146.8039  140.5915  151.9310 H   0  0  0  0  0  0  0  0  0  0  0  0
  146.6210  139.4590  153.3685 H   0  0  0  0  0  0  0  0  0  0  0  0
  152.2471  139.6144  157.6423 H   0  0  0  0  0  0  0  0  0  0  0  0
  150.3272  142.5676  158.8522 H   0  0  0  0  0  0  0  0  0  0  0  0
  152.7716  143.2631  162.0830 H   0  0  0  0  0  0  0  0  0  0  0  0
  154.4198  141.5260  161.3568 H   0  0  0  0  0  0  0  0  0  0  0  0
  1  2  2  0  0  0  0
  2  3  1  0  0  0  0
  2  9  1  0  0  0  0
  3  4  1  0  0  0  0
  3 17  1  0  0  0  0
  3 18  1  0  0  0  0
  4  5  1  0  0  0  0
  5  6  1  0  0  0  0
  5 19  1  0  0  0  0
  5 20  1  0  0  0  0
  6  8  1  0  0  0  0
  6  7  1  0  0  0  0
  6 21  1  0  0  0  0
  7  8  1  0  0  0  0
  7 22  1  0  0  0  0
  7 23  1  0  0  0  0
  8 24  1  0  0  0  0
  8 25  1  0  0  0  0
  9 26  1  0  0  0  0
  9 10  1  0  0  0  0
 10 15  1  0  0  0  0
 10 11  2  0  0  0  0
 11 27  1  0  0  0  0
 11 12  1  0  0  0  0
 12 13  2  0  0  0  0
 13 28  1  0  0  0  0
 13 14  1  0  0  0  0
 14 15  2  0  0  0  0
 14 29  1  0  0  0  0
 15 16  1  0  0  0  0
M  CHG  1  16  -1
M  END
> <s_m_source_file>
AV-unprocessed.smi

> <i_m_source_file_index>
1546

> <i_lp_mmshare_version>
43012

> <i_f3d_flags>
0

> <s_epik_input>
W0NIMl0xW0NIMl1bQ0hdMVtDSDJdT1tDSDJdQyg9TylbTkhdYzJbY0hdbltjSF1bY0hdYzJbT0hd

> <s_epik_cmdline>
J2VwaWtfcHl0aG9uJywgJy1waCcsICc3LjAnLCAnLXRuJywgJzgnLCAnLW1hJywgJzIwMCcsICctbWV0YWxfYmluZGluZycsICctaW1hZScsICc8aW5maWxlLm1hZT4nLCAnLW9tYWUnLCAnPG91dGZpbGUubWFlPic=

> <r_lp_tautomer_probability>
1

> <r_epik_Ionization_Penalty>
6.21828

> <r_epik_Ionization_Penalty_Charging>
1.1523

> <r_epik_Ionization_Penalty_Neutral>
5.06598

> <r_epik_State_Penalty>
5.06586

> <r_epik_Charging_Adjusted_Penalty>
6.21817

> <i_epik_Tot_Q>
-1

> <i_epik_Tot_abs_Q>
1

> <r_epik_Metal_State_Penalty>
1.16681

> <b_epik_Metal_Only>
1

> <s_lp_Force_Field>
OPLS_2005

> <r_lp_Energy>
16.9925

> <b_lp_Chiralities_Consistent>
1

> <s_lp_Variant>
AV-unprocessed.smi:1546-2

> <Gold.Version>
5.8.1

> <Gold.Id.Protein>
6NUR|6NUR_protein|mol2

> <Gold.PLP.Fitness>
43.5137

> <Gold.PLP.PLP>
-35.2026

> <Gold.PLP.part.hbond>
-2.0000

> <Gold.PLP.part.metal>
0.0000

> <Gold.PLP.part.buried>
-4.0226

> <Gold.PLP.part.nonpolar>
-28.1874

> <Gold.PLP.part.repulsive>
0.3315

> <Gold.PLP.ligand.clash>
0.0000

> <Gold.PLP.ligand.torsion>
0.5524

> <Gold.PLP.Chemscore.Hbond>
2.9500

> <Gold.PLP.Chemscore.CHOScore>
0.0000

> <Gold.PLP.Chemscore.Metal>
0.0000

> <Gold.Chemscore.Hbonds>
donor molecule, donor type, donor heavy atom, donor atom, acceptor molecule, acceptor atom, score
      P1  H  7989  7998       L1     4  0.64
      P1  H  7997  8010       L1    16  1.57

> <Gold.PLP.Chemscore.Internal.Correction>
0.5660

> <Gold.Rescore>
     Score         DG    S(hbond)    S(metal)    S(lipo)     H(rot)  DE(clash)    DE(int)     intcor
     12.92     -16.26       1.44        0.00      86.60       1.62       0.14       3.20       ----

> <Gold.Chemscore.Fitness>
12.9202

> <Gold.Chemscore.DG>
-16.2643

> <Gold.Chemscore.ZeroCoef>
-5.4800

> <Gold.Chemscore.Hbond>
1.4370

> <Gold.Chemscore.Metal>
0.0000

> <Gold.Chemscore.Lipo>
86.6011

> <Gold.Chemscore.Internal_Hbond>
0.0000

> <Gold.Chemscore.DEClash>
0.1423

> <Gold.Chemscore.DEInternal>
3.2019

> <Gold.Chemscore.Rot>
1.6202

> <Gold.Chemscore.Internal.Correction>
   9.000000E+99

> <Gold.Chemscore.Hbonds>
donor molecule, donor type, donor heavy atom, donor atom, acceptor molecule, acceptor atom, score
      P1  H  7989  7998       L1     4  0.05
      P1  H  7997  8010       L1    16  0.74

> <Gold.Chemscore.Hbond.Weighted>
-4.7996

> <Gold.Chemscore.Metal.Weighted>
-0.0000

> <Gold.Chemscore.Lipo.Weighted>
-10.1323

> <Gold.Chemscore.Internal_Hbond.Weighted>
0.0000

> <Gold.Chemscore.DEClash.Weighted>
0.1423

> <Gold.Chemscore.DEInternal.Weighted>
3.2019

> <Gold.Chemscore.Rot.Weighted>
4.1476

> <Gold.Chemscore.Internal.Correction.Weighted>
   9.000000E+99

> <Gold.Protein.RotatedTorsions>
[ 6907 6896 6895 6894 ] final  -20.50 input  -60.11 | X-H torsion
[ 7974 7965 7964 7962 ] final  110.19 input  175.53 | X-H torsion
[ 8008 7997 7996 7995 ] final   -4.36 input   59.86 | X-H torsion
[ 10167 10162 10161 10158 ] final -144.38 input  -65.29 | X-H torsion
[ 10718 10713 10712 10709 ] final  176.56 input   66.30 | X-H torsion
[ 10763 10752 10751 10750 ] final   -1.54 input  -60.55 | X-H torsion
[ 11005 11000 10999 10996 ] final   15.93 input  -57.11 | X-H torsion

> <Gold.Protein.ActiveResidues>
 VAL166  LYS551  ARG553  GLY616  TRP617  ASP618  TYR619  PRO620  LYS621  CYS622 
 ASP623  PHE694  ASN695  SER759  ASP760  ASP761  ALA762  ILE779  LEU786  VAL792 
 PHE793  MET794  SER795  GLU796  ALA797  LYS798  CYS799  TRP800  GLU811  SER814 

> <Gold.Protein.RotatedAtoms>
  151.2472  135.0609  159.9047 H   0  0  0  0  0  0  0  0  0  0  0  0  # atno 6907 bound_to 6896
  152.5385  134.0371  159.8061 H   0  0  0  0  0  0  0  0  0  0  0  0  # atno 6908 bound_to 6896
  151.0573  133.5524  159.2668 H   0  0  0  0  0  0  0  0  0  0  0  0  # atno 6909 bound_to 6896
  145.2582  139.2713  143.4031 H   0  0  0  0  0  0  0  0  0  0  0  0  # atno 7974 bound_to 7965
  154.6152  140.2486  155.7619 H   0  0  0  0  0  0  0  0  0  0  0  0  # atno 8008 bound_to 7997
  156.2394  140.2938  156.0352 H   0  0  0  0  0  0  0  0  0  0  0  0  # atno 8009 bound_to 7997
  155.1987  140.0393  157.2904 H   0  0  0  0  0  0  0  0  0  0  0  0  # atno 8010 bound_to 7997
  139.7904  143.7974  152.2649 H   0  0  0  0  0  0  0  0  0  0  0  0  # atno 10167 bound_to 10162
  156.9183  130.9932  151.3009 H   0  0  0  0  0  0  0  0  0  0  0  0  # atno 10718 bound_to 10713
  153.3462  135.6983  153.6826 H   0  0  0  0  0  0  0  0  0  0  0  0  # atno 10763 bound_to 10752
  153.5571  135.3542  155.2784 H   0  0  0  0  0  0  0  0  0  0  0  0  # atno 10764 bound_to 10752
  154.8645  135.4240  154.2686 H   0  0  0  0  0  0  0  0  0  0  0  0  # atno 10765 bound_to 10752
  140.4528  134.1206  155.7705 H   0  0  0  0  0  0  0  0  0  0  0  0  # atno 11005 bound_to 11000
  146.3283  140.2991  142.8619 LP  0  0  0  0  0  0  0  0  0  0  0  0  # atno 17320 bound_to 7965
  144.9442  140.8111  143.5611 LP  0  0  0  0  0  0  0  0  0  0  0  0  # atno 17321 bound_to 7965
  139.8063  144.7354  150.9756 LP  0  0  0  0  0  0  0  0  0  0  0  0  # atno 17342 bound_to 10162
  140.7820  143.4294  151.0717 LP  0  0  0  0  0  0  0  0  0  0  0  0  # atno 17343 bound_to 10162
  157.5924  130.8453  149.8679 LP  0  0  0  0  0  0  0  0  0  0  0  0  # atno 17370 bound_to 10713
  156.0503  130.3719  150.1217 LP  0  0  0  0  0  0  0  0  0  0  0  0  # atno 17371 bound_to 10713
  141.1656  133.8709  157.1723 LP  0  0  0  0  0  0  0  0  0  0  0  0  # atno 17394 bound_to 11000
  139.9995  135.0033  157.0159 LP  0  0  0  0  0  0  0  0  0  0  0  0  # atno 17395 bound_to 11000

$$$$
