AV-unprocessed.smi:1360|AV-procd|sdf|5554|dock3
  -GOLD-   22720 5143D 1   1.00000     0.00000
 Structure written by MMmdl.
 36 37  0  0  0  0  0  0  0  0  1 V2000
  150.8468  138.0826  157.0746 C   0  0  0  0  0  0  0  0  0  0  0  0
  151.8781  139.2105  156.9065 C   0  0  1  0  0  0  0  0  0  0  0  0
  151.7517  139.9590  155.5618 C   0  0  0  0  0  0  0  0  0  0  0  0
  150.4404  140.5516  155.3708 N   0  0  0  0  0  0  0  0  0  0  0  0
  149.5455  140.3304  154.3454 C   0  0  0  0  0  0  0  0  0  0  0  0
  148.4485  141.1059  154.5894 C   0  0  0  0  0  0  0  0  0  0  0  0
  148.7718  141.7767  155.8019 C   0  0  0  0  0  0  0  0  0  0  0  0
  149.9658  141.4448  156.2661 N   0  0  0  0  0  0  0  0  0  0  0  0
  151.7425  140.1489  158.0167 N   0  0  0  0  0  0  0  0  0  0  0  0
  152.6876  140.4161  158.9316 C   0  0  0  0  0  0  0  0  0  0  0  0
  153.8017  139.8915  158.9253 O   0  0  0  0  0  0  0  0  0  0  0  0
  152.3178  141.4349  160.0176 C   0  0  1  0  0  0  0  0  0  0  0  0
  153.3317  141.3995  161.1838 C   0  0  0  0  0  0  0  0  0  0  0  0
  153.1322  142.5542  162.1495 C   0  0  0  0  0  0  0  0  0  0  0  0
  152.4139  143.6505  161.8517 C   0  0  0  0  0  0  0  0  0  0  0  0
  151.7254  143.8615  160.5146 C   0  0  0  0  0  0  0  0  0  0  0  0
  152.2073  142.8625  159.4449 C   0  0  0  0  0  0  0  0  0  0  0  0
  150.9711  137.3103  156.3156 H   0  0  0  0  0  0  0  0  0  0  0  0
  149.8275  138.4629  156.9993 H   0  0  0  0  0  0  0  0  0  0  0  0
  150.9514  137.5985  158.0461 H   0  0  0  0  0  0  0  0  0  0  0  0
  152.8679  138.7529  156.9565 H   0  0  0  0  0  0  0  0  0  0  0  0
  152.5080  140.7425  155.4910 H   0  0  0  0  0  0  0  0  0  0  0  0
  151.9336  139.2778  154.7296 H   0  0  0  0  0  0  0  0  0  0  0  0
  149.7618  139.6457  153.5384 H   0  0  0  0  0  0  0  0  0  0  0  0
  147.5518  141.1829  153.9925 H   0  0  0  0  0  0  0  0  0  0  0  0
  148.1794  142.4910  156.3543 H   0  0  0  0  0  0  0  0  0  0  0  0
  150.8584  140.6300  158.0980 H   0  0  0  0  0  0  0  0  0  0  0  0
  151.3371  141.1654  160.4150 H   0  0  0  0  0  0  0  0  0  0  0  0
  153.2276  140.4639  161.7345 H   0  0  0  0  0  0  0  0  0  0  0  0
  154.3591  141.4401  160.8189 H   0  0  0  0  0  0  0  0  0  0  0  0
  153.6116  142.4716  163.1139 H   0  0  0  0  0  0  0  0  0  0  0  0
  152.2975  144.4320  162.5881 H   0  0  0  0  0  0  0  0  0  0  0  0
  150.6508  143.7592  160.6683 H   0  0  0  0  0  0  0  0  0  0  0  0
  151.9025  144.8825  160.1755 H   0  0  0  0  0  0  0  0  0  0  0  0
  153.1822  143.1825  159.0729 H   0  0  0  0  0  0  0  0  0  0  0  0
  151.5298  142.8864  158.5902 H   0  0  0  0  0  0  0  0  0  0  0  0
  1  2  1  0  0  0  0
  1 18  1  0  0  0  0
  1 19  1  0  0  0  0
  1 20  1  0  0  0  0
  2  3  1  0  0  0  0
  2  9  1  0  0  0  0
  2 21  1  0  0  0  0
  3  4  1  0  0  0  0
  3 22  1  0  0  0  0
  3 23  1  0  0  0  0
  4  8  1  0  0  0  0
  4  5  1  0  0  0  0
  5  6  2  0  0  0  0
  5 24  1  0  0  0  0
  6  7  1  0  0  0  0
  6 25  1  0  0  0  0
  7  8  2  0  0  0  0
  7 26  1  0  0  0  0
  9 10  1  0  0  0  0
  9 27  1  0  0  0  0
 10 11  2  0  0  0  0
 10 12  1  0  0  0  0
 12 17  1  0  0  0  0
 12 13  1  0  0  0  0
 12 28  1  0  0  0  0
 13 14  1  0  0  0  0
 13 29  1  0  0  0  0
 13 30  1  0  0  0  0
 14 15  2  0  0  0  0
 14 31  1  0  0  0  0
 15 16  1  0  0  0  0
 15 32  1  0  0  0  0
 16 17  1  0  0  0  0
 16 33  1  0  0  0  0
 16 34  1  0  0  0  0
 17 35  1  0  0  0  0
 17 36  1  0  0  0  0
M  END
> <s_m_source_file>
AV-unprocessed.smi

> <i_m_source_file_index>
1360

> <i_lp_mmshare_version>
43012

> <i_f3d_flags>
0

> <s_epik_input>
bjFbY0hdW2NIXVtjSF1uMVtDSDJdW0NAQEhdKFtDSDNdKVtOSF1DKD1PKVtDQEBIXTJbQ0gyXVtDSF09W0NIXVtDSDJdW0NIMl0y

> <s_epik_cmdline>
J2VwaWtfcHl0aG9uJywgJy1waCcsICc3LjAnLCAnLXRuJywgJzgnLCAnLW1hJywgJzIwMCcsICctbWV0YWxfYmluZGluZycsICctaW1hZScsICc8aW5maWxlLm1hZT4nLCAnLW9tYWUnLCAnPG91dGZpbGUubWFlPic=

> <r_lp_tautomer_probability>
1

> <r_epik_Ionization_Penalty>
0.000315076

> <r_epik_Ionization_Penalty_Charging>
0

> <r_epik_Ionization_Penalty_Neutral>
0.000315076

> <r_epik_State_Penalty>
-0

> <r_epik_Charging_Adjusted_Penalty>
0

> <i_epik_Tot_Q>
0

> <i_epik_Tot_abs_Q>
0

> <r_epik_Metal_State_Penalty>
-0

> <b_epik_Metal_Only>
0

> <s_lp_Force_Field>
OPLS_2005

> <r_lp_Energy>
7.88056

> <b_lp_Chiralities_Consistent>
1

> <s_lp_Variant>
AV-unprocessed.smi:1360-4

> <Gold.Version>
5.8.1

> <Gold.Id.Protein>
6NUR|6NUR_protein|mol2

> <Gold.PLP.Fitness>
44.2257

> <Gold.PLP.PLP>
-37.2615

> <Gold.PLP.part.hbond>
-1.0000

> <Gold.PLP.part.metal>
0.0000

> <Gold.PLP.part.buried>
-0.8023

> <Gold.PLP.part.nonpolar>
-33.9829

> <Gold.PLP.part.repulsive>
0.1620

> <Gold.PLP.ligand.clash>
0.0000

> <Gold.PLP.ligand.torsion>
0.2796

> <Gold.PLP.Chemscore.Hbond>
1.0000

> <Gold.PLP.Chemscore.CHOScore>
1.4967

> <Gold.PLP.Chemscore.Metal>
0.0000

> <Gold.Chemscore.Hbonds>
donor molecule, donor type, donor heavy atom, donor atom, acceptor molecule, acceptor atom, score
      P1  H  7997  8010       L1    11  1.00
      L1  C     5    24       P1  7957  0.97
      L1  C     7    26       P1  8028  0.56

> <Gold.PLP.Chemscore.Internal.Correction>
0.0335

> <Gold.Rescore>
     Score         DG    S(hbond)    S(metal)    S(lipo)     H(rot)  DE(clash)    DE(int)     intcor
     16.34     -16.55       0.95        0.00     100.56       1.51       0.16       0.05       ----

> <Gold.Chemscore.Fitness>
16.3391

> <Gold.Chemscore.DG>
-16.5495

> <Gold.Chemscore.ZeroCoef>
-5.4800

> <Gold.Chemscore.Hbond>
0.9457

> <Gold.Chemscore.Metal>
0.0000

> <Gold.Chemscore.Lipo>
100.5613

> <Gold.Chemscore.Internal_Hbond>
0.0000

> <Gold.Chemscore.DEClash>
0.1603

> <Gold.Chemscore.DEInternal>
0.0501

> <Gold.Chemscore.Rot>
1.5057

> <Gold.Chemscore.Internal.Correction>
   9.000000E+99

> <Gold.Chemscore.Hbonds>
donor molecule, donor type, donor heavy atom, donor atom, acceptor molecule, acceptor atom, score
      P1  H  7997  8010       L1    11  0.88

> <Gold.Chemscore.Hbond.Weighted>
-3.1585

> <Gold.Chemscore.Metal.Weighted>
-0.0000

> <Gold.Chemscore.Lipo.Weighted>
-11.7657

> <Gold.Chemscore.Internal_Hbond.Weighted>
0.0000

> <Gold.Chemscore.DEClash.Weighted>
0.1603

> <Gold.Chemscore.DEInternal.Weighted>
0.0501

> <Gold.Chemscore.Rot.Weighted>
3.8546

> <Gold.Chemscore.Internal.Correction.Weighted>
   9.000000E+99

> <Gold.Protein.RotatedTorsions>
[ 6907 6896 6895 6894 ] final   39.75 input  -60.11 | X-H torsion
[ 7974 7965 7964 7962 ] final  -24.20 input  175.53 | X-H torsion
[ 8008 7997 7996 7995 ] final    6.48 input   59.86 | X-H torsion
[ 10167 10162 10161 10158 ] final   87.27 input  -65.29 | X-H torsion
[ 10718 10713 10712 10709 ] final   90.25 input   66.30 | X-H torsion
[ 10763 10752 10751 10750 ] final  -36.40 input  -60.55 | X-H torsion
[ 11005 11000 10999 10996 ] final    1.38 input  -57.11 | X-H torsion

> <Gold.Protein.ActiveResidues>
 VAL166  LYS551  ARG553  GLY616  TRP617  ASP618  TYR619  PRO620  LYS621  CYS622 
 ASP623  PHE694  ASN695  SER759  ASP760  ASP761  ALA762  ILE779  LEU786  VAL792 
 PHE793  MET794  SER795  GLU796  ALA797  LYS798  CYS799  TRP800  GLU811  SER814 

> <Gold.Protein.RotatedAtoms>
  152.1737  134.8813  160.0532 H   0  0  0  0  0  0  0  0  0  0  0  0  # atno 6907 bound_to 6896
  151.9763  133.3738  159.4098 H   0  0  0  0  0  0  0  0  0  0  0  0  # atno 6908 bound_to 6896
  150.6906  134.4009  159.5162 H   0  0  0  0  0  0  0  0  0  0  0  0  # atno 6909 bound_to 6896
  146.1569  140.4720  142.8587 H   0  0  0  0  0  0  0  0  0  0  0  0  # atno 7974 bound_to 7965
  154.7416  140.2750  155.6368 H   0  0  0  0  0  0  0  0  0  0  0  0  # atno 8008 bound_to 7997
  156.2875  140.2696  156.2071 H   0  0  0  0  0  0  0  0  0  0  0  0  # atno 8009 bound_to 7997
  155.0251  140.0371  157.2442 H   0  0  0  0  0  0  0  0  0  0  0  0  # atno 8010 bound_to 7997
  139.8791  144.6450  150.8863 H   0  0  0  0  0  0  0  0  0  0  0  0  # atno 10167 bound_to 10162
  157.6958  131.0363  150.3549 H   0  0  0  0  0  0  0  0  0  0  0  0  # atno 10718 bound_to 10713
  153.8792  135.6823  153.4768 H   0  0  0  0  0  0  0  0  0  0  0  0  # atno 10763 bound_to 10752
  153.1243  135.4726  154.9245 H   0  0  0  0  0  0  0  0  0  0  0  0  # atno 10764 bound_to 10752
  154.7677  135.3229  154.8205 H   0  0  0  0  0  0  0  0  0  0  0  0  # atno 10765 bound_to 10752
  140.6161  133.9704  155.8201 H   0  0  0  0  0  0  0  0  0  0  0  0  # atno 11005 bound_to 11000
  144.7975  140.6151  143.6500 LP  0  0  0  0  0  0  0  0  0  0  0  0  # atno 17320 bound_to 7965
  145.4685  139.1505  143.3827 LP  0  0  0  0  0  0  0  0  0  0  0  0  # atno 17321 bound_to 7965
  140.7748  143.3601  151.1845 LP  0  0  0  0  0  0  0  0  0  0  0  0  # atno 17342 bound_to 10162
  139.7213  143.9219  152.2986 LP  0  0  0  0  0  0  0  0  0  0  0  0  # atno 17343 bound_to 10162
  156.3992  130.3912  149.6972 LP  0  0  0  0  0  0  0  0  0  0  0  0  # atno 17370 bound_to 10713
  156.4295  130.7808  151.2827 LP  0  0  0  0  0  0  0  0  0  0  0  0  # atno 17371 bound_to 10713
  141.0775  134.0113  157.3436 LP  0  0  0  0  0  0  0  0  0  0  0  0  # atno 17394 bound_to 11000
  139.9172  135.0198  156.7928 LP  0  0  0  0  0  0  0  0  0  0  0  0  # atno 17395 bound_to 11000

$$$$
