AV-unprocessed.smi:1046|AV-procd|sdf|4558|dock8
  -GOLD-   22720 2593D 1   1.00000     0.00000
 Structure written by MMmdl.
 54 56  0  0  0  0  0  0  0  0  3 V2000
  152.4045  142.6594  160.3194 C   0  0  0  0  0  0  0  0  0  0  0  0
  152.0078  141.9665  159.0268 C   0  0  0  0  0  0  0  0  0  0  0  0
  151.0822  142.6088  158.1739 C   0  0  0  0  0  0  0  0  0  0  0  0
  150.7368  141.9490  157.0004 C   0  0  0  0  0  0  0  0  0  0  0  0
  149.8645  142.3101  155.9717 N   0  3  0  0  0  0  0  0  0  0  0  0
  149.8516  141.3338  155.0227 C   0  0  0  0  0  0  0  0  0  0  0  0
  150.7021  140.3530  155.4305 N   0  0  0  0  0  0  0  0  0  0  0  0
  151.0575  139.0872  154.7721 C   0  0  0  0  0  0  0  0  0  0  0  0
  150.7937  137.8522  155.6585 C   0  0  2  0  0  0  0  0  0  0  0  0
  151.9482  137.0386  155.6953 O   0  0  0  0  0  0  0  0  0  0  0  0
  149.6326  136.9844  155.1340 C   0  0  0  0  0  0  0  0  0  0  0  0
  149.1711  135.9296  156.0442 N   0  0  0  0  0  0  0  0  0  0  0  0
  147.8049  135.4928  155.7573 C   0  0  0  0  0  0  0  0  0  0  0  0
  147.6892  134.6600  154.4642 C   0  0  0  0  0  0  0  0  0  0  0  0
  148.5833  133.4751  154.5289 N   0  3  0  0  0  0  0  0  0  0  0  0
  148.4524  132.6008  153.3358 C   0  0  0  0  0  0  0  0  0  0  0  0
  148.8883  131.1513  153.6105 C   0  0  0  0  0  0  0  0  0  0  0  0
  148.2964  130.2801  152.6698 O   0  0  0  0  0  0  0  0  0  0  0  0
  149.9824  133.8896  154.8168 C   0  0  0  0  0  0  0  0  0  0  0  0
  150.0344  134.7468  156.0984 C   0  0  0  0  0  0  0  0  0  0  0  0
  151.2792  140.6944  156.6599 C   0  0  0  0  0  0  0  0  0  0  0  0
  152.1936  140.0484  157.4894 C   0  0  0  0  0  0  0  0  0  0  0  0
  152.5571  140.7028  158.6881 C   0  0  0  0  0  0  0  0  0  0  0  0
  153.5515  140.0207  159.6123 C   0  0  0  0  0  0  0  0  0  0  0  0
  151.8522  143.5891  160.4594 H   0  0  0  0  0  0  0  0  0  0  0  0
  153.4678  142.9002  160.3127 H   0  0  0  0  0  0  0  0  0  0  0  0
  152.1989  142.0192  161.1776 H   0  0  0  0  0  0  0  0  0  0  0  0
  150.6605  143.5713  158.4247 H   0  0  0  0  0  0  0  0  0  0  0  0
  149.2722  141.3383  154.1107 H   0  0  0  0  0  0  0  0  0  0  0  0
  150.4598  139.0260  153.8619 H   0  0  0  0  0  0  0  0  0  0  0  0
  152.0976  139.1281  154.4479 H   0  0  0  0  0  0  0  0  0  0  0  0
  150.6010  138.1691  156.6830 H   0  0  0  0  0  0  0  0  0  0  0  0
  152.4783  137.3038  156.4313 H   0  0  0  0  0  0  0  0  0  0  0  0
  148.7955  137.6496  154.9153 H   0  0  0  0  0  0  0  0  0  0  0  0
  149.9175  136.5521  154.1752 H   0  0  0  0  0  0  0  0  0  0  0  0
  147.4404  134.8957  156.5944 H   0  0  0  0  0  0  0  0  0  0  0  0
  147.1427  136.3577  155.7013 H   0  0  0  0  0  0  0  0  0  0  0  0
  146.6565  134.3308  154.3424 H   0  0  0  0  0  0  0  0  0  0  0  0
  147.9316  135.2630  153.5881 H   0  0  0  0  0  0  0  0  0  0  0  0
  147.4138  132.5890  153.0014 H   0  0  0  0  0  0  0  0  0  0  0  0
  149.0321  133.0213  152.5127 H   0  0  0  0  0  0  0  0  0  0  0  0
  149.9713  131.0696  153.5147 H   0  0  0  0  0  0  0  0  0  0  0  0
  148.6381  130.8289  154.6207 H   0  0  0  0  0  0  0  0  0  0  0  0
  148.3852  130.6598  151.8081 H   0  0  0  0  0  0  0  0  0  0  0  0
  150.6118  133.0119  154.9579 H   0  0  0  0  0  0  0  0  0  0  0  0
  150.3942  134.4345  153.9667 H   0  0  0  0  0  0  0  0  0  0  0  0
  151.0631  135.0315  156.3146 H   0  0  0  0  0  0  0  0  0  0  0  0
  149.7256  134.1275  156.9416 H   0  0  0  0  0  0  0  0  0  0  0  0
  152.6087  139.0839  157.2365 H   0  0  0  0  0  0  0  0  0  0  0  0
  153.9215  139.0892  159.1828 H   0  0  0  0  0  0  0  0  0  0  0  0
  153.0842  139.7850  160.5688 H   0  0  0  0  0  0  0  0  0  0  0  0
  154.4113  140.6655  159.7960 H   0  0  0  0  0  0  0  0  0  0  0  0
  148.2678  132.9281  155.3177 H   0  0  0  0  0  0  0  0  0  0  0  0
  149.3179  143.1603  155.9181 H   0  0  0  0  0  0  0  0  0  0  0  0
  1  2  1  0  0  0  0
  1 25  1  0  0  0  0
  1 26  1  0  0  0  0
  1 27  1  0  0  0  0
  2 23  1  0  0  0  0
  2  3  2  0  0  0  0
  3  4  1  0  0  0  0
  3 28  1  0  0  0  0
  4 21  2  0  0  0  0
  4  5  1  0  0  0  0
  5  6  2  0  0  0  0
  5 54  1  0  0  0  0
  6  7  1  0  0  0  0
  6 29  1  0  0  0  0
  7  8  1  0  0  0  0
  7 21  1  0  0  0  0
  8  9  1  0  0  0  0
  8 30  1  0  0  0  0
  8 31  1  0  0  0  0
  9 10  1  0  0  0  0
  9 11  1  0  0  0  0
  9 32  1  0  0  0  0
 10 33  1  0  0  0  0
 11 12  1  0  0  0  0
 11 34  1  0  0  0  0
 11 35  1  0  0  0  0
 12 20  1  0  0  0  0
 12 13  1  0  0  0  0
 13 14  1  0  0  0  0
 13 36  1  0  0  0  0
 13 37  1  0  0  0  0
 14 15  1  0  0  0  0
 14 38  1  0  0  0  0
 14 39  1  0  0  0  0
 15 16  1  0  0  0  0
 15 19  1  0  0  0  0
 15 53  1  0  0  0  0
 16 17  1  0  0  0  0
 16 40  1  0  0  0  0
 16 41  1  0  0  0  0
 17 18  1  0  0  0  0
 17 42  1  0  0  0  0
 17 43  1  0  0  0  0
 18 44  1  0  0  0  0
 19 20  1  0  0  0  0
 19 45  1  0  0  0  0
 19 46  1  0  0  0  0
 20 47  1  0  0  0  0
 20 48  1  0  0  0  0
 21 22  1  0  0  0  0
 22 23  2  0  0  0  0
 22 49  1  0  0  0  0
 23 24  1  0  0  0  0
 24 50  1  0  0  0  0
 24 51  1  0  0  0  0
 24 52  1  0  0  0  0
M  CHG  1   5   1
M  CHG  1  15   1
M  END
> <s_m_source_file>
AV-unprocessed.smi

> <i_m_source_file_index>
1046

> <i_lp_mmshare_version>
43012

> <i_f3d_flags>
0

> <s_epik_input>
W0NIM11jKFtjSF0xKWMoW0NIM10pW2NIXWMoYzEyKW4oW2NIXW4yKVtDSDJdW0NASF0oW09IXSlbQ0gyXU4zW0NIMl1bQ0gyXU4oW0NIMl1bQ0gyXTMpW0NIMl1bQ0gyXVtPSF0=

> <s_epik_cmdline>
J2VwaWtfcHl0aG9uJywgJy1waCcsICc3LjAnLCAnLXRuJywgJzgnLCAnLW1hJywgJzIwMCcsICctbWV0YWxfYmluZGluZycsICctaW1hZScsICc8aW5maWxlLm1hZT4nLCAnLW9tYWUnLCAnPG91dGZpbGUubWFlPic=

> <r_epik_Ionization_Penalty>
1.37806

> <r_epik_Ionization_Penalty_Charging>
1.32954

> <r_epik_Ionization_Penalty_Neutral>
0.0485178

> <r_epik_State_Penalty>
2.26587

> <r_epik_Charging_Adjusted_Penalty>
3.59541

> <i_epik_Tot_Q>
2

> <i_epik_Tot_abs_Q>
2

> <r_epik_Metal_State_Penalty>
6.27317

> <b_epik_Metal_Only>
0

> <s_lp_Force_Field>
OPLS_2005

> <r_lp_Energy>
41.5641

> <b_lp_Chiralities_Consistent>
1

> <s_lp_Variant>
AV-unprocessed.smi:1046-11

> <Gold.Version>
5.8.1

> <Gold.Id.Protein>
6NUR|6NUR_protein|mol2

> <Gold.PLP.Fitness>
51.0596

> <Gold.PLP.PLP>
-41.5261

> <Gold.PLP.part.hbond>
-3.0000

> <Gold.PLP.part.metal>
0.0000

> <Gold.PLP.part.buried>
-3.5195

> <Gold.PLP.part.nonpolar>
-34.6167

> <Gold.PLP.part.repulsive>
0.1635

> <Gold.PLP.ligand.clash>
0.0000

> <Gold.PLP.ligand.torsion>
1.2549

> <Gold.PLP.Chemscore.Hbond>
4.0000

> <Gold.PLP.Chemscore.CHOScore>
0.0000

> <Gold.PLP.Chemscore.Metal>
0.0000

> <Gold.Chemscore.Hbonds>
donor molecule, donor type, donor heavy atom, donor atom, acceptor molecule, acceptor atom, score
      L1  H     5    54       P1  8028  2.00
      L1  H    18    44       P1 10747  1.00
      P1  H 10752 10765       L1    10  1.00

> <Gold.PLP.Chemscore.Internal.Correction>
0.0433

> <Gold.Rescore>
     Score         DG    S(hbond)    S(metal)    S(lipo)     H(rot)  DE(clash)    DE(int)     intcor
     17.09     -18.44       2.73        0.00     104.85       3.29       0.07       1.29       ----

> <Gold.Chemscore.Fitness>
17.0887

> <Gold.Chemscore.DG>
-18.4428

> <Gold.Chemscore.ZeroCoef>
-5.4800

> <Gold.Chemscore.Hbond>
2.7295

> <Gold.Chemscore.Metal>
0.0000

> <Gold.Chemscore.Lipo>
104.8514

> <Gold.Chemscore.Internal_Hbond>
0.0000

> <Gold.Chemscore.DEClash>
0.0650

> <Gold.Chemscore.DEInternal>
1.2890

> <Gold.Chemscore.Rot>
3.2896

> <Gold.Chemscore.Internal.Correction>
   9.000000E+99

> <Gold.Chemscore.Hbonds>
donor molecule, donor type, donor heavy atom, donor atom, acceptor molecule, acceptor atom, score
      L1  H     5    54       P1  8028  0.99
      L1  H    18    44       P1 10747  0.96
      P1  H 10752 10765       L1    10  0.36

> <Gold.Chemscore.Hbond.Weighted>
-9.1167

> <Gold.Chemscore.Metal.Weighted>
-0.0000

> <Gold.Chemscore.Lipo.Weighted>
-12.2676

> <Gold.Chemscore.Internal_Hbond.Weighted>
0.0000

> <Gold.Chemscore.DEClash.Weighted>
0.0650

> <Gold.Chemscore.DEInternal.Weighted>
1.2890

> <Gold.Chemscore.Rot.Weighted>
8.4215

> <Gold.Chemscore.Internal.Correction.Weighted>
   9.000000E+99

> <Gold.Protein.RotatedTorsions>
[ 6907 6896 6895 6894 ] final  -51.03 input  -60.11 | X-H torsion
[ 7974 7965 7964 7962 ] final -146.99 input  175.53 | X-H torsion
[ 8008 7997 7996 7995 ] final   89.55 input   59.86 | X-H torsion
[ 10167 10162 10161 10158 ] final  -69.26 input  -65.29 | X-H torsion
[ 10718 10713 10712 10709 ] final -113.03 input   66.30 | X-H torsion
[ 10763 10752 10751 10750 ] final -163.18 input  -60.55 | X-H torsion
[ 11005 11000 10999 10996 ] final  -50.81 input  -57.11 | X-H torsion

> <Gold.Protein.ActiveResidues>
 VAL166  LYS551  ARG553  GLY616  TRP617  ASP618  TYR619  PRO620  LYS621  CYS622 
 ASP623  PHE694  ASN695  SER759  ASP760  ASP761  ALA762  ILE779  LEU786  VAL792 
 PHE793  MET794  SER795  GLU796  ALA797  LYS798  CYS799  TRP800  GLU811  SER814 

> <Gold.Protein.RotatedAtoms>
  150.8650  134.8012  159.7111 H   0  0  0  0  0  0  0  0  0  0  0  0  # atno 6907 bound_to 6896
  152.4675  134.5038  159.9742 H   0  0  0  0  0  0  0  0  0  0  0  0  # atno 6908 bound_to 6896
  151.5135  133.3442  159.2924 H   0  0  0  0  0  0  0  0  0  0  0  0  # atno 6909 bound_to 6896
  144.8123  140.5385  143.5634 H   0  0  0  0  0  0  0  0  0  0  0  0  # atno 7974 bound_to 7965
  156.0013  140.3359  155.6848 H   0  0  0  0  0  0  0  0  0  0  0  0  # atno 8008 bound_to 7997
  155.6286  140.0682  157.2674 H   0  0  0  0  0  0  0  0  0  0  0  0  # atno 8009 bound_to 7997
  154.4250  140.1763  156.1436 H   0  0  0  0  0  0  0  0  0  0  0  0  # atno 8010 bound_to 7997
  140.5444  143.2313  151.7029 H   0  0  0  0  0  0  0  0  0  0  0  0  # atno 10167 bound_to 10162
  156.0741  130.5951  150.8587 H   0  0  0  0  0  0  0  0  0  0  0  0  # atno 10718 bound_to 10713
  154.7146  135.3013  154.9144 H   0  0  0  0  0  0  0  0  0  0  0  0  # atno 10763 bound_to 10752
  154.0035  135.6704  153.4764 H   0  0  0  0  0  0  0  0  0  0  0  0  # atno 10764 bound_to 10752
  153.0783  135.5023  154.8365 H   0  0  0  0  0  0  0  0  0  0  0  0  # atno 10765 bound_to 10752
  141.0836  133.6647  156.3785 H   0  0  0  0  0  0  0  0  0  0  0  0  # atno 11005 bound_to 11000
  145.5296  139.1475  143.3507 LP  0  0  0  0  0  0  0  0  0  0  0  0  # atno 17320 bound_to 7965
  146.2422  140.5436  142.8929 LP  0  0  0  0  0  0  0  0  0  0  0  0  # atno 17321 bound_to 7965
  139.5001  144.3918  152.0272 LP  0  0  0  0  0  0  0  0  0  0  0  0  # atno 17342 bound_to 10162
  140.3029  144.3626  150.6055 LP  0  0  0  0  0  0  0  0  0  0  0  0  # atno 17343 bound_to 10162
  157.5828  131.0946  150.9244 LP  0  0  0  0  0  0  0  0  0  0  0  0  # atno 17370 bound_to 10713
  156.9436  130.5393  149.5280 LP  0  0  0  0  0  0  0  0  0  0  0  0  # atno 17371 bound_to 10713
  140.5412  134.6118  157.5380 LP  0  0  0  0  0  0  0  0  0  0  0  0  # atno 17394 bound_to 11000
  139.9652  134.7384  156.0152 LP  0  0  0  0  0  0  0  0  0  0  0  0  # atno 17395 bound_to 11000

$$$$
