#       Name:                AV-unprocessed.smi:3149
#       Creating user name   scv26
#       Creation time:       Fri Mar 27 17:40:56 2020


#       File generated by GOLD software.
#

@<TRIPOS>MOLECULE
AV-unprocessed.smi:3149
    41    42     1
SMALL
NO_CHARGES


@<TRIPOS>ATOM
      1 ****        -1.8022  -1.7026  -1.6930 C.3            1 S1                 0.0000
      2 ****        -1.4231  -1.0211  -0.3636 C.3            1 S1                 0.0000
      3 ****         0.0344  -0.9442  -0.2882 N.3            1 S1                 0.0000
      4 ****         0.5635   0.2719  -0.9203 C.3            1 S1                 0.0000
      5 ****         2.0948   0.3421  -0.8640 C.2            1 S1                 0.0000
      6 ****         2.7274  -0.2641   0.0021 O.2            1 S1                 0.0000
      7 ****         2.7265   1.1955  -1.7715 N.am           1 S1                 0.0000
      8 ****         2.1359   2.4686  -2.1561 C.3            1 S1                 0.0000
      9 ****         3.5766   2.9540  -2.3477 C.3            1 S1                 0.0000
     10 ****         4.0290   1.7747  -1.4800 C.3            1 S1                 0.0000
     11 ****        -1.9430  -1.7894   0.8814 C.3            1 S1                 0.0000
     12 ****        -3.4740  -1.9482   0.9019 C.3            1 S1                 0.0000
     13 ****        -1.5107  -1.1463   2.1185 N.pl3          1 S1                 0.0000
     14 ****        -1.7706   0.1350   2.5633 C.2            1 S1                 0.0000
     15 ****        -1.1543   0.2810   3.7728 C.2            1 S1                 0.0000
     16 ****        -0.5373  -0.9821   3.9915 C.2            1 S1                 0.0000
     17 ****        -0.7539  -1.8333   3.0023 N.2            1 S1                 0.0000
     18 ****        -2.8817  -1.7206  -1.8391 H              1 S1                 0.0000
     19 ****        -1.4446  -2.7323  -1.7260 H              1 S1                 0.0000
     20 ****        -1.3822  -1.1805  -2.5526 H              1 S1                 0.0000
     21 ****        -1.8490  -0.0164  -0.3451 H              1 S1                 0.0000
     22 ****         0.3102  -0.9873   0.6833 H              1 S1                 0.0000
     23 ****         0.2443   0.3179  -1.9619 H              1 S1                 0.0000
     24 ****         0.1601   1.1492  -0.4129 H              1 S1                 0.0000
     25 ****         1.5439   2.4275  -3.0709 H              1 S1                 0.0000
     26 ****         1.6188   2.9763  -1.3392 H              1 S1                 0.0000
     27 ****         3.9213   2.8878  -3.3813 H              1 S1                 0.0000
     28 ****         3.7811   3.9334  -1.9142 H              1 S1                 0.0000
     29 ****         4.1665   2.0403  -0.4298 H              1 S1                 0.0000
     30 ****         4.8673   1.2069  -1.8848 H              1 S1                 0.0000
     31 ****        -1.5148  -2.7940   0.8630 H              1 S1                 0.0000
     32 ****        -3.8263  -2.5651   0.0760 H              1 S1                 0.0000
     33 ****        -3.9764  -0.9825   0.8378 H              1 S1                 0.0000
     34 ****        -3.8029  -2.4323   1.8220 H              1 S1                 0.0000
     35 ****        -2.3640   0.8294   1.9870 H              1 S1                 0.0000
     36 ****        -1.1460   1.1563   4.4052 H              1 S1                 0.0000
     37 ****         0.0567  -1.3039   4.8342 H              1 S1                 0.0000
     38 ****         0.4186  -1.7168  -0.7937 LP             1 S1                 0.0000
     39 ****         2.2427  -0.8130   0.6831 LP             1 S1                 0.0000
     40 ****         3.7255  -0.2073   0.0241 LP             1 S1                 0.0000
     41 ****        -0.4295  -2.7761   2.9256 LP             1 S1                 0.0000
@<TRIPOS>BOND
    1    1    2 1     
    2    1   18 1     
    3    1   19 1     
    4    1   20 1     
    5    2    3 1     
    6    2   11 1     
    7    2   21 1     
    8    3    4 1     
    9    3   22 1     
   10    4    5 1     
   11    4   23 1     
   12    4   24 1     
   13    5    6 2     
   14    5    7 am    
   15    7   10 1     
   16    7    8 1     
   17    8    9 1     
   18    8   25 1     
   19    8   26 1     
   20    9   10 1     
   21    9   27 1     
   22    9   28 1     
   23   10   29 1     
   24   10   30 1     
   25   11   12 1     
   26   11   13 1     
   27   11   31 1     
   28   12   32 1     
   29   12   33 1     
   30   12   34 1     
   31   13   17 1     
   32   13   14 1     
   33   14   15 2     
   34   14   35 1     
   35   15   16 1     
   36   15   36 1     
   37   16   17 2     
   38   16   37 1     
   39    3   38 1     
   40    6   39 1     
   41    6   40 1     
   42   17   41 1     
@<TRIPOS>SUBSTRUCTURE
      1 S1             1
@<TRIPOS>SET
LONE_PAIRS      STATIC     ATOMS    <user>   **** ""
4 38 39 40 41
DONOR_HYDROGENS      STATIC     ATOMS    <user>   **** ""
1 22
ATOM$BLUE        STATIC     ATOMS    COLORGROUP SYSTEM
4 38 39 40 41
ATOM$RED        STATIC     ATOMS    COLORGROUP SYSTEM
1 22
