AV-unprocessed.smi:1570|AV-procd|sdf|6315|dock7
  -GOLD-   22720 6523D 1   1.00000     0.00000
 Structure written by MMmdl.
 51 53  0  0  0  0  0  0  0  0  1 V2000
  154.0898  140.9031  161.7256 C   0  0  0  0  0  0  0  0  0  0  0  0
  154.4360  141.0153  160.2359 C   0  0  0  0  0  0  0  0  0  0  0  0
  153.2571  141.3552  159.4427 N   0  0  0  0  0  0  0  0  0  0  0  0
  152.7244  140.6247  158.4348 C   0  0  0  0  0  0  0  0  0  0  0  0
  153.1416  139.5403  158.0283 O   0  0  0  0  0  0  0  0  0  0  0  0
  151.6503  141.2933  157.9531 N   0  0  0  0  0  0  0  0  0  0  0  0
  150.7681  140.8592  156.8714 C   0  0  0  0  0  0  0  0  0  0  0  0
  149.5301  140.1091  157.4115 C   0  0  1  0  0  0  0  0  0  0  0  0
  148.6418  141.0145  158.0362 O   0  0  0  0  0  0  0  0  0  0  0  0
  148.7480  139.2848  156.3612 C   0  0  0  0  0  0  0  0  0  0  0  0
  147.8612  140.0153  155.4464 N   0  0  0  0  0  0  0  0  0  0  0  0
  147.5021  139.1779  154.3074 C   0  0  0  0  0  0  0  0  0  0  0  0
  146.5296  139.8857  153.3478 C   0  0  2  0  0  0  0  0  0  0  0  0
  146.2155  139.0341  152.1132 C   0  0  0  0  0  0  0  0  0  0  0  0
  147.1124  141.1093  152.9055 O   0  0  0  0  0  0  0  0  0  0  0  0
  147.5272  141.9939  153.9467 C   0  0  1  0  0  0  0  0  0  0  0  0
  146.3287  142.6867  154.6175 C   0  0  0  0  0  0  0  0  0  0  0  0
  148.4435  141.2591  154.9462 C   0  0  0  0  0  0  0  0  0  0  0  0
  151.4880  142.4837  158.6760 C   0  0  0  0  0  0  0  0  0  0  0  0
  150.5306  143.5077  158.5707 C   0  0  0  0  0  0  0  0  0  0  0  0
  150.6490  144.5980  159.4643 C   0  0  0  0  0  0  0  0  0  0  0  0
  151.6954  144.6430  160.4218 C   0  0  0  0  0  0  0  0  0  0  0  0
  152.6442  143.5973  160.5081 C   0  0  0  0  0  0  0  0  0  0  0  0
  152.5022  142.5249  159.6102 C   0  0  0  0  0  0  0  0  0  0  0  0
  154.9740  140.6481  162.3098 H   0  0  0  0  0  0  0  0  0  0  0  0
  153.3415  140.1296  161.9002 H   0  0  0  0  0  0  0  0  0  0  0  0
  153.6968  141.8444  162.1114 H   0  0  0  0  0  0  0  0  0  0  0  0
  155.2104  141.7705  160.0923 H   0  0  0  0  0  0  0  0  0  0  0  0
  154.8610  140.0770  159.8787 H   0  0  0  0  0  0  0  0  0  0  0  0
  150.4843  141.7148  156.2585 H   0  0  0  0  0  0  0  0  0  0  0  0
  151.3426  140.2024  156.2161 H   0  0  0  0  0  0  0  0  0  0  0  0
  149.8575  139.4030  158.1761 H   0  0  0  0  0  0  0  0  0  0  0  0
  148.2374  140.5749  158.7688 H   0  0  0  0  0  0  0  0  0  0  0  0
  149.4391  138.6615  155.7918 H   0  0  0  0  0  0  0  0  0  0  0  0
  148.1356  138.5826  156.9293 H   0  0  0  0  0  0  0  0  0  0  0  0
  148.4035  138.8871  153.7653 H   0  0  0  0  0  0  0  0  0  0  0  0
  147.0405  138.2548  154.6601 H   0  0  0  0  0  0  0  0  0  0  0  0
  145.5933  140.0951  153.8661 H   0  0  0  0  0  0  0  0  0  0  0  0
  145.7558  138.0869  152.3963 H   0  0  0  0  0  0  0  0  0  0  0  0
  147.1201  138.8117  151.5465 H   0  0  0  0  0  0  0  0  0  0  0  0
  145.5245  139.5533  151.4486 H   0  0  0  0  0  0  0  0  0  0  0  0
  148.1164  142.7754  153.4662 H   0  0  0  0  0  0  0  0  0  0  0  0
  146.6652  143.4377  155.3324 H   0  0  0  0  0  0  0  0  0  0  0  0
  145.6985  141.9822  155.1599 H   0  0  0  0  0  0  0  0  0  0  0  0
  145.7070  143.1907  153.8774 H   0  0  0  0  0  0  0  0  0  0  0  0
  148.6602  141.9391  155.7656 H   0  0  0  0  0  0  0  0  0  0  0  0
  149.3963  141.0431  154.4605 H   0  0  0  0  0  0  0  0  0  0  0  0
  149.7353  143.4678  157.8412 H   0  0  0  0  0  0  0  0  0  0  0  0
  149.9340  145.4061  159.4169 H   0  0  0  0  0  0  0  0  0  0  0  0
  151.7680  145.4853  161.0938 H   0  0  0  0  0  0  0  0  0  0  0  0
  153.4421  143.6258  161.2351 H   0  0  0  0  0  0  0  0  0  0  0  0
  1  2  1  0  0  0  0
  1 25  1  0  0  0  0
  1 26  1  0  0  0  0
  1 27  1  0  0  0  0
  2  3  1  0  0  0  0
  2 28  1  0  0  0  0
  2 29  1  0  0  0  0
  3 24  1  0  0  0  0
  3  4  1  0  0  0  0
  4  5  2  0  0  0  0
  4  6  1  0  0  0  0
  6  7  1  0  0  0  0
  6 19  1  0  0  0  0
  7  8  1  0  0  0  0
  7 30  1  0  0  0  0
  7 31  1  0  0  0  0
  8  9  1  0  0  0  0
  8 10  1  0  0  0  0
  8 32  1  0  0  0  0
  9 33  1  0  0  0  0
 10 11  1  0  0  0  0
 10 34  1  0  0  0  0
 10 35  1  0  0  0  0
 11 18  1  0  0  0  0
 11 12  1  0  0  0  0
 12 13  1  0  0  0  0
 12 36  1  0  0  0  0
 12 37  1  0  0  0  0
 13 14  1  0  0  0  0
 13 15  1  0  0  0  0
 13 38  1  0  0  0  0
 14 39  1  0  0  0  0
 14 40  1  0  0  0  0
 14 41  1  0  0  0  0
 15 16  1  0  0  0  0
 16 17  1  0  0  0  0
 16 18  1  0  0  0  0
 16 42  1  0  0  0  0
 17 43  1  0  0  0  0
 17 44  1  0  0  0  0
 17 45  1  0  0  0  0
 18 46  1  0  0  0  0
 18 47  1  0  0  0  0
 19 24  2  0  0  0  0
 19 20  1  0  0  0  0
 20 21  2  0  0  0  0
 20 48  1  0  0  0  0
 21 22  1  0  0  0  0
 21 49  1  0  0  0  0
 22 23  2  0  0  0  0
 22 50  1  0  0  0  0
 23 24  1  0  0  0  0
 23 51  1  0  0  0  0
M  END
> <s_m_source_file>
AV-unprocessed.smi

> <i_m_source_file_index>
1570

> <i_lp_mmshare_version>
43012

> <i_f3d_flags>
0

> <s_epik_input>
W2NIXTFbY0hdW2NIXVtjSF1jKGMxMiluKFtDSDJdW0NIM10pYyg9TyluMltDSDJdW0NASF0oW09IXSlbQ0gyXU4zW0NIMl1bQ0BASF0oW0NIM10pT1tDQEBIXShbQ0gzXSlbQ0gyXTM=

> <s_epik_cmdline>
J2VwaWtfcHl0aG9uJywgJy1waCcsICc3LjAnLCAnLXRuJywgJzgnLCAnLW1hJywgJzIwMCcsICctbWV0YWxfYmluZGluZycsICctaW1hZScsICc8aW5maWxlLm1hZT4nLCAnLW9tYWUnLCAnPG91dGZpbGUubWFlPic=

> <r_epik_Ionization_Penalty>
0.214359

> <r_epik_Ionization_Penalty_Charging>
2.30976e-09

> <r_epik_Ionization_Penalty_Neutral>
0.214359

> <r_epik_State_Penalty>
0.204533

> <r_epik_Charging_Adjusted_Penalty>
0.204533

> <i_epik_Tot_Q>
0

> <i_epik_Tot_abs_Q>
0

> <r_epik_Metal_State_Penalty>
0.204533

> <b_epik_Metal_Only>
0

> <s_lp_Force_Field>
OPLS_2005

> <r_lp_Energy>
68.4361

> <b_lp_Chiralities_Consistent>
1

> <s_lp_Variant>
AV-unprocessed.smi:1570-4

> <Gold.Version>
5.8.1

> <Gold.Id.Protein>
6NUR|6NUR_protein|mol2

> <Gold.PLP.Fitness>
50.6602

> <Gold.PLP.PLP>
-49.0372

> <Gold.PLP.part.hbond>
-1.0000

> <Gold.PLP.part.metal>
0.0000

> <Gold.PLP.part.buried>
-6.6921

> <Gold.PLP.part.nonpolar>
-43.0928

> <Gold.PLP.part.repulsive>
1.7883

> <Gold.PLP.ligand.clash>
0.0000

> <Gold.PLP.ligand.torsion>
0.7099

> <Gold.PLP.Chemscore.Hbond>
1.0000

> <Gold.PLP.Chemscore.CHOScore>
0.0000

> <Gold.PLP.Chemscore.Metal>
0.0000

> <Gold.Chemscore.Hbonds>
donor molecule, donor type, donor heavy atom, donor atom, acceptor molecule, acceptor atom, score
      P1  H  7997  8009       L1     5  1.00

> <Gold.PLP.Chemscore.Internal.Correction>
0.0427

> <Gold.Rescore>
     Score         DG    S(hbond)    S(metal)    S(lipo)     H(rot)  DE(clash)    DE(int)     intcor
     15.92     -17.73       0.85        0.00     125.57       2.06       0.16       1.65       ----

> <Gold.Chemscore.Fitness>
15.9166

> <Gold.Chemscore.DG>
-17.7288

> <Gold.Chemscore.ZeroCoef>
-5.4800

> <Gold.Chemscore.Hbond>
0.8456

> <Gold.Chemscore.Metal>
0.0000

> <Gold.Chemscore.Lipo>
125.5669

> <Gold.Chemscore.Internal_Hbond>
0.0000

> <Gold.Chemscore.DEClash>
0.1620

> <Gold.Chemscore.DEInternal>
1.6501

> <Gold.Chemscore.Rot>
2.0574

> <Gold.Chemscore.Internal.Correction>
   9.000000E+99

> <Gold.Chemscore.Hbonds>
donor molecule, donor type, donor heavy atom, donor atom, acceptor molecule, acceptor atom, score
      P1  H  7997  8009       L1     5  0.35

> <Gold.Chemscore.Hbond.Weighted>
-2.8243

> <Gold.Chemscore.Metal.Weighted>
-0.0000

> <Gold.Chemscore.Lipo.Weighted>
-14.6913

> <Gold.Chemscore.Internal_Hbond.Weighted>
0.0000

> <Gold.Chemscore.DEClash.Weighted>
0.1620

> <Gold.Chemscore.DEInternal.Weighted>
1.6501

> <Gold.Chemscore.Rot.Weighted>
5.2669

> <Gold.Chemscore.Internal.Correction.Weighted>
   9.000000E+99

> <Gold.Protein.RotatedTorsions>
[ 6907 6896 6895 6894 ] final  -27.30 input  -60.11 | X-H torsion
[ 7974 7965 7964 7962 ] final  117.73 input  175.53 | X-H torsion
[ 8008 7997 7996 7995 ] final  168.52 input   59.86 | X-H torsion
[ 10167 10162 10161 10158 ] final -114.71 input  -65.29 | X-H torsion
[ 10718 10713 10712 10709 ] final  150.51 input   66.30 | X-H torsion
[ 10763 10752 10751 10750 ] final  122.63 input  -60.55 | X-H torsion
[ 11005 11000 10999 10996 ] final  133.73 input  -57.11 | X-H torsion

> <Gold.Protein.ActiveResidues>
 VAL166  LYS551  ARG553  GLY616  TRP617  ASP618  TYR619  PRO620  LYS621  CYS622 
 ASP623  PHE694  ASN695  SER759  ASP760  ASP761  ALA762  ILE779  LEU786  VAL792 
 PHE793  MET794  SER795  GLU796  ALA797  LYS798  CYS799  TRP800  GLU811  SER814 

> <Gold.Protein.RotatedAtoms>
  151.1489  135.0217  159.8658 H   0  0  0  0  0  0  0  0  0  0  0  0  # atno 6907 bound_to 6896
  152.5453  134.1412  159.8490 H   0  0  0  0  0  0  0  0  0  0  0  0  # atno 6908 bound_to 6896
  151.1495  133.4871  159.2628 H   0  0  0  0  0  0  0  0  0  0  0  0  # atno 6909 bound_to 6896
  145.1638  139.3140  143.4503 H   0  0  0  0  0  0  0  0  0  0  0  0  # atno 7974 bound_to 7965
  156.1540  140.1588  156.8724 H   0  0  0  0  0  0  0  0  0  0  0  0  # atno 8008 bound_to 7997
  154.5097  140.0804  156.8002 H   0  0  0  0  0  0  0  0  0  0  0  0  # atno 8009 bound_to 7997
  155.3840  140.3406  155.4250 H   0  0  0  0  0  0  0  0  0  0  0  0  # atno 8010 bound_to 7997
  140.0980  143.4639  152.1829 H   0  0  0  0  0  0  0  0  0  0  0  0  # atno 10167 bound_to 10162
  157.2826  131.0838  151.1521 H   0  0  0  0  0  0  0  0  0  0  0  0  # atno 10718 bound_to 10713
  153.6328  135.3393  155.3047 H   0  0  0  0  0  0  0  0  0  0  0  0  # atno 10763 bound_to 10752
  154.8576  135.4300  154.2087 H   0  0  0  0  0  0  0  0  0  0  0  0  # atno 10764 bound_to 10752
  153.2987  135.7023  153.7297 H   0  0  0  0  0  0  0  0  0  0  0  0  # atno 10765 bound_to 10752
  139.9870  134.9528  156.9767 H   0  0  0  0  0  0  0  0  0  0  0  0  # atno 11005 bound_to 11000
  146.3478  140.1758  142.8589 LP  0  0  0  0  0  0  0  0  0  0  0  0  # atno 17320 bound_to 7965
  145.0303  140.8865  143.5113 LP  0  0  0  0  0  0  0  0  0  0  0  0  # atno 17321 bound_to 7965
  139.5687  144.7450  151.3951 LP  0  0  0  0  0  0  0  0  0  0  0  0  # atno 17342 bound_to 10162
  140.6993  143.7672  150.7377 LP  0  0  0  0  0  0  0  0  0  0  0  0  # atno 17343 bound_to 10162
  157.2949  130.6814  149.6133 LP  0  0  0  0  0  0  0  0  0  0  0  0  # atno 17370 bound_to 10713
  155.9665  130.4409  150.5320 LP  0  0  0  0  0  0  0  0  0  0  0  0  # atno 17371 bound_to 10713
  140.4982  134.1124  155.7245 LP  0  0  0  0  0  0  0  0  0  0  0  0  # atno 17394 bound_to 11000
  141.1533  133.8928  157.2042 LP  0  0  0  0  0  0  0  0  0  0  0  0  # atno 17395 bound_to 11000

$$$$
