AV-unprocessed.smi:3056|AV-procd|sdf|11657|dock10
  -GOLD-   2272017 63D 1   1.00000     0.00000
 Structure written by MMmdl.
 47 48  0  0  0  0  0  0  0  0  1 V2000
  147.1334  140.4187  152.8168 C   0  0  0  0  0  0  0  0  0  0  0  0
  148.3523  140.3537  153.6910 C   0  0  0  0  0  0  0  0  0  0  0  0
  148.9292  141.3989  154.4663 C   0  0  0  0  0  0  0  0  0  0  0  0
  150.0057  141.0121  155.1302 N   0  0  0  0  0  0  0  0  0  0  0  0
  150.1591  139.7096  154.8012 N   0  0  0  0  0  0  0  0  0  0  0  0
  151.2615  138.9340  155.3568 C   0  0  2  0  0  0  0  0  0  0  0  0
  151.5139  137.6858  154.4878 C   0  0  0  0  0  0  0  0  0  0  0  0
  151.0400  138.5847  156.8541 C   0  0  2  0  0  0  0  0  0  0  0  0
  149.8274  137.6574  157.0892 C   0  0  0  0  0  0  0  0  0  0  0  0
  150.8321  139.8322  157.5846 N   0  0  0  0  0  0  0  0  0  0  0  0
  151.9927  140.7302  157.5103 C   0  0  0  0  0  0  0  0  0  0  0  0
  152.7391  140.7965  158.8477 C   0  0  0  0  0  0  0  0  0  0  0  0
  153.0641  139.7320  159.3743 O   0  0  0  0  0  0  0  0  0  0  0  0
  153.0163  141.9991  159.4085 N   0  0  0  0  0  0  0  0  0  0  0  0
  152.6314  143.3128  158.8838 C   0  0  0  0  0  0  0  0  0  0  0  0
  151.6475  143.9558  159.8761 C   0  0  0  0  0  0  0  0  0  0  0  0
  152.2606  144.0566  161.1596 O   0  0  0  0  0  0  0  0  0  0  0  0
  152.6793  142.7993  161.6893 C   0  0  2  0  0  0  0  0  0  0  0  0
  153.3001  143.0429  163.0693 C   0  0  0  0  0  0  0  0  0  0  0  0
  153.6740  142.1434  160.7100 C   0  0  0  0  0  0  0  0  0  0  0  0
  149.1724  139.2886  153.9340 C   0  0  0  0  0  0  0  0  0  0  0  0
  146.5081  141.2788  153.0570 H   0  0  0  0  0  0  0  0  0  0  0  0
  146.5109  139.5302  152.9253 H   0  0  0  0  0  0  0  0  0  0  0  0
  147.3998  140.4992  151.7629 H   0  0  0  0  0  0  0  0  0  0  0  0
  148.5976  142.4218  154.5668 H   0  0  0  0  0  0  0  0  0  0  0  0
  152.1476  139.5678  155.2861 H   0  0  0  0  0  0  0  0  0  0  0  0
  152.4096  137.1508  154.8032 H   0  0  0  0  0  0  0  0  0  0  0  0
  151.6537  137.9607  153.4420 H   0  0  0  0  0  0  0  0  0  0  0  0
  150.6779  136.9871  154.5378 H   0  0  0  0  0  0  0  0  0  0  0  0
  151.9407  138.0893  157.2218 H   0  0  0  0  0  0  0  0  0  0  0  0
  149.9554  136.6950  156.5939 H   0  0  0  0  0  0  0  0  0  0  0  0
  148.9091  138.1049  156.7077 H   0  0  0  0  0  0  0  0  0  0  0  0
  149.6744  137.4402  158.1456 H   0  0  0  0  0  0  0  0  0  0  0  0
  150.0117  140.2873  157.2100 H   0  0  0  0  0  0  0  0  0  0  0  0
  152.6808  140.4321  156.7201 H   0  0  0  0  0  0  0  0  0  0  0  0
  151.6509  141.7336  157.2509 H   0  0  0  0  0  0  0  0  0  0  0  0
  153.5220  143.9347  158.7857 H   0  0  0  0  0  0  0  0  0  0  0  0
  152.1854  143.2811  157.8920 H   0  0  0  0  0  0  0  0  0  0  0  0
  151.3688  144.9539  159.5386 H   0  0  0  0  0  0  0  0  0  0  0  0
  150.7279  143.3728  159.9454 H   0  0  0  0  0  0  0  0  0  0  0  0
  151.8046  142.1573  161.8086 H   0  0  0  0  0  0  0  0  0  0  0  0
  153.6249  142.1068  163.5243 H   0  0  0  0  0  0  0  0  0  0  0  0
  152.5807  143.5074  163.7438 H   0  0  0  0  0  0  0  0  0  0  0  0
  154.1667  143.7009  163.0019 H   0  0  0  0  0  0  0  0  0  0  0  0
  154.0204  141.1920  161.1160 H   0  0  0  0  0  0  0  0  0  0  0  0
  154.5638  142.7647  160.5974 H   0  0  0  0  0  0  0  0  0  0  0  0
  149.1353  138.2743  153.5640 H   0  0  0  0  0  0  0  0  0  0  0  0
  1  2  1  0  0  0  0
  1 22  1  0  0  0  0
  1 23  1  0  0  0  0
  1 24  1  0  0  0  0
  2 21  2  0  0  0  0
  2  3  1  0  0  0  0
  3  4  2  0  0  0  0
  3 25  1  0  0  0  0
  4  5  1  0  0  0  0
  5  6  1  0  0  0  0
  5 21  1  0  0  0  0
  6  7  1  0  0  0  0
  6  8  1  0  0  0  0
  6 26  1  0  0  0  0
  7 27  1  0  0  0  0
  7 28  1  0  0  0  0
  7 29  1  0  0  0  0
  8  9  1  0  0  0  0
  8 10  1  0  0  0  0
  8 30  1  0  0  0  0
  9 31  1  0  0  0  0
  9 32  1  0  0  0  0
  9 33  1  0  0  0  0
 10 11  1  0  0  0  0
 10 34  1  0  0  0  0
 11 12  1  0  0  0  0
 11 35  1  0  0  0  0
 11 36  1  0  0  0  0
 12 13  2  0  0  0  0
 12 14  1  0  0  0  0
 14 20  1  0  0  0  0
 14 15  1  0  0  0  0
 15 16  1  0  0  0  0
 15 37  1  0  0  0  0
 15 38  1  0  0  0  0
 16 17  1  0  0  0  0
 16 39  1  0  0  0  0
 16 40  1  0  0  0  0
 17 18  1  0  0  0  0
 18 19  1  0  0  0  0
 18 20  1  0  0  0  0
 18 41  1  0  0  0  0
 19 42  1  0  0  0  0
 19 43  1  0  0  0  0
 19 44  1  0  0  0  0
 20 45  1  0  0  0  0
 20 46  1  0  0  0  0
 21 47  1  0  0  0  0
M  END
> <s_m_source_file>
AV-unprocessed.smi

> <i_m_source_file_index>
3056

> <i_lp_mmshare_version>
43012

> <i_f3d_flags>
0

> <s_epik_input>
W0NIM11jMVtjSF1ubihbY0hdMSlbQ0BIXShbQ0gzXSlbQ0BIXShbQ0gzXSlbTkhdW0NIMl1DKD1PKU4yW0NIMl1bQ0gyXU9bQ0BASF0oW0NIM10pW0NIMl0y

> <s_epik_cmdline>
J2VwaWtfcHl0aG9uJywgJy1waCcsICc3LjAnLCAnLXRuJywgJzgnLCAnLW1hJywgJzIwMCcsICctbWV0YWxfYmluZGluZycsICctaW1hZScsICc8aW5maWxlLm1hZT4nLCAnLW9tYWUnLCAnPG91dGZpbGUubWFlPic=

> <r_lp_tautomer_probability>
1

> <r_epik_Ionization_Penalty>
0.667689

> <r_epik_Ionization_Penalty_Charging>
0

> <r_epik_Ionization_Penalty_Neutral>
0.667689

> <r_epik_State_Penalty>
0.684601

> <r_epik_Charging_Adjusted_Penalty>
0.684601

> <i_epik_Tot_Q>
0

> <i_epik_Tot_abs_Q>
0

> <r_epik_Metal_State_Penalty>
0.681448

> <b_epik_Metal_Only>
0

> <s_lp_Force_Field>
OPLS_2005

> <r_lp_Energy>
28.8183

> <b_lp_Chiralities_Consistent>
1

> <s_lp_Variant>
AV-unprocessed.smi:3056-13

> <Gold.Version>
5.8.1

> <Gold.Id.Protein>
6NUR|6NUR_protein|mol2

> <Gold.PLP.Fitness>
48.3880

> <Gold.PLP.PLP>
-45.0495

> <Gold.PLP.part.hbond>
-0.6486

> <Gold.PLP.part.metal>
0.0000

> <Gold.PLP.part.buried>
-1.1224

> <Gold.PLP.part.nonpolar>
-43.2135

> <Gold.PLP.part.repulsive>
0.2264

> <Gold.PLP.ligand.clash>
0.0000

> <Gold.PLP.ligand.torsion>
0.8700

> <Gold.PLP.Chemscore.Hbond>
0.0000

> <Gold.PLP.Chemscore.CHOScore>
1.6651

> <Gold.PLP.Chemscore.Metal>
0.0000

> <Gold.Chemscore.Hbonds>
donor molecule, donor type, donor heavy atom, donor atom, acceptor molecule, acceptor atom, score
      L1  C     3    25       P1  8028  0.98
      L1  C    21    47       P1  7948  0.73

> <Gold.PLP.Chemscore.Internal.Correction>
0.0833

> <Gold.Rescore>
     Score         DG    S(hbond)    S(metal)    S(lipo)     H(rot)  DE(clash)    DE(int)     intcor
     13.97     -14.91       0.00        0.00     117.35       1.68       0.10       0.84       ----

> <Gold.Chemscore.Fitness>
13.9716

> <Gold.Chemscore.DG>
-14.9107

> <Gold.Chemscore.ZeroCoef>
-5.4800

> <Gold.Chemscore.Hbond>
0.0000

> <Gold.Chemscore.Metal>
0.0000

> <Gold.Chemscore.Lipo>
117.3483

> <Gold.Chemscore.Internal_Hbond>
0.0000

> <Gold.Chemscore.DEClash>
0.0960

> <Gold.Chemscore.DEInternal>
0.8430

> <Gold.Chemscore.Rot>
1.6793

> <Gold.Chemscore.Internal.Correction>
   9.000000E+99

> <Gold.Chemscore.Hbond.Weighted>
-0.0000

> <Gold.Chemscore.Metal.Weighted>
-0.0000

> <Gold.Chemscore.Lipo.Weighted>
-13.7298

> <Gold.Chemscore.Internal_Hbond.Weighted>
0.0000

> <Gold.Chemscore.DEClash.Weighted>
0.0960

> <Gold.Chemscore.DEInternal.Weighted>
0.8430

> <Gold.Chemscore.Rot.Weighted>
4.2990

> <Gold.Chemscore.Internal.Correction.Weighted>
   9.000000E+99

> <Gold.Protein.RotatedTorsions>
[ 6907 6896 6895 6894 ] final   25.38 input  -60.11 | X-H torsion
[ 7974 7965 7964 7962 ] final   18.55 input  175.53 | X-H torsion
[ 8008 7997 7996 7995 ] final -129.07 input   59.86 | X-H torsion
[ 10167 10162 10161 10158 ] final -124.41 input  -65.29 | X-H torsion
[ 10718 10713 10712 10709 ] final  -11.10 input   66.30 | X-H torsion
[ 10763 10752 10751 10750 ] final  -25.26 input  -60.55 | X-H torsion
[ 11005 11000 10999 10996 ] final  167.69 input  -57.11 | X-H torsion

> <Gold.Protein.ActiveResidues>
 VAL166  LYS551  ARG553  GLY616  TRP617  ASP618  TYR619  PRO620  LYS621  CYS622 
 ASP623  PHE694  ASN695  SER759  ASP760  ASP761  ALA762  ILE779  LEU786  VAL792 
 PHE793  MET794  SER795  GLU796  ALA797  LYS798  CYS799  TRP800  GLU811  SER814 

> <Gold.Protein.RotatedAtoms>
  151.9717  135.0073  160.0552 H   0  0  0  0  0  0  0  0  0  0  0  0  # atno 6907 bound_to 6896
  152.1777  133.4681  159.4950 H   0  0  0  0  0  0  0  0  0  0  0  0  # atno 6908 bound_to 6896
  150.6912  134.1790  159.4284 H   0  0  0  0  0  0  0  0  0  0  0  0  # atno 6909 bound_to 6896
  146.2181  139.8440  142.8635 H   0  0  0  0  0  0  0  0  0  0  0  0  # atno 7974 bound_to 7965
  155.2731  140.0441  157.3009 H   0  0  0  0  0  0  0  0  0  0  0  0  # atno 8008 bound_to 7997
  154.5641  140.2355  155.8259 H   0  0  0  0  0  0  0  0  0  0  0  0  # atno 8009 bound_to 7997
  156.2071  140.3009  155.9658 H   0  0  0  0  0  0  0  0  0  0  0  0  # atno 8010 bound_to 7997
  139.9931  143.5619  152.2334 H   0  0  0  0  0  0  0  0  0  0  0  0  # atno 10167 bound_to 10162
  156.6640  130.4990  149.6021 H   0  0  0  0  0  0  0  0  0  0  0  0  # atno 10718 bound_to 10713
  153.6969  135.6958  153.5074 H   0  0  0  0  0  0  0  0  0  0  0  0  # atno 10763 bound_to 10752
  153.2371  135.4318  155.0657 H   0  0  0  0  0  0  0  0  0  0  0  0  # atno 10764 bound_to 10752
  154.8356  135.3498  154.6510 H   0  0  0  0  0  0  0  0  0  0  0  0  # atno 10765 bound_to 10752
  140.2795  134.7762  157.3745 H   0  0  0  0  0  0  0  0  0  0  0  0  # atno 11005 bound_to 11000
  145.2869  141.0156  143.3685 LP  0  0  0  0  0  0  0  0  0  0  0  0  # atno 17320 bound_to 7965
  144.9107  139.4533  143.6588 LP  0  0  0  0  0  0  0  0  0  0  0  0  # atno 17321 bound_to 7965
  139.6325  144.7646  151.2505 LP  0  0  0  0  0  0  0  0  0  0  0  0  # atno 17342 bound_to 10162
  140.7447  143.6454  150.8297 LP  0  0  0  0  0  0  0  0  0  0  0  0  # atno 17343 bound_to 10162
  156.1989  130.6607  151.1145 LP  0  0  0  0  0  0  0  0  0  0  0  0  # atno 17370 bound_to 10713
  157.7100  131.0738  150.6534 LP  0  0  0  0  0  0  0  0  0  0  0  0  # atno 17371 bound_to 10713
  140.1297  134.5111  155.8116 LP  0  0  0  0  0  0  0  0  0  0  0  0  # atno 17394 bound_to 11000
  141.2165  133.6785  156.7017 LP  0  0  0  0  0  0  0  0  0  0  0  0  # atno 17395 bound_to 11000

$$$$
