AV-unprocessed.smi:1456|AV-procd|sdf|5918|dock3
  -GOLD-   22720 6 03D 1   1.00000     0.00000
 Structure written by MMmdl.
 41 42  0  0  0  0  0  0  0  0  3 V2000
  146.8147  137.3762  154.2701 C   0  0  0  0  0  0  0  0  0  0  0  0
  147.6700  138.6522  154.1045 C   0  0  0  0  0  0  0  0  0  0  0  0
  147.0577  139.4396  152.9293 C   0  0  0  0  0  0  0  0  0  0  0  0
  147.6289  139.5622  155.3599 C   0  0  0  0  0  0  0  0  0  0  0  0
  148.5402  139.1199  156.5155 C   0  0  0  0  0  0  0  0  0  0  0  0
  147.9775  137.9855  157.2432 N   0  0  0  0  0  0  0  0  0  0  0  0
  148.2940  137.5935  158.4849 C   0  0  0  0  0  0  0  0  0  0  0  0
  149.1164  138.2331  159.1436 O   0  0  0  0  0  0  0  0  0  0  0  0
  147.6426  136.4758  158.8768 N   0  5  0  0  0  0  0  0  0  0  0  0
  147.5356  136.1841  160.1831 C   0  0  0  0  0  0  0  0  0  0  0  0
  147.6104  137.1099  161.1459 N   0  0  0  0  0  0  0  0  0  0  0  0
  147.4654  136.5858  162.4319 C   0  0  0  0  0  0  0  0  0  0  0  0
  147.2659  135.2307  162.4476 C   0  0  0  0  0  0  0  0  0  0  0  0
  147.2538  134.5683  160.8381 S   0  0  0  0  0  0  0  0  0  0  0  0
  149.9689  138.8703  155.9950 C   0  0  0  0  0  0  0  0  0  0  0  0
  150.0654  137.9410  154.7588 C   0  0  0  0  0  0  0  0  0  0  0  0
  151.4600  138.1319  154.1313 C   0  0  0  0  0  0  0  0  0  0  0  0
  149.9531  136.4462  155.1333 C   0  0  0  0  0  0  0  0  0  0  0  0
  149.0711  138.3234  153.7166 N   0  3  0  0  0  0  0  0  0  0  0  0
  145.7629  137.6298  154.4086 H   0  0  0  0  0  0  0  0  0  0  0  0
  147.0922  136.7678  155.1242 H   0  0  0  0  0  0  0  0  0  0  0  0
  146.8789  136.7398  153.3868 H   0  0  0  0  0  0  0  0  0  0  0  0
  146.0294  139.7360  153.1409 H   0  0  0  0  0  0  0  0  0  0  0  0
  147.0452  138.8465  152.0139 H   0  0  0  0  0  0  0  0  0  0  0  0
  147.6215  140.3491  152.7179 H   0  0  0  0  0  0  0  0  0  0  0  0
  147.9474  140.5657  155.0728 H   0  0  0  0  0  0  0  0  0  0  0  0
  146.6028  139.6765  155.7127 H   0  0  0  0  0  0  0  0  0  0  0  0
  148.5822  139.9481  157.2256 H   0  0  0  0  0  0  0  0  0  0  0  0
  147.2887  137.4313  156.7560 H   0  0  0  0  0  0  0  0  0  0  0  0
  147.5165  137.2519  163.2801 H   0  0  0  0  0  0  0  0  0  0  0  0
  147.1251  134.5852  163.3012 H   0  0  0  0  0  0  0  0  0  0  0  0
  150.3798  139.8452  155.7281 H   0  0  0  0  0  0  0  0  0  0  0  0
  150.6130  138.5019  156.7944 H   0  0  0  0  0  0  0  0  0  0  0  0
  152.2524  137.8995  154.8441 H   0  0  0  0  0  0  0  0  0  0  0  0
  151.6134  139.1592  153.7985 H   0  0  0  0  0  0  0  0  0  0  0  0
  151.6005  137.4853  153.2639 H   0  0  0  0  0  0  0  0  0  0  0  0
  150.7848  136.1434  155.7708 H   0  0  0  0  0  0  0  0  0  0  0  0
  149.9789  135.8124  154.2460 H   0  0  0  0  0  0  0  0  0  0  0  0
  149.0513  136.1967  155.6820 H   0  0  0  0  0  0  0  0  0  0  0  0
  149.0549  137.6100  153.0020 H   0  0  0  0  0  0  0  0  0  0  0  0
  149.4361  139.1673  153.2994 H   0  0  0  0  0  0  0  0  0  0  0  0
  1  2  1  0  0  0  0
  1 20  1  0  0  0  0
  1 21  1  0  0  0  0
  1 22  1  0  0  0  0
  2 19  1  0  0  0  0
  2  3  1  0  0  0  0
  2  4  1  0  0  0  0
  3 23  1  0  0  0  0
  3 24  1  0  0  0  0
  3 25  1  0  0  0  0
  4  5  1  0  0  0  0
  4 26  1  0  0  0  0
  4 27  1  0  0  0  0
  5  6  1  0  0  0  0
  5 15  1  0  0  0  0
  5 28  1  0  0  0  0
  6  7  1  0  0  0  0
  6 29  1  0  0  0  0
  7  8  2  0  0  0  0
  7  9  1  0  0  0  0
  9 10  1  0  0  0  0
 10 14  1  0  0  0  0
 10 11  2  0  0  0  0
 11 12  1  0  0  0  0
 12 13  2  0  0  0  0
 12 30  1  0  0  0  0
 13 14  1  0  0  0  0
 13 31  1  0  0  0  0
 15 16  1  0  0  0  0
 15 32  1  0  0  0  0
 15 33  1  0  0  0  0
 16 17  1  0  0  0  0
 16 18  1  0  0  0  0
 16 19  1  0  0  0  0
 17 34  1  0  0  0  0
 17 35  1  0  0  0  0
 17 36  1  0  0  0  0
 18 37  1  0  0  0  0
 18 38  1  0  0  0  0
 18 39  1  0  0  0  0
 19 40  1  0  0  0  0
 19 41  1  0  0  0  0
M  CHG  1   9  -1
M  CHG  1  19   1
M  END
> <s_m_source_file>
AV-unprocessed.smi

> <i_m_source_file_index>
1456

> <i_lp_mmshare_version>
43012

> <i_f3d_flags>
0

> <s_epik_input>
W0NIM11DMShbQ0gzXSlbQ0gyXVtDSF0oW0NIMl1DKFtDSDNdKShbQ0gzXSlbTkhdMSlbTkhdQyg9TylbTkhdYzJuW2NIXVtjSF1zMg==

> <s_epik_cmdline>
J2VwaWtfcHl0aG9uJywgJy1waCcsICc3LjAnLCAnLXRuJywgJzgnLCAnLW1hJywgJzIwMCcsICctbWV0YWxfYmluZGluZycsICctaW1hZScsICc8aW5maWxlLm1hZT4nLCAnLW9tYWUnLCAnPG91dGZpbGUubWFlPic=

> <r_lp_tautomer_probability>
1

> <r_epik_Ionization_Penalty>
7.98581

> <r_epik_Ionization_Penalty_Charging>
6.48842

> <r_epik_Ionization_Penalty_Neutral>
1.49739

> <r_epik_State_Penalty>
6.48831

> <r_epik_Charging_Adjusted_Penalty>
12.9767

> <i_epik_Tot_Q>
0

> <i_epik_Tot_abs_Q>
2

> <r_epik_Metal_State_Penalty>
2.41622

> <b_epik_Metal_Only>
1

> <s_lp_Force_Field>
OPLS_2005

> <r_lp_Energy>
15.6093

> <b_lp_Chiralities_Consistent>
1

> <s_lp_Variant>
AV-unprocessed.smi:1456-2

> <Gold.Version>
5.8.1

> <Gold.Id.Protein>
6NUR|6NUR_protein|mol2

> <Gold.PLP.Fitness>
37.3178

> <Gold.PLP.PLP>
-27.7482

> <Gold.PLP.part.hbond>
-5.6858

> <Gold.PLP.part.metal>
0.0000

> <Gold.PLP.part.buried>
-3.0252

> <Gold.PLP.part.nonpolar>
-19.0074

> <Gold.PLP.part.repulsive>
0.0785

> <Gold.PLP.ligand.clash>
0.0000

> <Gold.PLP.ligand.torsion>
0.4370

> <Gold.PLP.Chemscore.Hbond>
3.4703

> <Gold.PLP.Chemscore.CHOScore>
0.0000

> <Gold.PLP.Chemscore.Metal>
0.0000

> <Gold.Chemscore.Hbonds>
donor molecule, donor type, donor heavy atom, donor atom, acceptor molecule, acceptor atom, score
      L1  H    19    40       P1  7948  2.00
      L1  H    19    41       P1  7957  0.21
      P1  H  6931  6943       L1    11  0.33
      P1  H  6934  6947       L1    11  0.91

> <Gold.PLP.Chemscore.Internal.Correction>
0.0326

> <Gold.Rescore>
     Score         DG    S(hbond)    S(metal)    S(lipo)     H(rot)  DE(clash)    DE(int)     intcor
     16.40     -18.57       2.38        0.00      65.65       1.00       0.24       1.92       ----

> <Gold.Chemscore.Fitness>
16.4048

> <Gold.Chemscore.DG>
-18.5658

> <Gold.Chemscore.ZeroCoef>
-5.4800

> <Gold.Chemscore.Hbond>
2.3846

> <Gold.Chemscore.Metal>
0.0000

> <Gold.Chemscore.Lipo>
65.6517

> <Gold.Chemscore.Internal_Hbond>
0.0000

> <Gold.Chemscore.DEClash>
0.2387

> <Gold.Chemscore.DEInternal>
1.9223

> <Gold.Chemscore.Rot>
1.0000

> <Gold.Chemscore.Internal.Correction>
   9.000000E+99

> <Gold.Chemscore.Hbonds>
donor molecule, donor type, donor heavy atom, donor atom, acceptor molecule, acceptor atom, score
      L1  H    19    40       P1  7948  1.00
      L1  H    19    41       P1  7957  0.21
      P1  H  6931  6943       L1    11  0.01
      P1  H  6934  6947       L1    11  0.81

> <Gold.Chemscore.Hbond.Weighted>
-7.9645

> <Gold.Chemscore.Metal.Weighted>
-0.0000

> <Gold.Chemscore.Lipo.Weighted>
-7.6813

> <Gold.Chemscore.Internal_Hbond.Weighted>
0.0000

> <Gold.Chemscore.DEClash.Weighted>
0.2387

> <Gold.Chemscore.DEInternal.Weighted>
1.9223

> <Gold.Chemscore.Rot.Weighted>
2.5600

> <Gold.Chemscore.Internal.Correction.Weighted>
   9.000000E+99

> <Gold.Protein.RotatedTorsions>
[ 6907 6896 6895 6894 ] final  159.45 input  -60.11 | X-H torsion
[ 7974 7965 7964 7962 ] final   -7.57 input  175.53 | X-H torsion
[ 8008 7997 7996 7995 ] final  -68.72 input   59.86 | X-H torsion
[ 10167 10162 10161 10158 ] final -159.12 input  -65.29 | X-H torsion
[ 10718 10713 10712 10709 ] final  -36.36 input   66.30 | X-H torsion
[ 10763 10752 10751 10750 ] final  -72.95 input  -60.55 | X-H torsion
[ 11005 11000 10999 10996 ] final  120.94 input  -57.11 | X-H torsion

> <Gold.Protein.ActiveResidues>
 VAL166  LYS551  ARG553  GLY616  TRP617  ASP618  TYR619  PRO620  LYS621  CYS622 
 ASP623  PHE694  ASN695  SER759  ASP760  ASP761  ALA762  ILE779  LEU786  VAL792 
 PHE793  MET794  SER795  GLU796  ALA797  LYS798  CYS799  TRP800  GLU811  SER814 

> <Gold.Protein.RotatedAtoms>
  151.9853  133.3772  159.4123 H   0  0  0  0  0  0  0  0  0  0  0  0  # atno 6907 bound_to 6896
  150.6929  134.3994  159.5121 H   0  0  0  0  0  0  0  0  0  0  0  0  # atno 6908 bound_to 6896
  152.1720  134.8826  160.0584 H   0  0  0  0  0  0  0  0  0  0  0  0  # atno 6909 bound_to 6896
  146.2303  140.2339  142.8341 H   0  0  0  0  0  0  0  0  0  0  0  0  # atno 7974 bound_to 7965
  154.4887  140.0867  156.7546 H   0  0  0  0  0  0  0  0  0  0  0  0  # atno 8008 bound_to 7997
  155.4284  140.3448  155.4259 H   0  0  0  0  0  0  0  0  0  0  0  0  # atno 8009 bound_to 7997
  156.1299  140.1498  156.9068 H   0  0  0  0  0  0  0  0  0  0  0  0  # atno 8010 bound_to 7997
  139.6640  143.9863  152.2243 H   0  0  0  0  0  0  0  0  0  0  0  0  # atno 10167 bound_to 10162
  156.3277  130.4275  149.7901 H   0  0  0  0  0  0  0  0  0  0  0  0  # atno 10718 bound_to 10713
  154.4528  135.5913  153.6203 H   0  0  0  0  0  0  0  0  0  0  0  0  # atno 10763 bound_to 10752
  152.9815  135.6025  154.3584 H   0  0  0  0  0  0  0  0  0  0  0  0  # atno 10764 bound_to 10752
  154.3447  135.2841  155.2383 H   0  0  0  0  0  0  0  0  0  0  0  0  # atno 10765 bound_to 10752
  139.9206  134.9637  156.7884 H   0  0  0  0  0  0  0  0  0  0  0  0  # atno 11005 bound_to 11000
  144.9536  140.8204  143.5556 LP  0  0  0  0  0  0  0  0  0  0  0  0  # atno 17320 bound_to 7965
  145.2302  139.2118  143.5047 LP  0  0  0  0  0  0  0  0  0  0  0  0  # atno 17321 bound_to 7965
  139.9609  144.6558  150.8080 LP  0  0  0  0  0  0  0  0  0  0  0  0  # atno 17342 bound_to 10162
  140.7591  143.3123  151.2816 LP  0  0  0  0  0  0  0  0  0  0  0  0  # atno 17343 bound_to 10162
  156.5185  130.8204  151.3195 LP  0  0  0  0  0  0  0  0  0  0  0  0  # atno 17370 bound_to 10713
  157.7424  130.9890  150.2517 LP  0  0  0  0  0  0  0  0  0  0  0  0  # atno 17371 bound_to 10713
  140.6487  133.9751  155.7744 LP  0  0  0  0  0  0  0  0  0  0  0  0  # atno 17394 bound_to 11000
  141.0722  134.0188  157.3509 LP  0  0  0  0  0  0  0  0  0  0  0  0  # atno 17395 bound_to 11000

$$$$
