#       Name:                AV-unprocessed.smi:227
#       Creating user name   scv26
#       Creation time:       Thu Mar 26 20:23:17 2020


#       File generated by GOLD software.
#

@<TRIPOS>MOLECULE
AV-unprocessed.smi:227
    64    68     1
SMALL
NO_CHARGES


@<TRIPOS>ATOM
      1 ****        -1.1809   3.7629  -2.0471 O.3            1 S1                 0.0000
      2 ****        -1.7312   3.1157  -0.9191 C.3            1 S1                 0.0000
      3 ****        -1.1160   3.6610   0.3915 C.3            1 S1                 0.0000
      4 ****         0.4199   3.4373   0.4604 C.3            1 S1                 0.0000
      5 ****         0.8261   2.0390   0.4325 N.pl3          1 S1                 0.0000
      6 ****         0.9733   1.1990   1.5123 C.2            1 S1                 0.0000
      7 ****         1.3510  -0.0152   1.2246 N.2            1 S1                 0.0000
      8 ****         1.4901  -0.0190  -0.1585 C.ar           1 S1                 0.0000
      9 ****         1.8665  -0.9973  -1.1273 C.ar           1 S1                 0.0000
     10 ****         2.2002  -2.2882  -0.8456 N.3            1 S1                 0.0000
     11 ****         1.6291  -2.9967   0.2908 C.3            1 S1                 0.0000
     12 ****         2.4340  -4.3078   0.3003 C.3            1 S1                 0.0000
     13 ****         2.6543  -4.5377  -1.2014 C.3            1 S1                 0.0000
     14 ****         1.8935  -3.3425  -1.8043 C.3            1 S1                 0.0000
     15 ****         0.3583  -3.5131  -1.6617 C.3            1 S1                 0.0000
     16 ****        -0.2387  -4.8179  -2.2203 C.3            1 S1                 0.0000
     17 ****        -1.6484  -4.7440  -2.2137 O.3            1 S1                 0.0000
     18 ****         0.1823  -3.3053  -0.1450 C.3            1 S1                 0.0000
     19 ****         1.9156  -0.5956  -2.4252 N.ar           1 S1                 0.0000
     20 ****         1.6030   0.6575  -2.7635 C.ar           1 S1                 0.0000
     21 ****         1.2239   1.6625  -1.9742 N.ar           1 S1                 0.0000
     22 ****         1.1793   1.2758  -0.6679 C.ar           1 S1                 0.0000
     23 ****        -1.8542   3.0941   1.6329 C.3            1 S1                 0.0000
     24 ****        -1.4280   3.7025   2.9587 C.3            1 S1                 0.0000
     25 ****        -2.5830   3.3174   3.8758 C.3            1 S1                 0.0000
     26 ****        -3.7405   3.3125   3.0490 O.3            1 S1                 0.0000
     27 ****        -3.3587   3.3859   1.6790 C.3            1 S1                 0.0000
     28 ****        -0.2657   3.5326  -2.1068 H              1 S1                 0.0000
     29 ****        -2.8055   3.2944  -0.9478 H              1 S1                 0.0000
     30 ****        -1.5892   2.0387  -1.0098 H              1 S1                 0.0000
     31 ****        -1.2759   4.7404   0.3920 H              1 S1                 0.0000
     32 ****         0.9108   3.9502  -0.3672 H              1 S1                 0.0000
     33 ****         0.8305   3.8926   1.3616 H              1 S1                 0.0000
     34 ****         0.7891   1.5115   2.5289 H              1 S1                 0.0000
     35 ****         1.6949  -2.4871   1.2501 H              1 S1                 0.0000
     36 ****         3.3885  -4.1780   0.8118 H              1 S1                 0.0000
     37 ****         1.8991  -5.1274   0.7817 H              1 S1                 0.0000
     38 ****         3.7166  -4.4689  -1.4397 H              1 S1                 0.0000
     39 ****         2.3048  -5.5092  -1.5480 H              1 S1                 0.0000
     40 ****         2.2067  -3.1334  -2.8279 H              1 S1                 0.0000
     41 ****        -0.1163  -2.6804  -2.1844 H              1 S1                 0.0000
     42 ****         0.0953  -4.9791  -3.2454 H              1 S1                 0.0000
     43 ****         0.0655  -5.6851  -1.6347 H              1 S1                 0.0000
     44 ****        -1.9390  -4.6371  -1.3209 H              1 S1                 0.0000
     45 ****        -0.2286  -4.1753   0.3687 H              1 S1                 0.0000
     46 ****        -0.4773  -2.4591   0.0513 H              1 S1                 0.0000
     47 ****         1.6653   0.8869  -3.8170 H              1 S1                 0.0000
     48 ****        -1.7194   2.0127   1.6818 H              1 S1                 0.0000
     49 ****        -0.4702   3.3347   3.3247 H              1 S1                 0.0000
     50 ****        -1.3639   4.7885   2.8766 H              1 S1                 0.0000
     51 ****        -2.4351   2.3119   4.2718 H              1 S1                 0.0000
     52 ****        -2.6948   4.0015   4.7172 H              1 S1                 0.0000
     53 ****        -3.5685   4.3946   1.3202 H              1 S1                 0.0000
     54 ****        -3.9396   2.6859   1.0780 H              1 S1                 0.0000
     55 ****        -1.2739   4.7535  -1.9468 LP             1 S1                 0.0000
     56 ****        -1.6586   3.4652  -2.8736 LP             1 S1                 0.0000
     57 ****         1.5060  -0.7739   1.8573 LP             1 S1                 0.0000
     58 ****         3.1512  -1.9935  -0.7515 LP             1 S1                 0.0000
     59 ****        -2.0320  -5.5852  -2.5948 LP             1 S1                 0.0000
     60 ****        -1.9478  -3.9629  -2.7617 LP             1 S1                 0.0000
     61 ****         2.1888  -1.2458  -3.1342 LP             1 S1                 0.0000
     62 ****         1.0010   2.5818  -2.2986 LP             1 S1                 0.0000
     63 ****        -4.3134   4.1001   3.2761 LP             1 S1                 0.0000
     64 ****        -4.2556   2.4697   3.2048 LP             1 S1                 0.0000
@<TRIPOS>BOND
    1    1    2 1     
    2    1   28 1     
    3    2    3 1     
    4    2   29 1     
    5    2   30 1     
    6    3    4 1     
    7    3   23 1     
    8    3   31 1     
    9    4    5 1     
   10    4   32 1     
   11    4   33 1     
   12    5   22 1     
   13    5    6 1     
   14    6    7 2     
   15    6   34 1     
   16    7    8 1     
   17    8   22 ar    
   18    8    9 ar    
   19    9   10 1     
   20    9   19 ar    
   21   10   14 1     
   22   10   11 1     
   23   11   18 1     
   24   11   12 1     
   25   11   35 1     
   26   12   13 1     
   27   12   36 1     
   28   12   37 1     
   29   13   14 1     
   30   13   38 1     
   31   13   39 1     
   32   14   15 1     
   33   14   40 1     
   34   15   16 1     
   35   15   18 1     
   36   15   41 1     
   37   16   17 1     
   38   16   42 1     
   39   16   43 1     
   40   17   44 1     
   41   18   45 1     
   42   18   46 1     
   43   19   20 ar    
   44   20   21 ar    
   45   20   47 1     
   46   21   22 ar    
   47   23   27 1     
   48   23   24 1     
   49   23   48 1     
   50   24   25 1     
   51   24   49 1     
   52   24   50 1     
   53   25   26 1     
   54   25   51 1     
   55   25   52 1     
   56   26   27 1     
   57   27   53 1     
   58   27   54 1     
   59    1   55 1     
   60    1   56 1     
   61    7   57 1     
   62   10   58 1     
   63   17   59 1     
   64   17   60 1     
   65   19   61 1     
   66   21   62 1     
   67   26   63 1     
   68   26   64 1     
@<TRIPOS>SUBSTRUCTURE
      1 S1             1
@<TRIPOS>SET
LONE_PAIRS      STATIC     ATOMS    <user>   **** ""
10 55 56 57 58 59 60 61 62 63 64
DONOR_HYDROGENS      STATIC     ATOMS    <user>   **** ""
2 28 44
ATOM$BLUE        STATIC     ATOMS    COLORGROUP SYSTEM
10 55 56 57 58 59 60 61 62 63 64
ATOM$RED        STATIC     ATOMS    COLORGROUP SYSTEM
2 28 44
