AV-unprocessed.smi:3330|AV-procd|sdf|12814|dock10
  -GOLD-   2272019183D 1   1.00000     0.00000
 Structure written by MMmdl.
 37 38  0  0  0  0  0  0  0  0  2 V2000
  147.8756  133.1057  153.1300 C   0  0  0  0  0  0  0  0  0  0  0  0
  146.7403  134.1394  153.2489 C   0  0  1  0  0  0  0  0  0  0  0  0
  147.3468  135.3857  153.7033 N   0  0  0  0  0  0  0  0  0  0  0  0
  147.9225  135.2393  155.0307 C   0  0  0  0  0  0  0  0  0  0  0  0
  148.5681  136.5645  155.4599 C   0  0  0  0  0  0  0  0  0  0  0  0
  148.7201  136.6265  156.9159 N   0  0  0  0  0  0  0  0  0  0  0  0
  148.0906  137.5065  157.7005 C   0  0  0  0  0  0  0  0  0  0  0  0
  147.3083  138.3961  157.3651 O   0  0  0  0  0  0  0  0  0  0  0  0
  148.4995  137.2184  159.1261 C   0  0  0  0  0  0  0  0  0  0  0  0
  149.3902  136.0905  158.9704 N   0  5  0  0  0  0  0  0  0  0  0  0
  149.4748  135.7896  157.6534 C   0  0  0  0  0  0  0  0  0  0  0  0
  150.1329  134.8811  157.1477 O   0  0  0  0  0  0  0  0  0  0  0  0
  145.9827  134.3839  151.9162 C   0  0  2  0  0  0  0  0  0  0  0  0
  145.0057  135.5721  151.9857 C   0  0  0  0  0  0  0  0  0  0  0  0
  145.2673  133.1908  151.4811 N   0  0  0  0  0  0  0  0  0  0  0  0
  145.7632  131.9209  151.2628 C   0  0  0  0  0  0  0  0  0  0  0  0
  144.7188  131.1364  150.8655 C   0  0  0  0  0  0  0  0  0  0  0  0
  143.6088  132.0260  150.8691 C   0  0  0  0  0  0  0  0  0  0  0  0
  143.9392  133.2527  151.2384 N   0  0  0  0  0  0  0  0  0  0  0  0
  147.4946  132.1160  152.8785 H   0  0  0  0  0  0  0  0  0  0  0  0
  148.4174  133.0068  154.0713 H   0  0  0  0  0  0  0  0  0  0  0  0
  148.5939  133.3902  152.3601 H   0  0  0  0  0  0  0  0  0  0  0  0
  146.0355  133.7670  153.9944 H   0  0  0  0  0  0  0  0  0  0  0  0
  148.0735  135.6638  153.0593 H   0  0  0  0  0  0  0  0  0  0  0  0
  147.1491  134.9519  155.7437 H   0  0  0  0  0  0  0  0  0  0  0  0
  148.6684  134.4431  155.0177 H   0  0  0  0  0  0  0  0  0  0  0  0
  149.5404  136.6844  154.9787 H   0  0  0  0  0  0  0  0  0  0  0  0
  147.9616  137.4040  155.1150 H   0  0  0  0  0  0  0  0  0  0  0  0
  148.9852  138.0946  159.5569 H   0  0  0  0  0  0  0  0  0  0  0  0
  147.6181  136.9917  159.7269 H   0  0  0  0  0  0  0  0  0  0  0  0
  146.7226  134.6156  151.1473 H   0  0  0  0  0  0  0  0  0  0  0  0
  145.5310  136.5092  152.1701 H   0  0  0  0  0  0  0  0  0  0  0  0
  144.2714  135.4403  152.7809 H   0  0  0  0  0  0  0  0  0  0  0  0
  144.4631  135.6883  151.0470 H   0  0  0  0  0  0  0  0  0  0  0  0
  146.8074  131.6851  151.4064 H   0  0  0  0  0  0  0  0  0  0  0  0
  144.7443  130.0874  150.6107 H   0  0  0  0  0  0  0  0  0  0  0  0
  142.5794  131.8184  150.6167 H   0  0  0  0  0  0  0  0  0  0  0  0
  1  2  1  0  0  0  0
  1 20  1  0  0  0  0
  1 21  1  0  0  0  0
  1 22  1  0  0  0  0
  2  3  1  0  0  0  0
  2 13  1  0  0  0  0
  2 23  1  0  0  0  0
  3  4  1  0  0  0  0
  3 24  1  0  0  0  0
  4  5  1  0  0  0  0
  4 25  1  0  0  0  0
  4 26  1  0  0  0  0
  5  6  1  0  0  0  0
  5 27  1  0  0  0  0
  5 28  1  0  0  0  0
  6 11  1  0  0  0  0
  6  7  1  0  0  0  0
  7  8  2  0  0  0  0
  7  9  1  0  0  0  0
  9 10  1  0  0  0  0
  9 29  1  0  0  0  0
  9 30  1  0  0  0  0
 10 11  1  0  0  0  0
 11 12  2  0  0  0  0
 13 14  1  0  0  0  0
 13 15  1  0  0  0  0
 13 31  1  0  0  0  0
 14 32  1  0  0  0  0
 14 33  1  0  0  0  0
 14 34  1  0  0  0  0
 15 19  1  0  0  0  0
 15 16  1  0  0  0  0
 16 17  2  0  0  0  0
 16 35  1  0  0  0  0
 17 18  1  0  0  0  0
 17 36  1  0  0  0  0
 18 19  2  0  0  0  0
 18 37  1  0  0  0  0
M  CHG  1  10  -1
M  END
> <s_m_source_file>
AV-unprocessed.smi

> <i_m_source_file_index>
3330

> <i_lp_mmshare_version>
43012

> <i_f3d_flags>
0

> <s_epik_input>
bjFbY0hdW2NIXVtjSF1uMVtDQEBIXShbQ0gzXSlbQ0BIXShbQ0gzXSlbTkhdW0NIMl1bQ0gyXU4yQyg9TylbQ0gyXVtOSF1DMj1P

> <s_epik_cmdline>
J2VwaWtfcHl0aG9uJywgJy1waCcsICc3LjAnLCAnLXRuJywgJzgnLCAnLW1hJywgJzIwMCcsICctbWV0YWxfYmluZGluZycsICctaW1hZScsICc8aW5maWxlLm1hZT4nLCAnLW9tYWUnLCAnPG91dGZpbGUubWFlPic=

> <r_lp_tautomer_probability>
1

> <r_epik_Ionization_Penalty>
8.77477

> <r_epik_Ionization_Penalty_Charging>
6.28461

> <r_epik_Ionization_Penalty_Neutral>
2.49016

> <r_epik_State_Penalty>
8.73376

> <r_epik_Charging_Adjusted_Penalty>
15.0184

> <i_epik_Tot_Q>
-1

> <i_epik_Tot_abs_Q>
1

> <r_epik_Metal_State_Penalty>
4.73175

> <b_epik_Metal_Only>
1

> <s_lp_Force_Field>
OPLS_2005

> <r_lp_Energy>
21.213

> <b_lp_Chiralities_Consistent>
1

> <s_lp_Variant>
AV-unprocessed.smi:3330-14

> <Gold.Version>
5.8.1

> <Gold.Id.Protein>
6NUR|6NUR_protein|mol2

> <Gold.PLP.Fitness>
39.8156

> <Gold.PLP.PLP>
-25.2815

> <Gold.PLP.part.hbond>
-2.5228

> <Gold.PLP.part.metal>
0.0000

> <Gold.PLP.part.buried>
-5.2035

> <Gold.PLP.part.nonpolar>
-18.3540

> <Gold.PLP.part.repulsive>
0.1674

> <Gold.PLP.ligand.clash>
0.0000

> <Gold.PLP.ligand.torsion>
0.2023

> <Gold.PLP.Chemscore.Hbond>
3.0000

> <Gold.PLP.Chemscore.CHOScore>
1.9486

> <Gold.PLP.Chemscore.Metal>
0.0000

> <Gold.Chemscore.Hbonds>
donor molecule, donor type, donor heavy atom, donor atom, acceptor molecule, acceptor atom, score
      L1  H     3    24       P1  7948  1.00
      P1  H  6896  6907       L1    10  1.70
      L1  C    16    35       P1 10747  0.87
      L1  C    18    37       P1 10952  1.00

> <Gold.PLP.Chemscore.Internal.Correction>
0.0931

> <Gold.Rescore>
     Score         DG    S(hbond)    S(metal)    S(lipo)     H(rot)  DE(clash)    DE(int)     intcor
     11.71     -12.05       1.96        0.00      55.18       2.52       0.00       0.34       ----

> <Gold.Chemscore.Fitness>
11.7089

> <Gold.Chemscore.DG>
-12.0523

> <Gold.Chemscore.ZeroCoef>
-5.4800

> <Gold.Chemscore.Hbond>
1.9633

> <Gold.Chemscore.Metal>
0.0000

> <Gold.Chemscore.Lipo>
55.1779

> <Gold.Chemscore.Internal_Hbond>
0.0000

> <Gold.Chemscore.DEClash>
0.0009

> <Gold.Chemscore.DEInternal>
0.3426

> <Gold.Chemscore.Rot>
2.5160

> <Gold.Chemscore.Internal.Correction>
   9.000000E+99

> <Gold.Chemscore.Hbonds>
donor molecule, donor type, donor heavy atom, donor atom, acceptor molecule, acceptor atom, score
      L1  H     3    24       P1  7948  0.97
      P1  H  6896  6907       L1    10  0.14

> <Gold.Chemscore.Hbond.Weighted>
-6.5576

> <Gold.Chemscore.Metal.Weighted>
-0.0000

> <Gold.Chemscore.Lipo.Weighted>
-6.4558

> <Gold.Chemscore.Internal_Hbond.Weighted>
0.0000

> <Gold.Chemscore.DEClash.Weighted>
0.0009

> <Gold.Chemscore.DEInternal.Weighted>
0.3426

> <Gold.Chemscore.Rot.Weighted>
6.4410

> <Gold.Chemscore.Internal.Correction.Weighted>
   9.000000E+99

> <Gold.Protein.RotatedTorsions>
[ 6907 6896 6895 6894 ] final  -59.24 input  -60.11 | X-H torsion
[ 7974 7965 7964 7962 ] final   36.34 input  175.53 | X-H torsion
[ 8008 7997 7996 7995 ] final  -72.39 input   59.86 | X-H torsion
[ 10167 10162 10161 10158 ] final   85.54 input  -65.29 | X-H torsion
[ 10718 10713 10712 10709 ] final   48.26 input   66.30 | X-H torsion
[ 10763 10752 10751 10750 ] final -176.72 input  -60.55 | X-H torsion
[ 11005 11000 10999 10996 ] final -101.02 input  -57.11 | X-H torsion

> <Gold.Protein.ActiveResidues>
 VAL166  LYS551  ARG553  GLY616  TRP617  ASP618  TYR619  PRO620  LYS621  CYS622 
 ASP623  PHE694  ASN695  SER759  ASP760  ASP761  ALA762  ILE779  LEU786  VAL792 
 PHE793  MET794  SER795  GLU796  ALA797  LYS798  CYS799  TRP800  GLU811  SER814 

> <Gold.Protein.RotatedAtoms>
  150.7945  134.6994  159.6541 H   0  0  0  0  0  0  0  0  0  0  0  0  # atno 6907 bound_to 6896
  152.4056  134.6210  160.0060 H   0  0  0  0  0  0  0  0  0  0  0  0  # atno 6908 bound_to 6896
  151.6468  133.3286  159.3179 H   0  0  0  0  0  0  0  0  0  0  0  0  # atno 6909 bound_to 6896
  146.1218  139.6030  142.9284 H   0  0  0  0  0  0  0  0  0  0  0  0  # atno 7974 bound_to 7965
  154.5163  140.0798  156.8087 H   0  0  0  0  0  0  0  0  0  0  0  0  # atno 8008 bound_to 7997
  155.3674  140.3421  155.4224 H   0  0  0  0  0  0  0  0  0  0  0  0  # atno 8009 bound_to 7997
  156.1631  140.1595  156.8566 H   0  0  0  0  0  0  0  0  0  0  0  0  # atno 8010 bound_to 7997
  139.8967  144.6354  150.8681 H   0  0  0  0  0  0  0  0  0  0  0  0  # atno 10167 bound_to 10162
  157.4669  130.8231  149.7946 H   0  0  0  0  0  0  0  0  0  0  0  0  # atno 10718 bound_to 10713
  154.5689  135.2826  155.0846 H   0  0  0  0  0  0  0  0  0  0  0  0  # atno 10763 bound_to 10752
  154.2226  135.6388  153.5153 H   0  0  0  0  0  0  0  0  0  0  0  0  # atno 10764 bound_to 10752
  153.0051  135.5518  154.6307 H   0  0  0  0  0  0  0  0  0  0  0  0  # atno 10765 bound_to 10752
  141.1248  133.8445  157.1177 H   0  0  0  0  0  0  0  0  0  0  0  0  # atno 11005 bound_to 11000
  145.5449  141.0418  143.2310 LP  0  0  0  0  0  0  0  0  0  0  0  0  # atno 17320 bound_to 7965
  144.7605  139.6969  143.7236 LP  0  0  0  0  0  0  0  0  0  0  0  0  # atno 17321 bound_to 7965
  140.7715  143.3468  151.2094 LP  0  0  0  0  0  0  0  0  0  0  0  0  # atno 17342 bound_to 10162
  139.7062  143.9452  152.2927 LP  0  0  0  0  0  0  0  0  0  0  0  0  # atno 17343 bound_to 10162
  156.0054  130.3858  150.2449 LP  0  0  0  0  0  0  0  0  0  0  0  0  # atno 17370 bound_to 10713
  157.0629  131.0095  151.3216 LP  0  0  0  0  0  0  0  0  0  0  0  0  # atno 17371 bound_to 10713
  140.0236  134.9934  157.0641 LP  0  0  0  0  0  0  0  0  0  0  0  0  # atno 17394 bound_to 11000
  140.4400  134.1691  155.7173 LP  0  0  0  0  0  0  0  0  0  0  0  0  # atno 17395 bound_to 11000

$$$$
