AV-unprocessed.smi:1679|AV-procd|sdf|6733|dock10
  -GOLD-   22720 7483D 1   1.00000     0.00000
 Structure written by MMmdl.
 44 45  0  0  0  0  0  0  0  0  2 V2000
  154.6020  140.8054  160.9032 C   0  0  0  0  0  0  0  0  0  0  0  0
  153.6815  141.4712  159.8677 C   0  0  2  0  0  0  0  0  0  0  0  0
  152.8985  142.6379  160.5040 C   0  0  0  0  0  0  0  0  0  0  0  0
  151.9646  143.3186  159.4911 C   0  0  0  0  0  0  0  0  0  0  0  0
  151.0003  142.3036  158.8627 C   0  0  0  0  0  0  0  0  0  0  0  0
  151.7725  141.1450  158.2177 C   0  0  0  0  0  0  0  0  0  0  0  0
  152.7151  140.4520  159.2235 C   0  0  1  0  0  0  0  0  0  0  0  0
  153.4896  139.4917  158.5188 O   0  0  0  0  0  0  0  0  0  0  0  0
  152.7285  138.4958  157.8511 C   0  0  0  0  0  0  0  0  0  0  0  0
  152.3674  137.4030  158.8612 C   0  0  0  0  0  0  0  0  0  0  0  0
  151.2910  136.5843  158.3240 N   0  0  0  0  0  0  0  0  0  0  0  0
  151.3267  135.9052  157.1678 C   0  0  0  0  0  0  0  0  0  0  0  0
  152.3048  135.9132  156.4211 O   0  0  0  0  0  0  0  0  0  0  0  0
  150.0894  135.0765  156.7799 C   0  0  0  0  0  0  0  0  0  0  0  0
  150.3405  133.6327  156.6100 N   0  0  0  0  0  0  0  0  0  0  0  0
  149.9475  133.0439  155.3950 C   0  0  0  0  0  0  0  0  0  0  0  0
  150.1450  131.7361  155.1416 C   0  0  0  0  0  0  0  0  0  0  0  0
  150.7832  130.9228  156.1690 C   0  0  0  0  0  0  0  0  0  0  0  0
  150.9764  129.7280  155.9534 O   0  0  0  0  0  0  0  0  0  0  0  0
  151.1449  131.5394  157.3321 N   0  5  0  0  0  0  0  0  0  0  0  0
  150.9475  132.8729  157.5717 C   0  0  0  0  0  0  0  0  0  0  0  0
  151.3021  133.4132  158.6194 O   0  0  0  0  0  0  0  0  0  0  0  0
  154.0275  140.3599  161.7158 H   0  0  0  0  0  0  0  0  0  0  0  0
  155.2899  141.5301  161.3396 H   0  0  0  0  0  0  0  0  0  0  0  0
  155.2033  140.0169  160.4499 H   0  0  0  0  0  0  0  0  0  0  0  0
  154.3124  141.8846  159.0791 H   0  0  0  0  0  0  0  0  0  0  0  0
  152.3115  142.2707  161.3470 H   0  0  0  0  0  0  0  0  0  0  0  0
  153.5924  143.3751  160.9097 H   0  0  0  0  0  0  0  0  0  0  0  0
  151.4009  144.1141  159.9790 H   0  0  0  0  0  0  0  0  0  0  0  0
  152.5565  143.7936  158.7074 H   0  0  0  0  0  0  0  0  0  0  0  0
  150.3239  141.9152  159.6250 H   0  0  0  0  0  0  0  0  0  0  0  0
  150.3778  142.7959  158.1148 H   0  0  0  0  0  0  0  0  0  0  0  0
  151.0677  140.4329  157.7888 H   0  0  0  0  0  0  0  0  0  0  0  0
  152.3629  141.5286  157.3857 H   0  0  0  0  0  0  0  0  0  0  0  0
  152.1342  139.9704  160.0129 H   0  0  0  0  0  0  0  0  0  0  0  0
  151.8293  138.9532  157.4371 H   0  0  0  0  0  0  0  0  0  0  0  0
  153.2757  138.0527  157.0176 H   0  0  0  0  0  0  0  0  0  0  0  0
  153.2346  136.7782  159.0789 H   0  0  0  0  0  0  0  0  0  0  0  0
  152.0487  137.8590  159.7996 H   0  0  0  0  0  0  0  0  0  0  0  0
  150.4421  136.5356  158.8699 H   0  0  0  0  0  0  0  0  0  0  0  0
  149.3116  135.2455  157.5262 H   0  0  0  0  0  0  0  0  0  0  0  0
  149.6840  135.4894  155.8551 H   0  0  0  0  0  0  0  0  0  0  0  0
  149.4878  133.7176  154.6867 H   0  0  0  0  0  0  0  0  0  0  0  0
  149.8411  131.3007  154.2010 H   0  0  0  0  0  0  0  0  0  0  0  0
  1  2  1  0  0  0  0
  1 23  1  0  0  0  0
  1 24  1  0  0  0  0
  1 25  1  0  0  0  0
  2  7  1  0  0  0  0
  2  3  1  0  0  0  0
  2 26  1  0  0  0  0
  3  4  1  0  0  0  0
  3 27  1  0  0  0  0
  3 28  1  0  0  0  0
  4  5  1  0  0  0  0
  4 29  1  0  0  0  0
  4 30  1  0  0  0  0
  5  6  1  0  0  0  0
  5 31  1  0  0  0  0
  5 32  1  0  0  0  0
  6  7  1  0  0  0  0
  6 33  1  0  0  0  0
  6 34  1  0  0  0  0
  7  8  1  0  0  0  0
  7 35  1  0  0  0  0
  8  9  1  0  0  0  0
  9 10  1  0  0  0  0
  9 36  1  0  0  0  0
  9 37  1  0  0  0  0
 10 11  1  0  0  0  0
 10 38  1  0  0  0  0
 10 39  1  0  0  0  0
 11 12  1  0  0  0  0
 11 40  1  0  0  0  0
 12 13  2  0  0  0  0
 12 14  1  0  0  0  0
 14 15  1  0  0  0  0
 14 41  1  0  0  0  0
 14 42  1  0  0  0  0
 15 21  1  0  0  0  0
 15 16  1  0  0  0  0
 16 17  2  0  0  0  0
 16 43  1  0  0  0  0
 17 18  1  0  0  0  0
 17 44  1  0  0  0  0
 18 19  2  0  0  0  0
 18 20  1  0  0  0  0
 20 21  1  0  0  0  0
 21 22  2  0  0  0  0
M  CHG  1  20  -1
M  END
> <s_m_source_file>
AV-unprocessed.smi

> <i_m_source_file_index>
1679

> <i_lp_mmshare_version>
43012

> <i_f3d_flags>
0

> <s_epik_input>
W0NIM11bQ0BASF0xW0NIMl1bQ0gyXVtDSDJdW0NIMl1bQ0BIXTFPW0NIMl1bQ0gyXVtOSF1DKD1PKVtDSDJdbjJbY0hdW2NIXWMoPU8pW25IXWMyPU8=

> <s_epik_cmdline>
J2VwaWtfcHl0aG9uJywgJy1waCcsICc3LjAnLCAnLXRuJywgJzgnLCAnLW1hJywgJzIwMCcsICctbWV0YWxfYmluZGluZycsICctaW1hZScsICc8aW5maWxlLm1hZT4nLCAnLW9tYWUnLCAnPG91dGZpbGUubWFlPic=

> <r_lp_tautomer_probability>
0.999537

> <r_epik_Ionization_Penalty>
3.07454

> <r_epik_Ionization_Penalty_Charging>
2.80088e-08

> <r_epik_Ionization_Penalty_Neutral>
3.07454

> <r_epik_State_Penalty>
3.07357

> <r_epik_Charging_Adjusted_Penalty>
3.07357

> <i_epik_Tot_Q>
-1

> <i_epik_Tot_abs_Q>
1

> <r_epik_Metal_State_Penalty>
0.45948

> <b_epik_Metal_Only>
1

> <s_lp_Force_Field>
OPLS_2005

> <r_lp_Energy>
18.3585

> <b_lp_Chiralities_Consistent>
1

> <s_lp_Variant>
AV-unprocessed.smi:1679-5

> <Gold.Version>
5.8.1

> <Gold.Id.Protein>
6NUR|6NUR_protein|mol2

> <Gold.PLP.Fitness>
50.1047

> <Gold.PLP.PLP>
-38.8976

> <Gold.PLP.part.hbond>
-3.0000

> <Gold.PLP.part.metal>
0.0000

> <Gold.PLP.part.buried>
-5.6498

> <Gold.PLP.part.nonpolar>
-30.6962

> <Gold.PLP.part.repulsive>
0.1988

> <Gold.PLP.ligand.clash>
0.0000

> <Gold.PLP.ligand.torsion>
0.2291

> <Gold.PLP.Chemscore.Hbond>
2.8640

> <Gold.PLP.Chemscore.CHOScore>
0.9989

> <Gold.PLP.Chemscore.Metal>
0.0000

> <Gold.Chemscore.Hbonds>
donor molecule, donor type, donor heavy atom, donor atom, acceptor molecule, acceptor atom, score
      P1  H  7997  8008       L1     8  0.95
      P1  H 10752 10764       L1    13  0.86

> <Gold.PLP.Chemscore.Internal.Correction>
0.0767

> <Gold.Rescore>
     Score         DG    S(hbond)    S(metal)    S(lipo)     H(rot)  DE(clash)    DE(int)     intcor
     17.71     -19.13       2.89        0.00      87.86       2.45       0.12       1.30       ----

> <Gold.Chemscore.Fitness>
17.7104

> <Gold.Chemscore.DG>
-19.1272

> <Gold.Chemscore.ZeroCoef>
-5.4800

> <Gold.Chemscore.Hbond>
2.8853

> <Gold.Chemscore.Metal>
0.0000

> <Gold.Chemscore.Lipo>
87.8596

> <Gold.Chemscore.Internal_Hbond>
0.0000

> <Gold.Chemscore.DEClash>
0.1214

> <Gold.Chemscore.DEInternal>
1.2953

> <Gold.Chemscore.Rot>
2.4490

> <Gold.Chemscore.Internal.Correction>
   9.000000E+99

> <Gold.Chemscore.Hbonds>
donor molecule, donor type, donor heavy atom, donor atom, acceptor molecule, acceptor atom, score
      P1  H  7997  8008       L1     8  0.21
      P1  H 10752 10764       L1    13  0.85

> <Gold.Chemscore.Hbond.Weighted>
-9.6370

> <Gold.Chemscore.Metal.Weighted>
-0.0000

> <Gold.Chemscore.Lipo.Weighted>
-10.2796

> <Gold.Chemscore.Internal_Hbond.Weighted>
0.0000

> <Gold.Chemscore.DEClash.Weighted>
0.1214

> <Gold.Chemscore.DEInternal.Weighted>
1.2953

> <Gold.Chemscore.Rot.Weighted>
6.2694

> <Gold.Chemscore.Internal.Correction.Weighted>
   9.000000E+99

> <Gold.Protein.RotatedTorsions>
[ 6907 6896 6895 6894 ] final -124.01 input  -60.11 | X-H torsion
[ 7974 7965 7964 7962 ] final -156.30 input  175.53 | X-H torsion
[ 8008 7997 7996 7995 ] final  -86.49 input   59.86 | X-H torsion
[ 10167 10162 10161 10158 ] final  -94.21 input  -65.29 | X-H torsion
[ 10718 10713 10712 10709 ] final  164.35 input   66.30 | X-H torsion
[ 10763 10752 10751 10750 ] final  -45.90 input  -60.55 | X-H torsion
[ 11005 11000 10999 10996 ] final   26.70 input  -57.11 | X-H torsion

> <Gold.Protein.ActiveResidues>
 VAL166  LYS551  ARG553  GLY616  TRP617  ASP618  TYR619  PRO620  LYS621  CYS622 
 ASP623  PHE694  ASN695  SER759  ASP760  ASP761  ALA762  ILE779  LEU786  VAL792 
 PHE793  MET794  SER795  GLU796  ALA797  LYS798  CYS799  TRP800  GLU811  SER814 

> <Gold.Protein.RotatedAtoms>
  150.8726  133.7484  159.2956 H   0  0  0  0  0  0  0  0  0  0  0  0  # atno 6907 bound_to 6896
  151.5091  135.1063  159.9859 H   0  0  0  0  0  0  0  0  0  0  0  0  # atno 6908 bound_to 6896
  152.4705  133.7975  159.6990 H   0  0  0  0  0  0  0  0  0  0  0  0  # atno 6909 bound_to 6896
  144.7599  140.4128  143.5984 H   0  0  0  0  0  0  0  0  0  0  0  0  # atno 7974 bound_to 7965
  154.6524  140.0578  156.9971 H   0  0  0  0  0  0  0  0  0  0  0  0  # atno 8008 bound_to 7997
  155.1351  140.3260  155.4446 H   0  0  0  0  0  0  0  0  0  0  0  0  # atno 8009 bound_to 7997
  156.2582  140.1974  156.6469 H   0  0  0  0  0  0  0  0  0  0  0  0  # atno 8010 bound_to 7997
  140.3168  143.3073  152.0090 H   0  0  0  0  0  0  0  0  0  0  0  0  # atno 10167 bound_to 10162
  157.0955  131.0429  151.2519 H   0  0  0  0  0  0  0  0  0  0  0  0  # atno 10718 bound_to 10713
  154.0362  135.6650  153.4785 H   0  0  0  0  0  0  0  0  0  0  0  0  # atno 10763 bound_to 10752
  153.0520  135.5079  154.7886 H   0  0  0  0  0  0  0  0  0  0  0  0  # atno 10764 bound_to 10752
  154.6847  135.3051  154.9529 H   0  0  0  0  0  0  0  0  0  0  0  0  # atno 10765 bound_to 10752
  140.3342  134.2404  155.7698 H   0  0  0  0  0  0  0  0  0  0  0  0  # atno 11005 bound_to 11000
  145.6653  139.1589  143.2785 LP  0  0  0  0  0  0  0  0  0  0  0  0  # atno 17320 bound_to 7965
  146.1651  140.6730  142.9259 LP  0  0  0  0  0  0  0  0  0  0  0  0  # atno 17321 bound_to 7965
  139.4882  144.6342  151.7008 LP  0  0  0  0  0  0  0  0  0  0  0  0  # atno 17342 bound_to 10162
  140.5520  144.0410  150.6131 LP  0  0  0  0  0  0  0  0  0  0  0  0  # atno 17343 bound_to 10162
  157.4685  130.7694  149.7301 LP  0  0  0  0  0  0  0  0  0  0  0  0  # atno 17370 bound_to 10713
  155.9887  130.3957  150.3107 LP  0  0  0  0  0  0  0  0  0  0  0  0  # atno 17371 bound_to 10713
  141.2055  133.7857  157.0227 LP  0  0  0  0  0  0  0  0  0  0  0  0  # atno 17394 bound_to 11000
  140.0835  134.9634  157.1662 LP  0  0  0  0  0  0  0  0  0  0  0  0  # atno 17395 bound_to 11000

$$$$
