#       Name:                AV-unprocessed.smi:1878
#       Creating user name   scv26
#       Creation time:       Fri Mar 27 09:35:19 2020


#       File generated by GOLD software.
#

@<TRIPOS>MOLECULE
AV-unprocessed.smi:1878
    38    39     1
SMALL
NO_CHARGES


@<TRIPOS>ATOM
      1 ****         3.0160  -0.8388   0.8217 O.2            1 S1                 0.0000
      2 ****         2.6367  -1.7837   0.1262 C.2            1 S1                 0.0000
      3 ****         3.4446  -2.8330  -0.0701 N.am           1 S1                 0.0000
      4 ****         4.7873  -2.9707   0.4810 C.3            1 S1                 0.0000
      5 ****         5.4006  -4.3304   0.1179 C.3            1 S1                 0.0000
      6 ****         6.6270  -4.4118   0.6326 F              1 S1                 0.0000
      7 ****         4.6612  -5.3215   0.6164 F              1 S1                 0.0000
      8 ****         5.4826  -4.4655  -1.2059 F              1 S1                 0.0000
      9 ****         1.4396  -1.8923  -0.4953 N.pl3          1 S1                -1.0000
     10 ****         0.5268  -0.9158  -0.3745 C.ar           1 S1                 0.0000
     11 ****         0.4797   0.1702  -1.2746 C.ar           1 S1                 0.0000
     12 ****        -0.4964   1.1718  -1.1150 C.ar           1 S1                 0.0000
     13 ****        -1.4216   1.0626  -0.0516 C.ar           1 S1                 0.0000
     14 ****        -2.4138   2.0427   0.1512 N.pl3          1 S1                 0.0000
     15 ****        -3.4780   1.8670   1.1270 C.3            1 S1                 0.0000
     16 ****        -4.3863   3.0795   0.9291 C.3            1 S1                 0.0000
     17 ****        -4.2585   3.3677  -0.5668 C.3            1 S1                 0.0000
     18 ****        -2.8208   2.9571  -0.9064 C.3            1 S1                 0.0000
     19 ****        -1.3843   0.0258   0.8173 N.ar           1 S1                 0.0000
     20 ****        -0.4420  -0.9269   0.6533 C.ar           1 S1                 0.0000
     21 ****         3.1025  -3.5892  -0.6448 H              1 S1                 0.0000
     22 ****         5.4153  -2.1647   0.0985 H              1 S1                 0.0000
     23 ****         4.7479  -2.8605   1.5659 H              1 S1                 0.0000
     24 ****         1.1929   0.2407  -2.0831 H              1 S1                 0.0000
     25 ****        -0.5148   2.0052  -1.8008 H              1 S1                 0.0000
     26 ****        -4.0172   0.9426   0.9152 H              1 S1                 0.0000
     27 ****        -3.0886   1.8161   2.1444 H              1 S1                 0.0000
     28 ****        -5.4137   2.8962   1.2441 H              1 S1                 0.0000
     29 ****        -4.0027   3.9255   1.5009 H              1 S1                 0.0000
     30 ****        -4.9576   2.7375  -1.1182 H              1 S1                 0.0000
     31 ****        -4.4727   4.4063  -0.8203 H              1 S1                 0.0000
     32 ****        -2.1581   3.8228  -0.8961 H              1 S1                 0.0000
     33 ****        -2.7704   2.4966  -1.8935 H              1 S1                 0.0000
     34 ****        -0.4624  -1.7306   1.3751 H              1 S1                 0.0000
     35 ****         3.9252  -0.8574   1.2376 LP             1 S1                 0.0000
     36 ****         2.4144  -0.0538   0.9698 LP             1 S1                 0.0000
     37 ****         1.2346  -2.7016  -1.0457 LP             1 S1                 0.0000
     38 ****        -2.0430  -0.0335   1.5674 LP             1 S1                 0.0000
@<TRIPOS>BOND
    1    1    2 2     
    2    2    3 am    
    3    2    9 1     
    4    3    4 1     
    5    3   21 1     
    6    4    5 1     
    7    4   22 1     
    8    4   23 1     
    9    5    6 1     
   10    5    7 1     
   11    5    8 1     
   12    9   10 1     
   13   10   20 ar    
   14   10   11 ar    
   15   11   12 ar    
   16   11   24 1     
   17   12   13 ar    
   18   12   25 1     
   19   13   14 1     
   20   13   19 ar    
   21   14   18 1     
   22   14   15 1     
   23   15   16 1     
   24   15   26 1     
   25   15   27 1     
   26   16   17 1     
   27   16   28 1     
   28   16   29 1     
   29   17   18 1     
   30   17   30 1     
   31   17   31 1     
   32   18   32 1     
   33   18   33 1     
   34   19   20 ar    
   35   20   34 1     
   36    1   35 1     
   37    1   36 1     
   38    9   37 1     
   39   19   38 1     
@<TRIPOS>SUBSTRUCTURE
      1 S1             1
@<TRIPOS>SET
LONE_PAIRS      STATIC     ATOMS    <user>   **** ""
4 35 36 37 38
DONOR_HYDROGENS      STATIC     ATOMS    <user>   **** ""
1 21
ATOM$BLUE        STATIC     ATOMS    COLORGROUP SYSTEM
4 35 36 37 38
ATOM$RED        STATIC     ATOMS    COLORGROUP SYSTEM
1 21
