AV-unprocessed.smi:112|AV-procd|sdf|1088|dock10
  -GOLD-   2262018193D 1   1.00000     0.00000
 Structure written by MMmdl.
 54 57  0  0  0  0  0  0  0  0  3 V2000
  148.1475  138.6023  153.6028 C   0  0  0  0  0  0  0  0  0  0  0  0
  148.1502  139.6756  154.6803 C   0  0  0  0  0  0  0  0  0  0  0  0
  147.0310  140.0166  155.3597 C   0  0  0  0  0  0  0  0  0  0  0  0
  146.9940  140.9876  156.3481 N   0  0  0  0  0  0  0  0  0  0  0  0
  145.7401  141.3018  157.1552 C   0  0  1  0  0  0  0  0  0  0  0  0
  145.0609  142.6346  156.8075 C   0  0  0  0  0  0  0  0  0  0  0  0
  143.8690  142.2123  155.9482 C   0  0  1  0  0  0  0  0  0  0  0  0
  143.8825  142.8858  154.7055 O   0  0  0  0  0  0  0  0  0  0  0  0
  144.0315  140.6914  155.7723 C   0  0  2  0  0  0  0  0  0  0  0  0
  142.7152  139.8991  155.7586 C   0  0  0  0  0  0  0  0  0  0  0  0
  142.0129  140.1237  154.5545 O   0  0  0  0  0  0  0  0  0  0  0  0
  144.7997  140.3073  156.9054 O   0  0  0  0  0  0  0  0  0  0  0  0
  148.2006  141.6034  156.7465 C   0  0  0  0  0  0  0  0  0  0  0  0
  148.2182  142.4188  157.6718 O   0  0  0  0  0  0  0  0  0  0  0  0
  149.3880  141.2711  156.0561 N   0  0  0  0  0  0  0  0  0  0  0  0
  150.6492  141.9438  156.4439 C   0  0  0  0  0  0  0  0  0  0  0  0
  151.5520  141.0943  157.3654 C   0  0  0  0  0  0  0  0  0  0  0  0
  151.7584  139.9156  157.0739 O   0  0  0  0  0  0  0  0  0  0  0  0
  152.0820  141.6940  158.4606 N   0  0  0  0  0  0  0  0  0  0  0  0
  151.8462  143.1063  158.8079 C   0  0  0  0  0  0  0  0  0  0  0  0
  152.6272  143.3688  160.1140 C   0  0  0  0  0  0  0  0  0  0  0  0
  153.2592  142.0397  160.4042 C   0  0  0  0  0  0  0  0  0  0  0  0
  154.0870  141.7249  161.4952 C   0  0  0  0  0  0  0  0  0  0  0  0
  154.5970  140.4077  161.6097 C   0  0  0  0  0  0  0  0  0  0  0  0
  155.4707  140.0409  162.7420 N   0  3  0  0  0  0  0  0  0  0  0  0
  155.7535  138.8575  162.8988 O   0  0  0  0  0  0  0  0  0  0  0  0
  155.8762  140.9360  163.4767 O   0  5  0  0  0  0  0  0  0  0  0  0
  154.2561  139.4471  160.6206 C   0  0  0  0  0  0  0  0  0  0  0  0
  153.4227  139.7810  159.5306 C   0  0  0  0  0  0  0  0  0  0  0  0
  152.9263  141.0994  159.4360 C   0  0  0  0  0  0  0  0  0  0  0  0
  149.4190  140.3323  154.9970 C   0  0  0  0  0  0  0  0  0  0  0  0
  150.4689  140.0979  154.3951 O   0  0  0  0  0  0  0  0  0  0  0  0
  147.1499  138.1948  153.4362 H   0  0  0  0  0  0  0  0  0  0  0  0
  148.8013  137.7770  153.8872 H   0  0  0  0  0  0  0  0  0  0  0  0
  148.5021  139.0103  152.6556 H   0  0  0  0  0  0  0  0  0  0  0  0
  146.1315  139.4786  155.1104 H   0  0  0  0  0  0  0  0  0  0  0  0
  146.0555  141.2915  158.1996 H   0  0  0  0  0  0  0  0  0  0  0  0
  144.6996  143.0847  157.7330 H   0  0  0  0  0  0  0  0  0  0  0  0
  145.7475  143.3483  156.3516 H   0  0  0  0  0  0  0  0  0  0  0  0
  142.9420  142.4435  156.4746 H   0  0  0  0  0  0  0  0  0  0  0  0
  143.6036  142.2838  154.0328 H   0  0  0  0  0  0  0  0  0  0  0  0
  144.6132  140.4621  154.8774 H   0  0  0  0  0  0  0  0  0  0  0  0
  142.9229  138.8317  155.8385 H   0  0  0  0  0  0  0  0  0  0  0  0
  142.0849  140.1683  156.6066 H   0  0  0  0  0  0  0  0  0  0  0  0
  142.6216  140.4413  153.9053 H   0  0  0  0  0  0  0  0  0  0  0  0
  151.2196  142.2281  155.5586 H   0  0  0  0  0  0  0  0  0  0  0  0
  150.4318  142.8930  156.9350 H   0  0  0  0  0  0  0  0  0  0  0  0
  152.2030  143.7642  158.0144 H   0  0  0  0  0  0  0  0  0  0  0  0
  150.7831  143.2967  158.9596 H   0  0  0  0  0  0  0  0  0  0  0  0
  153.3916  144.1357  159.9838 H   0  0  0  0  0  0  0  0  0  0  0  0
  151.9666  143.6629  160.9302 H   0  0  0  0  0  0  0  0  0  0  0  0
  154.3214  142.4847  162.2264 H   0  0  0  0  0  0  0  0  0  0  0  0
  154.6330  138.4372  160.6882 H   0  0  0  0  0  0  0  0  0  0  0  0
  153.1885  139.0214  158.8018 H   0  0  0  0  0  0  0  0  0  0  0  0
  1  2  1  0  0  0  0
  1 33  1  0  0  0  0
  1 34  1  0  0  0  0
  1 35  1  0  0  0  0
  2 31  1  0  0  0  0
  2  3  2  0  0  0  0
  3  4  1  0  0  0  0
  3 36  1  0  0  0  0
  4  5  1  0  0  0  0
  4 13  1  0  0  0  0
  5 12  1  0  0  0  0
  5  6  1  0  0  0  0
  5 37  1  0  0  0  0
  6  7  1  0  0  0  0
  6 38  1  0  0  0  0
  6 39  1  0  0  0  0
  7  8  1  0  0  0  0
  7  9  1  0  0  0  0
  7 40  1  0  0  0  0
  8 41  1  0  0  0  0
  9 10  1  0  0  0  0
  9 12  1  0  0  0  0
  9 42  1  0  0  0  0
 10 11  1  0  0  0  0
 10 43  1  0  0  0  0
 10 44  1  0  0  0  0
 11 45  1  0  0  0  0
 13 14  2  0  0  0  0
 13 15  1  0  0  0  0
 15 16  1  0  0  0  0
 15 31  1  0  0  0  0
 16 17  1  0  0  0  0
 16 46  1  0  0  0  0
 16 47  1  0  0  0  0
 17 18  2  0  0  0  0
 17 19  1  0  0  0  0
 19 30  1  0  0  0  0
 19 20  1  0  0  0  0
 20 21  1  0  0  0  0
 20 48  1  0  0  0  0
 20 49  1  0  0  0  0
 21 22  1  0  0  0  0
 21 50  1  0  0  0  0
 21 51  1  0  0  0  0
 22 30  2  0  0  0  0
 22 23  1  0  0  0  0
 23 24  2  0  0  0  0
 23 52  1  0  0  0  0
 24 25  1  0  0  0  0
 24 28  1  0  0  0  0
 25 26  2  0  0  0  0
 25 27  1  0  0  0  0
 28 29  2  0  0  0  0
 28 53  1  0  0  0  0
 29 30  1  0  0  0  0
 29 54  1  0  0  0  0
 31 32  2  0  0  0  0
M  CHG  1  25   1
M  CHG  1  27  -1
M  END
> <s_m_source_file>
AV-unprocessed.smi

> <i_m_source_file_index>
112

> <i_lp_mmshare_version>
43012

> <i_f3d_flags>
0

> <s_epik_input>
W09IXVtDSDJdW0NAQEhdKE8xKVtDQEhdKFtPSF0pW0NIMl1bQ0BIXTFuKFtjSF1jMltDSDNdKWMoPU8pbihjMj1PKVtDSDJdQyg9TylOKFtDSDJdW0NIMl0zKWMoYzM0KVtjSF1bY0hdYyhbY0hdNClbTitdKD1PKVtPLV0=

> <s_epik_cmdline>
J2VwaWtfcHl0aG9uJywgJy1waCcsICc3LjAnLCAnLXRuJywgJzgnLCAnLW1hJywgJzIwMCcsICctbWV0YWxfYmluZGluZycsICctaW1hZScsICc8aW5maWxlLm1hZT4nLCAnLW9tYWUnLCAnPG91dGZpbGUubWFlPic=

> <r_lp_tautomer_probability>
1

> <r_epik_Ionization_Penalty>
2.5696e-07

> <r_epik_Ionization_Penalty_Charging>
1.04886e-08

> <r_epik_Ionization_Penalty_Neutral>
2.46472e-07

> <r_epik_State_Penalty>
-0

> <r_epik_Charging_Adjusted_Penalty>
1.04886e-08

> <i_epik_Tot_Q>
0

> <i_epik_Tot_abs_Q>
2

> <r_epik_Metal_State_Penalty>
-0

> <b_epik_Metal_Only>
0

> <s_epik_Chemistry_Notes>
This compound contains an acetal/aminal-like group ( X-CH(R)-Y where X, Y are N, S, or O) that may be acid/base labile, releasing an aldehyde.

> <s_lp_Force_Field>
OPLS_2005

> <r_lp_Energy>
55.094

> <b_lp_Chiralities_Consistent>
1

> <s_lp_Variant>
AV-unprocessed.smi:112-6

> <Gold.Version>
5.8.1

> <Gold.Id.Protein>
6NUR|6NUR_protein|mol2

> <Gold.PLP.Fitness>
51.8023

> <Gold.PLP.PLP>
-45.7654

> <Gold.PLP.part.hbond>
-4.5360

> <Gold.PLP.part.metal>
0.0000

> <Gold.PLP.part.buried>
-5.1170

> <Gold.PLP.part.nonpolar>
-37.1971

> <Gold.PLP.part.repulsive>
1.1338

> <Gold.PLP.ligand.clash>
0.0000

> <Gold.PLP.ligand.torsion>
0.9467

> <Gold.PLP.Chemscore.Hbond>
2.6165

> <Gold.PLP.Chemscore.CHOScore>
0.0000

> <Gold.PLP.Chemscore.Metal>
0.0000

> <Gold.Chemscore.Hbonds>
donor molecule, donor type, donor heavy atom, donor atom, acceptor molecule, acceptor atom, score
      L1  H     8    41       P1 10174  0.19
      L1  H    11    45       P1 10175  1.00
      P1  H  7989  7998       L1    32  1.00

> <Gold.PLP.Chemscore.Internal.Correction>
0.0808

> <Gold.Rescore>
     Score         DG    S(hbond)    S(metal)    S(lipo)     H(rot)  DE(clash)    DE(int)     intcor
     12.20     -15.25       1.98        0.00      99.05       3.29       0.05       3.00       ----

> <Gold.Chemscore.Fitness>
12.1981

> <Gold.Chemscore.DG>
-15.2527

> <Gold.Chemscore.ZeroCoef>
-5.4800

> <Gold.Chemscore.Hbond>
1.9791

> <Gold.Chemscore.Metal>
0.0000

> <Gold.Chemscore.Lipo>
99.0522

> <Gold.Chemscore.Internal_Hbond>
0.0000

> <Gold.Chemscore.DEClash>
0.0497

> <Gold.Chemscore.DEInternal>
3.0048

> <Gold.Chemscore.Rot>
3.2916

> <Gold.Chemscore.Internal.Correction>
   9.000000E+99

> <Gold.Chemscore.Hbonds>
donor molecule, donor type, donor heavy atom, donor atom, acceptor molecule, acceptor atom, score
      L1  H    11    45       P1 10175  0.82
      P1  H  7989  7998       L1    32  0.99

> <Gold.Chemscore.Hbond.Weighted>
-6.6101

> <Gold.Chemscore.Metal.Weighted>
-0.0000

> <Gold.Chemscore.Lipo.Weighted>
-11.5891

> <Gold.Chemscore.Internal_Hbond.Weighted>
0.0000

> <Gold.Chemscore.DEClash.Weighted>
0.0497

> <Gold.Chemscore.DEInternal.Weighted>
3.0048

> <Gold.Chemscore.Rot.Weighted>
8.4265

> <Gold.Chemscore.Internal.Correction.Weighted>
   9.000000E+99

> <Gold.Protein.RotatedTorsions>
[ 6907 6896 6895 6894 ] final  -59.26 input  -60.11 | X-H torsion
[ 7974 7965 7964 7962 ] final  -94.36 input  175.53 | X-H torsion
[ 8008 7997 7996 7995 ] final  -79.88 input   59.86 | X-H torsion
[ 10167 10162 10161 10158 ] final  135.27 input  -65.29 | X-H torsion
[ 10718 10713 10712 10709 ] final -131.93 input   66.30 | X-H torsion
[ 10763 10752 10751 10750 ] final  -46.17 input  -60.55 | X-H torsion
[ 11005 11000 10999 10996 ] final  -37.82 input  -57.11 | X-H torsion

> <Gold.Protein.ActiveResidues>
 VAL166  LYS551  ARG553  GLY616  TRP617  ASP618  TYR619  PRO620  LYS621  CYS622 
 ASP623  PHE694  ASN695  SER759  ASP760  ASP761  ALA762  ILE779  LEU786  VAL792 
 PHE793  MET794  SER795  GLU796  ALA797  LYS798  CYS799  TRP800  GLU811  SER814 

> <Gold.Protein.RotatedAtoms>
  150.7944  134.6992  159.6540 H   0  0  0  0  0  0  0  0  0  0  0  0  # atno 6907 bound_to 6896
  152.4054  134.6212  160.0061 H   0  0  0  0  0  0  0  0  0  0  0  0  # atno 6908 bound_to 6896
  151.6471  133.3286  159.3179 H   0  0  0  0  0  0  0  0  0  0  0  0  # atno 6909 bound_to 6896
  145.3743  140.9509  143.2429 H   0  0  0  0  0  0  0  0  0  0  0  0  # atno 7974 bound_to 7965
  154.5828  140.0671  156.9128 H   0  0  0  0  0  0  0  0  0  0  0  0  # atno 8008 bound_to 7997
  155.2432  140.3346  155.4272 H   0  0  0  0  0  0  0  0  0  0  0  0  # atno 8009 bound_to 7997
  156.2201  140.1795  156.7481 H   0  0  0  0  0  0  0  0  0  0  0  0  # atno 8010 bound_to 7997
  139.5224  144.6526  151.5258 H   0  0  0  0  0  0  0  0  0  0  0  0  # atno 10167 bound_to 10162
  156.2294  130.7028  151.0842 H   0  0  0  0  0  0  0  0  0  0  0  0  # atno 10718 bound_to 10713
  154.0405  135.6644  153.4789 H   0  0  0  0  0  0  0  0  0  0  0  0  # atno 10763 bound_to 10752
  153.0503  135.5088  154.7846 H   0  0  0  0  0  0  0  0  0  0  0  0  # atno 10764 bound_to 10752
  154.6821  135.3046  154.9564 H   0  0  0  0  0  0  0  0  0  0  0  0  # atno 10765 bound_to 10752
  140.9981  133.6969  156.1972 H   0  0  0  0  0  0  0  0  0  0  0  0  # atno 11005 bound_to 11000
  144.8554  139.5258  143.6837 LP  0  0  0  0  0  0  0  0  0  0  0  0  # atno 17320 bound_to 7965
  146.2871  139.7035  142.9187 LP  0  0  0  0  0  0  0  0  0  0  0  0  # atno 17321 bound_to 7965
  140.6337  143.9026  150.6628 LP  0  0  0  0  0  0  0  0  0  0  0  0  # atno 17342 bound_to 10162
  140.2338  143.3715  152.1543 LP  0  0  0  0  0  0  0  0  0  0  0  0  # atno 17343 bound_to 10162
  157.7126  131.0726  150.6446 LP  0  0  0  0  0  0  0  0  0  0  0  0  # atno 17370 bound_to 10713
  156.6513  130.4486  149.5718 LP  0  0  0  0  0  0  0  0  0  0  0  0  # atno 17371 bound_to 10713
  140.6933  134.4642  157.5588 LP  0  0  0  0  0  0  0  0  0  0  0  0  # atno 17394 bound_to 11000
  139.9025  134.8524  156.1838 LP  0  0  0  0  0  0  0  0  0  0  0  0  # atno 17395 bound_to 11000

$$$$
