AV-unprocessed.smi:3329|AV-procd|sdf|12795|dock10
  -GOLD-   2272019153D 1   1.00000     0.00000
 Structure written by MMmdl.
 42 43  0  0  0  0  0  0  0  0  2 V2000
  144.5126  131.3883  150.6042 C   0  0  0  0  0  0  0  0  0  0  0  0
  144.3828  132.8428  150.9542 C   0  0  0  0  0  0  0  0  0  0  0  0
  143.5725  133.4268  151.9688 C   0  0  0  0  0  0  0  0  0  0  0  0
  143.6844  134.7443  152.0209 N   0  0  0  0  0  0  0  0  0  0  0  0
  144.5681  135.0471  151.0469 N   0  0  0  0  0  0  0  0  0  0  0  0
  144.9338  136.4322  150.8085 C   0  0  0  0  0  0  0  0  0  0  0  0
  145.3331  137.1667  152.0996 C   0  0  0  0  0  0  0  0  0  0  0  0
  145.4948  138.6154  151.8665 N   0  3  0  0  0  0  0  0  0  0  0  0
  146.8794  139.0327  151.5660 C   0  0  0  0  0  0  0  0  0  0  0  0
  147.6682  139.3736  152.8317 C   0  0  0  0  0  0  0  0  0  0  0  0
  147.2127  140.1604  153.6616 O   0  0  0  0  0  0  0  0  0  0  0  0
  148.8607  138.7698  152.9618 N   0  0  0  0  0  0  0  0  0  0  0  0
  149.8066  138.9339  154.0671 C   0  0  1  0  0  0  0  0  0  0  0  0
  149.0544  138.5358  155.3476 C   0  0  0  0  0  0  0  0  0  0  0  0
  150.9490  138.0111  153.9053 C   0  0  0  0  0  0  0  0  0  0  0  0
  151.8431  137.2879  153.7757 N   0  0  0  0  0  0  0  0  0  0  0  0
  150.2991  140.3756  154.2181 C   0  0  0  0  0  0  0  0  0  0  0  0
  151.1594  140.8454  155.3725 C   0  0  0  0  0  0  0  0  0  0  0  0
  149.7256  141.3078  155.2633 C   0  0  0  0  0  0  0  0  0  0  0  0
  145.0002  133.9189  150.3821 C   0  0  0  0  0  0  0  0  0  0  0  0
  143.6223  131.0172  150.0963 H   0  0  0  0  0  0  0  0  0  0  0  0
  144.6578  130.7721  151.4917 H   0  0  0  0  0  0  0  0  0  0  0  0
  145.3603  131.2027  149.9439 H   0  0  0  0  0  0  0  0  0  0  0  0
  142.9101  132.9343  152.6654 H   0  0  0  0  0  0  0  0  0  0  0  0
  145.7521  136.4602  150.0875 H   0  0  0  0  0  0  0  0  0  0  0  0
  144.0858  136.9331  150.3394 H   0  0  0  0  0  0  0  0  0  0  0  0
  144.5676  137.0121  152.8608 H   0  0  0  0  0  0  0  0  0  0  0  0
  146.2625  136.7559  152.4969 H   0  0  0  0  0  0  0  0  0  0  0  0
  144.9097  138.8792  151.0861 H   0  0  0  0  0  0  0  0  0  0  0  0
  147.3910  138.2329  151.0287 H   0  0  0  0  0  0  0  0  0  0  0  0
  146.8606  139.9078  150.9147 H   0  0  0  0  0  0  0  0  0  0  0  0
  149.1478  138.1426  152.2243 H   0  0  0  0  0  0  0  0  0  0  0  0
  149.7005  138.6071  156.2235 H   0  0  0  0  0  0  0  0  0  0  0  0
  148.6939  137.5078  155.2932 H   0  0  0  0  0  0  0  0  0  0  0  0
  148.1921  139.1808  155.5224 H   0  0  0  0  0  0  0  0  0  0  0  0
  150.5143  140.8466  153.2604 H   0  0  0  0  0  0  0  0  0  0  0  0
  151.3977  140.1399  156.1656 H   0  0  0  0  0  0  0  0  0  0  0  0
  151.9391  141.5712  155.1509 H   0  0  0  0  0  0  0  0  0  0  0  0
  149.5523  142.3414  154.9713 H   0  0  0  0  0  0  0  0  0  0  0  0
  149.0130  140.9022  155.9785 H   0  0  0  0  0  0  0  0  0  0  0  0
  145.7066  133.9724  149.5668 H   0  0  0  0  0  0  0  0  0  0  0  0
  145.1799  139.1156  152.6855 H   0  0  0  0  0  0  0  0  0  0  0  0
  1  2  1  0  0  0  0
  1 21  1  0  0  0  0
  1 22  1  0  0  0  0
  1 23  1  0  0  0  0
  2 20  2  0  0  0  0
  2  3  1  0  0  0  0
  3  4  2  0  0  0  0
  3 24  1  0  0  0  0
  4  5  1  0  0  0  0
  5  6  1  0  0  0  0
  5 20  1  0  0  0  0
  6  7  1  0  0  0  0
  6 25  1  0  0  0  0
  6 26  1  0  0  0  0
  7  8  1  0  0  0  0
  7 27  1  0  0  0  0
  7 28  1  0  0  0  0
  8  9  1  0  0  0  0
  8 29  1  0  0  0  0
  8 42  1  0  0  0  0
  9 10  1  0  0  0  0
  9 30  1  0  0  0  0
  9 31  1  0  0  0  0
 10 11  2  0  0  0  0
 10 12  1  0  0  0  0
 12 13  1  0  0  0  0
 12 32  1  0  0  0  0
 13 14  1  0  0  0  0
 13 15  1  0  0  0  0
 13 17  1  0  0  0  0
 14 33  1  0  0  0  0
 14 34  1  0  0  0  0
 14 35  1  0  0  0  0
 15 16  3  0  0  0  0
 17 19  1  0  0  0  0
 17 18  1  0  0  0  0
 17 36  1  0  0  0  0
 18 19  1  0  0  0  0
 18 37  1  0  0  0  0
 18 38  1  0  0  0  0
 19 39  1  0  0  0  0
 19 40  1  0  0  0  0
 20 41  1  0  0  0  0
M  CHG  1   8   1
M  END
> <s_m_source_file>
AV-unprocessed.smi

> <i_m_source_file_index>
3329

> <i_lp_mmshare_version>
43012

> <i_f3d_flags>
0

> <s_epik_input>
W0NIM11jMVtjSF1ubihbY0hdMSlbQ0gyXVtDSDJdW05IXVtDSDJdQyg9TylbTkhdW0NAQF0oW0NIM10pKEMjTilbQ0hdMltDSDJdW0NIMl0y

> <s_epik_cmdline>
J2VwaWtfcHl0aG9uJywgJy1waCcsICc3LjAnLCAnLXRuJywgJzgnLCAnLW1hJywgJzIwMCcsICctbWV0YWxfYmluZGluZycsICctaW1hZScsICc8aW5maWxlLm1hZT4nLCAnLW9tYWUnLCAnPG91dGZpbGUubWFlPic=

> <r_lp_tautomer_probability>
1

> <r_epik_Ionization_Penalty>
0.350291

> <r_epik_Ionization_Penalty_Charging>
0.350239

> <r_epik_Ionization_Penalty_Neutral>
5.12768e-05

> <r_epik_State_Penalty>
0.347656

> <r_epik_Charging_Adjusted_Penalty>
0.697895

> <i_epik_Tot_Q>
1

> <i_epik_Tot_abs_Q>
1

> <r_epik_Metal_State_Penalty>
0.371739

> <b_epik_Metal_Only>
0

> <s_lp_Force_Field>
OPLS_2005

> <r_lp_Energy>
10.54

> <b_lp_Chiralities_Consistent>
1

> <s_lp_Variant>
AV-unprocessed.smi:3329-1

> <Gold.Version>
5.8.1

> <Gold.Id.Protein>
6NUR|6NUR_protein|mol2

> <Gold.PLP.Fitness>
52.2487

> <Gold.PLP.PLP>
-35.5715

> <Gold.PLP.part.hbond>
-5.0000

> <Gold.PLP.part.metal>
0.0000

> <Gold.PLP.part.buried>
5.7052

> <Gold.PLP.part.nonpolar>
-37.1563

> <Gold.PLP.part.repulsive>
0.5944

> <Gold.PLP.ligand.clash>
0.0000

> <Gold.PLP.ligand.torsion>
1.5381

> <Gold.PLP.Chemscore.Hbond>
4.0480

> <Gold.PLP.Chemscore.CHOScore>
2.0000

> <Gold.PLP.Chemscore.Metal>
0.0000

> <Gold.Chemscore.Hbonds>
donor molecule, donor type, donor heavy atom, donor atom, acceptor molecule, acceptor atom, score
      L1  H     8    29       P1 10171  1.00
      L1  H     8    42       P1 10175  0.70
      L1  H    12    32       P1  7948  0.75
      P1  H 10752 10764       L1    16  0.43
      L1  C     3    24       P1 10957  0.99
      L1  C    20    41       P1  7921  1.00

> <Gold.PLP.Chemscore.Internal.Correction>
1.6094

> <Gold.Rescore>
     Score         DG    S(hbond)    S(metal)    S(lipo)     H(rot)  DE(clash)    DE(int)     intcor
     16.55     -19.64       3.46        0.00      74.75       2.40       0.73       2.35       ----

> <Gold.Chemscore.Fitness>
16.5478

> <Gold.Chemscore.DG>
-19.6354

> <Gold.Chemscore.ZeroCoef>
-5.4800

> <Gold.Chemscore.Hbond>
3.4571

> <Gold.Chemscore.Metal>
0.0000

> <Gold.Chemscore.Lipo>
74.7469

> <Gold.Chemscore.Internal_Hbond>
0.0000

> <Gold.Chemscore.DEClash>
0.7328

> <Gold.Chemscore.DEInternal>
2.3548

> <Gold.Chemscore.Rot>
2.3972

> <Gold.Chemscore.Internal.Correction>
   9.000000E+99

> <Gold.Chemscore.Hbonds>
donor molecule, donor type, donor heavy atom, donor atom, acceptor molecule, acceptor atom, score
      L1  H     8    29       P1 10171  0.98
      L1  H     8    42       P1 10175  0.34
      L1  H    12    32       P1  7948  0.65
      P1  H 10752 10764       L1    16  0.43

> <Gold.Chemscore.Hbond.Weighted>
-11.5468

> <Gold.Chemscore.Metal.Weighted>
-0.0000

> <Gold.Chemscore.Lipo.Weighted>
-8.7454

> <Gold.Chemscore.Internal_Hbond.Weighted>
0.0000

> <Gold.Chemscore.DEClash.Weighted>
0.7328

> <Gold.Chemscore.DEInternal.Weighted>
2.3548

> <Gold.Chemscore.Rot.Weighted>
6.1369

> <Gold.Chemscore.Internal.Correction.Weighted>
   9.000000E+99

> <Gold.Protein.RotatedTorsions>
[ 6907 6896 6895 6894 ] final  108.31 input  -60.11 | X-H torsion
[ 7974 7965 7964 7962 ] final  -18.47 input  175.53 | X-H torsion
[ 8008 7997 7996 7995 ] final  -98.50 input   59.86 | X-H torsion
[ 10167 10162 10161 10158 ] final -147.32 input  -65.29 | X-H torsion
[ 10718 10713 10712 10709 ] final   64.66 input   66.30 | X-H torsion
[ 10763 10752 10751 10750 ] final  -58.66 input  -60.55 | X-H torsion
[ 11005 11000 10999 10996 ] final  -48.47 input  -57.11 | X-H torsion

> <Gold.Protein.ActiveResidues>
 VAL166  LYS551  ARG553  GLY616  TRP617  ASP618  TYR619  PRO620  LYS621  CYS622 
 ASP623  PHE694  ASN695  SER759  ASP760  ASP761  ALA762  ILE779  LEU786  VAL792 
 PHE793  MET794  SER795  GLU796  ALA797  LYS798  CYS799  TRP800  GLU811  SER814 

> <Gold.Protein.RotatedAtoms>
  152.5117  133.9107  159.7486 H   0  0  0  0  0  0  0  0  0  0  0  0  # atno 6907 bound_to 6896
  150.9501  133.6550  159.2780 H   0  0  0  0  0  0  0  0  0  0  0  0  # atno 6908 bound_to 6896
  151.3831  135.0948  159.9555 H   0  0  0  0  0  0  0  0  0  0  0  0  # atno 6909 bound_to 6896
  146.1890  140.3926  142.8465 H   0  0  0  0  0  0  0  0  0  0  0  0  # atno 7974 bound_to 7965
  154.8020  140.0455  157.1280 H   0  0  0  0  0  0  0  0  0  0  0  0  # atno 8008 bound_to 7997
  154.9467  140.3060  155.5074 H   0  0  0  0  0  0  0  0  0  0  0  0  # atno 8009 bound_to 7997
  156.2962  140.2295  156.4542 H   0  0  0  0  0  0  0  0  0  0  0  0  # atno 8010 bound_to 7997
  139.7633  143.8345  152.2611 H   0  0  0  0  0  0  0  0  0  0  0  0  # atno 10167 bound_to 10162
  157.6054  130.9172  149.9875 H   0  0  0  0  0  0  0  0  0  0  0  0  # atno 10718 bound_to 10713
  154.2415  135.6342  153.5209 H   0  0  0  0  0  0  0  0  0  0  0  0  # atno 10763 bound_to 10752
  152.9929  135.5543  154.5905 H   0  0  0  0  0  0  0  0  0  0  0  0  # atno 10764 bound_to 10752
  154.5411  135.2895  155.1069 H   0  0  0  0  0  0  0  0  0  0  0  0  # atno 10765 bound_to 10752
  141.0703  133.6681  156.3446 H   0  0  0  0  0  0  0  0  0  0  0  0  # atno 11005 bound_to 11000
  144.8451  140.6917  143.6204 LP  0  0  0  0  0  0  0  0  0  0  0  0  # atno 17320 bound_to 7965
  145.3850  139.1628  143.4260 LP  0  0  0  0  0  0  0  0  0  0  0  0  # atno 17321 bound_to 7965
  139.8358  144.7233  150.9393 LP  0  0  0  0  0  0  0  0  0  0  0  0  # atno 17342 bound_to 10162
  140.7809  143.4028  151.1120 LP  0  0  0  0  0  0  0  0  0  0  0  0  # atno 17343 bound_to 10162
  156.1139  130.3648  150.0001 LP  0  0  0  0  0  0  0  0  0  0  0  0  # atno 17370 bound_to 10713
  156.8094  130.9319  151.3644 LP  0  0  0  0  0  0  0  0  0  0  0  0  # atno 17371 bound_to 10713
  140.5688  134.5861  157.5452 LP  0  0  0  0  0  0  0  0  0  0  0  0  # atno 17394 bound_to 11000
  139.9516  134.7606  156.0435 LP  0  0  0  0  0  0  0  0  0  0  0  0  # atno 17395 bound_to 11000

$$$$
