AV-unprocessed.smi:763|AV-procd|sdf|3636|dock7
  -GOLD-   22720 1 33D 1   1.00000     0.00000
 Structure written by MMmdl.
 44 45  0  0  0  0  0  0  0  0  1 V2000
  144.3199  132.3588  151.3553 C   0  0  0  0  0  0  0  0  0  0  0  0
  144.5894  133.6691  151.8215 O   0  0  0  0  0  0  0  0  0  0  0  0
  145.8923  134.1095  151.4778 C   0  0  0  0  0  0  0  0  0  0  0  0
  146.9256  133.2188  152.1857 C   0  0  0  0  0  0  0  0  0  0  0  0
  147.6293  133.9346  153.2013 O   0  0  0  0  0  0  0  0  0  0  0  0
  148.3996  133.2503  154.1239 C   0  0  0  0  0  0  0  0  0  0  0  0
  148.3040  131.8978  154.1787 N   0  0  0  0  0  0  0  0  0  0  0  0
  149.0623  131.2346  155.0755 C   0  0  0  0  0  0  0  0  0  0  0  0
  149.9538  131.8767  155.9545 C   0  0  0  0  0  0  0  0  0  0  0  0
  150.0565  133.2785  155.8962 C   0  0  0  0  0  0  0  0  0  0  0  0
  149.2658  133.9871  154.9643 C   0  0  0  0  0  0  0  0  0  0  0  0
  149.3175  135.3815  154.8478 N   0  0  0  0  0  0  0  0  0  0  0  0
  150.2721  136.5305  155.7326 S   0  0  0  0  0  0  0  0  0  0  0  0
  149.3300  137.1468  156.6784 O   0  0  0  0  0  0  0  0  0  0  0  0
  151.4410  135.7863  156.2274 O   0  0  0  0  0  0  0  0  0  0  0  0
  150.7827  137.7425  154.4012 C   0  0  2  0  0  0  0  0  0  0  0  0
  152.1526  138.3726  154.7273 C   0  0  0  0  0  0  0  0  0  0  0  0
  152.0646  139.3703  155.8958 C   0  0  0  0  0  0  0  0  0  0  0  0
  151.0401  140.4780  155.6012 C   0  0  0  0  0  0  0  0  0  0  0  0
  149.6566  139.8942  155.2714 C   0  0  0  0  0  0  0  0  0  0  0  0
  149.7471  138.8622  154.1289 C   0  0  2  0  0  0  0  0  0  0  0  0
  148.4723  138.3268  153.8369 O   0  0  0  0  0  0  0  0  0  0  0  0
  143.3114  132.0662  151.6473 H   0  0  0  0  0  0  0  0  0  0  0  0
  145.0167  131.6368  151.7829 H   0  0  0  0  0  0  0  0  0  0  0  0
  144.3839  132.3060  150.2677 H   0  0  0  0  0  0  0  0  0  0  0  0
  146.0306  134.0995  150.3963 H   0  0  0  0  0  0  0  0  0  0  0  0
  146.0200  135.1407  151.8105 H   0  0  0  0  0  0  0  0  0  0  0  0
  146.4564  132.3203  152.5892 H   0  0  0  0  0  0  0  0  0  0  0  0
  147.6540  132.8627  151.4571 H   0  0  0  0  0  0  0  0  0  0  0  0
  148.9570  130.1599  155.0910 H   0  0  0  0  0  0  0  0  0  0  0  0
  150.5449  131.3077  156.6567 H   0  0  0  0  0  0  0  0  0  0  0  0
  150.7387  133.7862  156.5603 H   0  0  0  0  0  0  0  0  0  0  0  0
  148.7377  135.7679  154.1165 H   0  0  0  0  0  0  0  0  0  0  0  0
  150.9033  137.1593  153.4886 H   0  0  0  0  0  0  0  0  0  0  0  0
  152.8888  137.5995  154.9472 H   0  0  0  0  0  0  0  0  0  0  0  0
  152.5255  138.8936  153.8444 H   0  0  0  0  0  0  0  0  0  0  0  0
  151.7898  138.8500  156.8140 H   0  0  0  0  0  0  0  0  0  0  0  0
  153.0441  139.8135  156.0768 H   0  0  0  0  0  0  0  0  0  0  0  0
  150.9648  141.1528  156.4544 H   0  0  0  0  0  0  0  0  0  0  0  0
  151.3894  141.0808  154.7619 H   0  0  0  0  0  0  0  0  0  0  0  0
  149.2299  139.4506  156.1695 H   0  0  0  0  0  0  0  0  0  0  0  0
  148.9804  140.7015  154.9872 H   0  0  0  0  0  0  0  0  0  0  0  0
  150.0630  139.3942  153.2305 H   0  0  0  0  0  0  0  0  0  0  0  0
  148.5302  137.8256  153.0379 H   0  0  0  0  0  0  0  0  0  0  0  0
  1  2  1  0  0  0  0
  1 23  1  0  0  0  0
  1 24  1  0  0  0  0
  1 25  1  0  0  0  0
  2  3  1  0  0  0  0
  3  4  1  0  0  0  0
  3 26  1  0  0  0  0
  3 27  1  0  0  0  0
  4  5  1  0  0  0  0
  4 28  1  0  0  0  0
  4 29  1  0  0  0  0
  5  6  1  0  0  0  0
  6 11  1  0  0  0  0
  6  7  2  0  0  0  0
  7  8  1  0  0  0  0
  8  9  2  0  0  0  0
  8 30  1  0  0  0  0
  9 10  1  0  0  0  0
  9 31  1  0  0  0  0
 10 11  2  0  0  0  0
 10 32  1  0  0  0  0
 11 12  1  0  0  0  0
 12 13  1  0  0  0  0
 12 33  1  0  0  0  0
 13 14  2  0  0  0  0
 13 15  2  0  0  0  0
 13 16  1  0  0  0  0
 16 21  1  0  0  0  0
 16 17  1  0  0  0  0
 16 34  1  0  0  0  0
 17 18  1  0  0  0  0
 17 35  1  0  0  0  0
 17 36  1  0  0  0  0
 18 19  1  0  0  0  0
 18 37  1  0  0  0  0
 18 38  1  0  0  0  0
 19 20  1  0  0  0  0
 19 39  1  0  0  0  0
 19 40  1  0  0  0  0
 20 21  1  0  0  0  0
 20 41  1  0  0  0  0
 20 42  1  0  0  0  0
 21 22  1  0  0  0  0
 21 43  1  0  0  0  0
 22 44  1  0  0  0  0
M  END
> <s_m_source_file>
AV-unprocessed.smi

> <i_m_source_file_index>
763

> <i_lp_mmshare_version>
43012

> <i_f3d_flags>
0

> <s_epik_input>
W0NIM11PW0NIMl1bQ0gyXU9jMW5bY0hdW2NIXVtjSF1jMVtOSF1TKD1PKSg9TylbQ0BASF0yW0NIMl1bQ0gyXVtDSDJdW0NIMl1bQ0BIXTJbT0hd

> <s_epik_cmdline>
J2VwaWtfcHl0aG9uJywgJy1waCcsICc3LjAnLCAnLXRuJywgJzgnLCAnLW1hJywgJzIwMCcsICctbWV0YWxfYmluZGluZycsICctaW1hZScsICc8aW5maWxlLm1hZT4nLCAnLW9tYWUnLCAnPG91dGZpbGUubWFlPic=

> <r_epik_Ionization_Penalty>
0.124685

> <r_epik_Ionization_Penalty_Charging>
0

> <r_epik_Ionization_Penalty_Neutral>
0.124685

> <r_epik_State_Penalty>
0.114154

> <r_epik_Charging_Adjusted_Penalty>
0.114154

> <i_epik_Tot_Q>
0

> <i_epik_Tot_abs_Q>
0

> <r_epik_Metal_State_Penalty>
0.443785

> <b_epik_Metal_Only>
0

> <s_lp_Force_Field>
OPLS_2005

> <r_lp_Energy>
4.78457

> <b_lp_Chiralities_Consistent>
1

> <s_lp_Variant>
AV-unprocessed.smi:763-3

> <Gold.Version>
5.8.1

> <Gold.Id.Protein>
6NUR|6NUR_protein|mol2

> <Gold.PLP.Fitness>
44.5392

> <Gold.PLP.PLP>
-39.1238

> <Gold.PLP.part.hbond>
-3.0442

> <Gold.PLP.part.metal>
0.0000

> <Gold.PLP.part.buried>
-4.6997

> <Gold.PLP.part.nonpolar>
-34.5680

> <Gold.PLP.part.repulsive>
3.2797

> <Gold.PLP.ligand.clash>
0.0000

> <Gold.PLP.ligand.torsion>
2.0532

> <Gold.PLP.Chemscore.Hbond>
2.7296

> <Gold.PLP.Chemscore.CHOScore>
0.0000

> <Gold.PLP.Chemscore.Metal>
0.0000

> <Gold.Chemscore.Hbonds>
donor molecule, donor type, donor heavy atom, donor atom, acceptor molecule, acceptor atom, score
      L1  H    12    33       P1  7948  0.25
      L1  H    22    44       P1  7948  1.00
      P1  H 10752 10764       L1    15  0.81

> <Gold.PLP.Chemscore.Internal.Correction>
1.3331

> <Gold.Rescore>
     Score         DG    S(hbond)    S(metal)    S(lipo)     H(rot)  DE(clash)    DE(int)     intcor
     12.91     -17.97       2.64        0.00      84.01       2.41       1.81       3.25       ----

> <Gold.Chemscore.Fitness>
12.9072

> <Gold.Chemscore.DG>
-17.9698

> <Gold.Chemscore.ZeroCoef>
-5.4800

> <Gold.Chemscore.Hbond>
2.6403

> <Gold.Chemscore.Metal>
0.0000

> <Gold.Chemscore.Lipo>
84.0063

> <Gold.Chemscore.Internal_Hbond>
0.0000

> <Gold.Chemscore.DEClash>
1.8143

> <Gold.Chemscore.DEInternal>
3.2483

> <Gold.Chemscore.Rot>
2.4052

> <Gold.Chemscore.Internal.Correction>
   9.000000E+99

> <Gold.Chemscore.Hbonds>
donor molecule, donor type, donor heavy atom, donor atom, acceptor molecule, acceptor atom, score
      L1  H    12    33       P1  7948  0.23
      L1  H    22    44       P1  7948  0.94
      P1  H 10752 10764       L1    15  0.74

> <Gold.Chemscore.Hbond.Weighted>
-8.8185

> <Gold.Chemscore.Metal.Weighted>
-0.0000

> <Gold.Chemscore.Lipo.Weighted>
-9.8287

> <Gold.Chemscore.Internal_Hbond.Weighted>
0.0000

> <Gold.Chemscore.DEClash.Weighted>
1.8143

> <Gold.Chemscore.DEInternal.Weighted>
3.2483

> <Gold.Chemscore.Rot.Weighted>
6.1574

> <Gold.Chemscore.Internal.Correction.Weighted>
   9.000000E+99

> <Gold.Protein.RotatedTorsions>
[ 6907 6896 6895 6894 ] final  139.02 input  -60.11 | X-H torsion
[ 7974 7965 7964 7962 ] final -159.85 input  175.53 | X-H torsion
[ 8008 7997 7996 7995 ] final  -37.34 input   59.86 | X-H torsion
[ 10167 10162 10161 10158 ] final  -74.62 input  -65.29 | X-H torsion
[ 10718 10713 10712 10709 ] final -101.63 input   66.30 | X-H torsion
[ 10763 10752 10751 10750 ] final  -45.57 input  -60.55 | X-H torsion
[ 11005 11000 10999 10996 ] final  117.04 input  -57.11 | X-H torsion

> <Gold.Protein.ActiveResidues>
 VAL166  LYS551  ARG553  GLY616  TRP617  ASP618  TYR619  PRO620  LYS621  CYS622 
 ASP623  PHE694  ASN695  SER759  ASP760  ASP761  ALA762  ILE779  LEU786  VAL792 
 PHE793  MET794  SER795  GLU796  ALA797  LYS798  CYS799  TRP800  GLU811  SER814 

> <Gold.Protein.RotatedAtoms>
  152.2598  133.5287  159.5374 H   0  0  0  0  0  0  0  0  0  0  0  0  # atno 6907 bound_to 6896
  150.7121  134.0845  159.3919 H   0  0  0  0  0  0  0  0  0  0  0  0  # atno 6908 bound_to 6896
  151.8763  135.0470  160.0535 H   0  0  0  0  0  0  0  0  0  0  0  0  # atno 6909 bound_to 6896
  144.7449  140.3626  143.6093 H   0  0  0  0  0  0  0  0  0  0  0  0  # atno 7974 bound_to 7965
  154.4055  140.1607  156.2521 H   0  0  0  0  0  0  0  0  0  0  0  0  # atno 8008 bound_to 7997
  155.9110  140.3427  155.6076 H   0  0  0  0  0  0  0  0  0  0  0  0  # atno 8009 bound_to 7997
  155.7336  140.0783  157.2268 H   0  0  0  0  0  0  0  0  0  0  0  0  # atno 8010 bound_to 7997
  140.5011  143.2361  151.7750 H   0  0  0  0  0  0  0  0  0  0  0  0  # atno 10167 bound_to 10162
  156.0201  130.5382  150.6991 H   0  0  0  0  0  0  0  0  0  0  0  0  # atno 10718 bound_to 10713
  154.0307  135.6657  153.4780 H   0  0  0  0  0  0  0  0  0  0  0  0  # atno 10763 bound_to 10752
  153.0542  135.5066  154.7936 H   0  0  0  0  0  0  0  0  0  0  0  0  # atno 10764 bound_to 10752
  154.6880  135.3056  154.9485 H   0  0  0  0  0  0  0  0  0  0  0  0  # atno 10765 bound_to 10752
  139.9061  134.9605  156.7289 H   0  0  0  0  0  0  0  0  0  0  0  0  # atno 11005 bound_to 11000
  145.7162  139.1697  143.2511 LP  0  0  0  0  0  0  0  0  0  0  0  0  # atno 17320 bound_to 7965
  146.1311  140.7184  142.9412 LP  0  0  0  0  0  0  0  0  0  0  0  0  # atno 17321 bound_to 7965
  139.4872  144.4520  151.9642 LP  0  0  0  0  0  0  0  0  0  0  0  0  # atno 17342 bound_to 10162
  140.3609  144.2974  150.5933 LP  0  0  0  0  0  0  0  0  0  0  0  0  # atno 17343 bound_to 10162
  157.4656  131.0888  151.0699 LP  0  0  0  0  0  0  0  0  0  0  0  0  # atno 17370 bound_to 10713
  157.1174  130.6047  149.5496 LP  0  0  0  0  0  0  0  0  0  0  0  0  # atno 17371 bound_to 10713
  140.6941  133.9364  155.7984 LP  0  0  0  0  0  0  0  0  0  0  0  0  # atno 17394 bound_to 11000
  141.0420  134.0607  157.3890 LP  0  0  0  0  0  0  0  0  0  0  0  0  # atno 17395 bound_to 11000

$$$$
