#       Name:                AV-unprocessed.smi:165
#       Creating user name   scv26
#       Creation time:       Thu Mar 26 19:12:00 2020


#       File generated by GOLD software.
#

@<TRIPOS>MOLECULE
AV-unprocessed.smi:165
    67    71     1
SMALL
NO_CHARGES


@<TRIPOS>ATOM
      1 ****        -4.0710  -4.0704   0.8017 O.3            1 S1                 0.0000
      2 ****        -3.5398  -5.3172   0.3981 C.3            1 S1                 0.0000
      3 ****        -2.0279  -5.2574   0.1101 C.3            1 S1                 0.0000
      4 ****        -1.6413  -6.6914  -0.3091 C.3            1 S1                 0.0000
      5 ****        -0.2714  -6.8344  -0.6267 O.3            1 S1                 0.0000
      6 ****        -1.5540  -4.1212  -0.8248 C.3            1 S1                 0.0000
      7 ****        -0.3899  -3.8124   0.1241 C.3            1 S1                 0.0000
      8 ****         0.0327  -2.4618   0.3571 N.pl3          1 S1                 0.0000
      9 ****         0.4072  -1.9115   1.5622 C.2            1 S1                 0.0000
     10 ****         0.7914  -0.6654   1.5104 N.2            1 S1                 0.0000
     11 ****         0.7188  -0.3434   0.1603 C.ar           1 S1                 0.0000
     12 ****         0.9958   0.8313  -0.5947 C.ar           1 S1                 0.0000
     13 ****         1.4448   1.9783  -0.0255 N.3            1 S1                 0.0000
     14 ****         2.7434   1.8776   0.6274 C.3            1 S1                 0.0000
     15 ****         2.9668   3.0955   1.5342 C.3            1 S1                 0.0000
     16 ****         2.7977   4.2988   0.7870 O.3            1 S1                 0.0000
     17 ****         1.5226   4.4528   0.1526 C.3            1 S1                 0.0000
     18 ****         1.6504   5.7460  -0.6768 C.3            1 S1                 0.0000
     19 ****         0.2922   6.2026  -1.2216 C.3            1 S1                 0.0000
     20 ****        -0.7275   6.3040  -0.0797 C.3            1 S1                 0.0000
     21 ****        -0.8206   5.0529   0.5893 O.3            1 S1                 0.0000
     22 ****         0.3991   4.6483   1.2052 C.3            1 S1                 0.0000
     23 ****         1.2689   3.2281  -0.7605 C.3            1 S1                 0.0000
     24 ****         0.7938   0.7726  -1.9385 N.ar           1 S1                 0.0000
     25 ****         0.3628  -0.3568  -2.5077 C.ar           1 S1                 0.0000
     26 ****         0.0686  -1.5227  -1.9302 N.ar           1 S1                 0.0000
     27 ****         0.2547  -1.4675  -0.5803 C.ar           1 S1                 0.0000
     28 ****        -1.1468  -4.6025   1.1989 C.3            1 S1                 0.0000
     29 ****        -4.9988  -4.1715   0.9497 H              1 S1                 0.0000
     30 ****        -3.7570  -6.0405   1.1849 H              1 S1                 0.0000
     31 ****        -4.0896  -5.6408  -0.4864 H              1 S1                 0.0000
     32 ****        -1.8705  -7.4008   0.4869 H              1 S1                 0.0000
     33 ****        -2.2151  -7.0058  -1.1816 H              1 S1                 0.0000
     34 ****        -0.1143  -7.7294  -0.8859 H              1 S1                 0.0000
     35 ****        -1.2441  -4.4459  -1.8186 H              1 S1                 0.0000
     36 ****        -2.2574  -3.2906  -0.8963 H              1 S1                 0.0000
     37 ****         0.5062  -4.3514  -0.1849 H              1 S1                 0.0000
     38 ****         0.3781  -2.4626   2.4909 H              1 S1                 0.0000
     39 ****         2.8307   0.9647   1.2154 H              1 S1                 0.0000
     40 ****         3.5197   1.8366  -0.1377 H              1 S1                 0.0000
     41 ****         2.2923   3.0728   2.3901 H              1 S1                 0.0000
     42 ****         3.9786   3.0764   1.9391 H              1 S1                 0.0000
     43 ****         2.0565   6.5391  -0.0471 H              1 S1                 0.0000
     44 ****         2.3612   5.6136  -1.4932 H              1 S1                 0.0000
     45 ****         0.3938   7.1661  -1.7213 H              1 S1                 0.0000
     46 ****        -0.0659   5.4991  -1.9736 H              1 S1                 0.0000
     47 ****        -0.4472   7.0870   0.6266 H              1 S1                 0.0000
     48 ****        -1.7088   6.5669  -0.4750 H              1 S1                 0.0000
     49 ****         0.2046   3.7274   1.7544 H              1 S1                 0.0000
     50 ****         0.6934   5.3954   1.9440 H              1 S1                 0.0000
     51 ****         1.9658   3.2394  -1.5999 H              1 S1                 0.0000
     52 ****         0.2624   3.2750  -1.1787 H              1 S1                 0.0000
     53 ****         0.2330  -0.3205  -3.5793 H              1 S1                 0.0000
     54 ****        -1.7032  -3.9532   1.8758 H              1 S1                 0.0000
     55 ****        -0.5236  -5.2980   1.7616 H              1 S1                 0.0000
     56 ****        -3.9164  -3.3905   0.0849 LP             1 S1                 0.0000
     57 ****        -3.6258  -3.7720   1.6459 LP             1 S1                 0.0000
     58 ****         0.2851  -6.6128   0.1740 LP             1 S1                 0.0000
     59 ****        -0.0338  -6.2192  -1.3784 LP             1 S1                 0.0000
     60 ****         1.0733  -0.0771   2.2683 LP             1 S1                 0.0000
     61 ****         0.7677   2.0686   0.7048 LP             1 S1                 0.0000
     62 ****         3.5009   4.3223   0.0764 LP             1 S1                 0.0000
     63 ****         2.9276   5.0700   1.4101 LP             1 S1                 0.0000
     64 ****        -1.0856   4.3560  -0.0772 LP             1 S1                 0.0000
     65 ****        -1.5246   5.1230   1.2960 LP             1 S1                 0.0000
     66 ****         0.9687   1.5789  -2.5035 LP             1 S1                 0.0000
     67 ****        -0.2478  -2.3330  -2.4236 LP             1 S1                 0.0000
@<TRIPOS>BOND
    1    1    2 1     
    2    1   29 1     
    3    2    3 1     
    4    2   30 1     
    5    2   31 1     
    6    3   28 1     
    7    3    4 1     
    8    3    6 1     
    9    4    5 1     
   10    4   32 1     
   11    4   33 1     
   12    5   34 1     
   13    6    7 1     
   14    6   35 1     
   15    6   36 1     
   16    7    8 1     
   17    7   28 1     
   18    7   37 1     
   19    8   27 1     
   20    8    9 1     
   21    9   10 2     
   22    9   38 1     
   23   10   11 1     
   24   11   27 ar    
   25   11   12 ar    
   26   12   13 1     
   27   12   24 ar    
   28   13   23 1     
   29   13   14 1     
   30   14   15 1     
   31   14   39 1     
   32   14   40 1     
   33   15   16 1     
   34   15   41 1     
   35   15   42 1     
   36   16   17 1     
   37   17   22 1     
   38   17   18 1     
   39   17   23 1     
   40   18   19 1     
   41   18   43 1     
   42   18   44 1     
   43   19   20 1     
   44   19   45 1     
   45   19   46 1     
   46   20   21 1     
   47   20   47 1     
   48   20   48 1     
   49   21   22 1     
   50   22   49 1     
   51   22   50 1     
   52   23   51 1     
   53   23   52 1     
   54   24   25 ar    
   55   25   26 ar    
   56   25   53 1     
   57   26   27 ar    
   58   28   54 1     
   59   28   55 1     
   60    1   56 1     
   61    1   57 1     
   62    5   58 1     
   63    5   59 1     
   64   10   60 1     
   65   13   61 1     
   66   16   62 1     
   67   16   63 1     
   68   21   64 1     
   69   21   65 1     
   70   24   66 1     
   71   26   67 1     
@<TRIPOS>SUBSTRUCTURE
      1 S1             1
@<TRIPOS>SET
LONE_PAIRS      STATIC     ATOMS    <user>   **** ""
12 56 57 58 59 60 61 62 63 64 65 66 67
DONOR_HYDROGENS      STATIC     ATOMS    <user>   **** ""
2 29 34
ATOM$BLUE        STATIC     ATOMS    COLORGROUP SYSTEM
12 56 57 58 59 60 61 62 63 64 65 66 67
ATOM$RED        STATIC     ATOMS    COLORGROUP SYSTEM
2 29 34
