AV-unprocessed.smi:99|AV-procd|sdf|887|dock6
  -GOLD-   2262017373D 1   1.00000     0.00000
 Structure written by MMmdl.
 52 55  0  0  0  0  0  0  0  0  2 V2000
  147.0884  137.5349  161.2517 O   0  0  0  0  0  0  0  0  0  0  0  0
  147.3141  136.3614  160.9482 C   0  0  0  0  0  0  0  0  0  0  0  0
  148.3167  135.9827  160.1326 O   0  0  0  0  0  0  0  0  0  0  0  0
  149.4138  136.8521  159.9072 C   0  0  0  0  0  0  0  0  0  0  0  0
  149.5214  137.1522  158.4093 C   0  0  2  0  0  0  0  0  0  0  0  0
  148.9755  136.0838  157.6547 O   0  0  0  0  0  0  0  0  0  0  0  0
  149.4951  136.1398  156.3636 C   0  0  2  0  0  0  0  0  0  0  0  0
  149.5958  134.7289  155.8261 N   0  0  0  0  0  0  0  0  0  0  0  0
  149.0733  134.4149  154.5830 C   0  0  0  0  0  0  0  0  0  0  0  0
  149.1469  133.1626  154.0871 C   0  0  0  0  0  0  0  0  0  0  0  0
  149.7880  132.1155  154.8778 C   0  0  0  0  0  0  0  0  0  0  0  0
  149.8621  130.9793  154.4133 O   0  0  0  0  0  0  0  0  0  0  0  0
  150.2786  132.4479  156.1073 N   0  5  0  0  0  0  0  0  0  0  0  0
  150.1980  133.7124  156.6157 C   0  0  0  0  0  0  0  0  0  0  0  0
  150.6169  134.0168  157.7331 O   0  0  0  0  0  0  0  0  0  0  0  0
  150.8550  136.8713  156.4363 C   0  0  2  0  0  0  0  0  0  0  0  0
  151.9701  136.0953  156.0354 O   0  0  0  0  0  0  0  0  0  0  0  0
  150.9660  137.2319  157.9154 C   0  0  1  0  0  0  0  0  0  0  0  0
  151.4475  138.5588  158.0927 O   0  0  0  0  0  0  0  0  0  0  0  0
  150.8002  139.6075  157.5418 C   0  0  0  0  0  0  0  0  0  0  0  0
  149.8660  139.4933  156.7461 O   0  0  0  0  0  0  0  0  0  0  0  0
  151.3329  140.9230  157.9999 C   0  0  0  0  0  0  0  0  0  0  0  0
  150.9363  142.1029  157.3280 C   0  0  0  0  0  0  0  0  0  0  0  0
  151.4241  143.3595  157.7362 C   0  0  0  0  0  0  0  0  0  0  0  0
  152.3156  143.4516  158.8207 C   0  0  0  0  0  0  0  0  0  0  0  0
  152.7183  142.2854  159.4972 C   0  0  0  0  0  0  0  0  0  0  0  0
  152.2306  141.0277  159.0912 C   0  0  0  0  0  0  0  0  0  0  0  0
  146.5032  135.2122  161.4441 C   0  0  0  0  0  0  0  0  0  0  0  0
  146.9052  133.8932  161.1284 C   0  0  0  0  0  0  0  0  0  0  0  0
  146.1603  132.7878  161.5836 C   0  0  0  0  0  0  0  0  0  0  0  0
  145.0036  132.9882  162.3593 C   0  0  0  0  0  0  0  0  0  0  0  0
  144.5923  134.2952  162.6787 C   0  0  0  0  0  0  0  0  0  0  0  0
  145.3364  135.4019  162.2253 C   0  0  0  0  0  0  0  0  0  0  0  0
  149.2458  137.7786  160.4583 H   0  0  0  0  0  0  0  0  0  0  0  0
  150.3414  136.4120  160.2766 H   0  0  0  0  0  0  0  0  0  0  0  0
  148.9889  138.0710  158.1546 H   0  0  0  0  0  0  0  0  0  0  0  0
  148.7670  136.6655  155.7438 H   0  0  0  0  0  0  0  0  0  0  0  0
  148.5885  135.1806  153.9958 H   0  0  0  0  0  0  0  0  0  0  0  0
  148.7318  132.9343  153.1165 H   0  0  0  0  0  0  0  0  0  0  0  0
  150.7867  137.7633  155.8119 H   0  0  0  0  0  0  0  0  0  0  0  0
  152.2707  135.5939  156.7780 H   0  0  0  0  0  0  0  0  0  0  0  0
  151.5677  136.4944  158.4504 H   0  0  0  0  0  0  0  0  0  0  0  0
  150.2533  142.0576  156.4919 H   0  0  0  0  0  0  0  0  0  0  0  0
  151.1138  144.2536  157.2156 H   0  0  0  0  0  0  0  0  0  0  0  0
  152.6903  144.4153  159.1332 H   0  0  0  0  0  0  0  0  0  0  0  0
  153.4035  142.3548  160.3291 H   0  0  0  0  0  0  0  0  0  0  0  0
  152.5610  140.1526  159.6314 H   0  0  0  0  0  0  0  0  0  0  0  0
  147.7900  133.7145  160.5342 H   0  0  0  0  0  0  0  0  0  0  0  0
  146.4775  131.7853  161.3369 H   0  0  0  0  0  0  0  0  0  0  0  0
  144.4326  132.1407  162.7085 H   0  0  0  0  0  0  0  0  0  0  0  0
  143.7039  134.4506  163.2728 H   0  0  0  0  0  0  0  0  0  0  0  0
  144.9923  136.3914  162.4883 H   0  0  0  0  0  0  0  0  0  0  0  0
  1  2  2  0  0  0  0
  2  3  1  0  0  0  0
  2 28  1  0  0  0  0
  3  4  1  0  0  0  0
  4  5  1  0  0  0  0
  4 34  1  0  0  0  0
  4 35  1  0  0  0  0
  5 18  1  0  0  0  0
  5  6  1  0  0  0  0
  5 36  1  0  0  0  0
  6  7  1  0  0  0  0
  7  8  1  0  0  0  0
  7 16  1  0  0  0  0
  7 37  1  0  0  0  0
  8 14  1  0  0  0  0
  8  9  1  0  0  0  0
  9 10  2  0  0  0  0
  9 38  1  0  0  0  0
 10 11  1  0  0  0  0
 10 39  1  0  0  0  0
 11 12  2  0  0  0  0
 11 13  1  0  0  0  0
 13 14  1  0  0  0  0
 14 15  2  0  0  0  0
 16 17  1  0  0  0  0
 16 18  1  0  0  0  0
 16 40  1  0  0  0  0
 17 41  1  0  0  0  0
 18 19  1  0  0  0  0
 18 42  1  0  0  0  0
 19 20  1  0  0  0  0
 20 21  2  0  0  0  0
 20 22  1  0  0  0  0
 22 27  1  0  0  0  0
 22 23  2  0  0  0  0
 23 24  1  0  0  0  0
 23 43  1  0  0  0  0
 24 25  2  0  0  0  0
 24 44  1  0  0  0  0
 25 26  1  0  0  0  0
 25 45  1  0  0  0  0
 26 27  2  0  0  0  0
 26 46  1  0  0  0  0
 27 47  1  0  0  0  0
 28 33  1  0  0  0  0
 28 29  2  0  0  0  0
 29 30  1  0  0  0  0
 29 48  1  0  0  0  0
 30 31  2  0  0  0  0
 30 49  1  0  0  0  0
 31 32  1  0  0  0  0
 31 50  1  0  0  0  0
 32 33  2  0  0  0  0
 32 51  1  0  0  0  0
 33 52  1  0  0  0  0
M  CHG  1  13  -1
M  END
> <s_m_source_file>
AV-unprocessed.smi

> <i_m_source_file_index>
99

> <i_lp_mmshare_version>
43012

> <i_f3d_flags>
0

> <s_epik_input>
W2NIXTFbY0hdW2NIXVtjSF1bY0hdYzFDKD1PKU9bQ0gyXVtDQEBIXTJPW0NAQEhdKG4zW2NIXVtjSF1jKD1PKVtuSF1jMz1PKVtDQEBIXShbT0hdKVtDQEhdMk9DKD1PKWM0W2NIXVtjSF1bY0hdW2NIXVtjSF00

> <s_epik_cmdline>
J2VwaWtfcHl0aG9uJywgJy1waCcsICc3LjAnLCAnLXRuJywgJzgnLCAnLW1hJywgJzIwMCcsICctbWV0YWxfYmluZGluZycsICctaW1hZScsICc8aW5maWxlLm1hZT4nLCAnLW9tYWUnLCAnPG91dGZpbGUubWFlPic=

> <r_lp_tautomer_probability>
1

> <r_epik_Ionization_Penalty>
2.89159

> <r_epik_Ionization_Penalty_Charging>
2.1077e-08

> <r_epik_Ionization_Penalty_Neutral>
2.89159

> <r_epik_State_Penalty>
2.88671

> <r_epik_Charging_Adjusted_Penalty>
2.88671

> <i_epik_Tot_Q>
-1

> <i_epik_Tot_abs_Q>
1

> <r_epik_Metal_State_Penalty>
0.0727308

> <b_epik_Metal_Only>
1

> <s_epik_Chemistry_Notes>
This compound has an ester and may undergo hydrolysis at high or low pH. This compound contains an acetal/aminal-like group ( X-CH(R)-Y where X, Y are N, S, or O) that may be acid/base labile, releasing an aldehyde.

> <s_lp_Force_Field>
OPLS_2005

> <r_lp_Energy>
47.3257

> <b_lp_Chiralities_Consistent>
1

> <s_lp_Variant>
AV-unprocessed.smi:99-23

> <Gold.Version>
5.8.1

> <Gold.Id.Protein>
6NUR|6NUR_protein|mol2

> <Gold.PLP.Fitness>
62.2399

> <Gold.PLP.PLP>
-51.4689

> <Gold.PLP.part.hbond>
-3.6421

> <Gold.PLP.part.metal>
0.0000

> <Gold.PLP.part.buried>
-5.0958

> <Gold.PLP.part.nonpolar>
-44.0186

> <Gold.PLP.part.repulsive>
0.0621

> <Gold.PLP.ligand.clash>
0.0000

> <Gold.PLP.ligand.torsion>
1.4807

> <Gold.PLP.Chemscore.Hbond>
3.3520

> <Gold.PLP.Chemscore.CHOScore>
1.0000

> <Gold.PLP.Chemscore.Metal>
0.0000

> <Gold.Chemscore.Hbonds>
donor molecule, donor type, donor heavy atom, donor atom, acceptor molecule, acceptor atom, score
      P1  H  6896  6909       L1    15  0.67
      P1  H  6931  6943       L1     1  0.44
      P1  H  6934  6947       L1     1  0.98
      P1  H 10752 10765       L1    17  0.96
      L1  C     9    38       P1  7948  1.00

> <Gold.PLP.Chemscore.Internal.Correction>
0.6764

> <Gold.Rescore>
     Score         DG    S(hbond)    S(metal)    S(lipo)     H(rot)  DE(clash)    DE(int)     intcor
     15.01     -21.68       2.74        0.00     128.91       3.13       0.38       6.29       ----

> <Gold.Chemscore.Fitness>
15.0062

> <Gold.Chemscore.DG>
-21.6782

> <Gold.Chemscore.ZeroCoef>
-5.4800

> <Gold.Chemscore.Hbond>
2.7367

> <Gold.Chemscore.Metal>
0.0000

> <Gold.Chemscore.Lipo>
128.9073

> <Gold.Chemscore.Internal_Hbond>
0.0000

> <Gold.Chemscore.DEClash>
0.3844

> <Gold.Chemscore.DEInternal>
6.2876

> <Gold.Chemscore.Rot>
3.1346

> <Gold.Chemscore.Internal.Correction>
   9.000000E+99

> <Gold.Chemscore.Hbonds>
donor molecule, donor type, donor heavy atom, donor atom, acceptor molecule, acceptor atom, score
      P1  H  6896  6909       L1    15  0.62
      P1  H  6931  6943       L1     1  0.20
      P1  H  6934  6947       L1     1  0.91
      P1  H 10752 10765       L1    17  0.46

> <Gold.Chemscore.Hbond.Weighted>
-9.1406

> <Gold.Chemscore.Metal.Weighted>
-0.0000

> <Gold.Chemscore.Lipo.Weighted>
-15.0822

> <Gold.Chemscore.Internal_Hbond.Weighted>
0.0000

> <Gold.Chemscore.DEClash.Weighted>
0.3844

> <Gold.Chemscore.DEInternal.Weighted>
6.2876

> <Gold.Chemscore.Rot.Weighted>
8.0246

> <Gold.Chemscore.Internal.Correction.Weighted>
   9.000000E+99

> <Gold.Protein.RotatedTorsions>
[ 6907 6896 6895 6894 ] final   -5.12 input  -60.11 | X-H torsion
[ 7974 7965 7964 7962 ] final -175.46 input  175.53 | X-H torsion
[ 8008 7997 7996 7995 ] final  123.38 input   59.86 | X-H torsion
[ 10167 10162 10161 10158 ] final  151.79 input  -65.29 | X-H torsion
[ 10718 10713 10712 10709 ] final  -67.18 input   66.30 | X-H torsion
[ 10763 10752 10751 10750 ] final -175.55 input  -60.55 | X-H torsion
[ 11005 11000 10999 10996 ] final -140.77 input  -57.11 | X-H torsion

> <Gold.Protein.ActiveResidues>
 VAL166  LYS551  ARG553  GLY616  TRP617  ASP618  TYR619  PRO620  LYS621  CYS622 
 ASP623  PHE694  ASN695  SER759  ASP760  ASP761  ALA762  ILE779  LEU786  VAL792 
 PHE793  MET794  SER795  GLU796  ALA797  LYS798  CYS799  TRP800  GLU811  SER814 

> <Gold.Protein.RotatedAtoms>
  151.4867  135.1055  159.9792 H   0  0  0  0  0  0  0  0  0  0  0  0  # atno 6907 bound_to 6896
  152.4758  133.8130  159.7024 H   0  0  0  0  0  0  0  0  0  0  0  0  # atno 6908 bound_to 6896
  150.8794  133.7331  159.2963 H   0  0  0  0  0  0  0  0  0  0  0  0  # atno 6909 bound_to 6896
  144.7128  140.1317  143.6398 H   0  0  0  0  0  0  0  0  0  0  0  0  # atno 7974 bound_to 7965
  156.2763  140.2764  156.1617 H   0  0  0  0  0  0  0  0  0  0  0  0  # atno 8008 bound_to 7997
  155.0746  140.0387  157.2637 H   0  0  0  0  0  0  0  0  0  0  0  0  # atno 8009 bound_to 7997
  154.7012  140.2649  155.6723 H   0  0  0  0  0  0  0  0  0  0  0  0  # atno 8010 bound_to 7997
  139.4837  144.5411  151.7562 H   0  0  0  0  0  0  0  0  0  0  0  0  # atno 10167 bound_to 10162
  156.0571  130.4274  150.1817 H   0  0  0  0  0  0  0  0  0  0  0  0  # atno 10718 bound_to 10713
  154.5830  135.2838  155.0714 H   0  0  0  0  0  0  0  0  0  0  0  0  # atno 10763 bound_to 10752
  154.2043  135.6419  153.5100 H   0  0  0  0  0  0  0  0  0  0  0  0  # atno 10764 bound_to 10752
  153.0094  135.5476  154.6490 H   0  0  0  0  0  0  0  0  0  0  0  0  # atno 10765 bound_to 10752
  140.8390  134.2425  157.4819 H   0  0  0  0  0  0  0  0  0  0  0  0  # atno 11005 bound_to 11000
  145.9280  139.2588  143.1342 LP  0  0  0  0  0  0  0  0  0  0  0  0  # atno 17320 bound_to 7965
  145.9552  140.8878  143.0239 LP  0  0  0  0  0  0  0  0  0  0  0  0  # atno 17321 bound_to 7965
  140.4951  144.1252  150.5958 LP  0  0  0  0  0  0  0  0  0  0  0  0  # atno 17342 bound_to 10162
  140.4126  143.2649  151.9813 LP  0  0  0  0  0  0  0  0  0  0  0  0  # atno 17343 bound_to 10162
  156.9891  130.9888  151.3419 LP  0  0  0  0  0  0  0  0  0  0  0  0  # atno 17370 bound_to 10713
  157.5551  130.8208  149.8194 LP  0  0  0  0  0  0  0  0  0  0  0  0  # atno 17371 bound_to 10713
  139.8703  134.9626  156.4433 LP  0  0  0  0  0  0  0  0  0  0  0  0  # atno 17394 bound_to 11000
  140.8916  133.7844  155.9578 LP  0  0  0  0  0  0  0  0  0  0  0  0  # atno 17395 bound_to 11000

$$$$
