AV-unprocessed.smi:1451|AV-procd|sdf|5901|dock10
  -GOLD-   22720 5583D 1   1.00000     0.00000
 Structure written by MMmdl.
 47 48  0  0  0  0  0  0  0  0  2 V2000
  155.6748  132.0789  163.5964 C   0  0  0  0  0  0  0  0  0  0  0  0
  154.3319  132.5668  163.0248 C   0  0  2  0  0  0  0  0  0  0  0  0
  154.0084  131.9522  161.6507 C   0  0  0  0  0  0  0  0  0  0  0  0
  154.8721  132.5748  160.5448 C   0  0  0  0  0  0  0  0  0  0  0  0
  154.7631  134.1076  160.5564 C   0  0  0  0  0  0  0  0  0  0  0  0
  155.1210  134.6610  161.8881 N   0  3  1  0  0  0  0  0  0  0  0  0
  155.1734  136.1449  161.8827 C   0  0  0  0  0  0  0  0  0  0  0  0
  153.9460  136.7740  161.2029 C   0  0  0  0  0  0  0  0  0  0  0  0
  154.2252  138.1526  160.8240 N   0  0  0  0  0  0  0  0  0  0  0  0
  154.0685  138.6488  159.5884 C   0  0  0  0  0  0  0  0  0  0  0  0
  153.6453  137.9818  158.6437 O   0  0  0  0  0  0  0  0  0  0  0  0
  154.4259  140.1299  159.4022 C   0  0  0  0  0  0  0  0  0  0  0  0
  153.2456  140.9789  159.1699 N   0  0  0  0  0  0  0  0  0  0  0  0
  153.0126  142.0246  160.0849 C   0  0  0  0  0  0  0  0  0  0  0  0
  151.9594  142.8590  159.9914 C   0  0  0  0  0  0  0  0  0  0  0  0
  151.7623  144.0106  160.9651 C   0  0  0  0  0  0  0  0  0  0  0  0
  152.4202  143.7943  162.1044 F   0  0  0  0  0  0  0  0  0  0  0  0
  152.2207  145.1406  160.4288 F   0  0  0  0  0  0  0  0  0  0  0  0
  150.4714  144.1814  161.2533 F   0  0  0  0  0  0  0  0  0  0  0  0
  151.0710  142.6533  158.8642 C   0  0  0  0  0  0  0  0  0  0  0  0
  151.2831  141.6626  157.9761 C   0  0  0  0  0  0  0  0  0  0  0  0
  152.4198  140.7482  158.1052 C   0  0  0  0  0  0  0  0  0  0  0  0
  152.6184  139.8318  157.3071 O   0  0  0  0  0  0  0  0  0  0  0  0
  154.2507  134.1062  162.9610 C   0  0  0  0  0  0  0  0  0  0  0  0
  156.5183  132.3897  162.9801 H   0  0  0  0  0  0  0  0  0  0  0  0
  155.6987  130.9911  163.6661 H   0  0  0  0  0  0  0  0  0  0  0  0
  155.8386  132.4735  164.5997 H   0  0  0  0  0  0  0  0  0  0  0  0
  153.5627  132.2279  163.7201 H   0  0  0  0  0  0  0  0  0  0  0  0
  154.1416  130.8699  161.6727 H   0  0  0  0  0  0  0  0  0  0  0  0
  152.9565  132.1253  161.4192 H   0  0  0  0  0  0  0  0  0  0  0  0
  155.9136  132.2784  160.6725 H   0  0  0  0  0  0  0  0  0  0  0  0
  154.5628  132.1890  159.5729 H   0  0  0  0  0  0  0  0  0  0  0  0
  155.4281  134.5152  159.7940 H   0  0  0  0  0  0  0  0  0  0  0  0
  153.7503  134.4168  160.2927 H   0  0  0  0  0  0  0  0  0  0  0  0
  155.2089  136.5067  162.9115 H   0  0  0  0  0  0  0  0  0  0  0  0
  156.0961  136.4801  161.4060 H   0  0  0  0  0  0  0  0  0  0  0  0
  153.6650  136.2076  160.3146 H   0  0  0  0  0  0  0  0  0  0  0  0
  153.0896  136.7593  161.8784 H   0  0  0  0  0  0  0  0  0  0  0  0
  154.5685  138.7708  161.5451 H   0  0  0  0  0  0  0  0  0  0  0  0
  154.9716  140.4591  160.2874 H   0  0  0  0  0  0  0  0  0  0  0  0
  155.1315  140.2393  158.5760 H   0  0  0  0  0  0  0  0  0  0  0  0
  153.7455  142.1032  160.8748 H   0  0  0  0  0  0  0  0  0  0  0  0
  150.2170  143.3010  158.7317 H   0  0  0  0  0  0  0  0  0  0  0  0
  150.5989  141.5369  157.1498 H   0  0  0  0  0  0  0  0  0  0  0  0
  153.2198  134.4123  162.7749 H   0  0  0  0  0  0  0  0  0  0  0  0
  154.5218  134.5177  163.9324 H   0  0  0  0  0  0  0  0  0  0  0  0
  156.0608  134.3437  162.0791 H   0  0  0  0  0  0  0  0  0  0  0  0
  1  2  1  0  0  0  0
  1 25  1  0  0  0  0
  1 26  1  0  0  0  0
  1 27  1  0  0  0  0
  2 24  1  0  0  0  0
  2  3  1  0  0  0  0
  2 28  1  0  0  0  0
  3  4  1  0  0  0  0
  3 29  1  0  0  0  0
  3 30  1  0  0  0  0
  4  5  1  0  0  0  0
  4 31  1  0  0  0  0
  4 32  1  0  0  0  0
  5  6  1  0  0  0  0
  5 33  1  0  0  0  0
  5 34  1  0  0  0  0
  6  7  1  0  0  0  0
  6 24  1  0  0  0  0
  6 47  1  0  0  0  0
  7  8  1  0  0  0  0
  7 35  1  0  0  0  0
  7 36  1  0  0  0  0
  8  9  1  0  0  0  0
  8 37  1  0  0  0  0
  8 38  1  0  0  0  0
  9 10  1  0  0  0  0
  9 39  1  0  0  0  0
 10 11  2  0  0  0  0
 10 12  1  0  0  0  0
 12 13  1  0  0  0  0
 12 40  1  0  0  0  0
 12 41  1  0  0  0  0
 13 22  1  0  0  0  0
 13 14  1  0  0  0  0
 14 15  2  0  0  0  0
 14 42  1  0  0  0  0
 15 16  1  0  0  0  0
 15 20  1  0  0  0  0
 16 17  1  0  0  0  0
 16 18  1  0  0  0  0
 16 19  1  0  0  0  0
 20 21  2  0  0  0  0
 20 43  1  0  0  0  0
 21 22  1  0  0  0  0
 21 44  1  0  0  0  0
 22 23  2  0  0  0  0
 24 45  1  0  0  0  0
 24 46  1  0  0  0  0
M  CHG  1   6   1
M  END
> <s_m_source_file>
AV-unprocessed.smi

> <i_m_source_file_index>
1451

> <i_lp_mmshare_version>
43012

> <i_f3d_flags>
0

> <s_epik_input>
W0NIM11bQ0BASF0xW0NIMl1bQ0gyXVtDSDJdTihbQ0gyXTEpW0NIMl1bQ0gyXVtOSF1DKD1PKVtDSDJdbjJbY0hdYyhDKEYpKEYpRilbY0hdW2NIXWMyPU8=

> <s_epik_cmdline>
J2VwaWtfcHl0aG9uJywgJy1waCcsICc3LjAnLCAnLXRuJywgJzgnLCAnLW1hJywgJzIwMCcsICctbWV0YWxfYmluZGluZycsICctaW1hZScsICc8aW5maWxlLm1hZT4nLCAnLW9tYWUnLCAnPG91dGZpbGUubWFlPic=

> <r_lp_tautomer_probability>
1

> <r_epik_Ionization_Penalty>
0.00192452

> <r_epik_Ionization_Penalty_Charging>
0.00192444

> <r_epik_Ionization_Penalty_Neutral>
8.16761e-08

> <r_epik_State_Penalty>
0.00131115

> <r_epik_Charging_Adjusted_Penalty>
0.00323559

> <i_epik_Tot_Q>
1

> <i_epik_Tot_abs_Q>
1

> <r_epik_Metal_State_Penalty>
-0

> <b_epik_Metal_Only>
0

> <s_lp_Force_Field>
OPLS_2005

> <r_lp_Energy>
31.5843

> <b_lp_Chiralities_Consistent>
1

> <s_lp_Variant>
AV-unprocessed.smi:1451-3

> <Gold.Version>
5.8.1

> <Gold.Id.Protein>
6NUR|6NUR_protein|mol2

> <Gold.PLP.Fitness>
49.1814

> <Gold.PLP.PLP>
-48.4511

> <Gold.PLP.part.hbond>
-1.0000

> <Gold.PLP.part.metal>
0.0000

> <Gold.PLP.part.buried>
-5.2214

> <Gold.PLP.part.nonpolar>
-42.9071

> <Gold.PLP.part.repulsive>
0.0123

> <Gold.PLP.ligand.clash>
0.0092

> <Gold.PLP.ligand.torsion>
1.1811

> <Gold.PLP.Chemscore.Hbond>
1.0000

> <Gold.PLP.Chemscore.CHOScore>
0.0000

> <Gold.PLP.Chemscore.Metal>
0.0000

> <Gold.Chemscore.Hbonds>
donor molecule, donor type, donor heavy atom, donor atom, acceptor molecule, acceptor atom, score
      P1  H  7997  8008       L1    23  1.00

> <Gold.PLP.Chemscore.Internal.Correction>
0.1017

> <Gold.Rescore>
     Score         DG    S(hbond)    S(metal)    S(lipo)     H(rot)  DE(clash)    DE(int)     intcor
     12.27     -15.96       0.82        0.00     111.69       2.08       0.98       2.71       ----

> <Gold.Chemscore.Fitness>
12.2698

> <Gold.Chemscore.DG>
-15.9633

> <Gold.Chemscore.ZeroCoef>
-5.4800

> <Gold.Chemscore.Hbond>
0.8174

> <Gold.Chemscore.Metal>
0.0000

> <Gold.Chemscore.Lipo>
111.6928

> <Gold.Chemscore.Internal_Hbond>
0.0000

> <Gold.Chemscore.DEClash>
0.9820

> <Gold.Chemscore.DEInternal>
2.7116

> <Gold.Chemscore.Rot>
2.0762

> <Gold.Chemscore.Internal.Correction>
   9.000000E+99

> <Gold.Chemscore.Hbonds>
donor molecule, donor type, donor heavy atom, donor atom, acceptor molecule, acceptor atom, score
      P1  H  7997  8008       L1    23  0.45

> <Gold.Chemscore.Hbond.Weighted>
-2.7303

> <Gold.Chemscore.Metal.Weighted>
-0.0000

> <Gold.Chemscore.Lipo.Weighted>
-13.0681

> <Gold.Chemscore.Internal_Hbond.Weighted>
0.0000

> <Gold.Chemscore.DEClash.Weighted>
0.9820

> <Gold.Chemscore.DEInternal.Weighted>
2.7116

> <Gold.Chemscore.Rot.Weighted>
5.3150

> <Gold.Chemscore.Internal.Correction.Weighted>
   9.000000E+99

> <Gold.Protein.RotatedTorsions>
[ 6907 6896 6895 6894 ] final -117.44 input  -60.11 | X-H torsion
[ 7974 7965 7964 7962 ] final  -84.95 input  175.53 | X-H torsion
[ 8008 7997 7996 7995 ] final  -66.99 input   59.86 | X-H torsion
[ 10167 10162 10161 10158 ] final  170.50 input  -65.29 | X-H torsion
[ 10718 10713 10712 10709 ] final -177.75 input   66.30 | X-H torsion
[ 10763 10752 10751 10750 ] final   46.52 input  -60.55 | X-H torsion
[ 11005 11000 10999 10996 ] final -122.04 input  -57.11 | X-H torsion

> <Gold.Protein.ActiveResidues>
 VAL166  LYS551  ARG553  GLY616  TRP617  ASP618  TYR619  PRO620  LYS621  CYS622 
 ASP623  PHE694  ASN695  SER759  ASP760  ASP761  ALA762  ILE779  LEU786  VAL792 
 PHE793  MET794  SER795  GLU796  ALA797  LYS798  CYS799  TRP800  GLU811  SER814 

> <Gold.Protein.RotatedAtoms>
  150.8137  133.8375  159.3170 H   0  0  0  0  0  0  0  0  0  0  0  0  # atno 6907 bound_to 6896
  151.6153  135.1035  160.0099 H   0  0  0  0  0  0  0  0  0  0  0  0  # atno 6908 bound_to 6896
  152.4229  133.7106  159.6533 H   0  0  0  0  0  0  0  0  0  0  0  0  # atno 6909 bound_to 6896
  145.4998  140.9548  143.1766 H   0  0  0  0  0  0  0  0  0  0  0  0  # atno 7974 bound_to 7965
  154.4770  140.0901  156.7286 H   0  0  0  0  0  0  0  0  0  0  0  0  # atno 8008 bound_to 7997
  155.4570  140.3459  155.4289 H   0  0  0  0  0  0  0  0  0  0  0  0  # atno 8009 bound_to 7997
  156.1132  140.1453  156.9298 H   0  0  0  0  0  0  0  0  0  0  0  0  # atno 8010 bound_to 7997
  139.5020  144.3589  151.9845 H   0  0  0  0  0  0  0  0  0  0  0  0  # atno 10167 bound_to 10162
  156.8342  130.9663  151.3104 H   0  0  0  0  0  0  0  0  0  0  0  0  # atno 10718 bound_to 10713
  152.9810  135.6005  154.3613 H   0  0  0  0  0  0  0  0  0  0  0  0  # atno 10763 bound_to 10752
  154.3295  135.2768  155.2481 H   0  0  0  0  0  0  0  0  0  0  0  0  # atno 10764 bound_to 10752
  154.4611  135.5965  153.6312 H   0  0  0  0  0  0  0  0  0  0  0  0  # atno 10765 bound_to 10752
  141.0025  134.0382  157.3519 H   0  0  0  0  0  0  0  0  0  0  0  0  # atno 11005 bound_to 11000
  144.7786  139.6574  143.7164 LP  0  0  0  0  0  0  0  0  0  0  0  0  # atno 17320 bound_to 7965
  146.2233  139.5676  142.9604 LP  0  0  0  0  0  0  0  0  0  0  0  0  # atno 17321 bound_to 7965
  140.3026  144.3630  150.6056 LP  0  0  0  0  0  0  0  0  0  0  0  0  # atno 17342 bound_to 10162
  140.5862  143.2170  151.7338 LP  0  0  0  0  0  0  0  0  0  0  0  0  # atno 17343 bound_to 10162
  157.6391  130.8790  149.9414 LP  0  0  0  0  0  0  0  0  0  0  0  0  # atno 17370 bound_to 10713
  156.0917  130.3663  150.0382 LP  0  0  0  0  0  0  0  0  0  0  0  0  # atno 17371 bound_to 10713
  139.9046  135.0175  156.7427 LP  0  0  0  0  0  0  0  0  0  0  0  0  # atno 17394 bound_to 11000
  140.6866  133.9427  155.7941 LP  0  0  0  0  0  0  0  0  0  0  0  0  # atno 17395 bound_to 11000

$$$$
