AV-unprocessed.smi:1487|AV-procd|sdf|6012|dock8
  -GOLD-   22720 6113D 1   1.00000     0.00000
 Structure written by MMmdl.
 48 50  0  0  0  0  0  0  0  0  2 V2000
  153.5252  142.3003  160.8115 C   0  0  0  0  0  0  0  0  0  0  0  0
  152.7234  142.0683  159.5430 C   0  0  0  0  0  0  0  0  0  0  0  0
  152.7869  140.8055  158.9118 C   0  0  0  0  0  0  0  0  0  0  0  0
  152.0562  140.5484  157.7313 C   0  0  0  0  0  0  0  0  0  0  0  0
  151.9680  139.4024  156.9596 N   0  0  0  0  0  0  0  0  0  0  0  0
  151.1333  139.7887  155.9995 C   0  0  0  0  0  0  0  0  0  0  0  0
  150.6664  141.0507  156.0595 N   0  0  0  0  0  0  0  0  0  0  0  0
  149.7480  141.6876  155.1327 C   0  0  0  0  0  0  0  0  0  0  0  0
  148.6269  140.7384  154.6674 C   0  0  1  0  0  0  0  0  0  0  0  0
  147.5319  141.4990  154.1931 O   0  0  0  0  0  0  0  0  0  0  0  0
  149.1034  139.8078  153.5347 C   0  0  0  0  0  0  0  0  0  0  0  0
  148.1221  138.7364  153.2238 N   0  3  1  0  0  0  0  0  0  0  0  0
  147.6231  138.0548  154.4454 C   0  0  0  0  0  0  0  0  0  0  0  0
  146.7578  136.8379  154.0833 C   0  0  0  0  0  0  0  0  0  0  0  0
  145.5864  137.2444  153.1786 C   0  0  0  0  0  0  0  0  0  0  0  0
  146.0822  138.0241  151.9491 C   0  0  2  0  0  0  0  0  0  0  0  0
  146.7592  137.1605  151.0567 O   0  0  0  0  0  0  0  0  0  0  0  0
  147.0066  139.1912  152.3486 C   0  0  0  0  0  0  0  0  0  0  0  0
  151.2550  141.5982  157.1945 C   0  0  0  0  0  0  0  0  0  0  0  0
  151.1847  142.8592  157.8124 C   0  0  0  0  0  0  0  0  0  0  0  0
  151.9198  143.0986  158.9921 C   0  0  0  0  0  0  0  0  0  0  0  0
  151.8344  144.4624  159.6545 C   0  0  0  0  0  0  0  0  0  0  0  0
  154.0560  141.3982  161.1174 H   0  0  0  0  0  0  0  0  0  0  0  0
  152.8697  142.5958  161.6309 H   0  0  0  0  0  0  0  0  0  0  0  0
  154.2636  143.0874  160.6567 H   0  0  0  0  0  0  0  0  0  0  0  0
  153.3991  140.0206  159.3312 H   0  0  0  0  0  0  0  0  0  0  0  0
  150.8421  139.1144  155.2072 H   0  0  0  0  0  0  0  0  0  0  0  0
  149.3296  142.5743  155.6114 H   0  0  0  0  0  0  0  0  0  0  0  0
  150.3216  142.0402  154.2744 H   0  0  0  0  0  0  0  0  0  0  0  0
  148.2906  140.1568  155.5250 H   0  0  0  0  0  0  0  0  0  0  0  0
  147.2050  142.0318  154.9028 H   0  0  0  0  0  0  0  0  0  0  0  0
  149.2796  140.4158  152.6456 H   0  0  0  0  0  0  0  0  0  0  0  0
  150.0638  139.3551  153.7864 H   0  0  0  0  0  0  0  0  0  0  0  0
  148.4653  137.7202  155.0526 H   0  0  0  0  0  0  0  0  0  0  0  0
  147.0532  138.7601  155.0524 H   0  0  0  0  0  0  0  0  0  0  0  0
  147.3711  136.0887  153.5807 H   0  0  0  0  0  0  0  0  0  0  0  0
  146.3794  136.3663  154.9909 H   0  0  0  0  0  0  0  0  0  0  0  0
  145.0177  136.3654  152.8730 H   0  0  0  0  0  0  0  0  0  0  0  0
  144.8992  137.8722  153.7474 H   0  0  0  0  0  0  0  0  0  0  0  0
  145.2200  138.4193  151.4108 H   0  0  0  0  0  0  0  0  0  0  0  0
  147.3244  136.5894  151.5548 H   0  0  0  0  0  0  0  0  0  0  0  0
  146.4278  139.9481  152.8804 H   0  0  0  0  0  0  0  0  0  0  0  0
  147.3903  139.6717  151.4492 H   0  0  0  0  0  0  0  0  0  0  0  0
  150.5676  143.6347  157.3832 H   0  0  0  0  0  0  0  0  0  0  0  0
  151.1915  145.1390  159.0909 H   0  0  0  0  0  0  0  0  0  0  0  0
  152.8225  144.9180  159.7215 H   0  0  0  0  0  0  0  0  0  0  0  0
  151.4249  144.3725  160.6609 H   0  0  0  0  0  0  0  0  0  0  0  0
  148.6319  138.0348  152.7048 H   0  0  0  0  0  0  0  0  0  0  0  0
  1  2  1  0  0  0  0
  1 23  1  0  0  0  0
  1 24  1  0  0  0  0
  1 25  1  0  0  0  0
  2 21  1  0  0  0  0
  2  3  2  0  0  0  0
  3  4  1  0  0  0  0
  3 26  1  0  0  0  0
  4 19  2  0  0  0  0
  4  5  1  0  0  0  0
  5  6  2  0  0  0  0
  6  7  1  0  0  0  0
  6 27  1  0  0  0  0
  7  8  1  0  0  0  0
  7 19  1  0  0  0  0
  8  9  1  0  0  0  0
  8 28  1  0  0  0  0
  8 29  1  0  0  0  0
  9 10  1  0  0  0  0
  9 11  1  0  0  0  0
  9 30  1  0  0  0  0
 10 31  1  0  0  0  0
 11 12  1  0  0  0  0
 11 32  1  0  0  0  0
 11 33  1  0  0  0  0
 12 18  1  0  0  0  0
 12 13  1  0  0  0  0
 12 48  1  0  0  0  0
 13 14  1  0  0  0  0
 13 34  1  0  0  0  0
 13 35  1  0  0  0  0
 14 15  1  0  0  0  0
 14 36  1  0  0  0  0
 14 37  1  0  0  0  0
 15 16  1  0  0  0  0
 15 38  1  0  0  0  0
 15 39  1  0  0  0  0
 16 17  1  0  0  0  0
 16 18  1  0  0  0  0
 16 40  1  0  0  0  0
 17 41  1  0  0  0  0
 18 42  1  0  0  0  0
 18 43  1  0  0  0  0
 19 20  1  0  0  0  0
 20 21  2  0  0  0  0
 20 44  1  0  0  0  0
 21 22  1  0  0  0  0
 22 45  1  0  0  0  0
 22 46  1  0  0  0  0
 22 47  1  0  0  0  0
M  CHG  1  12   1
M  END
> <s_m_source_file>
AV-unprocessed.smi

> <i_m_source_file_index>
1487

> <i_lp_mmshare_version>
43012

> <i_f3d_flags>
0

> <s_epik_input>
W0NIM11jKFtjSF0xKWMoW0NIM10pW2NIXWMoYzEyKW4oW2NIXW4yKVtDSDJdW0NASF0oW09IXSlbQ0gyXU4zW0NIMl1bQ0gyXVtDSDJdW0NAQEhdKFtPSF0pW0NIMl0z

> <s_epik_cmdline>
J2VwaWtfcHl0aG9uJywgJy1waCcsICc3LjAnLCAnLXRuJywgJzgnLCAnLW1hJywgJzIwMCcsICctbWV0YWxfYmluZGluZycsICctaW1hZScsICc8aW5maWxlLm1hZT4nLCAnLW9tYWUnLCAnPG91dGZpbGUubWFlPic=

> <r_epik_Ionization_Penalty>
0.0940186

> <r_epik_Ionization_Penalty_Charging>
0.00679686

> <r_epik_Ionization_Penalty_Neutral>
0.0872218

> <r_epik_State_Penalty>
0.0799311

> <r_epik_Charging_Adjusted_Penalty>
0.086728

> <i_epik_Tot_Q>
1

> <i_epik_Tot_abs_Q>
1

> <r_epik_Metal_State_Penalty>
7.95545e-05

> <b_epik_Metal_Only>
0

> <s_lp_Force_Field>
OPLS_2005

> <r_lp_Energy>
22.2404

> <b_lp_Chiralities_Consistent>
1

> <s_lp_Variant>
AV-unprocessed.smi:1487-6

> <Gold.Version>
5.8.1

> <Gold.Id.Protein>
6NUR|6NUR_protein|mol2

> <Gold.PLP.Fitness>
52.8576

> <Gold.PLP.PLP>
-42.9184

> <Gold.PLP.part.hbond>
-3.7088

> <Gold.PLP.part.metal>
0.0000

> <Gold.PLP.part.buried>
4.8260

> <Gold.PLP.part.nonpolar>
-43.3080

> <Gold.PLP.part.repulsive>
0.0475

> <Gold.PLP.ligand.clash>
0.0000

> <Gold.PLP.ligand.torsion>
0.6760

> <Gold.PLP.Chemscore.Hbond>
3.7520

> <Gold.PLP.Chemscore.CHOScore>
0.0000

> <Gold.PLP.Chemscore.Metal>
0.0000

> <Gold.Chemscore.Hbonds>
donor molecule, donor type, donor heavy atom, donor atom, acceptor molecule, acceptor atom, score
      L1  H    12    48       P1  7948  2.00
      L1  H    17    41       P1  7948  0.83
      P1  H  7954  7966       L1    17  0.80

> <Gold.PLP.Chemscore.Internal.Correction>
0.0352

> <Gold.Rescore>
     Score         DG    S(hbond)    S(metal)    S(lipo)     H(rot)  DE(clash)    DE(int)     intcor
     16.06     -20.34       2.05        0.00     126.86       2.67       2.71       1.56       ----

> <Gold.Chemscore.Fitness>
16.0646

> <Gold.Chemscore.DG>
-20.3406

> <Gold.Chemscore.ZeroCoef>
-5.4800

> <Gold.Chemscore.Hbond>
2.0529

> <Gold.Chemscore.Metal>
0.0000

> <Gold.Chemscore.Lipo>
126.8566

> <Gold.Chemscore.Internal_Hbond>
0.0000

> <Gold.Chemscore.DEClash>
2.7123

> <Gold.Chemscore.DEInternal>
1.5637

> <Gold.Chemscore.Rot>
2.6712

> <Gold.Chemscore.Internal.Correction>
   9.000000E+99

> <Gold.Chemscore.Hbonds>
donor molecule, donor type, donor heavy atom, donor atom, acceptor molecule, acceptor atom, score
      L1  H    12    48       P1  7948  0.96
      L1  H    17    41       P1  7948  0.83
      P1  H  7954  7966       L1    17  0.11

> <Gold.Chemscore.Hbond.Weighted>
-6.8567

> <Gold.Chemscore.Metal.Weighted>
-0.0000

> <Gold.Chemscore.Lipo.Weighted>
-14.8422

> <Gold.Chemscore.Internal_Hbond.Weighted>
0.0000

> <Gold.Chemscore.DEClash.Weighted>
2.7123

> <Gold.Chemscore.DEInternal.Weighted>
1.5637

> <Gold.Chemscore.Rot.Weighted>
6.8383

> <Gold.Chemscore.Internal.Correction.Weighted>
   9.000000E+99

> <Gold.Protein.RotatedTorsions>
[ 6907 6896 6895 6894 ] final  -27.25 input  -60.11 | X-H torsion
[ 7974 7965 7964 7962 ] final  -46.85 input  175.53 | X-H torsion
[ 8008 7997 7996 7995 ] final -156.69 input   59.86 | X-H torsion
[ 10167 10162 10161 10158 ] final  169.17 input  -65.29 | X-H torsion
[ 10718 10713 10712 10709 ] final  -93.16 input   66.30 | X-H torsion
[ 10763 10752 10751 10750 ] final  -19.91 input  -60.55 | X-H torsion
[ 11005 11000 10999 10996 ] final   97.34 input  -57.11 | X-H torsion

> <Gold.Protein.ActiveResidues>
 VAL166  LYS551  ARG553  GLY616  TRP617  ASP618  TYR619  PRO620  LYS621  CYS622 
 ASP623  PHE694  ASN695  SER759  ASP760  ASP761  ALA762  ILE779  LEU786  VAL792 
 PHE793  MET794  SER795  GLU796  ALA797  LYS798  CYS799  TRP800  GLU811  SER814 

> <Gold.Protein.RotatedAtoms>
  151.1496  135.0220  159.8661 H   0  0  0  0  0  0  0  0  0  0  0  0  # atno 6907 bound_to 6896
  152.5453  134.1404  159.8487 H   0  0  0  0  0  0  0  0  0  0  0  0  # atno 6908 bound_to 6896
  151.1488  133.4875  159.2628 H   0  0  0  0  0  0  0  0  0  0  0  0  # atno 6909 bound_to 6896
  145.9677  140.7415  142.9426 H   0  0  0  0  0  0  0  0  0  0  0  0  # atno 7974 bound_to 7965
  155.7210  140.0790  157.2330 H   0  0  0  0  0  0  0  0  0  0  0  0  # atno 8008 bound_to 7997
  154.4045  140.1612  156.2456 H   0  0  0  0  0  0  0  0  0  0  0  0  # atno 8009 bound_to 7997
  155.9196  140.3398  155.6165 H   0  0  0  0  0  0  0  0  0  0  0  0  # atno 8010 bound_to 7997
  139.4986  144.3735  151.9699 H   0  0  0  0  0  0  0  0  0  0  0  0  # atno 10167 bound_to 10162
  156.0010  130.5016  150.5734 H   0  0  0  0  0  0  0  0  0  0  0  0  # atno 10718 bound_to 10713
  153.6122  135.6996  153.5342 H   0  0  0  0  0  0  0  0  0  0  0  0  # atno 10763 bound_to 10752
  153.3007  135.4130  155.1249 H   0  0  0  0  0  0  0  0  0  0  0  0  # atno 10764 bound_to 10752
  154.8561  135.3648  154.5661 H   0  0  0  0  0  0  0  0  0  0  0  0  # atno 10765 bound_to 10752
  139.8776  134.8996  156.4292 H   0  0  0  0  0  0  0  0  0  0  0  0  # atno 11005 bound_to 11000
  144.6829  140.2696  143.7307 LP  0  0  0  0  0  0  0  0  0  0  0  0  # atno 17320 bound_to 7965
  145.7950  139.1942  143.2081 LP  0  0  0  0  0  0  0  0  0  0  0  0  # atno 17321 bound_to 7965
  140.3171  144.3471  150.6019 LP  0  0  0  0  0  0  0  0  0  0  0  0  # atno 17342 bound_to 10162
  140.5752  143.2177  151.7527 LP  0  0  0  0  0  0  0  0  0  0  0  0  # atno 17343 bound_to 10162
  157.3625  131.0752  151.1624 LP  0  0  0  0  0  0  0  0  0  0  0  0  # atno 17370 bound_to 10713
  157.2404  130.6567  149.5887 LP  0  0  0  0  0  0  0  0  0  0  0  0  # atno 17371 bound_to 10713
  140.9078  133.7733  155.9756 LP  0  0  0  0  0  0  0  0  0  0  0  0  # atno 17394 bound_to 11000
  140.8579  134.2875  157.5247 LP  0  0  0  0  0  0  0  0  0  0  0  0  # atno 17395 bound_to 11000

$$$$
