AV-unprocessed.smi:3112|AV-procd|sdf|11849|dock3
  -GOLD-   2272017233D 1   1.00000     0.00000
 Structure written by MMmdl.
 36 36  0  0  0  0  0  0  0  0  1 V2000
  146.2128  142.2293  154.7414 C   0  0  0  0  0  0  0  0  0  0  0  0
  147.3928  141.9342  153.8059 C   0  0  0  0  0  0  0  0  0  0  0  0
  148.3945  140.9186  154.3904 C   0  0  1  0  0  0  0  0  0  0  0  0
  149.5128  140.7642  153.5390 O   0  0  0  0  0  0  0  0  0  0  0  0
  148.8817  141.2581  155.8117 C   0  0  0  0  0  0  0  0  0  0  0  0
  150.0841  142.0924  155.7974 N   0  0  0  0  0  0  0  0  0  0  0  0
  151.2871  141.5306  156.4288 C   0  0  2  0  0  0  0  0  0  0  0  0
  151.4040  140.0580  156.0015 C   0  0  0  0  0  0  0  0  0  0  0  0
  151.3438  141.6733  157.9816 C   0  0  1  0  0  0  0  0  0  0  0  0
  152.3776  140.7566  158.6681 C   0  0  0  0  0  0  0  0  0  0  0  0
  151.4030  143.0595  158.4428 N   0  0  0  0  0  0  0  0  0  0  0  0
  152.4491  143.6961  159.0803 C   0  0  0  0  0  0  0  0  0  0  0  0
  152.0497  144.9717  159.3579 C   0  0  0  0  0  0  0  0  0  0  0  0
  150.7212  145.0255  158.8536 C   0  0  0  0  0  0  0  0  0  0  0  0
  150.3379  143.8836  158.3080 N   0  0  0  0  0  0  0  0  0  0  0  0
  145.5490  142.9751  154.3042 H   0  0  0  0  0  0  0  0  0  0  0  0
  146.5574  142.6152  155.7011 H   0  0  0  0  0  0  0  0  0  0  0  0
  145.6222  141.3331  154.9317 H   0  0  0  0  0  0  0  0  0  0  0  0
  147.0126  141.5827  152.8462 H   0  0  0  0  0  0  0  0  0  0  0  0
  147.9139  142.8705  153.6031 H   0  0  0  0  0  0  0  0  0  0  0  0
  147.9059  139.9450  154.4404 H   0  0  0  0  0  0  0  0  0  0  0  0
  149.2024  140.5715  152.6678 H   0  0  0  0  0  0  0  0  0  0  0  0
  148.0836  141.7805  156.3399 H   0  0  0  0  0  0  0  0  0  0  0  0
  149.0583  140.3294  156.3491 H   0  0  0  0  0  0  0  0  0  0  0  0
  149.8725  142.9933  156.2139 H   0  0  0  0  0  0  0  0  0  0  0  0
  152.1622  142.0333  156.0156 H   0  0  0  0  0  0  0  0  0  0  0  0
  152.3113  139.6004  156.3965 H   0  0  0  0  0  0  0  0  0  0  0  0
  151.4434  139.9677  154.9155 H   0  0  0  0  0  0  0  0  0  0  0  0
  150.5545  139.4691  156.3484 H   0  0  0  0  0  0  0  0  0  0  0  0
  150.3904  141.2937  158.3526 H   0  0  0  0  0  0  0  0  0  0  0  0
  152.2279  139.7171  158.3757 H   0  0  0  0  0  0  0  0  0  0  0  0
  152.2739  140.8050  159.7525 H   0  0  0  0  0  0  0  0  0  0  0  0
  153.4072  141.0159  158.4328 H   0  0  0  0  0  0  0  0  0  0  0  0
  153.3823  143.1917  159.2833 H   0  0  0  0  0  0  0  0  0  0  0  0
  152.6178  145.7462  159.8515 H   0  0  0  0  0  0  0  0  0  0  0  0
  150.0281  145.8536  158.8692 H   0  0  0  0  0  0  0  0  0  0  0  0
  1  2  1  0  0  0  0
  1 16  1  0  0  0  0
  1 17  1  0  0  0  0
  1 18  1  0  0  0  0
  2  3  1  0  0  0  0
  2 19  1  0  0  0  0
  2 20  1  0  0  0  0
  3  4  1  0  0  0  0
  3  5  1  0  0  0  0
  3 21  1  0  0  0  0
  4 22  1  0  0  0  0
  5  6  1  0  0  0  0
  5 23  1  0  0  0  0
  5 24  1  0  0  0  0
  6  7  1  0  0  0  0
  6 25  1  0  0  0  0
  7  8  1  0  0  0  0
  7  9  1  0  0  0  0
  7 26  1  0  0  0  0
  8 27  1  0  0  0  0
  8 28  1  0  0  0  0
  8 29  1  0  0  0  0
  9 10  1  0  0  0  0
  9 11  1  0  0  0  0
  9 30  1  0  0  0  0
 10 31  1  0  0  0  0
 10 32  1  0  0  0  0
 10 33  1  0  0  0  0
 11 15  1  0  0  0  0
 11 12  1  0  0  0  0
 12 13  2  0  0  0  0
 12 34  1  0  0  0  0
 13 14  1  0  0  0  0
 13 35  1  0  0  0  0
 14 15  2  0  0  0  0
 14 36  1  0  0  0  0
M  END
> <s_m_source_file>
AV-unprocessed.smi

> <i_m_source_file_index>
3112

> <i_lp_mmshare_version>
43012

> <i_f3d_flags>
0

> <s_epik_input>
W0NIM11bQ0gyXVtDQEhdKFtPSF0pW0NIMl1bTkhdW0NASF0oW0NIM10pW0NASF0oW0NIM10pbjFbY0hdW2NIXVtjSF1uMQ==

> <s_epik_cmdline>
J2VwaWtfcHl0aG9uJywgJy1waCcsICc3LjAnLCAnLXRuJywgJzgnLCAnLW1hJywgJzIwMCcsICctbWV0YWxfYmluZGluZycsICctaW1hZScsICc8aW5maWxlLm1hZT4nLCAnLW9tYWUnLCAnPG91dGZpbGUubWFlPic=

> <r_lp_tautomer_probability>
1

> <r_epik_Ionization_Penalty>
2.16876

> <r_epik_Ionization_Penalty_Charging>
0

> <r_epik_Ionization_Penalty_Neutral>
2.16876

> <r_epik_State_Penalty>
2.30854

> <r_epik_Charging_Adjusted_Penalty>
2.30854

> <i_epik_Tot_Q>
0

> <i_epik_Tot_abs_Q>
0

> <r_epik_Metal_State_Penalty>
2.3073

> <b_epik_Metal_Only>
0

> <s_lp_Force_Field>
OPLS_2005

> <r_lp_Energy>
23.5049

> <b_lp_Chiralities_Consistent>
1

> <s_lp_Variant>
AV-unprocessed.smi:3112-14

> <Gold.Version>
5.8.1

> <Gold.Id.Protein>
6NUR|6NUR_protein|mol2

> <Gold.PLP.Fitness>
42.8629

> <Gold.PLP.PLP>
-36.8813

> <Gold.PLP.part.hbond>
-3.7748

> <Gold.PLP.part.metal>
0.0000

> <Gold.PLP.part.buried>
-6.1014

> <Gold.PLP.part.nonpolar>
-27.8252

> <Gold.PLP.part.repulsive>
0.6325

> <Gold.PLP.ligand.clash>
0.0000

> <Gold.PLP.ligand.torsion>
1.4341

> <Gold.PLP.Chemscore.Hbond>
2.1120

> <Gold.PLP.Chemscore.CHOScore>
0.7290

> <Gold.PLP.Chemscore.Metal>
0.0000

> <Gold.Chemscore.Hbonds>
donor molecule, donor type, donor heavy atom, donor atom, acceptor molecule, acceptor atom, score
      L1  H     4    22       P1  7957  0.93
      L1  H     6    25       P1  8028  0.68
      P1  H  7989  7998       L1     4  0.32
      L1  C    14    36       P1  8029  0.61

> <Gold.PLP.Chemscore.Internal.Correction>
0.3266

> <Gold.Rescore>
     Score         DG    S(hbond)    S(metal)    S(lipo)     H(rot)  DE(clash)    DE(int)     intcor
     14.84     -16.56       1.92        0.00      90.55       2.31       0.12       1.60       ----

> <Gold.Chemscore.Fitness>
14.8367

> <Gold.Chemscore.DG>
-16.5586

> <Gold.Chemscore.ZeroCoef>
-5.4800

> <Gold.Chemscore.Hbond>
1.9163

> <Gold.Chemscore.Metal>
0.0000

> <Gold.Chemscore.Lipo>
90.5463

> <Gold.Chemscore.Internal_Hbond>
0.0000

> <Gold.Chemscore.DEClash>
0.1232

> <Gold.Chemscore.DEInternal>
1.5987

> <Gold.Chemscore.Rot>
2.3108

> <Gold.Chemscore.Internal.Correction>
   9.000000E+99

> <Gold.Chemscore.Hbonds>
donor molecule, donor type, donor heavy atom, donor atom, acceptor molecule, acceptor atom, score
      L1  H     4    22       P1  7957  0.89
      L1  H     6    25       P1  8028  0.65
      P1  H  7989  7998       L1     4  0.20

> <Gold.Chemscore.Hbond.Weighted>
-6.4004

> <Gold.Chemscore.Metal.Weighted>
-0.0000

> <Gold.Chemscore.Lipo.Weighted>
-10.5939

> <Gold.Chemscore.Internal_Hbond.Weighted>
0.0000

> <Gold.Chemscore.DEClash.Weighted>
0.1232

> <Gold.Chemscore.DEInternal.Weighted>
1.5987

> <Gold.Chemscore.Rot.Weighted>
5.9157

> <Gold.Chemscore.Internal.Correction.Weighted>
   9.000000E+99

> <Gold.Protein.RotatedTorsions>
[ 6907 6896 6895 6894 ] final    1.12 input  -60.11 | X-H torsion
[ 7974 7965 7964 7962 ] final -146.61 input  175.53 | X-H torsion
[ 8008 7997 7996 7995 ] final -163.01 input   59.86 | X-H torsion
[ 10167 10162 10161 10158 ] final  -94.41 input  -65.29 | X-H torsion
[ 10718 10713 10712 10709 ] final -166.22 input   66.30 | X-H torsion
[ 10763 10752 10751 10750 ] final  -47.99 input  -60.55 | X-H torsion
[ 11005 11000 10999 10996 ] final    6.24 input  -57.11 | X-H torsion

> <Gold.Protein.ActiveResidues>
 VAL166  LYS551  ARG553  GLY616  TRP617  ASP618  TYR619  PRO620  LYS621  CYS622 
 ASP623  PHE694  ASN695  SER759  ASP760  ASP761  ALA762  ILE779  LEU786  VAL792 
 PHE793  MET794  SER795  GLU796  ALA797  LYS798  CYS799  TRP800  GLU811  SER814 

> <Gold.Protein.RotatedAtoms>
  151.5875  135.1055  160.0031 H   0  0  0  0  0  0  0  0  0  0  0  0  # atno 6907 bound_to 6896
  152.4323  133.7295  159.6590 H   0  0  0  0  0  0  0  0  0  0  0  0  # atno 6908 bound_to 6896
  150.8217  133.8171  159.3159 H   0  0  0  0  0  0  0  0  0  0  0  0  # atno 6909 bound_to 6896
  144.8148  140.5434  143.5618 H   0  0  0  0  0  0  0  0  0  0  0  0  # atno 7974 bound_to 7965
  155.8151  140.0911  157.1882 H   0  0  0  0  0  0  0  0  0  0  0  0  # atno 8008 bound_to 7997
  154.3979  140.1447  156.3492 H   0  0  0  0  0  0  0  0  0  0  0  0  # atno 8009 bound_to 7997
  155.8325  140.3442  155.5584 H   0  0  0  0  0  0  0  0  0  0  0  0  # atno 8010 bound_to 7997
  140.3148  143.3084  152.0110 H   0  0  0  0  0  0  0  0  0  0  0  0  # atno 10167 bound_to 10162
  156.6647  130.9060  151.3034 H   0  0  0  0  0  0  0  0  0  0  0  0  # atno 10718 bound_to 10713
  154.0705  135.6605  153.4823 H   0  0  0  0  0  0  0  0  0  0  0  0  # atno 10763 bound_to 10752
  153.0393  135.5156  154.7571 H   0  0  0  0  0  0  0  0  0  0  0  0  # atno 10764 bound_to 10752
  154.6636  135.3018  154.9802 H   0  0  0  0  0  0  0  0  0  0  0  0  # atno 10765 bound_to 10752
  140.5616  134.0186  155.7974 H   0  0  0  0  0  0  0  0  0  0  0  0  # atno 11005 bound_to 11000
  145.5240  139.1476  143.3536 LP  0  0  0  0  0  0  0  0  0  0  0  0  # atno 17320 bound_to 7965
  146.2450  140.5381  142.8918 LP  0  0  0  0  0  0  0  0  0  0  0  0  # atno 17321 bound_to 7965
  139.4886  144.6357  151.6980 LP  0  0  0  0  0  0  0  0  0  0  0  0  # atno 17342 bound_to 10162
  140.5536  144.0384  150.6138 LP  0  0  0  0  0  0  0  0  0  0  0  0  # atno 17343 bound_to 10162
  157.7097  130.9426  150.1049 LP  0  0  0  0  0  0  0  0  0  0  0  0  # atno 17370 bound_to 10713
  156.1984  130.3658  149.8820 LP  0  0  0  0  0  0  0  0  0  0  0  0  # atno 17371 bound_to 10713
  141.1111  133.9615  157.2909 LP  0  0  0  0  0  0  0  0  0  0  0  0  # atno 17394 bound_to 11000
  139.9405  135.0191  156.8692 LP  0  0  0  0  0  0  0  0  0  0  0  0  # atno 17395 bound_to 11000

$$$$
