#       Name:                AV-unprocessed.smi:1338
#       Creating user name   scv26
#       Creation time:       Fri Mar 27 05:08:15 2020


#       File generated by GOLD software.
#

@<TRIPOS>MOLECULE
AV-unprocessed.smi:1338
    45    46     1
SMALL
NO_CHARGES


@<TRIPOS>ATOM
      1 ****        -6.1116  -1.6440   0.9049 C.3            1 S1                 0.0000
      2 ****        -4.6014  -1.7136   0.9714 C.2            1 S1                 0.0000
      3 ****        -4.0012  -0.5039   1.2790 N.pl3          1 S1                 0.0000
      4 ****        -2.6209  -0.4707   1.3710 C.2            1 S1                 0.0000
      5 ****        -2.0452   0.8911   1.7194 C.3            1 S1                 0.0000
      6 ****        -1.8757  -1.5855   1.1599 C.2            1 S1                 0.0000
      7 ****        -0.3510  -1.5905   1.2520 C.3            1 S1                 0.0000
      8 ****         0.3779  -1.0865   0.0051 C.2            1 S1                 0.0000
      9 ****         0.1688  -1.6175  -1.0853 O.2            1 S1                 0.0000
     10 ****         1.2226  -0.0579   0.1771 N.am           1 S1                 0.0000
     11 ****         1.9958   0.5852  -0.8808 C.3            1 S1                 0.0000
     12 ****         3.3069  -0.1851  -1.1410 C.3            1 S1                 0.0000
     13 ****         4.1713   0.5190  -2.1995 C.3            1 S1                 0.0000
     14 ****         4.4568   1.9773  -1.8074 C.3            1 S1                 0.0000
     15 ****         3.1523   2.7487  -1.5525 C.3            1 S1                 0.0000
     16 ****         2.2877   2.0470  -0.4923 C.3            1 S1                 0.0000
     17 ****        -2.5746  -2.8482   0.8212 C.2            1 S1                 0.0000
     18 ****        -1.9559  -3.8885   0.6014 O.2            1 S1                 0.0000
     19 ****        -3.9770  -2.8303   0.7508 N.2            1 S1                 0.0000
     20 ****        -4.5174   0.3484   1.4429 H              1 S1                 0.0000
     21 ****        -6.5415  -2.6359   0.7602 H              1 S1                 0.0000
     22 ****        -6.4255  -1.0116   0.0741 H              1 S1                 0.0000
     23 ****        -6.5162  -1.2303   1.8292 H              1 S1                 0.0000
     24 ****        -1.4827   0.8413   2.6519 H              1 S1                 0.0000
     25 ****        -2.8295   1.6389   1.8435 H              1 S1                 0.0000
     26 ****        -1.3776   1.2366   0.9298 H              1 S1                 0.0000
     27 ****         0.0183  -2.5907   1.4807 H              1 S1                 0.0000
     28 ****        -0.0545  -0.9875   2.1110 H              1 S1                 0.0000
     29 ****         1.3321   0.3132   1.1097 H              1 S1                 0.0000
     30 ****         1.4048   0.5938  -1.7988 H              1 S1                 0.0000
     31 ****         3.8738  -0.2742  -0.2130 H              1 S1                 0.0000
     32 ****         3.0885  -1.2025  -1.4676 H              1 S1                 0.0000
     33 ****         5.1093  -0.0208  -2.3324 H              1 S1                 0.0000
     34 ****         3.6606   0.4932  -3.1629 H              1 S1                 0.0000
     35 ****         5.0764   1.9998  -0.9100 H              1 S1                 0.0000
     36 ****         5.0318   2.4679  -2.5932 H              1 S1                 0.0000
     37 ****         3.3787   3.7664  -1.2333 H              1 S1                 0.0000
     38 ****         2.5905   2.8343  -2.4835 H              1 S1                 0.0000
     39 ****         1.3527   2.5934  -0.3619 H              1 S1                 0.0000
     40 ****         2.8012   2.0791   0.4697 H              1 S1                 0.0000
     41 ****        -0.4771  -2.3777  -1.1556 LP             1 S1                 0.0000
     42 ****         0.6448  -1.2887  -1.9010 LP             1 S1                 0.0000
     43 ****        -0.9571  -3.8958   0.6492 LP             1 S1                 0.0000
     44 ****        -2.4518  -4.7268   0.3749 LP             1 S1                 0.0000
     45 ****        -4.4860  -3.6634   0.5344 LP             1 S1                 0.0000
@<TRIPOS>BOND
    1    1   21 1     
    2    1   22 1     
    3    1   23 1     
    4    1    2 1     
    5    2    3 1     
    6    2   19 2     
    7    3    4 1     
    8    3   20 1     
    9    4    6 2     
   10    4    5 1     
   11    5   24 1     
   12    5   25 1     
   13    5   26 1     
   14    6   17 1     
   15    6    7 1     
   16    7    8 1     
   17    7   27 1     
   18    7   28 1     
   19    8    9 2     
   20    8   10 am    
   21   10   11 1     
   22   10   29 1     
   23   11   16 1     
   24   11   12 1     
   25   11   30 1     
   26   12   13 1     
   27   12   31 1     
   28   12   32 1     
   29   13   14 1     
   30   13   33 1     
   31   13   34 1     
   32   14   15 1     
   33   14   35 1     
   34   14   36 1     
   35   15   16 1     
   36   15   37 1     
   37   15   38 1     
   38   16   39 1     
   39   16   40 1     
   40   17   18 2     
   41   17   19 1     
   42    9   41 1     
   43    9   42 1     
   44   18   43 1     
   45   18   44 1     
   46   19   45 1     
@<TRIPOS>SUBSTRUCTURE
      1 S1             1
@<TRIPOS>SET
LONE_PAIRS      STATIC     ATOMS    <user>   **** ""
5 41 42 43 44 45
DONOR_HYDROGENS      STATIC     ATOMS    <user>   **** ""
2 20 29
ATOM$BLUE        STATIC     ATOMS    COLORGROUP SYSTEM
5 41 42 43 44 45
ATOM$RED        STATIC     ATOMS    COLORGROUP SYSTEM
2 20 29
