AV-unprocessed.smi:2976|AV-procd|sdf|11362|dock6
  -GOLD-   2272016283D 1   1.00000     0.00000
 Structure written by MMmdl.
 40 41  0  0  0  0  0  0  0  0  1 V2000
  150.7539  144.5329  158.6181 C   0  0  0  0  0  0  0  0  0  0  0  0
  151.9179  143.6796  158.0738 C   0  0  1  0  0  0  0  0  0  0  0  0
  153.1570  143.7583  158.9888 C   0  0  0  0  0  0  0  0  0  0  0  0
  152.9663  142.9702  160.2941 C   0  0  0  0  0  0  0  0  0  0  0  0
  152.5985  141.5076  160.0088 C   0  0  0  0  0  0  0  0  0  0  0  0
  151.3550  141.3937  159.1064 C   0  0  2  0  0  0  0  0  0  0  0  0
  151.1120  139.9801  158.8218 N   0  0  0  0  0  0  0  0  0  0  0  0
  151.9713  139.1355  158.2304 C   0  0  0  0  0  0  0  0  0  0  0  0
  153.0834  139.4721  157.8219 O   0  0  0  0  0  0  0  0  0  0  0  0
  151.4878  137.6873  158.0708 C   0  0  0  0  0  0  0  0  0  0  0  0
  150.0704  137.5106  158.4201 N   0  0  0  0  0  0  0  0  0  0  0  0
  149.8576  136.7247  159.5389 N   0  0  0  0  0  0  0  0  0  0  0  0
  148.6531  136.5078  159.9419 C   0  0  0  0  0  0  0  0  0  0  0  0
  147.5019  137.0574  159.2607 C   0  0  0  0  0  0  0  0  0  0  0  0
  145.9093  136.7314  159.8477 Cl  0  0  0  0  0  0  0  0  0  0  0  0
  147.7213  137.8234  158.1626 C   0  0  0  0  0  0  0  0  0  0  0  0
  146.3942  138.5156  157.2945 Cl  0  0  0  0  0  0  0  0  0  0  0  0
  149.0807  138.0906  157.6728 C   0  0  0  0  0  0  0  0  0  0  0  0
  149.3210  138.7745  156.6769 O   0  0  0  0  0  0  0  0  0  0  0  0
  151.5431  142.1995  157.7924 C   0  0  1  0  0  0  0  0  0  0  0  0
  150.3510  142.0727  156.8223 C   0  0  0  0  0  0  0  0  0  0  0  0
  150.3532  144.1370  159.5508 H   0  0  0  0  0  0  0  0  0  0  0  0
  149.9324  144.5919  157.9046 H   0  0  0  0  0  0  0  0  0  0  0  0
  151.0798  145.5555  158.8101 H   0  0  0  0  0  0  0  0  0  0  0  0
  152.2035  144.1286  157.1214 H   0  0  0  0  0  0  0  0  0  0  0  0
  154.0211  143.3585  158.4567 H   0  0  0  0  0  0  0  0  0  0  0  0
  153.3973  144.7982  159.2126 H   0  0  0  0  0  0  0  0  0  0  0  0
  153.8805  143.0111  160.8867 H   0  0  0  0  0  0  0  0  0  0  0  0
  152.1889  143.4340  160.9016 H   0  0  0  0  0  0  0  0  0  0  0  0
  153.4464  141.0126  159.5331 H   0  0  0  0  0  0  0  0  0  0  0  0
  152.4261  140.9845  160.9501 H   0  0  0  0  0  0  0  0  0  0  0  0
  150.5078  141.8089  159.6539 H   0  0  0  0  0  0  0  0  0  0  0  0
  150.2216  139.6086  159.1195 H   0  0  0  0  0  0  0  0  0  0  0  0
  151.6587  137.3493  157.0468 H   0  0  0  0  0  0  0  0  0  0  0  0
  152.1169  137.0526  158.6973 H   0  0  0  0  0  0  0  0  0  0  0  0
  148.4372  135.8971  160.8186 H   0  0  0  0  0  0  0  0  0  0  0  0
  152.3985  141.7629  157.2739 H   0  0  0  0  0  0  0  0  0  0  0  0
  149.4123  142.3526  157.3010 H   0  0  0  0  0  0  0  0  0  0  0  0
  150.2392  141.0514  156.4579 H   0  0  0  0  0  0  0  0  0  0  0  0
  150.4852  142.7103  155.9483 H   0  0  0  0  0  0  0  0  0  0  0  0
  1  2  1  0  0  0  0
  1 22  1  0  0  0  0
  1 23  1  0  0  0  0
  1 24  1  0  0  0  0
  2 20  1  0  0  0  0
  2  3  1  0  0  0  0
  2 25  1  0  0  0  0
  3  4  1  0  0  0  0
  3 26  1  0  0  0  0
  3 27  1  0  0  0  0
  4  5  1  0  0  0  0
  4 28  1  0  0  0  0
  4 29  1  0  0  0  0
  5  6  1  0  0  0  0
  5 30  1  0  0  0  0
  5 31  1  0  0  0  0
  6  7  1  0  0  0  0
  6 20  1  0  0  0  0
  6 32  1  0  0  0  0
  7  8  1  0  0  0  0
  7 33  1  0  0  0  0
  8  9  2  0  0  0  0
  8 10  1  0  0  0  0
 10 11  1  0  0  0  0
 10 34  1  0  0  0  0
 10 35  1  0  0  0  0
 11 18  1  0  0  0  0
 11 12  1  0  0  0  0
 12 13  2  0  0  0  0
 13 14  1  0  0  0  0
 13 36  1  0  0  0  0
 14 15  1  0  0  0  0
 14 16  2  0  0  0  0
 16 17  1  0  0  0  0
 16 18  1  0  0  0  0
 18 19  2  0  0  0  0
 20 21  1  0  0  0  0
 20 37  1  0  0  0  0
 21 38  1  0  0  0  0
 21 39  1  0  0  0  0
 21 40  1  0  0  0  0
M  END
> <s_m_source_file>
AV-unprocessed.smi

> <i_m_source_file_index>
2976

> <i_lp_mmshare_version>
43012

> <i_f3d_flags>
0

> <s_epik_input>
W0NIM11bQ0BASF0xW0NIMl1bQ0gyXVtDSDJdW0NASF0oW0NASF0xW0NIM10pW05IXUMoPU8pW0NIMl1uMm5bY0hdYyhDbCljKENsKWMyPU8=

> <s_epik_cmdline>
J2VwaWtfcHl0aG9uJywgJy1waCcsICc3LjAnLCAnLXRuJywgJzgnLCAnLW1hJywgJzIwMCcsICctbWV0YWxfYmluZGluZycsICctaW1hZScsICc8aW5maWxlLm1hZT4nLCAnLW9tYWUnLCAnPG91dGZpbGUubWFlPic=

> <r_lp_tautomer_probability>
1

> <r_epik_Ionization_Penalty>
1.90777e-08

> <r_epik_Ionization_Penalty_Charging>
3.07942e-11

> <r_epik_Ionization_Penalty_Neutral>
1.90469e-08

> <r_epik_State_Penalty>
-0

> <r_epik_Charging_Adjusted_Penalty>
3.07942e-11

> <i_epik_Tot_Q>
0

> <i_epik_Tot_abs_Q>
0

> <r_epik_Metal_State_Penalty>
-0

> <b_epik_Metal_Only>
0

> <s_lp_Force_Field>
OPLS_2005

> <r_lp_Energy>
28.0936

> <b_lp_Chiralities_Consistent>
1

> <s_lp_Variant>
AV-unprocessed.smi:2976-4

> <Gold.Version>
5.8.1

> <Gold.Id.Protein>
6NUR|6NUR_protein|mol2

> <Gold.PLP.Fitness>
40.3933

> <Gold.PLP.PLP>
-34.6237

> <Gold.PLP.part.hbond>
-2.0000

> <Gold.PLP.part.metal>
0.0000

> <Gold.PLP.part.buried>
-5.5316

> <Gold.PLP.part.nonpolar>
-28.1328

> <Gold.PLP.part.repulsive>
0.1765

> <Gold.PLP.ligand.clash>
0.0000

> <Gold.PLP.ligand.torsion>
0.1177

> <Gold.PLP.Chemscore.Hbond>
2.0000

> <Gold.PLP.Chemscore.CHOScore>
0.0000

> <Gold.PLP.Chemscore.Metal>
0.0000

> <Gold.Chemscore.Hbonds>
donor molecule, donor type, donor heavy atom, donor atom, acceptor molecule, acceptor atom, score
      P1  H  6896  6908       L1    12  0.86
      P1  H  7997  8009       L1     9  1.00

> <Gold.PLP.Chemscore.Internal.Correction>
0.0051

> <Gold.Rescore>
     Score         DG    S(hbond)    S(metal)    S(lipo)     H(rot)  DE(clash)    DE(int)     intcor
     17.07     -18.41       1.70        0.00      94.46       1.49       0.02       1.32       ----

> <Gold.Chemscore.Fitness>
17.0689

> <Gold.Chemscore.DG>
-18.4065

> <Gold.Chemscore.ZeroCoef>
-5.4800

> <Gold.Chemscore.Hbond>
1.7006

> <Gold.Chemscore.Metal>
0.0000

> <Gold.Chemscore.Lipo>
94.4620

> <Gold.Chemscore.Internal_Hbond>
0.0000

> <Gold.Chemscore.DEClash>
0.0208

> <Gold.Chemscore.DEInternal>
1.3167

> <Gold.Chemscore.Rot>
1.4866

> <Gold.Chemscore.Internal.Correction>
   9.000000E+99

> <Gold.Chemscore.Hbonds>
donor molecule, donor type, donor heavy atom, donor atom, acceptor molecule, acceptor atom, score
      P1  H  6896  6908       L1    12  0.45
      P1  H  7997  8009       L1     9  1.00

> <Gold.Chemscore.Hbond.Weighted>
-5.6801

> <Gold.Chemscore.Metal.Weighted>
-0.0000

> <Gold.Chemscore.Lipo.Weighted>
-11.0521

> <Gold.Chemscore.Internal_Hbond.Weighted>
0.0000

> <Gold.Chemscore.DEClash.Weighted>
0.0208

> <Gold.Chemscore.DEInternal.Weighted>
1.3167

> <Gold.Chemscore.Rot.Weighted>
3.8057

> <Gold.Chemscore.Internal.Correction.Weighted>
   9.000000E+99

> <Gold.Protein.RotatedTorsions>
[ 6907 6896 6895 6894 ] final -166.60 input  -60.11 | X-H torsion
[ 7974 7965 7964 7962 ] final  154.68 input  175.53 | X-H torsion
[ 8008 7997 7996 7995 ] final  174.60 input   59.86 | X-H torsion
[ 10167 10162 10161 10158 ] final    0.74 input  -65.29 | X-H torsion
[ 10718 10713 10712 10709 ] final  131.49 input   66.30 | X-H torsion
[ 10763 10752 10751 10750 ] final   24.67 input  -60.55 | X-H torsion
[ 11005 11000 10999 10996 ] final  110.88 input  -57.11 | X-H torsion

> <Gold.Protein.ActiveResidues>
 VAL166  LYS551  ARG553  GLY616  TRP617  ASP618  TYR619  PRO620  LYS621  CYS622 
 ASP623  PHE694  ASN695  SER759  ASP760  ASP761  ALA762  ILE779  LEU786  VAL792 
 PHE793  MET794  SER795  GLU796  ALA797  LYS798  CYS799  TRP800  GLU811  SER814 

> <Gold.Protein.RotatedAtoms>
  151.4462  133.3630  159.2788 H   0  0  0  0  0  0  0  0  0  0  0  0  # atno 6907 bound_to 6896
  150.9123  134.8541  159.7444 H   0  0  0  0  0  0  0  0  0  0  0  0  # atno 6908 bound_to 6896
  152.4938  134.4393  159.9590 H   0  0  0  0  0  0  0  0  0  0  0  0  # atno 6909 bound_to 6896
  144.8073  139.6966  143.6156 H   0  0  0  0  0  0  0  0  0  0  0  0  # atno 7974 bound_to 7965
  156.0957  140.1430  156.9534 H   0  0  0  0  0  0  0  0  0  0  0  0  # atno 8008 bound_to 7997
  154.4670  140.0923  156.7092 H   0  0  0  0  0  0  0  0  0  0  0  0  # atno 8009 bound_to 7997
  155.4845  140.3446  155.4347 H   0  0  0  0  0  0  0  0  0  0  0  0  # atno 8010 bound_to 7997
  140.6715  143.7036  150.7932 H   0  0  0  0  0  0  0  0  0  0  0  0  # atno 10167 bound_to 10162
  157.4962  131.1092  150.9489 H   0  0  0  0  0  0  0  0  0  0  0  0  # atno 10718 bound_to 10713
  153.0747  135.6600  154.0172 H   0  0  0  0  0  0  0  0  0  0  0  0  # atno 10763 bound_to 10752
  153.9809  135.2955  155.3421 H   0  0  0  0  0  0  0  0  0  0  0  0  # atno 10764 bound_to 10752
  154.7132  135.5196  153.8768 H   0  0  0  0  0  0  0  0  0  0  0  0  # atno 10765 bound_to 10752
  139.8891  134.9495  156.6347 H   0  0  0  0  0  0  0  0  0  0  0  0  # atno 11005 bound_to 11000
  146.2366  139.5918  142.9519 LP  0  0  0  0  0  0  0  0  0  0  0  0  # atno 17320 bound_to 7965
  145.5408  141.0421  143.2332 LP  0  0  0  0  0  0  0  0  0  0  0  0  # atno 17321 bound_to 7965
  140.0722  143.5050  152.2574 LP  0  0  0  0  0  0  0  0  0  0  0  0  # atno 17342 bound_to 10162
  139.5985  144.7575  151.3227 LP  0  0  0  0  0  0  0  0  0  0  0  0  # atno 17343 bound_to 10162
  157.0175  130.5660  149.5327 LP  0  0  0  0  0  0  0  0  0  0  0  0  # atno 17370 bound_to 10713
  156.0202  130.5297  150.8253 LP  0  0  0  0  0  0  0  0  0  0  0  0  # atno 17371 bound_to 10713
  140.7640  133.8794  155.8440 LP  0  0  0  0  0  0  0  0  0  0  0  0  # atno 17394 bound_to 11000
  140.9898  134.1293  157.4418 LP  0  0  0  0  0  0  0  0  0  0  0  0  # atno 17395 bound_to 11000

$$$$
