#       Name:                AV-unprocessed.smi:114
#       Creating user name   scv26
#       Creation time:       Thu Mar 26 18:23:14 2020


#       File generated by GOLD software.
#

@<TRIPOS>MOLECULE
AV-unprocessed.smi:114
    43    45     1
SMALL
NO_CHARGES


@<TRIPOS>ATOM
      1 ****        -5.1745   0.0971   0.2358 N.pl3          1 S1                 0.0000
      2 ****        -3.8676   0.3949   0.2441 C.ar           1 S1                 0.0000
      3 ****        -3.5040   1.6980   0.2676 N.ar           1 S1                 0.0000
      4 ****        -2.2092   2.0379   0.2732 C.ar           1 S1                 0.0000
      5 ****        -1.9364   3.3636   0.2949 F              1 S1                 0.0000
      6 ****        -1.1555   1.2148   0.2577 N.ar           1 S1                 0.0000
      7 ****        -1.5161  -0.1011   0.2346 C.ar           1 S1                 0.0000
      8 ****        -2.8502  -0.5902   0.2262 C.ar           1 S1                 0.0000
      9 ****        -2.8472  -1.9778   0.1987 N.2            1 S1                 0.0000
     10 ****        -1.5787  -2.2876   0.1885 C.2            1 S1                 0.0000
     11 ****        -0.7066  -1.2210   0.2026 N.pl3          1 S1                 0.0000
     12 ****         0.7923  -1.2797   0.1867 C.3            1 S1                 0.0000
     13 ****         1.3083  -0.2830   1.0198 O.3            1 S1                 0.0000
     14 ****         2.1385   0.6127   0.2801 C.3            1 S1                 0.0000
     15 ****         3.2701   1.1346   1.1789 C.3            1 S1                 0.0000
     16 ****         2.8085   2.2120   1.9653 O.3            1 S1                 0.0000
     17 ****         2.6307  -0.2548  -0.8800 C.3            1 S1                 0.0000
     18 ****         3.1122   0.4997  -1.9766 O.3            1 S1                 0.0000
     19 ****         1.3982  -1.0824  -1.2163 C.3            1 S1                 0.0000
     20 ****         0.5286  -0.4302  -2.1290 O.3            1 S1                 0.0000
     21 ****         1.0344  -2.2526   0.6162 H              1 S1                 0.0000
     22 ****         1.5373   1.4347  -0.1119 H              1 S1                 0.0000
     23 ****         3.4225  -0.9199  -0.5315 H              1 S1                 0.0000
     24 ****         1.6665  -2.0521  -1.6367 H              1 S1                 0.0000
     25 ****        -5.4699  -0.8684   0.2159 H              1 S1                 0.0000
     26 ****        -5.8603   0.8381   0.2479 H              1 S1                 0.0000
     27 ****        -1.2407  -3.3134   0.1648 H              1 S1                 0.0000
     28 ****         3.6705   0.3440   1.8143 H              1 S1                 0.0000
     29 ****         4.0929   1.5069   0.5678 H              1 S1                 0.0000
     30 ****         3.5276   2.5344   2.4865 H              1 S1                 0.0000
     31 ****         3.2546  -0.0853  -2.7047 H              1 S1                 0.0000
     32 ****        -0.2761  -0.9228  -2.1805 H              1 S1                 0.0000
     33 ****        -4.2056   2.4104   0.2808 LP             1 S1                 0.0000
     34 ****        -0.2063   1.5294   0.2625 LP             1 S1                 0.0000
     35 ****        -3.6331  -2.5961   0.1889 LP             1 S1                 0.0000
     36 ****         1.8492  -0.7089   1.7450 LP             1 S1                 0.0000
     37 ****         0.5518   0.2299   1.4256 LP             1 S1                 0.0000
     38 ****         2.0712   1.9000   2.5646 LP             1 S1                 0.0000
     39 ****         2.4691   2.9415   1.3714 LP             1 S1                 0.0000
     40 ****         3.9729   0.9441  -1.7281 LP             1 S1                 0.0000
     41 ****         2.4390   1.1946  -2.2292 LP             1 S1                 0.0000
     42 ****         0.9568  -0.3883  -3.0317 LP             1 S1                 0.0000
     43 ****         0.3364   0.4971  -1.8079 LP             1 S1                 0.0000
@<TRIPOS>BOND
    1    1    2 1     
    2    1   25 1     
    3    1   26 1     
    4    2    8 ar    
    5    2    3 ar    
    6    3    4 ar    
    7    4    5 1     
    8    4    6 ar    
    9    6    7 ar    
   10    7   11 1     
   11    7    8 ar    
   12    8    9 1     
   13    9   10 2     
   14   10   11 1     
   15   10   27 1     
   16   11   12 1     
   17   12   21 1     
   18   12   19 1     
   19   12   13 1     
   20   13   14 1     
   21   14   22 1     
   22   14   15 1     
   23   14   17 1     
   24   15   16 1     
   25   15   28 1     
   26   15   29 1     
   27   16   30 1     
   28   17   23 1     
   29   17   18 1     
   30   17   19 1     
   31   18   31 1     
   32   19   24 1     
   33   19   20 1     
   34   20   32 1     
   35    3   33 1     
   36    6   34 1     
   37    9   35 1     
   38   13   36 1     
   39   13   37 1     
   40   16   38 1     
   41   16   39 1     
   42   18   40 1     
   43   18   41 1     
   44   20   42 1     
   45   20   43 1     
@<TRIPOS>SUBSTRUCTURE
      1 S1             1
@<TRIPOS>SET
LONE_PAIRS      STATIC     ATOMS    <user>   **** ""
11 33 34 35 36 37 38 39 40 41 42 43
DONOR_HYDROGENS      STATIC     ATOMS    <user>   **** ""
5 25 26 30 31 32
ATOM$BLUE        STATIC     ATOMS    COLORGROUP SYSTEM
11 33 34 35 36 37 38 39 40 41 42 43
ATOM$RED        STATIC     ATOMS    COLORGROUP SYSTEM
5 25 26 30 31 32
