AV-unprocessed.smi:438|AV-procd|sdf|2563|dock7
  -GOLD-   2262022533D 1   1.00000     0.00000
 Structure written by MMmdl.
 48 49  0  0  0  0  0  0  0  0  1 V2000
  145.4999  136.5771  155.3877 C   0  0  0  0  0  0  0  0  0  0  0  0
  146.2232  137.5250  154.4475 C   0  0  0  0  0  0  0  0  0  0  0  0
  147.2179  138.3174  155.0338 N   0  0  0  0  0  0  0  0  0  0  0  0
  147.8924  139.1537  154.3112 C   0  0  0  0  0  0  0  0  0  0  0  0
  149.2216  140.2868  154.8067 S   0  0  0  0  0  0  0  0  0  0  0  0
  150.4642  139.1193  155.4283 C   0  0  0  0  0  0  0  0  0  0  0  0
  151.6052  139.8211  156.1603 C   0  0  0  0  0  0  0  0  0  0  0  0
  152.7562  139.7335  155.7334 O   0  0  0  0  0  0  0  0  0  0  0  0
  151.2743  140.5106  157.2630 N   0  0  0  0  0  0  0  0  0  0  0  0
  152.2034  141.2585  158.1075 C   0  0  2  0  0  0  0  0  0  0  0  0
  152.6824  140.3652  159.2719 C   0  0  0  0  0  0  0  0  0  0  0  0
  153.6066  141.1283  160.2314 C   0  0  0  0  0  0  0  0  0  0  0  0
  152.9230  142.3956  160.7611 C   0  0  0  0  0  0  0  0  0  0  0  0
  152.4661  143.2976  159.6051 C   0  0  0  0  0  0  0  0  0  0  0  0
  151.5314  142.5533  158.6302 C   0  0  1  0  0  0  0  0  0  0  0  0
  151.0859  143.4883  157.4912 C   0  0  0  0  0  0  0  0  0  0  0  0
  147.6354  139.2762  152.9450 N   0  0  0  0  0  0  0  0  0  0  0  0
  146.6930  138.5647  152.2872 C   0  0  0  0  0  0  0  0  0  0  0  0
  146.5132  138.7323  151.0820 O   0  0  0  0  0  0  0  0  0  0  0  0
  145.9346  137.6156  153.1191 C   0  0  0  0  0  0  0  0  0  0  0  0
  144.8705  136.7623  152.4346 C   0  0  0  0  0  0  0  0  0  0  0  0
  145.4500  135.9307  151.2811 C   0  0  0  0  0  0  0  0  0  0  0  0
  145.3808  136.6665  150.0792 O   0  0  0  0  0  0  0  0  0  0  0  0
  144.4196  136.6926  155.2970 H   0  0  0  0  0  0  0  0  0  0  0  0
  145.7684  136.7684  156.4273 H   0  0  0  0  0  0  0  0  0  0  0  0
  145.7600  135.5436  155.1580 H   0  0  0  0  0  0  0  0  0  0  0  0
  150.8547  138.5354  154.5934 H   0  0  0  0  0  0  0  0  0  0  0  0
  149.9852  138.4189  156.1132 H   0  0  0  0  0  0  0  0  0  0  0  0
  150.3028  140.5242  157.5372 H   0  0  0  0  0  0  0  0  0  0  0  0
  153.0719  141.5471  157.5119 H   0  0  0  0  0  0  0  0  0  0  0  0
  151.8218  139.9878  159.8259 H   0  0  0  0  0  0  0  0  0  0  0  0
  153.2060  139.4902  158.8847 H   0  0  0  0  0  0  0  0  0  0  0  0
  153.8929  140.4841  161.0633 H   0  0  0  0  0  0  0  0  0  0  0  0
  154.5293  141.3972  159.7154 H   0  0  0  0  0  0  0  0  0  0  0  0
  152.0638  142.1206  161.3741 H   0  0  0  0  0  0  0  0  0  0  0  0
  153.6061  142.9419  161.4121 H   0  0  0  0  0  0  0  0  0  0  0  0
  151.9604  144.1755  160.0090 H   0  0  0  0  0  0  0  0  0  0  0  0
  153.3403  143.6674  159.0673 H   0  0  0  0  0  0  0  0  0  0  0  0
  150.6371  142.2683  159.1871 H   0  0  0  0  0  0  0  0  0  0  0  0
  151.9328  143.7910  156.8747 H   0  0  0  0  0  0  0  0  0  0  0  0
  150.6234  144.3930  157.8867 H   0  0  0  0  0  0  0  0  0  0  0  0
  150.3539  143.0114  156.8391 H   0  0  0  0  0  0  0  0  0  0  0  0
  148.1784  139.9388  152.4106 H   0  0  0  0  0  0  0  0  0  0  0  0
  144.0652  137.3944  152.0610 H   0  0  0  0  0  0  0  0  0  0  0  0
  144.4002  136.1071  153.1695 H   0  0  0  0  0  0  0  0  0  0  0  0
  146.4902  135.6697  151.4778 H   0  0  0  0  0  0  0  0  0  0  0  0
  144.8966  134.9990  151.1582 H   0  0  0  0  0  0  0  0  0  0  0  0
  144.8690  137.4458  150.2330 H   0  0  0  0  0  0  0  0  0  0  0  0
  1 24  1  0  0  0  0
  1 25  1  0  0  0  0
  1 26  1  0  0  0  0
  1  2  1  0  0  0  0
  2 20  2  0  0  0  0
  2  3  1  0  0  0  0
  3  4  2  0  0  0  0
  4  5  1  0  0  0  0
  4 17  1  0  0  0  0
  5  6  1  0  0  0  0
  6  7  1  0  0  0  0
  6 27  1  0  0  0  0
  6 28  1  0  0  0  0
  7  8  2  0  0  0  0
  7  9  1  0  0  0  0
  9 10  1  0  0  0  0
  9 29  1  0  0  0  0
 10 15  1  0  0  0  0
 10 11  1  0  0  0  0
 10 30  1  0  0  0  0
 11 12  1  0  0  0  0
 11 31  1  0  0  0  0
 11 32  1  0  0  0  0
 12 13  1  0  0  0  0
 12 33  1  0  0  0  0
 12 34  1  0  0  0  0
 13 14  1  0  0  0  0
 13 35  1  0  0  0  0
 13 36  1  0  0  0  0
 14 15  1  0  0  0  0
 14 37  1  0  0  0  0
 14 38  1  0  0  0  0
 15 16  1  0  0  0  0
 15 39  1  0  0  0  0
 16 40  1  0  0  0  0
 16 41  1  0  0  0  0
 16 42  1  0  0  0  0
 17 43  1  0  0  0  0
 17 18  1  0  0  0  0
 18 19  2  0  0  0  0
 18 20  1  0  0  0  0
 20 21  1  0  0  0  0
 21 22  1  0  0  0  0
 21 44  1  0  0  0  0
 21 45  1  0  0  0  0
 22 23  1  0  0  0  0
 22 46  1  0  0  0  0
 22 47  1  0  0  0  0
 23 48  1  0  0  0  0
M  END
> <s_m_source_file>
AV-unprocessed.smi

> <i_m_source_file_index>
438

> <i_lp_mmshare_version>
43012

> <i_f3d_flags>
0

> <s_epik_input>
W09IXVtDSDJdW0NIMl1jMWMoW09IXSluYyhuYzFbQ0gzXSlTW0NIMl1DKD1PKVtOSF1bQ0BASF0yW0NIMl1bQ0gyXVtDSDJdW0NIMl1bQ0BIXTJbQ0gzXQ==

> <s_epik_cmdline>
J2VwaWtfcHl0aG9uJywgJy1waCcsICc3LjAnLCAnLXRuJywgJzgnLCAnLW1hJywgJzIwMCcsICctbWV0YWxfYmluZGluZycsICctaW1hZScsICc8aW5maWxlLm1hZT4nLCAnLW9tYWUnLCAnPG91dGZpbGUubWFlPic=

> <r_lp_tautomer_probability>
0.660323

> <r_epik_Ionization_Penalty>
0.00860626

> <r_epik_Ionization_Penalty_Charging>
0.00860522

> <r_epik_Ionization_Penalty_Neutral>
1.04215e-06

> <r_epik_State_Penalty>
0.156825

> <r_epik_Charging_Adjusted_Penalty>
0.16543

> <i_epik_Tot_Q>
0

> <i_epik_Tot_abs_Q>
0

> <r_epik_Metal_State_Penalty>
0.752038

> <b_epik_Metal_Only>
0

> <s_lp_Force_Field>
OPLS_2005

> <r_lp_Energy>
14.035

> <b_lp_Chiralities_Consistent>
1

> <s_lp_Variant>
AV-unprocessed.smi:438-1

> <Gold.Version>
5.8.1

> <Gold.Id.Protein>
6NUR|6NUR_protein|mol2

> <Gold.PLP.Fitness>
53.6393

> <Gold.PLP.PLP>
-42.9823

> <Gold.PLP.part.hbond>
-4.8073

> <Gold.PLP.part.metal>
0.0000

> <Gold.PLP.part.buried>
-2.7271

> <Gold.PLP.part.nonpolar>
-35.1099

> <Gold.PLP.part.repulsive>
1.1498

> <Gold.PLP.ligand.clash>
0.0000

> <Gold.PLP.ligand.torsion>
0.5710

> <Gold.PLP.Chemscore.Hbond>
3.9120

> <Gold.PLP.Chemscore.CHOScore>
0.0000

> <Gold.PLP.Chemscore.Metal>
0.0000

> <Gold.Chemscore.Hbonds>
donor molecule, donor type, donor heavy atom, donor atom, acceptor molecule, acceptor atom, score
      L1  H    17    43       P1  7957  0.83
      L1  H    23    48       P1 10171  1.00
      P1  H  7954  7966       L1    19  0.54
      P1  H  7997  8009       L1     8  1.00

> <Gold.PLP.Chemscore.Internal.Correction>
0.0630

> <Gold.Rescore>
     Score         DG    S(hbond)    S(metal)    S(lipo)     H(rot)  DE(clash)    DE(int)     intcor
     21.77     -22.68       3.89        0.00      98.59       2.86       0.23       0.68       ----

> <Gold.Chemscore.Fitness>
21.7656

> <Gold.Chemscore.DG>
-22.6766

> <Gold.Chemscore.ZeroCoef>
-5.4800

> <Gold.Chemscore.Hbond>
3.8907

> <Gold.Chemscore.Metal>
0.0000

> <Gold.Chemscore.Lipo>
98.5867

> <Gold.Chemscore.Internal_Hbond>
0.0000

> <Gold.Chemscore.DEClash>
0.2272

> <Gold.Chemscore.DEInternal>
0.6838

> <Gold.Chemscore.Rot>
2.8645

> <Gold.Chemscore.Internal.Correction>
   9.000000E+99

> <Gold.Chemscore.Hbonds>
donor molecule, donor type, donor heavy atom, donor atom, acceptor molecule, acceptor atom, score
      L1  H    17    43       P1  7957  0.83
      L1  H    23    48       P1 10171  0.94
      P1  H  7954  7966       L1    19  0.43
      P1  H  7997  8009       L1     8  1.00

> <Gold.Chemscore.Hbond.Weighted>
-12.9950

> <Gold.Chemscore.Metal.Weighted>
-0.0000

> <Gold.Chemscore.Lipo.Weighted>
-11.5346

> <Gold.Chemscore.Internal_Hbond.Weighted>
0.0000

> <Gold.Chemscore.DEClash.Weighted>
0.2272

> <Gold.Chemscore.DEInternal.Weighted>
0.6838

> <Gold.Chemscore.Rot.Weighted>
7.3331

> <Gold.Chemscore.Internal.Correction.Weighted>
   9.000000E+99

> <Gold.Protein.RotatedTorsions>
[ 6907 6896 6895 6894 ] final -138.26 input  -60.11 | X-H torsion
[ 7974 7965 7964 7962 ] final  179.80 input  175.53 | X-H torsion
[ 8008 7997 7996 7995 ] final -153.52 input   59.86 | X-H torsion
[ 10167 10162 10161 10158 ] final   40.31 input  -65.29 | X-H torsion
[ 10718 10713 10712 10709 ] final  -50.22 input   66.30 | X-H torsion
[ 10763 10752 10751 10750 ] final  156.73 input  -60.55 | X-H torsion
[ 11005 11000 10999 10996 ] final  123.68 input  -57.11 | X-H torsion

> <Gold.Protein.ActiveResidues>
 VAL166  LYS551  ARG553  GLY616  TRP617  ASP618  TYR619  PRO620  LYS621  CYS622 
 ASP623  PHE694  ASN695  SER759  ASP760  ASP761  ALA762  ILE779  LEU786  VAL792 
 PHE793  MET794  SER795  GLU796  ALA797  LYS798  CYS799  TRP800  GLU811  SER814 

> <Gold.Protein.RotatedAtoms>
  151.0328  133.5775  159.2658 H   0  0  0  0  0  0  0  0  0  0  0  0  # atno 6907 bound_to 6896
  151.2850  135.0724  159.9193 H   0  0  0  0  0  0  0  0  0  0  0  0  # atno 6908 bound_to 6896
  152.5348  134.0036  159.7960 H   0  0  0  0  0  0  0  0  0  0  0  0  # atno 6909 bound_to 6896
  144.7142  140.0603  143.6433 H   0  0  0  0  0  0  0  0  0  0  0  0  # atno 7974 bound_to 7965
  155.6722  140.0734  157.2516 H   0  0  0  0  0  0  0  0  0  0  0  0  # atno 8008 bound_to 7997
  154.4121  140.1697  156.1942 H   0  0  0  0  0  0  0  0  0  0  0  0  # atno 8009 bound_to 7997
  155.9607  140.3370  155.6491 H   0  0  0  0  0  0  0  0  0  0  0  0  # atno 8010 bound_to 7997
  140.3755  144.2049  150.6132 H   0  0  0  0  0  0  0  0  0  0  0  0  # atno 10167 bound_to 10162
  156.1820  130.4150  149.9493 H   0  0  0  0  0  0  0  0  0  0  0  0  # atno 10718 bound_to 10713
  154.1890  135.2796  155.3028 H   0  0  0  0  0  0  0  0  0  0  0  0  # atno 10763 bound_to 10752
  154.5944  135.5549  153.7314 H   0  0  0  0  0  0  0  0  0  0  0  0  # atno 10764 bound_to 10752
  153.0117  135.6376  154.2028 H   0  0  0  0  0  0  0  0  0  0  0  0  # atno 10765 bound_to 10752
  139.9324  134.9641  156.8296 H   0  0  0  0  0  0  0  0  0  0  0  0  # atno 11005 bound_to 11000
  145.9870  139.2985  143.1008 LP  0  0  0  0  0  0  0  0  0  0  0  0  # atno 17320 bound_to 7965
  145.8946  140.9282  143.0534 LP  0  0  0  0  0  0  0  0  0  0  0  0  # atno 17321 bound_to 7965
  140.4991  143.2323  151.8706 LP  0  0  0  0  0  0  0  0  0  0  0  0  # atno 17342 bound_to 10162
  139.4800  144.5080  151.8971 LP  0  0  0  0  0  0  0  0  0  0  0  0  # atno 17343 bound_to 10162
  156.7260  130.9025  151.3622 LP  0  0  0  0  0  0  0  0  0  0  0  0  # atno 17370 bound_to 10713
  157.6874  130.9199  150.0424 LP  0  0  0  0  0  0  0  0  0  0  0  0  # atno 17371 bound_to 10713
  140.6167  134.0032  155.7600 LP  0  0  0  0  0  0  0  0  0  0  0  0  # atno 17394 bound_to 11000
  141.0919  133.9903  157.3223 LP  0  0  0  0  0  0  0  0  0  0  0  0  # atno 17395 bound_to 11000

$$$$
