AV-unprocessed.smi:783|AV-procd|sdf|3716|dock4
  -GOLD-   22720 1143D 1   1.00000     0.00000
 Structure written by MMmdl.
 45 46  0  0  0  0  0  0  0  0  1 V2000
  151.3345  145.0815  158.8372 C   0  0  0  0  0  0  0  0  0  0  0  0
  152.0027  143.6942  158.7463 C   0  0  2  0  0  0  0  0  0  0  0  0
  151.0324  142.6038  158.2671 C   0  0  0  0  0  0  0  0  0  0  0  0
  150.0406  142.3099  158.9348 O   0  0  0  0  0  0  0  0  0  0  0  0
  151.3314  142.0182  157.0963 N   0  0  0  0  0  0  0  0  0  0  0  0
  150.5411  140.9870  156.4230 C   0  0  0  0  0  0  0  0  0  0  0  0
  151.3733  139.7103  156.0893 C   0  0  0  0  0  0  0  0  0  0  0  0
  151.9657  139.0331  157.3714 C   0  0  0  0  0  0  0  0  0  0  0  0
  153.1931  138.9902  157.4885 O   0  0  0  0  0  0  0  0  0  0  0  0
  151.1772  138.4797  158.3330 N   0  0  0  0  0  0  0  0  0  0  0  0
  149.7123  138.4598  158.3994 C   0  0  0  0  0  0  0  0  0  0  0  0
  151.8009  137.7857  159.4644 C   0  0  0  0  0  0  0  0  0  0  0  0
  150.4519  138.7293  155.3099 C   0  0  0  0  0  0  0  0  0  0  0  0
  151.3580  137.8157  154.4785 C   0  0  0  0  0  0  0  0  0  0  0  0
  152.6519  138.6053  154.2707 C   0  0  0  0  0  0  0  0  0  0  0  0
  152.4678  139.9347  155.0157 C   0  0  0  0  0  0  0  0  0  0  0  0
  152.6323  143.2966  160.0005 N   0  0  0  0  0  0  0  0  0  0  0  0
  153.4032  142.1775  160.2435 C   0  0  0  0  0  0  0  0  0  0  0  0
  153.7461  142.1930  161.5652 C   0  0  0  0  0  0  0  0  0  0  0  0
  153.1192  143.3689  162.0626 C   0  0  0  0  0  0  0  0  0  0  0  0
  152.4477  144.0217  161.1286 N   0  0  0  0  0  0  0  0  0  0  0  0
  150.9203  145.3800  157.8736 H   0  0  0  0  0  0  0  0  0  0  0  0
  152.0582  145.8424  159.1307 H   0  0  0  0  0  0  0  0  0  0  0  0
  150.5221  145.1014  159.5650 H   0  0  0  0  0  0  0  0  0  0  0  0
  152.7971  143.7730  158.0018 H   0  0  0  0  0  0  0  0  0  0  0  0
  152.1671  142.3253  156.6204 H   0  0  0  0  0  0  0  0  0  0  0  0
  149.7306  140.7237  157.1029 H   0  0  0  0  0  0  0  0  0  0  0  0
  150.0330  141.4016  155.5557 H   0  0  0  0  0  0  0  0  0  0  0  0
  149.2007  139.1224  157.7102 H   0  0  0  0  0  0  0  0  0  0  0  0
  149.3796  138.7482  159.3971 H   0  0  0  0  0  0  0  0  0  0  0  0
  149.3479  137.4497  158.2113 H   0  0  0  0  0  0  0  0  0  0  0  0
  152.3765  138.4846  160.0729 H   0  0  0  0  0  0  0  0  0  0  0  0
  152.4732  137.0006  159.1144 H   0  0  0  0  0  0  0  0  0  0  0  0
  151.0676  137.3093  160.1163 H   0  0  0  0  0  0  0  0  0  0  0  0
  149.7700  138.1617  155.9448 H   0  0  0  0  0  0  0  0  0  0  0  0
  149.8173  139.2889  154.6209 H   0  0  0  0  0  0  0  0  0  0  0  0
  151.5684  136.8922  155.0193 H   0  0  0  0  0  0  0  0  0  0  0  0
  150.8891  137.5403  153.5332 H   0  0  0  0  0  0  0  0  0  0  0  0
  153.4921  138.0503  154.6896 H   0  0  0  0  0  0  0  0  0  0  0  0
  152.8649  138.7700  153.2141 H   0  0  0  0  0  0  0  0  0  0  0  0
  152.1356  140.6968  154.3094 H   0  0  0  0  0  0  0  0  0  0  0  0
  153.4287  140.2679  155.4014 H   0  0  0  0  0  0  0  0  0  0  0  0
  153.6419  141.4701  159.4630 H   0  0  0  0  0  0  0  0  0  0  0  0
  154.3484  141.4714  162.0970 H   0  0  0  0  0  0  0  0  0  0  0  0
  153.1282  143.7626  163.0685 H   0  0  0  0  0  0  0  0  0  0  0  0
  1  2  1  0  0  0  0
  1 22  1  0  0  0  0
  1 23  1  0  0  0  0
  1 24  1  0  0  0  0
  2  3  1  0  0  0  0
  2 17  1  0  0  0  0
  2 25  1  0  0  0  0
  3  4  2  0  0  0  0
  3  5  1  0  0  0  0
  5  6  1  0  0  0  0
  5 26  1  0  0  0  0
  6  7  1  0  0  0  0
  6 27  1  0  0  0  0
  6 28  1  0  0  0  0
  7 16  1  0  0  0  0
  7  8  1  0  0  0  0
  7 13  1  0  0  0  0
  8  9  2  0  0  0  0
  8 10  1  0  0  0  0
 10 11  1  0  0  0  0
 10 12  1  0  0  0  0
 11 29  1  0  0  0  0
 11 30  1  0  0  0  0
 11 31  1  0  0  0  0
 12 32  1  0  0  0  0
 12 33  1  0  0  0  0
 12 34  1  0  0  0  0
 13 14  1  0  0  0  0
 13 35  1  0  0  0  0
 13 36  1  0  0  0  0
 14 15  1  0  0  0  0
 14 37  1  0  0  0  0
 14 38  1  0  0  0  0
 15 16  1  0  0  0  0
 15 39  1  0  0  0  0
 15 40  1  0  0  0  0
 16 41  1  0  0  0  0
 16 42  1  0  0  0  0
 17 21  1  0  0  0  0
 17 18  1  0  0  0  0
 18 19  2  0  0  0  0
 18 43  1  0  0  0  0
 19 20  1  0  0  0  0
 19 44  1  0  0  0  0
 20 21  2  0  0  0  0
 20 45  1  0  0  0  0
M  END
> <s_m_source_file>
AV-unprocessed.smi

> <i_m_source_file_index>
783

> <i_lp_mmshare_version>
43012

> <i_f3d_flags>
0

> <s_epik_input>
bjFbY0hdW2NIXVtjSF1uMVtDQEhdKFtDSDNdKUMoPU8pW05IXVtDSDJdQzIoQyg9TylOKFtDSDNdKVtDSDNdKVtDSDJdW0NIMl1bQ0gyXVtDSDJdMg==

> <s_epik_cmdline>
J2VwaWtfcHl0aG9uJywgJy1waCcsICc3LjAnLCAnLXRuJywgJzgnLCAnLW1hJywgJzIwMCcsICctbWV0YWxfYmluZGluZycsICctaW1hZScsICc8aW5maWxlLm1hZT4nLCAnLW9tYWUnLCAnPG91dGZpbGUubWFlPic=

> <r_lp_tautomer_probability>
1

> <r_epik_Ionization_Penalty>
3.31274e-05

> <r_epik_Ionization_Penalty_Charging>
0

> <r_epik_Ionization_Penalty_Neutral>
3.31274e-05

> <r_epik_State_Penalty>
-0

> <r_epik_Charging_Adjusted_Penalty>
0

> <i_epik_Tot_Q>
0

> <i_epik_Tot_abs_Q>
0

> <r_epik_Metal_State_Penalty>
-0

> <b_epik_Metal_Only>
0

> <s_lp_Force_Field>
OPLS_2005

> <r_lp_Energy>
39.8422

> <b_lp_Chiralities_Consistent>
1

> <s_lp_Variant>
AV-unprocessed.smi:783-1

> <Gold.Version>
5.8.1

> <Gold.Id.Protein>
6NUR|6NUR_protein|mol2

> <Gold.PLP.Fitness>
48.8812

> <Gold.PLP.PLP>
-46.1738

> <Gold.PLP.part.hbond>
-2.0000

> <Gold.PLP.part.metal>
0.0000

> <Gold.PLP.part.buried>
-2.9011

> <Gold.PLP.part.nonpolar>
-40.3426

> <Gold.PLP.part.repulsive>
0.2714

> <Gold.PLP.ligand.clash>
0.0000

> <Gold.PLP.ligand.torsion>
0.2999

> <Gold.PLP.Chemscore.Hbond>
1.0000

> <Gold.PLP.Chemscore.CHOScore>
0.0000

> <Gold.PLP.Chemscore.Metal>
0.0000

> <Gold.Chemscore.Hbonds>
donor molecule, donor type, donor heavy atom, donor atom, acceptor molecule, acceptor atom, score
      P1  H  7997  8009       L1     9  1.00

> <Gold.PLP.Chemscore.Internal.Correction>
0.3071

> <Gold.Rescore>
     Score         DG    S(hbond)    S(metal)    S(lipo)     H(rot)  DE(clash)    DE(int)     intcor
     16.01     -16.82       0.96        0.00     109.79       1.84       0.42       0.40       ----

> <Gold.Chemscore.Fitness>
16.0051

> <Gold.Chemscore.DG>
-16.8234

> <Gold.Chemscore.ZeroCoef>
-5.4800

> <Gold.Chemscore.Hbond>
0.9644

> <Gold.Chemscore.Metal>
0.0000

> <Gold.Chemscore.Lipo>
109.7877

> <Gold.Chemscore.Internal_Hbond>
0.0000

> <Gold.Chemscore.DEClash>
0.4231

> <Gold.Chemscore.DEInternal>
0.3952

> <Gold.Chemscore.Rot>
1.8449

> <Gold.Chemscore.Internal.Correction>
   9.000000E+99

> <Gold.Chemscore.Hbonds>
donor molecule, donor type, donor heavy atom, donor atom, acceptor molecule, acceptor atom, score
      P1  H  7997  8009       L1     9  0.99

> <Gold.Chemscore.Hbond.Weighted>
-3.2212

> <Gold.Chemscore.Metal.Weighted>
-0.0000

> <Gold.Chemscore.Lipo.Weighted>
-12.8452

> <Gold.Chemscore.Internal_Hbond.Weighted>
0.0000

> <Gold.Chemscore.DEClash.Weighted>
0.4231

> <Gold.Chemscore.DEInternal.Weighted>
0.3952

> <Gold.Chemscore.Rot.Weighted>
4.7229

> <Gold.Chemscore.Internal.Correction.Weighted>
   9.000000E+99

> <Gold.Protein.RotatedTorsions>
[ 6907 6896 6895 6894 ] final  112.31 input  -60.11 | X-H torsion
[ 7974 7965 7964 7962 ] final  -85.26 input  175.53 | X-H torsion
[ 8008 7997 7996 7995 ] final  152.02 input   59.86 | X-H torsion
[ 10167 10162 10161 10158 ] final   63.23 input  -65.29 | X-H torsion
[ 10718 10713 10712 10709 ] final   32.12 input   66.30 | X-H torsion
[ 10763 10752 10751 10750 ] final  -18.63 input  -60.55 | X-H torsion
[ 11005 11000 10999 10996 ] final -109.89 input  -57.11 | X-H torsion

> <Gold.Protein.ActiveResidues>
 VAL166  LYS551  ARG553  GLY616  TRP617  ASP618  TYR619  PRO620  LYS621  CYS622 
 ASP623  PHE694  ASN695  SER759  ASP760  ASP761  ALA762  ILE779  LEU786  VAL792 
 PHE793  MET794  SER795  GLU796  ALA797  LYS798  CYS799  TRP800  GLU811  SER814 

> <Gold.Protein.RotatedAtoms>
  152.4923  133.8535  159.7213 H   0  0  0  0  0  0  0  0  0  0  0  0  # atno 6907 bound_to 6896
  150.9065  133.7042  159.2872 H   0  0  0  0  0  0  0  0  0  0  0  0  # atno 6908 bound_to 6896
  151.4465  135.1030  159.9738 H   0  0  0  0  0  0  0  0  0  0  0  0  # atno 6909 bound_to 6896
  145.4956  140.9550  143.1788 H   0  0  0  0  0  0  0  0  0  0  0  0  # atno 7974 bound_to 7965
  156.2648  140.2032  156.6267 H   0  0  0  0  0  0  0  0  0  0  0  0  # atno 8008 bound_to 7997
  154.6714  140.0549  157.0194 H   0  0  0  0  0  0  0  0  0  0  0  0  # atno 8009 bound_to 7997
  155.1131  140.3217  155.4519 H   0  0  0  0  0  0  0  0  0  0  0  0  # atno 8010 bound_to 7997
  140.1353  144.4604  150.6841 H   0  0  0  0  0  0  0  0  0  0  0  0  # atno 10167 bound_to 10162
  157.2812  130.7256  149.6557 H   0  0  0  0  0  0  0  0  0  0  0  0  # atno 10718 bound_to 10713
  153.5923  135.7002  153.5418 H   0  0  0  0  0  0  0  0  0  0  0  0  # atno 10763 bound_to 10752
  153.3168  135.4085  155.1382 H   0  0  0  0  0  0  0  0  0  0  0  0  # atno 10764 bound_to 10752
  154.8598  135.3685  154.5455 H   0  0  0  0  0  0  0  0  0  0  0  0  # atno 10765 bound_to 10752
  141.0822  133.9199  157.2263 H   0  0  0  0  0  0  0  0  0  0  0  0  # atno 11005 bound_to 11000
  144.7809  139.6528  143.7155 LP  0  0  0  0  0  0  0  0  0  0  0  0  # atno 17320 bound_to 7965
  146.2257  139.5719  142.9588 LP  0  0  0  0  0  0  0  0  0  0  0  0  # atno 17321 bound_to 7965
  140.6792  143.2319  151.5427 LP  0  0  0  0  0  0  0  0  0  0  0  0  # atno 17342 bound_to 10162
  139.5499  144.2423  152.1511 LP  0  0  0  0  0  0  0  0  0  0  0  0  # atno 17343 bound_to 10162
  155.9664  130.4337  150.5020 LP  0  0  0  0  0  0  0  0  0  0  0  0  # atno 17370 bound_to 10713
  157.2964  131.0636  151.2099 LP  0  0  0  0  0  0  0  0  0  0  0  0  # atno 17371 bound_to 10713
  139.9637  135.0147  156.9330 LP  0  0  0  0  0  0  0  0  0  0  0  0  # atno 17394 bound_to 11000
  140.5442  134.0690  155.7350 LP  0  0  0  0  0  0  0  0  0  0  0  0  # atno 17395 bound_to 11000

$$$$
