AV-unprocessed.smi:356|AV-procd|sdf|2410|dock8
  -GOLD-   2262022343D 1   1.00000     0.00000
 Structure written by MMmdl.
 42 44  0  0  0  0  0  0  0  0  2 V2000
  151.6288  139.2900  157.8312 C   0  0  0  0  0  0  0  0  0  0  0  0
  151.6057  140.6601  158.4310 C   0  0  0  0  0  0  0  0  0  0  0  0
  152.5632  141.0917  159.2515 N   0  0  0  0  0  0  0  0  0  0  0  0
  152.1532  142.3774  159.5468 C   0  0  0  0  0  0  0  0  0  0  0  0
  152.7425  143.3633  160.3701 C   0  0  0  0  0  0  0  0  0  0  0  0
  152.1302  144.6245  160.5231 C   0  0  0  0  0  0  0  0  0  0  0  0
  150.9230  144.9180  159.8567 C   0  0  0  0  0  0  0  0  0  0  0  0
  150.3183  143.9498  159.0322 C   0  0  0  0  0  0  0  0  0  0  0  0
  150.9332  142.6919  158.8830 C   0  0  0  0  0  0  0  0  0  0  0  0
  150.6067  141.5399  158.1729 N   0  0  0  0  0  0  0  0  0  0  0  0
  149.4343  141.3434  157.3314 C   0  0  0  0  0  0  0  0  0  0  0  0
  149.7688  141.3323  155.8255 C   0  0  2  0  0  0  0  0  0  0  0  0
  150.4004  142.5589  155.5183 O   0  0  0  0  0  0  0  0  0  0  0  0
  148.5300  141.1705  154.9164 C   0  0  0  0  0  0  0  0  0  0  0  0
  147.5514  142.2758  155.0761 N   0  3  0  0  0  0  0  0  0  0  0  0
  146.6935  142.4908  153.8840 C   0  0  0  0  0  0  0  0  0  0  0  0
  145.7371  143.6731  154.1162 C   0  0  0  0  0  0  0  0  0  0  0  0
  144.9562  143.4367  155.2811 O   0  0  0  0  0  0  0  0  0  0  0  0
  145.7625  143.3158  156.4462 C   0  0  0  0  0  0  0  0  0  0  0  0
  146.7164  142.1196  156.2909 C   0  0  0  0  0  0  0  0  0  0  0  0
  152.5365  138.7608  158.1233 H   0  0  0  0  0  0  0  0  0  0  0  0
  151.6067  139.3512  156.7432 H   0  0  0  0  0  0  0  0  0  0  0  0
  150.7722  138.7104  158.1732 H   0  0  0  0  0  0  0  0  0  0  0  0
  153.6677  143.1490  160.8845 H   0  0  0  0  0  0  0  0  0  0  0  0
  152.5899  145.3711  161.1542 H   0  0  0  0  0  0  0  0  0  0  0  0
  150.4620  145.8874  159.9789 H   0  0  0  0  0  0  0  0  0  0  0  0
  149.3932  144.1729  158.5221 H   0  0  0  0  0  0  0  0  0  0  0  0
  148.9606  140.4034  157.6173 H   0  0  0  0  0  0  0  0  0  0  0  0
  148.7073  142.1248  157.5551 H   0  0  0  0  0  0  0  0  0  0  0  0
  150.4831  140.5331  155.6352 H   0  0  0  0  0  0  0  0  0  0  0  0
  149.7425  143.2374  155.4854 H   0  0  0  0  0  0  0  0  0  0  0  0
  148.8165  141.1120  153.8661 H   0  0  0  0  0  0  0  0  0  0  0  0
  148.0504  140.2196  155.1546 H   0  0  0  0  0  0  0  0  0  0  0  0
  147.3024  142.6910  153.0031 H   0  0  0  0  0  0  0  0  0  0  0  0
  146.1205  141.5855  153.6768 H   0  0  0  0  0  0  0  0  0  0  0  0
  146.2903  144.6082  154.2175 H   0  0  0  0  0  0  0  0  0  0  0  0
  145.0697  143.7892  153.2620 H   0  0  0  0  0  0  0  0  0  0  0  0
  146.3187  144.2390  156.6170 H   0  0  0  0  0  0  0  0  0  0  0  0
  145.1145  143.1696  157.3105 H   0  0  0  0  0  0  0  0  0  0  0  0
  146.1458  141.1917  156.2263 H   0  0  0  0  0  0  0  0  0  0  0  0
  147.3541  142.0440  157.1725 H   0  0  0  0  0  0  0  0  0  0  0  0
  148.0936  143.1179  155.2110 H   0  0  0  0  0  0  0  0  0  0  0  0
  1  2  1  0  0  0  0
  1 21  1  0  0  0  0
  1 22  1  0  0  0  0
  1 23  1  0  0  0  0
  2 10  1  0  0  0  0
  2  3  2  0  0  0  0
  3  4  1  0  0  0  0
  4  9  2  0  0  0  0
  4  5  1  0  0  0  0
  5  6  2  0  0  0  0
  5 24  1  0  0  0  0
  6  7  1  0  0  0  0
  6 25  1  0  0  0  0
  7  8  2  0  0  0  0
  7 26  1  0  0  0  0
  8  9  1  0  0  0  0
  8 27  1  0  0  0  0
  9 10  1  0  0  0  0
 10 11  1  0  0  0  0
 11 12  1  0  0  0  0
 11 28  1  0  0  0  0
 11 29  1  0  0  0  0
 12 13  1  0  0  0  0
 12 14  1  0  0  0  0
 12 30  1  0  0  0  0
 13 31  1  0  0  0  0
 14 15  1  0  0  0  0
 14 32  1  0  0  0  0
 14 33  1  0  0  0  0
 15 20  1  0  0  0  0
 15 16  1  0  0  0  0
 15 42  1  0  0  0  0
 16 17  1  0  0  0  0
 16 34  1  0  0  0  0
 16 35  1  0  0  0  0
 17 18  1  0  0  0  0
 17 36  1  0  0  0  0
 17 37  1  0  0  0  0
 18 19  1  0  0  0  0
 19 20  1  0  0  0  0
 19 38  1  0  0  0  0
 19 39  1  0  0  0  0
 20 40  1  0  0  0  0
 20 41  1  0  0  0  0
M  CHG  1  15   1
M  END
> <s_m_source_file>
AV-unprocessed.smi

> <i_m_source_file_index>
356

> <i_lp_mmshare_version>
43012

> <i_f3d_flags>
0

> <s_epik_input>
W2NIXTFbY0hdW2NIXVtjSF1jKGMxMiluKGMobjIpW0NIM10pW0NIMl1bQ0BIXShbT0hdKVtDSDJdTjNbQ0gyXVtDSDJdT1tDSDJdW0NIMl0z

> <s_epik_cmdline>
J2VwaWtfcHl0aG9uJywgJy1waCcsICc3LjAnLCAnLXRuJywgJzgnLCAnLW1hJywgJzIwMCcsICctbWV0YWxfYmluZGluZycsICctaW1hZScsICc8aW5maWxlLm1hZT4nLCAnLW9tYWUnLCAnPG91dGZpbGUubWFlPic=

> <r_epik_Ionization_Penalty>
0.706388

> <r_epik_Ionization_Penalty_Charging>
0.608065

> <r_epik_Ionization_Penalty_Neutral>
0.0983237

> <r_epik_State_Penalty>
0.742533

> <r_epik_Charging_Adjusted_Penalty>
1.3506

> <i_epik_Tot_Q>
1

> <i_epik_Tot_abs_Q>
1

> <r_epik_Metal_State_Penalty>
0.651809

> <b_epik_Metal_Only>
0

> <s_lp_Force_Field>
OPLS_2005

> <r_lp_Energy>
21.62

> <b_lp_Chiralities_Consistent>
1

> <s_lp_Variant>
AV-unprocessed.smi:356-3

> <Gold.Version>
5.8.1

> <Gold.Id.Protein>
6NUR|6NUR_protein|mol2

> <Gold.PLP.Fitness>
48.1383

> <Gold.PLP.PLP>
-39.8441

> <Gold.PLP.part.hbond>
-2.0870

> <Gold.PLP.part.metal>
0.0000

> <Gold.PLP.part.buried>
-5.7170

> <Gold.PLP.part.nonpolar>
-32.5821

> <Gold.PLP.part.repulsive>
0.2775

> <Gold.PLP.ligand.clash>
0.0000

> <Gold.PLP.ligand.torsion>
0.3640

> <Gold.PLP.Chemscore.Hbond>
3.0000

> <Gold.PLP.Chemscore.CHOScore>
0.0000

> <Gold.PLP.Chemscore.Metal>
0.0000

> <Gold.Chemscore.Hbonds>
donor molecule, donor type, donor heavy atom, donor atom, acceptor molecule, acceptor atom, score
      L1  H    13    31       P1  8028  1.00
      L1  H    15    42       P1  8028  2.00

> <Gold.PLP.Chemscore.Internal.Correction>
0.0221

> <Gold.Rescore>
     Score         DG    S(hbond)    S(metal)    S(lipo)     H(rot)  DE(clash)    DE(int)     intcor
     17.09     -18.79       1.97        0.00     102.58       2.07       1.28       0.41       ----

> <Gold.Chemscore.Fitness>
17.0922

> <Gold.Chemscore.DG>
-18.7889

> <Gold.Chemscore.ZeroCoef>
-5.4800

> <Gold.Chemscore.Hbond>
1.9745

> <Gold.Chemscore.Metal>
0.0000

> <Gold.Chemscore.Lipo>
102.5804

> <Gold.Chemscore.Internal_Hbond>
0.0000

> <Gold.Chemscore.DEClash>
1.2830

> <Gold.Chemscore.DEInternal>
0.4137

> <Gold.Chemscore.Rot>
2.0656

> <Gold.Chemscore.Internal.Correction>
   9.000000E+99

> <Gold.Chemscore.Hbonds>
donor molecule, donor type, donor heavy atom, donor atom, acceptor molecule, acceptor atom, score
      L1  H    13    31       P1  8028  1.00
      L1  H    15    42       P1  8028  0.91

> <Gold.Chemscore.Hbond.Weighted>
-6.5948

> <Gold.Chemscore.Metal.Weighted>
-0.0000

> <Gold.Chemscore.Lipo.Weighted>
-12.0019

> <Gold.Chemscore.Internal_Hbond.Weighted>
0.0000

> <Gold.Chemscore.DEClash.Weighted>
1.2830

> <Gold.Chemscore.DEInternal.Weighted>
0.4137

> <Gold.Chemscore.Rot.Weighted>
5.2879

> <Gold.Chemscore.Internal.Correction.Weighted>
   9.000000E+99

> <Gold.Protein.RotatedTorsions>
[ 6907 6896 6895 6894 ] final   96.46 input  -60.11 | X-H torsion
[ 7974 7965 7964 7962 ] final   52.10 input  175.53 | X-H torsion
[ 8008 7997 7996 7995 ] final -161.81 input   59.86 | X-H torsion
[ 10167 10162 10161 10158 ] final -123.19 input  -65.29 | X-H torsion
[ 10718 10713 10712 10709 ] final  108.85 input   66.30 | X-H torsion
[ 10763 10752 10751 10750 ] final -173.62 input  -60.55 | X-H torsion
[ 11005 11000 10999 10996 ] final  -64.47 input  -57.11 | X-H torsion

> <Gold.Protein.ActiveResidues>
 VAL166  LYS551  ARG553  GLY616  TRP617  ASP618  TYR619  PRO620  LYS621  CYS622 
 ASP623  PHE694  ASN695  SER759  ASP760  ASP761  ALA762  ILE779  LEU786  VAL792 
 PHE793  MET794  SER795  GLU796  ALA797  LYS798  CYS799  TRP800  GLU811  SER814 

> <Gold.Protein.RotatedAtoms>
  152.5434  134.0883  159.8265 H   0  0  0  0  0  0  0  0  0  0  0  0  # atno 6907 bound_to 6896
  151.0976  133.5260  159.2619 H   0  0  0  0  0  0  0  0  0  0  0  0  # atno 6908 bound_to 6896
  151.2028  135.0458  159.8933 H   0  0  0  0  0  0  0  0  0  0  0  0  # atno 6909 bound_to 6896
  145.9847  139.4278  143.0110 H   0  0  0  0  0  0  0  0  0  0  0  0  # atno 7974 bound_to 7965
  155.7976  140.0887  157.1975 H   0  0  0  0  0  0  0  0  0  0  0  0  # atno 8008 bound_to 7997
  154.3983  140.1478  156.3295 H   0  0  0  0  0  0  0  0  0  0  0  0  # atno 8009 bound_to 7997
  155.8495  140.3435  155.5687 H   0  0  0  0  0  0  0  0  0  0  0  0  # atno 8010 bound_to 7997
  140.0061  143.5490  152.2283 H   0  0  0  0  0  0  0  0  0  0  0  0  # atno 10167 bound_to 10162
  157.6568  131.0902  150.6366 H   0  0  0  0  0  0  0  0  0  0  0  0  # atno 10718 bound_to 10713
  154.6058  135.2859  155.0486 H   0  0  0  0  0  0  0  0  0  0  0  0  # atno 10763 bound_to 10752
  154.1734  135.6469  153.5019 H   0  0  0  0  0  0  0  0  0  0  0  0  # atno 10764 bound_to 10752
  153.0175  135.5406  154.6793 H   0  0  0  0  0  0  0  0  0  0  0  0  # atno 10765 bound_to 10752
  141.1426  133.6666  156.5839 H   0  0  0  0  0  0  0  0  0  0  0  0  # atno 11005 bound_to 11000
  145.7718  140.9893  143.1145 LP  0  0  0  0  0  0  0  0  0  0  0  0  # atno 17320 bound_to 7965
  144.6871  139.9456  143.7476 LP  0  0  0  0  0  0  0  0  0  0  0  0  # atno 17321 bound_to 7965
  139.6237  144.7633  151.2684 LP  0  0  0  0  0  0  0  0  0  0  0  0  # atno 17342 bound_to 10162
  140.7400  143.6602  150.8171 LP  0  0  0  0  0  0  0  0  0  0  0  0  # atno 17343 bound_to 10162
  156.6672  130.4529  149.5668 LP  0  0  0  0  0  0  0  0  0  0  0  0  # atno 17370 bound_to 10713
  156.2024  130.6628  151.1182 LP  0  0  0  0  0  0  0  0  0  0  0  0  # atno 17371 bound_to 10713
  140.3816  134.7518  157.4665 LP  0  0  0  0  0  0  0  0  0  0  0  0  # atno 17394 bound_to 11000
  140.0633  134.5965  155.8724 LP  0  0  0  0  0  0  0  0  0  0  0  0  # atno 17395 bound_to 11000

$$$$
