AV-unprocessed.smi:703|AV-procd|sdf|3427|dock5
  -GOLD-   22720 0413D 1   1.00000     0.00000
 Structure written by MMmdl.
 38 39  0  0  0  0  0  0  0  0  2 V2000
  147.2882  139.1983  151.3647 C   0  0  0  0  0  0  0  0  0  0  0  0
  146.6478  138.5990  152.6239 C   0  0  0  0  0  0  0  0  0  0  0  0
  147.6436  137.9341  153.4965 N   0  3  2  0  0  0  0  0  0  0  0  0
  147.0794  137.0844  154.5638 C   0  0  0  0  0  0  0  0  0  0  0  0
  148.2232  136.8877  155.5614 C   0  0  1  0  0  0  0  0  0  0  0  0
  149.0977  135.6830  155.1546 C   0  0  0  0  0  0  0  0  0  0  0  0
  148.9317  138.2583  155.5249 C   0  0  1  0  0  0  0  0  0  0  0  0
  150.3780  138.1530  155.7544 N   0  0  0  0  0  0  0  0  0  0  0  0
  151.2964  139.6022  155.9440 S   0  0  0  0  0  0  0  0  0  0  0  0
  152.6971  139.2114  156.1644 O   0  0  0  0  0  0  0  0  0  0  0  0
  150.9509  140.5007  154.8318 O   0  0  0  0  0  0  0  0  0  0  0  0
  150.6136  140.3074  157.5031 C   0  0  0  0  0  0  0  0  0  0  0  0
  151.2581  141.6358  157.7790 C   0  0  0  0  0  0  0  0  0  0  0  0
  151.1823  142.8310  157.0116 C   0  0  0  0  0  0  0  0  0  0  0  0
  151.9497  143.7121  157.7175 C   0  0  0  0  0  0  0  0  0  0  0  0
  152.4605  143.1160  158.8243 O   0  0  0  0  0  0  0  0  0  0  0  0
  152.0146  141.7898  158.8541 N   0  0  0  0  0  0  0  0  0  0  0  0
  148.5963  138.8595  154.1463 C   0  0  0  0  0  0  0  0  0  0  0  0
  146.5459  139.7350  150.7737 H   0  0  0  0  0  0  0  0  0  0  0  0
  147.7184  138.4274  150.7251 H   0  0  0  0  0  0  0  0  0  0  0  0
  148.0790  139.9036  151.6214 H   0  0  0  0  0  0  0  0  0  0  0  0
  146.1727  139.4022  153.1887 H   0  0  0  0  0  0  0  0  0  0  0  0
  145.8586  137.8964  152.3526 H   0  0  0  0  0  0  0  0  0  0  0  0
  146.2567  137.6112  155.0506 H   0  0  0  0  0  0  0  0  0  0  0  0
  146.6884  136.1436  154.1750 H   0  0  0  0  0  0  0  0  0  0  0  0
  147.8235  136.6943  156.5580 H   0  0  0  0  0  0  0  0  0  0  0  0
  149.5573  135.8295  154.1763 H   0  0  0  0  0  0  0  0  0  0  0  0
  148.5042  134.7698  155.1074 H   0  0  0  0  0  0  0  0  0  0  0  0
  149.8950  135.5067  155.8772 H   0  0  0  0  0  0  0  0  0  0  0  0
  148.4956  138.8905  156.2999 H   0  0  0  0  0  0  0  0  0  0  0  0
  150.8154  137.5300  155.0758 H   0  0  0  0  0  0  0  0  0  0  0  0
  149.5324  140.4007  157.3949 H   0  0  0  0  0  0  0  0  0  0  0  0
  150.8081  139.6058  158.3139 H   0  0  0  0  0  0  0  0  0  0  0  0
  150.6469  143.0140  156.0917 H   0  0  0  0  0  0  0  0  0  0  0  0
  152.2170  144.7481  157.5694 H   0  0  0  0  0  0  0  0  0  0  0  0
  149.4717  138.9679  153.5052 H   0  0  0  0  0  0  0  0  0  0  0  0
  148.1579  139.8507  154.2739 H   0  0  0  0  0  0  0  0  0  0  0  0
  148.2009  137.3264  152.9132 H   0  0  0  0  0  0  0  0  0  0  0  0
  1  2  1  0  0  0  0
  1 19  1  0  0  0  0
  1 20  1  0  0  0  0
  1 21  1  0  0  0  0
  2  3  1  0  0  0  0
  2 22  1  0  0  0  0
  2 23  1  0  0  0  0
  3 18  1  0  0  0  0
  3  4  1  0  0  0  0
  3 38  1  0  0  0  0
  4  5  1  0  0  0  0
  4 24  1  0  0  0  0
  4 25  1  0  0  0  0
  5  6  1  0  0  0  0
  5  7  1  0  0  0  0
  5 26  1  0  0  0  0
  6 27  1  0  0  0  0
  6 28  1  0  0  0  0
  6 29  1  0  0  0  0
  7  8  1  0  0  0  0
  7 18  1  0  0  0  0
  7 30  1  0  0  0  0
  8  9  1  0  0  0  0
  8 31  1  0  0  0  0
  9 10  2  0  0  0  0
  9 11  2  0  0  0  0
  9 12  1  0  0  0  0
 12 13  1  0  0  0  0
 12 32  1  0  0  0  0
 12 33  1  0  0  0  0
 13 17  2  0  0  0  0
 13 14  1  0  0  0  0
 14 15  2  0  0  0  0
 14 34  1  0  0  0  0
 15 16  1  0  0  0  0
 15 35  1  0  0  0  0
 16 17  1  0  0  0  0
 18 36  1  0  0  0  0
 18 37  1  0  0  0  0
M  CHG  1   3   1
M  END
> <s_m_source_file>
AV-unprocessed.smi

> <i_m_source_file_index>
703

> <i_lp_mmshare_version>
43012

> <i_f3d_flags>
0

> <s_epik_input>
W0NIM11bQ0gyXU4xW0NIMl1bQ0BASF0oW0NIM10pW0NASF0oW0NIMl0xKVtOSF1TKD1PKSg9TylbQ0gyXWMyW2NIXVtjSF1vbjI=

> <s_epik_cmdline>
J2VwaWtfcHl0aG9uJywgJy1waCcsICc3LjAnLCAnLXRuJywgJzgnLCAnLW1hJywgJzIwMCcsICctbWV0YWxfYmluZGluZycsICctaW1hZScsICc8aW5maWxlLm1hZT4nLCAnLW9tYWUnLCAnPG91dGZpbGUubWFlPic=

> <r_epik_Ionization_Penalty>
0.00324529

> <r_epik_Ionization_Penalty_Charging>
0.0019384

> <r_epik_Ionization_Penalty_Neutral>
0.00130689

> <r_epik_State_Penalty>
0.00218682

> <r_epik_Charging_Adjusted_Penalty>
0.00412522

> <i_epik_Tot_Q>
1

> <i_epik_Tot_abs_Q>
1

> <r_epik_Metal_State_Penalty>
0.310831

> <b_epik_Metal_Only>
0

> <s_lp_Force_Field>
OPLS_2005

> <r_lp_Energy>
22.9594

> <b_lp_Chiralities_Consistent>
1

> <s_lp_Variant>
AV-unprocessed.smi:703-2

> <Gold.Version>
5.8.1

> <Gold.Id.Protein>
6NUR|6NUR_protein|mol2

> <Gold.PLP.Fitness>
38.2210

> <Gold.PLP.PLP>
-26.5073

> <Gold.PLP.part.hbond>
-3.0000

> <Gold.PLP.part.metal>
0.0000

> <Gold.PLP.part.buried>
-4.0993

> <Gold.PLP.part.nonpolar>
-20.0828

> <Gold.PLP.part.repulsive>
0.0773

> <Gold.PLP.ligand.clash>
0.0000

> <Gold.PLP.ligand.torsion>
0.2218

> <Gold.PLP.Chemscore.Hbond>
4.0000

> <Gold.PLP.Chemscore.CHOScore>
0.0000

> <Gold.PLP.Chemscore.Metal>
0.0000

> <Gold.Chemscore.Hbonds>
donor molecule, donor type, donor heavy atom, donor atom, acceptor molecule, acceptor atom, score
      L1  H     3    38       P1  7948  2.00
      P1  H  7989  7998       L1    11  1.00
      P1  H  7997  8008       L1    10  1.00

> <Gold.PLP.Chemscore.Internal.Correction>
0.1574

> <Gold.Rescore>
     Score         DG    S(hbond)    S(metal)    S(lipo)     H(rot)  DE(clash)    DE(int)     intcor
     17.07     -17.43       2.96        0.00      60.17       1.94       0.05       0.31       ----

> <Gold.Chemscore.Fitness>
17.0701

> <Gold.Chemscore.DG>
-17.4285

> <Gold.Chemscore.ZeroCoef>
-5.4800

> <Gold.Chemscore.Hbond>
2.9567

> <Gold.Chemscore.Metal>
0.0000

> <Gold.Chemscore.Lipo>
60.1670

> <Gold.Chemscore.Internal_Hbond>
0.0000

> <Gold.Chemscore.DEClash>
0.0456

> <Gold.Chemscore.DEInternal>
0.3128

> <Gold.Chemscore.Rot>
1.9400

> <Gold.Chemscore.Internal.Correction>
   9.000000E+99

> <Gold.Chemscore.Hbonds>
donor molecule, donor type, donor heavy atom, donor atom, acceptor molecule, acceptor atom, score
      L1  H     3    38       P1  7948  1.00
      P1  H  7989  7998       L1    11  0.92
      P1  H  7997  8008       L1    10  1.00

> <Gold.Chemscore.Hbond.Weighted>
-9.8754

> <Gold.Chemscore.Metal.Weighted>
-0.0000

> <Gold.Chemscore.Lipo.Weighted>
-7.0395

> <Gold.Chemscore.Internal_Hbond.Weighted>
0.0000

> <Gold.Chemscore.DEClash.Weighted>
0.0456

> <Gold.Chemscore.DEInternal.Weighted>
0.3128

> <Gold.Chemscore.Rot.Weighted>
4.9665

> <Gold.Chemscore.Internal.Correction.Weighted>
   9.000000E+99

> <Gold.Protein.RotatedTorsions>
[ 6907 6896 6895 6894 ] final    1.04 input  -60.11 | X-H torsion
[ 7974 7965 7964 7962 ] final -142.94 input  175.53 | X-H torsion
[ 8008 7997 7996 7995 ] final  -44.53 input   59.86 | X-H torsion
[ 10167 10162 10161 10158 ] final  -91.46 input  -65.29 | X-H torsion
[ 10718 10713 10712 10709 ] final   -5.62 input   66.30 | X-H torsion
[ 10763 10752 10751 10750 ] final  117.42 input  -60.55 | X-H torsion
[ 11005 11000 10999 10996 ] final  -54.42 input  -57.11 | X-H torsion

> <Gold.Protein.ActiveResidues>
 VAL166  LYS551  ARG553  GLY616  TRP617  ASP618  TYR619  PRO620  LYS621  CYS622 
 ASP623  PHE694  ASN695  SER759  ASP760  ASP761  ALA762  ILE779  LEU786  VAL792 
 PHE793  MET794  SER795  GLU796  ALA797  LYS798  CYS799  TRP800  GLU811  SER814 

> <Gold.Protein.RotatedAtoms>
  151.5862  135.1056  160.0028 H   0  0  0  0  0  0  0  0  0  0  0  0  # atno 6907 bound_to 6896
  152.4329  133.7305  159.6595 H   0  0  0  0  0  0  0  0  0  0  0  0  # atno 6908 bound_to 6896
  150.8223  133.8160  159.3156 H   0  0  0  0  0  0  0  0  0  0  0  0  # atno 6909 bound_to 6896
  144.8406  140.5896  143.5455 H   0  0  0  0  0  0  0  0  0  0  0  0  # atno 7974 bound_to 7965
  154.3998  140.1420  156.3699 H   0  0  0  0  0  0  0  0  0  0  0  0  # atno 8008 bound_to 7997
  155.8102  140.3473  155.5433 H   0  0  0  0  0  0  0  0  0  0  0  0  # atno 8009 bound_to 7997
  155.8394  140.0924  157.1734 H   0  0  0  0  0  0  0  0  0  0  0  0  # atno 8010 bound_to 7997
  140.3447  143.2923  151.9795 H   0  0  0  0  0  0  0  0  0  0  0  0  # atno 10167 bound_to 10162
  156.7439  130.5218  149.5818 H   0  0  0  0  0  0  0  0  0  0  0  0  # atno 10718 bound_to 10713
  153.5521  135.3537  155.2764 H   0  0  0  0  0  0  0  0  0  0  0  0  # atno 10763 bound_to 10752
  154.8705  135.4116  154.2925 H   0  0  0  0  0  0  0  0  0  0  0  0  # atno 10764 bound_to 10752
  153.3653  135.7062  153.6748 H   0  0  0  0  0  0  0  0  0  0  0  0  # atno 10765 bound_to 10752
  141.1025  133.6616  156.4318 H   0  0  0  0  0  0  0  0  0  0  0  0  # atno 11005 bound_to 11000
  145.4702  139.1504  143.3818 LP  0  0  0  0  0  0  0  0  0  0  0  0  # atno 17320 bound_to 7965
  146.2699  140.4835  142.8819 LP  0  0  0  0  0  0  0  0  0  0  0  0  # atno 17321 bound_to 7965
  139.4835  144.6127  151.7404 LP  0  0  0  0  0  0  0  0  0  0  0  0  # atno 17342 bound_to 10162
  140.5276  144.0781  150.6042 LP  0  0  0  0  0  0  0  0  0  0  0  0  # atno 17343 bound_to 10162
  156.1446  130.6268  151.0513 LP  0  0  0  0  0  0  0  0  0  0  0  0  # atno 17370 bound_to 10713
  157.6806  131.0839  150.7379 LP  0  0  0  0  0  0  0  0  0  0  0  0  # atno 17371 bound_to 10713
  140.4986  134.6507  157.5239 LP  0  0  0  0  0  0  0  0  0  0  0  0  # atno 17394 bound_to 11000
  139.9882  134.7028  155.9737 LP  0  0  0  0  0  0  0  0  0  0  0  0  # atno 17395 bound_to 11000

$$$$
