#       Name:                AV-unprocessed.smi:34
#       Creating user name   scv26
#       Creation time:       Thu Mar 26 15:53:10 2020


#       File generated by GOLD software.
#

@<TRIPOS>MOLECULE
AV-unprocessed.smi:34
    66    70     1
SMALL
NO_CHARGES


@<TRIPOS>ATOM
      1 ****        -5.6686   0.9879  -0.5905 O.2            1 S1                 0.0000
      2 ****        -5.6288  -0.1485  -1.0629 C.2            1 S1                 0.0000
      3 ****        -4.3781  -0.8532  -1.2818 N.am           1 S1                 0.0000
      4 ****        -3.1242  -0.4497  -0.9695 C.ar           1 S1                 0.0000
      5 ****        -2.8748   0.7125  -0.3113 N.ar           1 S1                 0.0000
      6 ****        -1.6187   1.0672  -0.0268 C.ar           1 S1                 0.0000
      7 ****        -0.4869   0.4173  -0.3034 N.ar           1 S1                 0.0000
      8 ****        -0.7260  -0.7534  -0.9624 C.ar           1 S1                 0.0000
      9 ****        -2.0088  -1.2520  -1.3254 C.ar           1 S1                 0.0000
     10 ****        -1.8734  -2.4698  -1.9782 N.2            1 S1                 0.0000
     11 ****        -0.5844  -2.6748  -1.9995 C.2            1 S1                 0.0000
     12 ****         0.1826  -1.6944  -1.4099 N.pl3          1 S1                 0.0000
     13 ****         1.6781  -1.6723  -1.2885 C.3            1 S1                 0.0000
     14 ****         2.1386  -0.3528  -1.3704 O.3            1 S1                 0.0000
     15 ****         2.8104   0.0068  -0.1647 C.3            1 S1                 0.0000
     16 ****         3.8926   1.0534  -0.4513 C.3            1 S1                 0.0000
     17 ****         4.4192   1.5313   0.7757 O.3            1 S1                 0.0000
     18 ****         5.4019   2.4525   0.7772 C.2            1 S1                 0.0000
     19 ****         5.8978   2.9224  -0.2489 O.2            1 S1                 0.0000
     20 ****         5.8243   2.8470   2.1523 C.ar           1 S1                 0.0000
     21 ****         6.8231   3.8356   2.3143 C.ar           1 S1                 0.0000
     22 ****         7.2389   4.2313   3.6006 C.ar           1 S1                 0.0000
     23 ****         6.6619   3.6426   4.7408 C.ar           1 S1                 0.0000
     24 ****         5.6690   2.6566   4.5931 C.ar           1 S1                 0.0000
     25 ****         5.2515   2.2597   3.3076 C.ar           1 S1                 0.0000
     26 ****         3.3391  -1.3296   0.3477 C.3            1 S1                 0.0000
     27 ****         3.6856  -1.3241   1.6362 F              1 S1                 0.0000
     28 ****         2.1865  -2.2682   0.0408 C.3            1 S1                 0.0000
     29 ****         1.2154  -2.2632   1.0745 O.3            1 S1                 0.0000
     30 ****        -6.8685  -0.8530  -1.5301 C.ar           1 S1                 0.0000
     31 ****        -7.9699  -0.1059  -2.0048 C.ar           1 S1                 0.0000
     32 ****        -9.1406  -0.7588  -2.4372 C.ar           1 S1                 0.0000
     33 ****        -9.2232  -2.1632  -2.3895 C.ar           1 S1                 0.0000
     34 ****        -8.1359  -2.9144  -1.9046 C.ar           1 S1                 0.0000
     35 ****        -6.9643  -2.2627  -1.4726 C.ar           1 S1                 0.0000
     36 ****        -4.4535  -1.7580  -1.7231 H              1 S1                 0.0000
     37 ****        -1.5048   2.0047   0.4969 H              1 S1                 0.0000
     38 ****        -0.1532  -3.5577  -2.4486 H              1 S1                 0.0000
     39 ****         2.0324  -2.2223  -2.1612 H              1 S1                 0.0000
     40 ****         2.0765   0.4097   0.5343 H              1 S1                 0.0000
     41 ****         4.6847   0.6279  -1.0691 H              1 S1                 0.0000
     42 ****         3.4591   1.8891  -1.0022 H              1 S1                 0.0000
     43 ****         7.2802   4.3026   1.4538 H              1 S1                 0.0000
     44 ****         8.0014   4.9881   3.7117 H              1 S1                 0.0000
     45 ****         6.9805   3.9467   5.7270 H              1 S1                 0.0000
     46 ****         5.2257   2.2025   5.4670 H              1 S1                 0.0000
     47 ****         4.4878   1.4996   3.2303 H              1 S1                 0.0000
     48 ****         4.2208  -1.6272  -0.2215 H              1 S1                 0.0000
     49 ****         2.5237  -3.2929  -0.1179 H              1 S1                 0.0000
     50 ****         0.4610  -2.7502   0.7798 H              1 S1                 0.0000
     51 ****        -7.9213   0.9727  -2.0481 H              1 S1                 0.0000
     52 ****        -9.9757  -0.1813  -2.8053 H              1 S1                 0.0000
     53 ****       -10.1209  -2.6637  -2.7215 H              1 S1                 0.0000
     54 ****        -8.2011  -3.9916  -1.8618 H              1 S1                 0.0000
     55 ****        -6.1443  -2.8567  -1.0953 H              1 S1                 0.0000
     56 ****        -4.8205   1.4566  -0.3435 LP             1 S1                 0.0000
     57 ****        -6.5490   1.4420  -0.4540 LP             1 S1                 0.0000
     58 ****        -3.6337   1.3040  -0.0391 LP             1 S1                 0.0000
     59 ****         0.4245   0.7474  -0.0580 LP             1 S1                 0.0000
     60 ****        -2.5961  -3.0546  -2.3468 LP             1 S1                 0.0000
     61 ****         1.3616   0.2606  -1.5119 LP             1 S1                 0.0000
     62 ****         2.7724  -0.2707  -2.1395 LP             1 S1                 0.0000
     63 ****         5.5718   2.6212  -1.1451 LP             1 S1                 0.0000
     64 ****         6.6260   3.6047  -0.1852 LP             1 S1                 0.0000
     65 ****         0.9491  -1.3221   1.2825 LP             1 S1                 0.0000
     66 ****         1.5939  -2.6916   1.8949 LP             1 S1                 0.0000
@<TRIPOS>BOND
    1    1    2 2     
    2    2    3 am    
    3    2   30 1     
    4    3    4 1     
    5    3   36 1     
    6    4    9 ar    
    7    4    5 ar    
    8    5    6 ar    
    9    6    7 ar    
   10    6   37 1     
   11    7    8 ar    
   12    8   12 1     
   13    8    9 ar    
   14    9   10 1     
   15   10   11 2     
   16   11   12 1     
   17   11   38 1     
   18   12   13 1     
   19   13   28 1     
   20   13   14 1     
   21   13   39 1     
   22   14   15 1     
   23   15   16 1     
   24   15   26 1     
   25   15   40 1     
   26   16   17 1     
   27   16   41 1     
   28   16   42 1     
   29   17   18 1     
   30   18   19 2     
   31   18   20 1     
   32   20   25 ar    
   33   20   21 ar    
   34   21   22 ar    
   35   21   43 1     
   36   22   23 ar    
   37   22   44 1     
   38   23   24 ar    
   39   23   45 1     
   40   24   25 ar    
   41   24   46 1     
   42   25   47 1     
   43   26   27 1     
   44   26   28 1     
   45   26   48 1     
   46   28   29 1     
   47   28   49 1     
   48   29   50 1     
   49   30   35 ar    
   50   30   31 ar    
   51   31   32 ar    
   52   31   51 1     
   53   32   33 ar    
   54   32   52 1     
   55   33   34 ar    
   56   33   53 1     
   57   34   35 ar    
   58   34   54 1     
   59   35   55 1     
   60    1   56 1     
   61    1   57 1     
   62    5   58 1     
   63    7   59 1     
   64   10   60 1     
   65   14   61 1     
   66   14   62 1     
   67   19   63 1     
   68   19   64 1     
   69   29   65 1     
   70   29   66 1     
@<TRIPOS>SUBSTRUCTURE
      1 S1             1
@<TRIPOS>SET
LONE_PAIRS      STATIC     ATOMS    <user>   **** ""
11 56 57 58 59 60 61 62 63 64 65 66
DONOR_HYDROGENS      STATIC     ATOMS    <user>   **** ""
2 36 50
ATOM$BLUE        STATIC     ATOMS    COLORGROUP SYSTEM
11 56 57 58 59 60 61 62 63 64 65 66
ATOM$RED        STATIC     ATOMS    COLORGROUP SYSTEM
2 36 50
