AV-unprocessed.smi:2003|AV-procd|sdf|8119|dock8
  -GOLD-   2272010353D 1   1.00000     0.00000
 Structure written by MMmdl.
 44 45  0  0  0  0  0  0  0  0  2 V2000
  146.4796  129.5935  152.1029 C   0  0  0  0  0  0  0  0  0  0  0  0
  146.2287  131.0690  151.9998 C   0  0  0  0  0  0  0  0  0  0  0  0
  147.0268  132.1334  152.5113 C   0  0  0  0  0  0  0  0  0  0  0  0
  146.3271  133.2451  152.1285 C   0  0  0  0  0  0  0  0  0  0  0  0
  146.6144  134.5553  152.3503 N   0  0  0  0  0  0  0  0  0  0  0  0
  145.7814  135.5496  152.7029 C   0  0  0  0  0  0  0  0  0  0  0  0
  144.5762  135.4291  152.9206 O   0  0  0  0  0  0  0  0  0  0  0  0
  146.4337  136.7177  152.7890 N   0  0  0  0  0  0  0  0  0  0  0  0
  145.8330  138.0014  153.1502 C   0  0  0  0  0  0  0  0  0  0  0  0
  146.8378  139.1849  153.1216 C   0  0  2  0  0  0  0  0  0  0  0  0
  148.1674  138.7632  153.7846 C   0  0  0  0  0  0  0  0  0  0  0  0
  146.2668  140.4380  153.7147 N   0  3  0  0  0  0  0  0  0  0  0  0
  145.8912  140.3238  155.1507 C   0  0  0  0  0  0  0  0  0  0  0  0
  145.2924  141.6405  155.6745 C   0  0  0  0  0  0  0  0  0  0  0  0
  146.2123  142.7029  155.4735 O   0  0  0  0  0  0  0  0  0  0  0  0
  146.4912  142.8947  154.0949 C   0  0  0  0  0  0  0  0  0  0  0  0
  147.1421  141.6262  153.5202 C   0  0  0  0  0  0  0  0  0  0  0  0
  145.2006  132.8480  151.4434 N   0  0  0  0  0  0  0  0  0  0  0  0
  144.1523  133.6533  150.8479 C   0  0  0  0  0  0  0  0  0  0  0  0
  145.1432  131.5010  151.3677 N   0  0  0  0  0  0  0  0  0  0  0  0
  147.4306  129.3888  152.5955 H   0  0  0  0  0  0  0  0  0  0  0  0
  146.5113  129.1298  151.1166 H   0  0  0  0  0  0  0  0  0  0  0  0
  145.6954  129.1018  152.6789 H   0  0  0  0  0  0  0  0  0  0  0  0
  147.9519  132.0681  153.0637 H   0  0  0  0  0  0  0  0  0  0  0  0
  147.5838  134.8075  152.2265 H   0  0  0  0  0  0  0  0  0  0  0  0
  147.4269  136.7174  152.6083 H   0  0  0  0  0  0  0  0  0  0  0  0
  144.9695  138.2124  152.5170 H   0  0  0  0  0  0  0  0  0  0  0  0
  145.4181  137.8928  154.1521 H   0  0  0  0  0  0  0  0  0  0  0  0
  147.0660  139.3907  152.0744 H   0  0  0  0  0  0  0  0  0  0  0  0
  148.4891  137.7825  153.4325 H   0  0  0  0  0  0  0  0  0  0  0  0
  148.0785  138.7104  154.8699 H   0  0  0  0  0  0  0  0  0  0  0  0
  148.9779  139.4514  153.5455 H   0  0  0  0  0  0  0  0  0  0  0  0
  145.1456  139.5440  155.2990 H   0  0  0  0  0  0  0  0  0  0  0  0
  146.7693  140.0509  155.7381 H   0  0  0  0  0  0  0  0  0  0  0  0
  144.3460  141.8627  155.1785 H   0  0  0  0  0  0  0  0  0  0  0  0
  145.0791  141.5568  156.7403 H   0  0  0  0  0  0  0  0  0  0  0  0
  145.5767  143.1445  153.5540 H   0  0  0  0  0  0  0  0  0  0  0  0
  147.1660  143.7440  153.9877 H   0  0  0  0  0  0  0  0  0  0  0  0
  148.1057  141.4526  154.0019 H   0  0  0  0  0  0  0  0  0  0  0  0
  147.3403  141.7968  152.4632 H   0  0  0  0  0  0  0  0  0  0  0  0
  144.5942  134.4232  150.2148 H   0  0  0  0  0  0  0  0  0  0  0  0
  143.5674  134.1302  151.6346 H   0  0  0  0  0  0  0  0  0  0  0  0
  143.4915  133.0347  150.2389 H   0  0  0  0  0  0  0  0  0  0  0  0
  145.4096  140.6229  153.2136 H   0  0  0  0  0  0  0  0  0  0  0  0
  1  2  1  0  0  0  0
  1 21  1  0  0  0  0
  1 22  1  0  0  0  0
  1 23  1  0  0  0  0
  2 20  2  0  0  0  0
  2  3  1  0  0  0  0
  3  4  2  0  0  0  0
  3 24  1  0  0  0  0
  4  5  1  0  0  0  0
  4 18  1  0  0  0  0
  5  6  1  0  0  0  0
  5 25  1  0  0  0  0
  6  7  2  0  0  0  0
  6  8  1  0  0  0  0
  8  9  1  0  0  0  0
  8 26  1  0  0  0  0
  9 10  1  0  0  0  0
  9 27  1  0  0  0  0
  9 28  1  0  0  0  0
 10 11  1  0  0  0  0
 10 12  1  0  0  0  0
 10 29  1  0  0  0  0
 11 30  1  0  0  0  0
 11 31  1  0  0  0  0
 11 32  1  0  0  0  0
 12 17  1  0  0  0  0
 12 13  1  0  0  0  0
 12 44  1  0  0  0  0
 13 14  1  0  0  0  0
 13 33  1  0  0  0  0
 13 34  1  0  0  0  0
 14 15  1  0  0  0  0
 14 35  1  0  0  0  0
 14 36  1  0  0  0  0
 15 16  1  0  0  0  0
 16 17  1  0  0  0  0
 16 37  1  0  0  0  0
 16 38  1  0  0  0  0
 17 39  1  0  0  0  0
 17 40  1  0  0  0  0
 18 19  1  0  0  0  0
 18 20  1  0  0  0  0
 19 41  1  0  0  0  0
 19 42  1  0  0  0  0
 19 43  1  0  0  0  0
M  CHG  1  12   1
M  END
> <s_m_source_file>
AV-unprocessed.smi

> <i_m_source_file_index>
2003

> <i_lp_mmshare_version>
43012

> <i_f3d_flags>
0

> <s_epik_input>
W0NIM11jMVtjSF1jKG4objEpW0NIM10pW05IXUMoPU8pW05IXVtDSDJdW0NASF0oW0NIM10pTjJbQ0gyXVtDSDJdT1tDSDJdW0NIMl0y

> <s_epik_cmdline>
J2VwaWtfcHl0aG9uJywgJy1waCcsICc3LjAnLCAnLXRuJywgJzgnLCAnLW1hJywgJzIwMCcsICctbWV0YWxfYmluZGluZycsICctaW1hZScsICc8aW5maWxlLm1hZT4nLCAnLW9tYWUnLCAnPG91dGZpbGUubWFlPic=

> <r_lp_tautomer_probability>
1

> <r_epik_Ionization_Penalty>
0.663903

> <r_epik_Ionization_Penalty_Charging>
0.663826

> <r_epik_Ionization_Penalty_Neutral>
7.78239e-05

> <r_epik_State_Penalty>
0.683414

> <r_epik_Charging_Adjusted_Penalty>
1.34724

> <i_epik_Tot_Q>
1

> <i_epik_Tot_abs_Q>
1

> <r_epik_Metal_State_Penalty>
0.683419

> <b_epik_Metal_Only>
0

> <s_lp_Force_Field>
OPLS_2005

> <r_lp_Energy>
28.7948

> <b_lp_Chiralities_Consistent>
1

> <s_lp_Variant>
AV-unprocessed.smi:2003-3

> <Gold.Version>
5.8.1

> <Gold.Id.Protein>
6NUR|6NUR_protein|mol2

> <Gold.PLP.Fitness>
41.8899

> <Gold.PLP.PLP>
-30.7539

> <Gold.PLP.part.hbond>
-3.0000

> <Gold.PLP.part.metal>
0.0000

> <Gold.PLP.part.buried>
-5.2487

> <Gold.PLP.part.nonpolar>
-23.1955

> <Gold.PLP.part.repulsive>
0.4007

> <Gold.PLP.ligand.clash>
0.0000

> <Gold.PLP.ligand.torsion>
0.4438

> <Gold.PLP.Chemscore.Hbond>
3.9920

> <Gold.PLP.Chemscore.CHOScore>
0.0000

> <Gold.PLP.Chemscore.Metal>
0.0000

> <Gold.Chemscore.Hbonds>
donor molecule, donor type, donor heavy atom, donor atom, acceptor molecule, acceptor atom, score
      L1  H     5    25       P1  7948  0.99
      L1  H     8    26       P1  7948  1.00
      L1  H    12    44       P1 10175  2.00

> <Gold.PLP.Chemscore.Internal.Correction>
0.0475

> <Gold.Rescore>
     Score         DG    S(hbond)    S(metal)    S(lipo)     H(rot)  DE(clash)    DE(int)     intcor
     17.85     -18.55       2.84        0.00      64.22       1.54       0.03       0.67       ----

> <Gold.Chemscore.Fitness>
17.8505

> <Gold.Chemscore.DG>
-18.5509

> <Gold.Chemscore.ZeroCoef>
-5.4800

> <Gold.Chemscore.Hbond>
2.8442

> <Gold.Chemscore.Metal>
0.0000

> <Gold.Chemscore.Lipo>
64.2171

> <Gold.Chemscore.Internal_Hbond>
0.0000

> <Gold.Chemscore.DEClash>
0.0295

> <Gold.Chemscore.DEInternal>
0.6709

> <Gold.Chemscore.Rot>
1.5398

> <Gold.Chemscore.Internal.Correction>
   9.000000E+99

> <Gold.Chemscore.Hbonds>
donor molecule, donor type, donor heavy atom, donor atom, acceptor molecule, acceptor atom, score
      L1  H     5    25       P1  7948  0.79
      L1  H     8    26       P1  7948  0.99
      L1  H    12    44       P1 10175  0.88

> <Gold.Chemscore.Hbond.Weighted>
-9.4995

> <Gold.Chemscore.Metal.Weighted>
-0.0000

> <Gold.Chemscore.Lipo.Weighted>
-7.5134

> <Gold.Chemscore.Internal_Hbond.Weighted>
0.0000

> <Gold.Chemscore.DEClash.Weighted>
0.0295

> <Gold.Chemscore.DEInternal.Weighted>
0.6709

> <Gold.Chemscore.Rot.Weighted>
3.9420

> <Gold.Chemscore.Internal.Correction.Weighted>
   9.000000E+99

> <Gold.Protein.RotatedTorsions>
[ 6907 6896 6895 6894 ] final   61.47 input  -60.11 | X-H torsion
[ 7974 7965 7964 7962 ] final  -83.27 input  175.53 | X-H torsion
[ 8008 7997 7996 7995 ] final  -67.84 input   59.86 | X-H torsion
[ 10167 10162 10161 10158 ] final   37.23 input  -65.29 | X-H torsion
[ 10718 10713 10712 10709 ] final   45.32 input   66.30 | X-H torsion
[ 10763 10752 10751 10750 ] final  -78.62 input  -60.55 | X-H torsion
[ 11005 11000 10999 10996 ] final   95.35 input  -57.11 | X-H torsion

> <Gold.Protein.ActiveResidues>
 VAL166  LYS551  ARG553  GLY616  TRP617  ASP618  TYR619  PRO620  LYS621  CYS622 
 ASP623  PHE694  ASN695  SER759  ASP760  ASP761  ALA762  ILE779  LEU786  VAL792 
 PHE793  MET794  SER795  GLU796  ALA797  LYS798  CYS799  TRP800  GLU811  SER814 

> <Gold.Protein.RotatedAtoms>
  152.4091  134.6155  160.0036 H   0  0  0  0  0  0  0  0  0  0  0  0  # atno 6907 bound_to 6896
  151.6337  133.3324  159.3122 H   0  0  0  0  0  0  0  0  0  0  0  0  # atno 6908 bound_to 6896
  150.7984  134.7100  159.6643 H   0  0  0  0  0  0  0  0  0  0  0  0  # atno 6909 bound_to 6896
  145.5222  140.9530  143.1649 H   0  0  0  0  0  0  0  0  0  0  0  0  # atno 7974 bound_to 7965
  154.4827  140.0885  156.7414 H   0  0  0  0  0  0  0  0  0  0  0  0  # atno 8008 bound_to 7997
  155.4430  140.3454  155.4274 H   0  0  0  0  0  0  0  0  0  0  0  0  # atno 8009 bound_to 7997
  156.1215  140.1475  156.9186 H   0  0  0  0  0  0  0  0  0  0  0  0  # atno 8010 bound_to 7997
  140.4052  144.1669  150.6136 H   0  0  0  0  0  0  0  0  0  0  0  0  # atno 10167 bound_to 10162
  157.4363  130.8054  149.7651 H   0  0  0  0  0  0  0  0  0  0  0  0  # atno 10718 bound_to 10713
  154.5282  135.5723  153.6737 H   0  0  0  0  0  0  0  0  0  0  0  0  # atno 10763 bound_to 10752
  152.9933  135.6198  154.2664 H   0  0  0  0  0  0  0  0  0  0  0  0  # atno 10764 bound_to 10752
  154.2589  135.2857  155.2766 H   0  0  0  0  0  0  0  0  0  0  0  0  # atno 10765 bound_to 10752
  139.8790  134.8894  156.3998 H   0  0  0  0  0  0  0  0  0  0  0  0  # atno 11005 bound_to 11000
  144.7670  139.6823  143.7211 LP  0  0  0  0  0  0  0  0  0  0  0  0  # atno 17320 bound_to 7965
  146.2098  139.5447  142.9688 LP  0  0  0  0  0  0  0  0  0  0  0  0  # atno 17321 bound_to 7965
  140.4697  143.2417  151.9106 LP  0  0  0  0  0  0  0  0  0  0  0  0  # atno 17342 bound_to 10162
  139.4783  144.5382  151.8567 LP  0  0  0  0  0  0  0  0  0  0  0  0  # atno 17343 bound_to 10162
  155.9931  130.3926  150.2912 LP  0  0  0  0  0  0  0  0  0  0  0  0  # atno 17370 bound_to 10713
  157.1073  131.0212  151.3062 LP  0  0  0  0  0  0  0  0  0  0  0  0  # atno 17371 bound_to 10713
  140.9274  133.7602  155.9982 LP  0  0  0  0  0  0  0  0  0  0  0  0  # atno 17394 bound_to 11000
  140.8369  134.3112  157.5328 LP  0  0  0  0  0  0  0  0  0  0  0  0  # atno 17395 bound_to 11000

$$$$
