AV-unprocessed.smi:36|AV-procd|sdf|286|dock5
  -GOLD-   2262016 63D 1   1.00000     0.00000
 Structure written by MMmdl.
 64 67  0  0  0  0  0  0  0  0  1 V2000
  142.9936  136.1015  162.2746 C   0  0  0  0  0  0  0  0  0  0  0  0
  142.9589  134.5728  162.4379 C   0  0  0  0  0  0  0  0  0  0  0  0
  144.3367  134.0638  162.8941 C   0  0  0  0  0  0  0  0  0  0  0  0
  141.8937  134.1814  163.4756 C   0  0  0  0  0  0  0  0  0  0  0  0
  142.5221  133.7652  160.7626 Si  0  0  0  0  0  0  0  0  0  0  0  0
  142.7041  131.8757  160.8394 C   0  0  0  0  0  0  0  0  0  0  0  0
  140.7575  134.2192  160.2233 C   0  0  0  0  0  0  0  0  0  0  0  0
  143.6045  134.3558  159.6046 O   0  0  0  0  0  0  0  0  0  0  0  0
  143.8400  133.7220  158.3649 C   0  0  0  0  0  0  0  0  0  0  0  0
  144.9267  134.4864  157.5989 C   0  0  1  0  0  0  0  0  0  0  0  0
  146.0131  134.7784  158.4740 O   0  0  0  0  0  0  0  0  0  0  0  0
  147.2235  134.7188  157.7790 C   0  0  2  0  0  0  0  0  0  0  0  0
  147.8901  136.0485  157.8918 N   0  0  0  0  0  0  0  0  0  0  0  0
  147.4512  137.1773  158.5492 C   0  0  0  0  0  0  0  0  0  0  0  0
  148.2544  138.2059  158.4883 N   0  0  0  0  0  0  0  0  0  0  0  0
  149.3253  137.7522  157.7281 C   0  0  0  0  0  0  0  0  0  0  0  0
  150.5369  138.3429  157.2835 C   0  0  0  0  0  0  0  0  0  0  0  0
  150.8318  139.6216  157.6160 N   0  0  0  0  0  0  0  0  0  0  0  0
  152.1156  140.1724  158.0132 C   0  0  0  0  0  0  0  0  0  0  0  0
  153.1503  139.5053  157.9898 O   0  0  0  0  0  0  0  0  0  0  0  0
  152.1246  141.6300  158.3714 C   0  0  0  0  0  0  0  0  0  0  0  0
  152.9800  142.1019  159.3926 C   0  0  0  0  0  0  0  0  0  0  0  0
  152.9784  143.4639  159.7513 C   0  0  0  0  0  0  0  0  0  0  0  0
  152.1160  144.3642  159.0977 C   0  0  0  0  0  0  0  0  0  0  0  0
  151.2536  143.9012  158.0861 C   0  0  0  0  0  0  0  0  0  0  0  0
  151.2543  142.5394  157.7263 C   0  0  0  0  0  0  0  0  0  0  0  0
  151.3693  137.5732  156.5334 N   0  0  0  0  0  0  0  0  0  0  0  0
  151.0376  136.3125  156.2385 C   0  0  0  0  0  0  0  0  0  0  0  0
  149.9430  135.6338  156.5894 N   0  0  0  0  0  0  0  0  0  0  0  0
  149.1042  136.4004  157.3444 C   0  0  0  0  0  0  0  0  0  0  0  0
  146.8976  134.4095  156.3177 C   0  0  0  0  0  0  0  0  0  0  0  0
  145.5707  133.6956  156.4574 C   0  0  2  0  0  0  0  0  0  0  0  0
  144.8264  133.7737  155.2589 O   0  0  0  0  0  0  0  0  0  0  0  0
  143.2411  136.5947  163.2151 H   0  0  0  0  0  0  0  0  0  0  0  0
  142.0287  136.4880  161.9455 H   0  0  0  0  0  0  0  0  0  0  0  0
  143.7384  136.4061  161.5389 H   0  0  0  0  0  0  0  0  0  0  0  0
  145.1166  134.3329  162.1814 H   0  0  0  0  0  0  0  0  0  0  0  0
  144.3438  132.9782  162.9957 H   0  0  0  0  0  0  0  0  0  0  0  0
  144.6160  134.4870  163.8596 H   0  0  0  0  0  0  0  0  0  0  0  0
  142.1173  134.6091  164.4536 H   0  0  0  0  0  0  0  0  0  0  0  0
  141.8357  133.0990  163.5950 H   0  0  0  0  0  0  0  0  0  0  0  0
  140.9044  134.5334  163.1825 H   0  0  0  0  0  0  0  0  0  0  0  0
  142.0492  131.4401  161.5936 H   0  0  0  0  0  0  0  0  0  0  0  0
  143.7243  131.5811  161.0843 H   0  0  0  0  0  0  0  0  0  0  0  0
  142.4532  131.4111  159.8861 H   0  0  0  0  0  0  0  0  0  0  0  0
  140.0180  133.8863  160.9513 H   0  0  0  0  0  0  0  0  0  0  0  0
  140.5004  133.7592  159.2694 H   0  0  0  0  0  0  0  0  0  0  0  0
  140.6379  135.2958  160.1066 H   0  0  0  0  0  0  0  0  0  0  0  0
  144.1582  132.6942  158.5421 H   0  0  0  0  0  0  0  0  0  0  0  0
  142.9162  133.6828  157.7869 H   0  0  0  0  0  0  0  0  0  0  0  0
  144.5358  135.4357  157.2276 H   0  0  0  0  0  0  0  0  0  0  0  0
  147.8947  133.9979  158.2467 H   0  0  0  0  0  0  0  0  0  0  0  0
  146.5114  137.2125  159.0811 H   0  0  0  0  0  0  0  0  0  0  0  0
  150.0557  140.2670  157.6167 H   0  0  0  0  0  0  0  0  0  0  0  0
  153.6456  141.4227  159.9061 H   0  0  0  0  0  0  0  0  0  0  0  0
  153.6377  143.8174  160.5303 H   0  0  0  0  0  0  0  0  0  0  0  0
  152.1133  145.4082  159.3747 H   0  0  0  0  0  0  0  0  0  0  0  0
  150.5874  144.5905  157.5879 H   0  0  0  0  0  0  0  0  0  0  0  0
  150.5762  142.2035  156.9551 H   0  0  0  0  0  0  0  0  0  0  0  0
  151.7518  135.7708  155.6359 H   0  0  0  0  0  0  0  0  0  0  0  0
  146.7815  135.3397  155.7576 H   0  0  0  0  0  0  0  0  0  0  0  0
  147.6803  133.8080  155.8549 H   0  0  0  0  0  0  0  0  0  0  0  0
  145.7272  132.6541  156.7422 H   0  0  0  0  0  0  0  0  0  0  0  0
  144.3690  132.9552  155.1377 H   0  0  0  0  0  0  0  0  0  0  0  0
  1  2  1  0  0  0  0
  1 34  1  0  0  0  0
  1 35  1  0  0  0  0
  1 36  1  0  0  0  0
  2  3  1  0  0  0  0
  2  4  1  0  0  0  0
  2  5  1  0  0  0  0
  3 37  1  0  0  0  0
  3 38  1  0  0  0  0
  3 39  1  0  0  0  0
  4 40  1  0  0  0  0
  4 41  1  0  0  0  0
  4 42  1  0  0  0  0
  5  6  1  0  0  0  0
  5  7  1  0  0  0  0
  5  8  1  0  0  0  0
  6 43  1  0  0  0  0
  6 44  1  0  0  0  0
  6 45  1  0  0  0  0
  7 46  1  0  0  0  0
  7 47  1  0  0  0  0
  7 48  1  0  0  0  0
  8  9  1  0  0  0  0
  9 10  1  0  0  0  0
  9 49  1  0  0  0  0
  9 50  1  0  0  0  0
 10 32  1  0  0  0  0
 10 11  1  0  0  0  0
 10 51  1  0  0  0  0
 11 12  1  0  0  0  0
 12 13  1  0  0  0  0
 12 31  1  0  0  0  0
 12 52  1  0  0  0  0
 13 30  1  0  0  0  0
 13 14  1  0  0  0  0
 14 15  2  0  0  0  0
 14 53  1  0  0  0  0
 15 16  1  0  0  0  0
 16 30  2  0  0  0  0
 16 17  1  0  0  0  0
 17 18  1  0  0  0  0
 17 27  2  0  0  0  0
 18 19  1  0  0  0  0
 18 54  1  0  0  0  0
 19 20  2  0  0  0  0
 19 21  1  0  0  0  0
 21 26  1  0  0  0  0
 21 22  2  0  0  0  0
 22 23  1  0  0  0  0
 22 55  1  0  0  0  0
 23 24  2  0  0  0  0
 23 56  1  0  0  0  0
 24 25  1  0  0  0  0
 24 57  1  0  0  0  0
 25 26  2  0  0  0  0
 25 58  1  0  0  0  0
 26 59  1  0  0  0  0
 27 28  1  0  0  0  0
 28 29  2  0  0  0  0
 28 60  1  0  0  0  0
 29 30  1  0  0  0  0
 31 32  1  0  0  0  0
 31 61  1  0  0  0  0
 31 62  1  0  0  0  0
 32 33  1  0  0  0  0
 32 63  1  0  0  0  0
 33 64  1  0  0  0  0
M  END
> <s_m_source_file>
AV-unprocessed.smi

> <i_m_source_file_index>
36

> <i_lp_mmshare_version>
43012

> <i_f3d_flags>
0

> <s_epik_input>
W0NIM11DKFtDSDNdKShbQ0gzXSlbU2ldKFtDSDNdKShbQ0gzXSlPW0NIMl1bQ0BASF0xT1tDQEhdKFtDSDJdW0NASF0xW09IXSluKFtjSF1uMiljKGMyMyluW2NIXW5jM1tOSF1DKD1PKWM0W2NIXVtjSF1bY0hdW2NIXVtjSF00

> <s_epik_cmdline>
J2VwaWtfcHl0aG9uJywgJy1waCcsICc3LjAnLCAnLXRuJywgJzgnLCAnLW1hJywgJzIwMCcsICctbWV0YWxfYmluZGluZycsICctaW1hZScsICc8aW5maWxlLm1hZT4nLCAnLW9tYWUnLCAnPG91dGZpbGUubWFlPic=

> <r_lp_tautomer_probability>
1

> <r_epik_Ionization_Penalty>
0.00150433

> <r_epik_Ionization_Penalty_Charging>
0

> <r_epik_Ionization_Penalty_Neutral>
0.00150433

> <r_epik_State_Penalty>
0.00724046

> <r_epik_Charging_Adjusted_Penalty>
0.00724046

> <i_epik_Tot_Q>
0

> <i_epik_Tot_abs_Q>
0

> <r_epik_Metal_State_Penalty>
0.323355

> <b_epik_Metal_Only>
0

> <s_epik_Chemistry_Notes>
This compound contains an acetal/aminal-like group ( X-CH(R)-Y where X, Y are N, S, or O) that may be acid/base labile, releasing an aldehyde.

> <s_lp_Force_Field>
OPLS_2005

> <r_lp_Energy>
35.7954

> <b_lp_Chiralities_Consistent>
1

> <s_lp_Variant>
AV-unprocessed.smi:36-8

> <Gold.Version>
5.8.1

> <Gold.Id.Protein>
6NUR|6NUR_protein|mol2

> <Gold.PLP.Fitness>
45.6875

> <Gold.PLP.PLP>
-43.5165

> <Gold.PLP.part.hbond>
-2.7634

> <Gold.PLP.part.metal>
0.0000

> <Gold.PLP.part.buried>
-6.8595

> <Gold.PLP.part.nonpolar>
-34.1839

> <Gold.PLP.part.repulsive>
0.0532

> <Gold.PLP.ligand.clash>
0.0000

> <Gold.PLP.ligand.torsion>
1.3044

> <Gold.PLP.Chemscore.Hbond>
1.4593

> <Gold.PLP.Chemscore.CHOScore>
0.0000

> <Gold.PLP.Chemscore.Metal>
0.0000

> <Gold.Chemscore.Hbonds>
donor molecule, donor type, donor heavy atom, donor atom, acceptor molecule, acceptor atom, score
      L1  H    33    64       P1 10957  0.84
      P1  H  7997  8008       L1    20  0.52

> <Gold.PLP.Chemscore.Internal.Correction>
0.4020

> <Gold.Rescore>
     Score         DG    S(hbond)    S(metal)    S(lipo)     H(rot)  DE(clash)    DE(int)     intcor
     14.48     -15.58       1.28        0.00     108.83       2.70       0.01       1.09       ----

> <Gold.Chemscore.Fitness>
14.4760

> <Gold.Chemscore.DG>
-15.5785

> <Gold.Chemscore.ZeroCoef>
-5.4800

> <Gold.Chemscore.Hbond>
1.2837

> <Gold.Chemscore.Metal>
0.0000

> <Gold.Chemscore.Lipo>
108.8330

> <Gold.Chemscore.Internal_Hbond>
0.0000

> <Gold.Chemscore.DEClash>
0.0102

> <Gold.Chemscore.DEInternal>
1.0923

> <Gold.Chemscore.Rot>
2.7041

> <Gold.Chemscore.Internal.Correction>
   9.000000E+99

> <Gold.Chemscore.Hbonds>
donor molecule, donor type, donor heavy atom, donor atom, acceptor molecule, acceptor atom, score
      L1  H    33    64       P1 10957  0.81
      P1  H  7997  8008       L1    20  0.51

> <Gold.Chemscore.Hbond.Weighted>
-4.2875

> <Gold.Chemscore.Metal.Weighted>
-0.0000

> <Gold.Chemscore.Lipo.Weighted>
-12.7335

> <Gold.Chemscore.Internal_Hbond.Weighted>
0.0000

> <Gold.Chemscore.DEClash.Weighted>
0.0102

> <Gold.Chemscore.DEInternal.Weighted>
1.0923

> <Gold.Chemscore.Rot.Weighted>
6.9225

> <Gold.Chemscore.Internal.Correction.Weighted>
   9.000000E+99

> <Gold.Protein.RotatedTorsions>
[ 6907 6896 6895 6894 ] final   41.90 input  -60.11 | X-H torsion
[ 7974 7965 7964 7962 ] final -168.02 input  175.53 | X-H torsion
[ 8008 7997 7996 7995 ] final -117.57 input   59.86 | X-H torsion
[ 10167 10162 10161 10158 ] final  -18.24 input  -65.29 | X-H torsion
[ 10718 10713 10712 10709 ] final  147.82 input   66.30 | X-H torsion
[ 10763 10752 10751 10750 ] final   89.90 input  -60.55 | X-H torsion
[ 11005 11000 10999 10996 ] final -172.14 input  -57.11 | X-H torsion

> <Gold.Protein.ActiveResidues>
 VAL166  LYS551  ARG553  GLY616  TRP617  ASP618  TYR619  PRO620  LYS621  CYS622 
 ASP623  PHE694  ASN695  SER759  ASP760  ASP761  ALA762  ILE779  LEU786  VAL792 
 PHE793  MET794  SER795  GLU796  ALA797  LYS798  CYS799  TRP800  GLU811  SER814 

> <Gold.Protein.RotatedAtoms>
  152.2011  134.8587  160.0507 H   0  0  0  0  0  0  0  0  0  0  0  0  # atno 6907 bound_to 6896
  151.9440  133.3641  159.3983 H   0  0  0  0  0  0  0  0  0  0  0  0  # atno 6908 bound_to 6896
  150.6955  134.4334  159.5303 H   0  0  0  0  0  0  0  0  0  0  0  0  # atno 6909 bound_to 6896
  144.7211  140.2432  143.6288 H   0  0  0  0  0  0  0  0  0  0  0  0  # atno 7974 bound_to 7965
  155.0858  140.0394  157.2653 H   0  0  0  0  0  0  0  0  0  0  0  0  # atno 8008 bound_to 7997
  154.6871  140.2645  155.6825 H   0  0  0  0  0  0  0  0  0  0  0  0  # atno 8009 bound_to 7997
  156.2715  140.2767  156.1436 H   0  0  0  0  0  0  0  0  0  0  0  0  # atno 8010 bound_to 7997
  140.7256  143.4936  150.9960 H   0  0  0  0  0  0  0  0  0  0  0  0  # atno 10167 bound_to 10162
  157.3162  131.0896  151.1277 H   0  0  0  0  0  0  0  0  0  0  0  0  # atno 10718 bound_to 10713
  153.1920  135.4453  155.0160 H   0  0  0  0  0  0  0  0  0  0  0  0  # atno 10763 bound_to 10752
  154.8096  135.3288  154.7344 H   0  0  0  0  0  0  0  0  0  0  0  0  # atno 10764 bound_to 10752
  153.7797  135.6978  153.4946 H   0  0  0  0  0  0  0  0  0  0  0  0  # atno 10765 bound_to 10752
  140.5004  134.5899  157.4985 H   0  0  0  0  0  0  0  0  0  0  0  0  # atno 11005 bound_to 11000
  145.8299  139.2081  143.1889 LP  0  0  0  0  0  0  0  0  0  0  0  0  # atno 17320 bound_to 7965
  146.0440  140.8137  142.9814 LP  0  0  0  0  0  0  0  0  0  0  0  0  # atno 17321 bound_to 7965
  139.8641  143.7276  152.3171 LP  0  0  0  0  0  0  0  0  0  0  0  0  # atno 17342 bound_to 10162
  139.7502  144.7536  151.0518 LP  0  0  0  0  0  0  0  0  0  0  0  0  # atno 17343 bound_to 10162
  157.2580  130.6645  149.5961 LP  0  0  0  0  0  0  0  0  0  0  0  0  # atno 17370 bound_to 10713
  155.9682  130.4517  150.5748 LP  0  0  0  0  0  0  0  0  0  0  0  0  # atno 17371 bound_to 10713
  139.9717  134.7282  156.0029 LP  0  0  0  0  0  0  0  0  0  0  0  0  # atno 17394 bound_to 11000
  141.1439  133.6559  156.3809 LP  0  0  0  0  0  0  0  0  0  0  0  0  # atno 17395 bound_to 11000

$$$$
