AV-unprocessed.smi:251|AV-procd|sdf|1935|dock8
  -GOLD-   2262021 53D 1   1.00000     0.00000
 Structure written by MMmdl.
 50 54  0  0  0  0  0  0  0  0  1 V2000
  149.6991  136.8311  154.1879 O   0  0  0  0  0  0  0  0  0  0  0  0
  148.7022  137.4391  154.9847 C   0  0  0  0  0  0  0  0  0  0  0  0
  148.5064  138.9390  154.6393 C   0  0  0  0  0  0  0  0  0  0  0  0
  149.8759  139.6079  154.2946 C   0  0  0  0  0  0  0  0  0  0  0  0
  150.8183  139.6939  155.4026 N   0  0  0  0  0  0  0  0  0  0  0  0
  151.7073  138.7216  155.8004 C   0  0  0  0  0  0  0  0  0  0  0  0
  152.4529  139.0338  156.8231 N   0  0  0  0  0  0  0  0  0  0  0  0
  152.0744  140.3324  157.1457 C   0  0  0  0  0  0  0  0  0  0  0  0
  152.4772  141.2763  158.1380 C   0  0  0  0  0  0  0  0  0  0  0  0
  153.4285  141.0464  159.0812 N   0  0  0  0  0  0  0  0  0  0  0  0
  153.7229  142.0285  160.1238 C   0  0  0  0  0  0  0  0  0  0  0  0
  154.9635  141.5179  160.8150 C   0  0  1  0  0  0  0  0  0  0  0  0
  155.0270  140.1303  161.4214 C   0  0  0  0  0  0  0  0  0  0  0  0
  155.5048  140.3798  160.0063 C   0  0  2  0  0  0  0  0  0  0  0  0
  156.9773  140.2318  159.6468 C   0  0  0  0  0  0  0  0  0  0  0  0
  157.3789  141.2991  158.9575 F   0  0  0  0  0  0  0  0  0  0  0  0
  157.7146  140.1257  160.7525 F   0  0  0  0  0  0  0  0  0  0  0  0
  157.1808  139.1446  158.9022 F   0  0  0  0  0  0  0  0  0  0  0  0
  154.5667  140.1656  158.8361 C   0  0  0  0  0  0  0  0  0  0  0  0
  151.8482  142.4816  158.1375 N   0  0  0  0  0  0  0  0  0  0  0  0
  150.9065  142.7576  157.2317 C   0  0  0  0  0  0  0  0  0  0  0  0
  150.4386  141.9817  156.2541 N   0  0  0  0  0  0  0  0  0  0  0  0
  151.0507  140.7637  156.2519 C   0  0  0  0  0  0  0  0  0  0  0  0
  147.5007  139.0224  153.4628 C   0  0  0  0  0  0  0  0  0  0  0  0
  147.0070  140.4571  153.2072 C   0  0  0  0  0  0  0  0  0  0  0  0
  146.4014  140.9712  154.3858 O   0  0  0  0  0  0  0  0  0  0  0  0
  147.3067  141.0593  155.4789 C   0  0  0  0  0  0  0  0  0  0  0  0
  147.8443  139.6613  155.8399 C   0  0  0  0  0  0  0  0  0  0  0  0
  149.2947  136.5002  153.4006 H   0  0  0  0  0  0  0  0  0  0  0  0
  147.7709  136.8849  154.8674 H   0  0  0  0  0  0  0  0  0  0  0  0
  148.9967  137.3197  156.0279 H   0  0  0  0  0  0  0  0  0  0  0  0
  150.3790  139.0738  153.4900 H   0  0  0  0  0  0  0  0  0  0  0  0
  149.7164  140.6152  153.9084 H   0  0  0  0  0  0  0  0  0  0  0  0
  151.7811  137.7615  155.3114 H   0  0  0  0  0  0  0  0  0  0  0  0
  153.9227  143.0072  159.6860 H   0  0  0  0  0  0  0  0  0  0  0  0
  152.9016  142.1159  160.8357 H   0  0  0  0  0  0  0  0  0  0  0  0
  155.6515  142.2649  161.2055 H   0  0  0  0  0  0  0  0  0  0  0  0
  155.7727  139.9563  162.1941 H   0  0  0  0  0  0  0  0  0  0  0  0
  154.0922  139.5887  161.5526 H   0  0  0  0  0  0  0  0  0  0  0  0
  154.2592  139.1205  158.7967 H   0  0  0  0  0  0  0  0  0  0  0  0
  155.0546  140.4295  157.8975 H   0  0  0  0  0  0  0  0  0  0  0  0
  150.4630  143.7397  157.3020 H   0  0  0  0  0  0  0  0  0  0  0  0
  147.9195  138.5975  152.5513 H   0  0  0  0  0  0  0  0  0  0  0  0
  146.6275  138.4091  153.6897 H   0  0  0  0  0  0  0  0  0  0  0  0
  147.8164  141.1114  152.8825 H   0  0  0  0  0  0  0  0  0  0  0  0
  146.2659  140.4569  152.4079 H   0  0  0  0  0  0  0  0  0  0  0  0
  148.1141  141.7528  155.2433 H   0  0  0  0  0  0  0  0  0  0  0  0
  146.7766  141.4820  156.3324 H   0  0  0  0  0  0  0  0  0  0  0  0
  147.0094  139.0632  156.2079 H   0  0  0  0  0  0  0  0  0  0  0  0
  148.5447  139.7436  156.6717 H   0  0  0  0  0  0  0  0  0  0  0  0
  1  2  1  0  0  0  0
  1 29  1  0  0  0  0
  2  3  1  0  0  0  0
  2 30  1  0  0  0  0
  2 31  1  0  0  0  0
  3 28  1  0  0  0  0
  3  4  1  0  0  0  0
  3 24  1  0  0  0  0
  4  5  1  0  0  0  0
  4 32  1  0  0  0  0
  4 33  1  0  0  0  0
  5 23  1  0  0  0  0
  5  6  1  0  0  0  0
  6  7  2  0  0  0  0
  6 34  1  0  0  0  0
  7  8  1  0  0  0  0
  8 23  2  0  0  0  0
  8  9  1  0  0  0  0
  9 10  1  0  0  0  0
  9 20  2  0  0  0  0
 10 19  1  0  0  0  0
 10 11  1  0  0  0  0
 11 12  1  0  0  0  0
 11 35  1  0  0  0  0
 11 36  1  0  0  0  0
 12 14  1  0  0  0  0
 12 13  1  0  0  0  0
 12 37  1  0  0  0  0
 13 14  1  0  0  0  0
 13 38  1  0  0  0  0
 13 39  1  0  0  0  0
 14 15  1  0  0  0  0
 14 19  1  0  0  0  0
 15 16  1  0  0  0  0
 15 17  1  0  0  0  0
 15 18  1  0  0  0  0
 19 40  1  0  0  0  0
 19 41  1  0  0  0  0
 20 21  1  0  0  0  0
 21 22  2  0  0  0  0
 21 42  1  0  0  0  0
 22 23  1  0  0  0  0
 24 25  1  0  0  0  0
 24 43  1  0  0  0  0
 24 44  1  0  0  0  0
 25 26  1  0  0  0  0
 25 45  1  0  0  0  0
 25 46  1  0  0  0  0
 26 27  1  0  0  0  0
 27 28  1  0  0  0  0
 27 47  1  0  0  0  0
 27 48  1  0  0  0  0
 28 49  1  0  0  0  0
 28 50  1  0  0  0  0
M  END
> <s_m_source_file>
AV-unprocessed.smi

> <i_m_source_file_index>
251

> <i_lp_mmshare_version>
43012

> <i_f3d_flags>
0

> <s_epik_input>
W0NIMl0xW0NIMl1PW0NIMl1bQ0gyXUMxKFtDSDJdW09IXSlbQ0gyXW4oW2NIXW4yKWMoYzIzKW5bY0hdbmMzTihbQ0gyXTQpW0NIMl1bQ0BIXShbQ0gyXTUpW0NAQF00NUMoRikoRilG

> <s_epik_cmdline>
J2VwaWtfcHl0aG9uJywgJy1waCcsICc3LjAnLCAnLXRuJywgJzgnLCAnLW1hJywgJzIwMCcsICctbWV0YWxfYmluZGluZycsICctaW1hZScsICc8aW5maWxlLm1hZT4nLCAnLW9tYWUnLCAnPG91dGZpbGUubWFlPic=

> <r_lp_tautomer_probability>
1

> <r_epik_Ionization_Penalty>
0.00226625

> <r_epik_Ionization_Penalty_Charging>
0

> <r_epik_Ionization_Penalty_Neutral>
0.00226625

> <r_epik_State_Penalty>
0.00138204

> <r_epik_Charging_Adjusted_Penalty>
0.00138204

> <i_epik_Tot_Q>
0

> <i_epik_Tot_abs_Q>
0

> <r_epik_Metal_State_Penalty>
-0

> <b_epik_Metal_Only>
0

> <s_lp_Force_Field>
OPLS_2005

> <r_lp_Energy>
66.9276

> <b_lp_Chiralities_Consistent>
1

> <s_lp_Variant>
AV-unprocessed.smi:251-2

> <Gold.Version>
5.8.1

> <Gold.Id.Protein>
6NUR|6NUR_protein|mol2

> <Gold.PLP.Fitness>
42.5805

> <Gold.PLP.PLP>
-39.3608

> <Gold.PLP.part.hbond>
-1.0000

> <Gold.PLP.part.metal>
0.0000

> <Gold.PLP.part.buried>
-2.2525

> <Gold.PLP.part.nonpolar>
-36.6363

> <Gold.PLP.part.repulsive>
0.3008

> <Gold.PLP.ligand.clash>
0.0000

> <Gold.PLP.ligand.torsion>
2.1159

> <Gold.PLP.Chemscore.Hbond>
1.0000

> <Gold.PLP.Chemscore.CHOScore>
0.8955

> <Gold.PLP.Chemscore.Metal>
0.0000

> <Gold.Chemscore.Hbonds>
donor molecule, donor type, donor heavy atom, donor atom, acceptor molecule, acceptor atom, score
      L1  H     1    29       P1  7948  1.00
      L1  C    21    42       P1  8028  0.93

> <Gold.PLP.Chemscore.Internal.Correction>
1.7653

> <Gold.Rescore>
     Score         DG    S(hbond)    S(metal)    S(lipo)     H(rot)  DE(clash)    DE(int)     intcor
     10.42     -12.28       0.98        0.00      79.05       2.23       0.14       1.72       ----

> <Gold.Chemscore.Fitness>
10.4232

> <Gold.Chemscore.DG>
-12.2842

> <Gold.Chemscore.ZeroCoef>
-5.4800

> <Gold.Chemscore.Hbond>
0.9806

> <Gold.Chemscore.Metal>
0.0000

> <Gold.Chemscore.Lipo>
79.0507

> <Gold.Chemscore.Internal_Hbond>
0.0000

> <Gold.Chemscore.DEClash>
0.1400

> <Gold.Chemscore.DEInternal>
1.7210

> <Gold.Chemscore.Rot>
2.2344

> <Gold.Chemscore.Internal.Correction>
   9.000000E+99

> <Gold.Chemscore.Hbonds>
donor molecule, donor type, donor heavy atom, donor atom, acceptor molecule, acceptor atom, score
      L1  H     1    29       P1  7948  0.88

> <Gold.Chemscore.Hbond.Weighted>
-3.2753

> <Gold.Chemscore.Metal.Weighted>
-0.0000

> <Gold.Chemscore.Lipo.Weighted>
-9.2489

> <Gold.Chemscore.Internal_Hbond.Weighted>
0.0000

> <Gold.Chemscore.DEClash.Weighted>
0.1400

> <Gold.Chemscore.DEInternal.Weighted>
1.7210

> <Gold.Chemscore.Rot.Weighted>
5.7200

> <Gold.Chemscore.Internal.Correction.Weighted>
   9.000000E+99

> <Gold.Protein.RotatedTorsions>
[ 6907 6896 6895 6894 ] final -112.30 input  -60.11 | X-H torsion
[ 7974 7965 7964 7962 ] final  170.81 input  175.53 | X-H torsion
[ 8008 7997 7996 7995 ] final   42.32 input   59.86 | X-H torsion
[ 10167 10162 10161 10158 ] final  107.14 input  -65.29 | X-H torsion
[ 10718 10713 10712 10709 ] final -156.39 input   66.30 | X-H torsion
[ 10763 10752 10751 10750 ] final -150.31 input  -60.55 | X-H torsion
[ 11005 11000 10999 10996 ] final  -69.48 input  -57.11 | X-H torsion

> <Gold.Protein.ActiveResidues>
 VAL166  LYS551  ARG553  GLY616  TRP617  ASP618  TYR619  PRO620  LYS621  CYS622 
 ASP623  PHE694  ASN695  SER759  ASP760  ASP761  ALA762  ILE779  LEU786  VAL792 
 PHE793  MET794  SER795  GLU796  ALA797  LYS798  CYS799  TRP800  GLU811  SER814 

> <Gold.Protein.RotatedAtoms>
  150.7749  133.9109  159.3368 H   0  0  0  0  0  0  0  0  0  0  0  0  # atno 6907 bound_to 6896
  151.6986  135.0932  160.0256 H   0  0  0  0  0  0  0  0  0  0  0  0  # atno 6908 bound_to 6896
  152.3781  133.6471  159.6175 H   0  0  0  0  0  0  0  0  0  0  0  0  # atno 6909 bound_to 6896
  144.7313  139.9257  143.6422 H   0  0  0  0  0  0  0  0  0  0  0  0  # atno 7974 bound_to 7965
  155.2842  140.3374  155.4256 H   0  0  0  0  0  0  0  0  0  0  0  0  # atno 8008 bound_to 7997
  156.2076  140.1757  156.7806 H   0  0  0  0  0  0  0  0  0  0  0  0  # atno 8009 bound_to 7997
  154.5642  140.0682  156.8850 H   0  0  0  0  0  0  0  0  0  0  0  0  # atno 8010 bound_to 7997
  139.6951  144.7102  151.1281 H   0  0  0  0  0  0  0  0  0  0  0  0  # atno 10167 bound_to 10162
  156.5258  130.8498  151.2698 H   0  0  0  0  0  0  0  0  0  0  0  0  # atno 10718 bound_to 10713
  154.8126  135.3287  154.7263 H   0  0  0  0  0  0  0  0  0  0  0  0  # atno 10763 bound_to 10752
  153.7909  135.6911  153.4876 H   0  0  0  0  0  0  0  0  0  0  0  0  # atno 10764 bound_to 10752
  153.1917  135.4548  155.0104 H   0  0  0  0  0  0  0  0  0  0  0  0  # atno 10765 bound_to 10752
  141.1555  133.6765  156.6605 H   0  0  0  0  0  0  0  0  0  0  0  0  # atno 11005 bound_to 11000
  146.0896  139.3885  143.0414 LP  0  0  0  0  0  0  0  0  0  0  0  0  # atno 17320 bound_to 7965
  145.7730  140.9889  143.1140 LP  0  0  0  0  0  0  0  0  0  0  0  0  # atno 17321 bound_to 7965
  140.7694  143.5503  150.9212 LP  0  0  0  0  0  0  0  0  0  0  0  0  # atno 17342 bound_to 10162
  139.9182  143.6637  152.3102 LP  0  0  0  0  0  0  0  0  0  0  0  0  # atno 17343 bound_to 10162
  157.7429  130.9901  150.2556 LP  0  0  0  0  0  0  0  0  0  0  0  0  # atno 17370 bound_to 10713
  156.3106  130.3771  149.7665 LP  0  0  0  0  0  0  0  0  0  0  0  0  # atno 17371 bound_to 10713
  140.3251  134.7976  157.4282 LP  0  0  0  0  0  0  0  0  0  0  0  0  # atno 17394 bound_to 11000
  140.1064  134.5404  155.8305 LP  0  0  0  0  0  0  0  0  0  0  0  0  # atno 17395 bound_to 11000

$$$$
