AV-unprocessed.smi:21|AV-procd|sdf|165|dock6
  -GOLD-   2262015413D 1   1.00000     0.00000
 Structure written by MMmdl.
 61 64  0  0  0  0  0  0  0  0  1 V2000
  148.6453  145.2876  161.1859 C   0  0  0  0  0  0  0  0  0  0  0  0
  149.5874  144.2270  161.1564 O   0  0  0  0  0  0  0  0  0  0  0  0
  150.9367  144.6704  161.1045 C   0  0  1  0  0  0  0  0  0  0  0  0
  151.9293  143.5045  161.2518 C   0  0  0  0  0  0  0  0  0  0  0  0
  152.8964  143.6862  160.0764 C   0  0  1  0  0  0  0  0  0  0  0  0
  153.6433  142.3947  159.6752 C   0  0  0  0  0  0  0  0  0  0  0  0
  152.7395  141.2783  159.3947 N   0  0  0  0  0  0  0  0  0  0  0  0
  153.2425  139.9248  159.6263 C   0  0  0  0  0  0  0  0  0  0  0  0
  151.7045  141.4438  158.5205 C   0  0  0  0  0  0  0  0  0  0  0  0
  150.6420  142.2015  158.9095 N   0  0  0  0  0  0  0  0  0  0  0  0
  149.6030  142.4012  158.0948 C   0  0  0  0  0  0  0  0  0  0  0  0
  149.4186  141.9489  156.8552 N   0  0  0  0  0  0  0  0  0  0  0  0
  150.4789  141.1978  156.4448 C   0  0  0  0  0  0  0  0  0  0  0  0
  151.6498  140.8954  157.2011 C   0  0  0  0  0  0  0  0  0  0  0  0
  152.5026  140.1148  156.4270 N   0  0  0  0  0  0  0  0  0  0  0  0
  151.8723  139.9533  155.2973 C   0  0  0  0  0  0  0  0  0  0  0  0
  150.6513  140.5794  155.2195 N   0  0  0  0  0  0  0  0  0  0  0  0
  149.7396  140.5795  154.0894 C   0  0  0  0  0  0  0  0  0  0  0  0
  148.3281  140.0567  154.4595 C   0  0  1  0  0  0  0  0  0  0  0  0
  147.2349  140.7383  153.6039 C   0  0  0  0  0  0  0  0  0  0  0  0
  147.3546  140.3843  152.2419 O   0  0  0  0  0  0  0  0  0  0  0  0
  148.2149  138.5078  154.4172 C   0  0  1  0  0  0  0  0  0  0  0  0
  149.1366  137.7275  155.3434 C   0  0  0  0  0  0  0  0  0  0  0  0
  148.4179  136.3881  155.4264 C   0  0  0  0  0  0  0  0  0  0  0  0
  147.0490  136.7544  155.5131 O   0  0  0  0  0  0  0  0  0  0  0  0
  146.8260  137.9310  154.7392 C   0  0  0  0  0  0  0  0  0  0  0  0
  152.0689  144.2563  159.0267 N   0  0  0  0  0  0  0  0  0  0  0  0
  152.8251  144.8417  157.9278 C   0  0  0  0  0  0  0  0  0  0  0  0
  151.2460  145.2378  159.7119 C   0  0  0  0  0  0  0  0  0  0  0  0
  151.1149  145.4433  161.8542 H   0  0  0  0  0  0  0  0  0  0  0  0
  153.6288  144.4383  160.3739 H   0  0  0  0  0  0  0  0  0  0  0  0
  147.6364  144.8769  161.2210 H   0  0  0  0  0  0  0  0  0  0  0  0
  148.7236  145.9084  160.2924 H   0  0  0  0  0  0  0  0  0  0  0  0
  148.7781  145.9210  162.0635 H   0  0  0  0  0  0  0  0  0  0  0  0
  152.4380  143.5054  162.2163 H   0  0  0  0  0  0  0  0  0  0  0  0
  151.3976  142.5597  161.1557 H   0  0  0  0  0  0  0  0  0  0  0  0
  154.3285  142.5951  158.8549 H   0  0  0  0  0  0  0  0  0  0  0  0
  154.2818  142.0804  160.5011 H   0  0  0  0  0  0  0  0  0  0  0  0
  152.4334  139.2589  159.9287 H   0  0  0  0  0  0  0  0  0  0  0  0
  153.9947  139.9070  160.4139 H   0  0  0  0  0  0  0  0  0  0  0  0
  153.7030  139.5249  158.7222 H   0  0  0  0  0  0  0  0  0  0  0  0
  148.8061  143.0115  158.4937 H   0  0  0  0  0  0  0  0  0  0  0  0
  152.2883  139.3790  154.4823 H   0  0  0  0  0  0  0  0  0  0  0  0
  149.6826  141.5964  153.7009 H   0  0  0  0  0  0  0  0  0  0  0  0
  150.1947  139.9767  153.3044 H   0  0  0  0  0  0  0  0  0  0  0  0
  148.1440  140.3475  155.4953 H   0  0  0  0  0  0  0  0  0  0  0  0
  146.2390  140.4349  153.9253 H   0  0  0  0  0  0  0  0  0  0  0  0
  147.2837  141.8231  153.7016 H   0  0  0  0  0  0  0  0  0  0  0  0
  148.2222  140.6144  151.9458 H   0  0  0  0  0  0  0  0  0  0  0  0
  148.4409  138.1768  153.4026 H   0  0  0  0  0  0  0  0  0  0  0  0
  150.1534  137.6383  154.9601 H   0  0  0  0  0  0  0  0  0  0  0  0
  149.1828  138.1702  156.3378 H   0  0  0  0  0  0  0  0  0  0  0  0
  148.5815  135.8020  154.5206 H   0  0  0  0  0  0  0  0  0  0  0  0
  148.7297  135.7927  156.2847 H   0  0  0  0  0  0  0  0  0  0  0  0
  146.1961  138.6143  155.3069 H   0  0  0  0  0  0  0  0  0  0  0  0
  146.2896  137.6810  153.8231 H   0  0  0  0  0  0  0  0  0  0  0  0
  152.1524  145.2978  157.2008 H   0  0  0  0  0  0  0  0  0  0  0  0
  153.4065  144.0826  157.4049 H   0  0  0  0  0  0  0  0  0  0  0  0
  153.5112  145.6111  158.2843 H   0  0  0  0  0  0  0  0  0  0  0  0
  150.3451  145.4686  159.1424 H   0  0  0  0  0  0  0  0  0  0  0  0
  151.8025  146.1692  159.8312 H   0  0  0  0  0  0  0  0  0  0  0  0
  1  2  1  0  0  0  0
  1 32  1  0  0  0  0
  1 33  1  0  0  0  0
  1 34  1  0  0  0  0
  2  3  1  0  0  0  0
  3 30  1  0  0  0  0
  3 29  1  0  0  0  0
  3  4  1  0  0  0  0
  4  5  1  0  0  0  0
  4 35  1  0  0  0  0
  4 36  1  0  0  0  0
  5 31  1  0  0  0  0
  5  6  1  0  0  0  0
  5 27  1  0  0  0  0
  6  7  1  0  0  0  0
  6 37  1  0  0  0  0
  6 38  1  0  0  0  0
  7  8  1  0  0  0  0
  7  9  1  0  0  0  0
  8 39  1  0  0  0  0
  8 40  1  0  0  0  0
  8 41  1  0  0  0  0
  9 14  1  0  0  0  0
  9 10  2  0  0  0  0
 10 11  1  0  0  0  0
 11 12  2  0  0  0  0
 11 42  1  0  0  0  0
 12 13  1  0  0  0  0
 13 17  1  0  0  0  0
 13 14  2  0  0  0  0
 14 15  1  0  0  0  0
 15 16  2  0  0  0  0
 16 17  1  0  0  0  0
 16 43  1  0  0  0  0
 17 18  1  0  0  0  0
 18 19  1  0  0  0  0
 18 44  1  0  0  0  0
 18 45  1  0  0  0  0
 19 20  1  0  0  0  0
 19 22  1  0  0  0  0
 19 46  1  0  0  0  0
 20 21  1  0  0  0  0
 20 47  1  0  0  0  0
 20 48  1  0  0  0  0
 21 49  1  0  0  0  0
 22 26  1  0  0  0  0
 22 23  1  0  0  0  0
 22 50  1  0  0  0  0
 23 24  1  0  0  0  0
 23 51  1  0  0  0  0
 23 52  1  0  0  0  0
 24 25  1  0  0  0  0
 24 53  1  0  0  0  0
 24 54  1  0  0  0  0
 25 26  1  0  0  0  0
 26 55  1  0  0  0  0
 26 56  1  0  0  0  0
 27 28  1  0  0  0  0
 27 29  1  0  0  0  0
 28 57  1  0  0  0  0
 28 58  1  0  0  0  0
 28 59  1  0  0  0  0
 29 60  1  0  0  0  0
 29 61  1  0  0  0  0
M  END
> <s_m_source_file>
AV-unprocessed.smi

> <i_m_source_file_index>
21

> <i_lp_mmshare_version>
43012

> <i_f3d_flags>
0

> <s_epik_input>
W0NIM11PW0NASF0xW0NIMl1bQ0BIXShOKFtDSDNdKVtDSDJdMSlbQ0gyXU4oW0NIM10pYyhuW2NIXW4yKWMoYzIzKW5bY0hdbjNbQ0gyXVtDQEhdKFtDSDJdW09IXSlbQ0BASF00W0NIMl1bQ0gyXU9bQ0gyXTQ=

> <s_epik_cmdline>
J2VwaWtfcHl0aG9uJywgJy1waCcsICc3LjAnLCAnLXRuJywgJzgnLCAnLW1hJywgJzIwMCcsICctbWV0YWxfYmluZGluZycsICctaW1hZScsICc8aW5maWxlLm1hZT4nLCAnLW9tYWUnLCAnPG91dGZpbGUubWFlPic=

> <r_lp_tautomer_probability>
1

> <r_epik_Ionization_Penalty>
2.17574

> <r_epik_Ionization_Penalty_Charging>
0

> <r_epik_Ionization_Penalty_Neutral>
2.17574

> <r_epik_State_Penalty>
2.31336

> <r_epik_Charging_Adjusted_Penalty>
2.31336

> <i_epik_Tot_Q>
0

> <i_epik_Tot_abs_Q>
0

> <r_epik_Metal_State_Penalty>
2.31025

> <b_epik_Metal_Only>
0

> <s_lp_Force_Field>
OPLS_2005

> <r_lp_Energy>
71.9314

> <b_lp_Chiralities_Consistent>
1

> <s_lp_Variant>
AV-unprocessed.smi:21-45

> <Gold.Version>
5.8.1

> <Gold.Id.Protein>
6NUR|6NUR_protein|mol2

> <Gold.PLP.Fitness>
55.6345

> <Gold.PLP.PLP>
-51.2510

> <Gold.PLP.part.hbond>
-3.5107

> <Gold.PLP.part.metal>
0.0000

> <Gold.PLP.part.buried>
-4.2357

> <Gold.PLP.part.nonpolar>
-44.1580

> <Gold.PLP.part.repulsive>
0.4032

> <Gold.PLP.ligand.clash>
0.0000

> <Gold.PLP.ligand.torsion>
1.7813

> <Gold.PLP.Chemscore.Hbond>
2.4222

> <Gold.PLP.Chemscore.CHOScore>
0.0000

> <Gold.PLP.Chemscore.Metal>
0.0000

> <Gold.Chemscore.Hbonds>
donor molecule, donor type, donor heavy atom, donor atom, acceptor molecule, acceptor atom, score
      L1  H    21    49       P1  7957  0.90
      P1  H  6933  6944       L1     2  0.23
      P1  H  7997  8009       L1    15  1.00

> <Gold.PLP.Chemscore.Internal.Correction>
0.6793

> <Gold.Rescore>
     Score         DG    S(hbond)    S(metal)    S(lipo)     H(rot)  DE(clash)    DE(int)     intcor
     11.47     -19.44       2.40        0.00     116.55       3.00       0.58       7.39       ----

> <Gold.Chemscore.Fitness>
11.4688

> <Gold.Chemscore.DG>
-19.4448

> <Gold.Chemscore.ZeroCoef>
-5.4800

> <Gold.Chemscore.Hbond>
2.4001

> <Gold.Chemscore.Metal>
0.0000

> <Gold.Chemscore.Lipo>
116.5496

> <Gold.Chemscore.Internal_Hbond>
0.0000

> <Gold.Chemscore.DEClash>
0.5842

> <Gold.Chemscore.DEInternal>
7.3918

> <Gold.Chemscore.Rot>
3.0031

> <Gold.Chemscore.Internal.Correction>
   9.000000E+99

> <Gold.Chemscore.Hbonds>
donor molecule, donor type, donor heavy atom, donor atom, acceptor molecule, acceptor atom, score
      L1  H    21    49       P1  7957  0.86
      P1  H  6933  6944       L1     2  0.16
      P1  H  7997  8009       L1    15  0.79

> <Gold.Chemscore.Hbond.Weighted>
-8.0164

> <Gold.Chemscore.Metal.Weighted>
-0.0000

> <Gold.Chemscore.Lipo.Weighted>
-13.6363

> <Gold.Chemscore.Internal_Hbond.Weighted>
0.0000

> <Gold.Chemscore.DEClash.Weighted>
0.5842

> <Gold.Chemscore.DEInternal.Weighted>
7.3918

> <Gold.Chemscore.Rot.Weighted>
7.6880

> <Gold.Chemscore.Internal.Correction.Weighted>
   9.000000E+99

> <Gold.Protein.RotatedTorsions>
[ 6907 6896 6895 6894 ] final   61.16 input  -60.11 | X-H torsion
[ 7974 7965 7964 7962 ] final -122.37 input  175.53 | X-H torsion
[ 8008 7997 7996 7995 ] final -153.44 input   59.86 | X-H torsion
[ 10167 10162 10161 10158 ] final -169.10 input  -65.29 | X-H torsion
[ 10718 10713 10712 10709 ] final   46.47 input   66.30 | X-H torsion
[ 10763 10752 10751 10750 ] final   20.52 input  -60.55 | X-H torsion
[ 11005 11000 10999 10996 ] final  -84.49 input  -57.11 | X-H torsion

> <Gold.Protein.ActiveResidues>
 VAL166  LYS551  ARG553  GLY616  TRP617  ASP618  TYR619  PRO620  LYS621  CYS622 
 ASP623  PHE694  ASN695  SER759  ASP760  ASP761  ALA762  ILE779  LEU786  VAL792 
 PHE793  MET794  SER795  GLU796  ALA797  LYS798  CYS799  TRP800  GLU811  SER814 

> <Gold.Protein.RotatedAtoms>
  152.4065  134.6198  160.0047 H   0  0  0  0  0  0  0  0  0  0  0  0  # atno 6907 bound_to 6896
  151.6388  133.3321  159.3133 H   0  0  0  0  0  0  0  0  0  0  0  0  # atno 6908 bound_to 6896
  150.7959  134.7060  159.6621 H   0  0  0  0  0  0  0  0  0  0  0  0  # atno 6909 bound_to 6896
  145.0301  140.8061  143.4328 H   0  0  0  0  0  0  0  0  0  0  0  0  # atno 7974 bound_to 7965
  155.6709  140.0733  157.2520 H   0  0  0  0  0  0  0  0  0  0  0  0  # atno 8008 bound_to 7997
  154.4123  140.1699  156.1929 H   0  0  0  0  0  0  0  0  0  0  0  0  # atno 8009 bound_to 7997
  155.9617  140.3369  155.6500 H   0  0  0  0  0  0  0  0  0  0  0  0  # atno 8010 bound_to 7997
  139.5943  144.1145  152.1671 H   0  0  0  0  0  0  0  0  0  0  0  0  # atno 10167 bound_to 10162
  157.4484  130.8124  149.7764 H   0  0  0  0  0  0  0  0  0  0  0  0  # atno 10718 bound_to 10713
  153.1070  135.6687  153.9568 H   0  0  0  0  0  0  0  0  0  0  0  0  # atno 10763 bound_to 10752
  153.9122  135.3024  155.3450 H   0  0  0  0  0  0  0  0  0  0  0  0  # atno 10764 bound_to 10752
  154.7491  135.5043  153.9333 H   0  0  0  0  0  0  0  0  0  0  0  0  # atno 10765 bound_to 10752
  141.1650  133.7349  156.8875 H   0  0  0  0  0  0  0  0  0  0  0  0  # atno 11005 bound_to 11000
  145.1781  139.2367  143.5307 LP  0  0  0  0  0  0  0  0  0  0  0  0  # atno 17320 bound_to 7965
  146.3497  140.1548  142.8592 LP  0  0  0  0  0  0  0  0  0  0  0  0  # atno 17321 bound_to 7965
  140.0726  144.5766  150.7180 LP  0  0  0  0  0  0  0  0  0  0  0  0  # atno 17342 bound_to 10162
  140.7199  143.2579  151.4312 LP  0  0  0  0  0  0  0  0  0  0  0  0  # atno 17343 bound_to 10162
  155.9977  130.3898  150.2730 LP  0  0  0  0  0  0  0  0  0  0  0  0  # atno 17370 bound_to 10713
  157.0900  131.0167  151.3125 LP  0  0  0  0  0  0  0  0  0  0  0  0  # atno 17371 bound_to 10713
  140.1671  134.9125  157.2788 LP  0  0  0  0  0  0  0  0  0  0  0  0  # atno 17394 bound_to 11000
  140.2544  134.3645  155.7430 LP  0  0  0  0  0  0  0  0  0  0  0  0  # atno 17395 bound_to 11000

$$$$
