AV-unprocessed.smi:1717|AV-procd|sdf|6917|dock3
  -GOLD-   22720 8123D 1   1.00000     0.00000
 Structure written by MMmdl.
 40 41  0  0  0  0  0  0  0  0  1 V2000
  151.4668  143.4527  157.7030 C   0  0  0  0  0  0  0  0  0  0  0  0
  150.1458  143.0431  157.2532 N   0  0  0  0  0  0  0  0  0  0  0  0
  149.6048  141.8400  157.4942 C   0  0  0  0  0  0  0  0  0  0  0  0
  150.1812  140.9510  158.1204 O   0  0  0  0  0  0  0  0  0  0  0  0
  148.1970  141.5988  156.9376 C   0  0  0  0  0  0  0  0  0  0  0  0
  148.0912  140.4613  155.9946 N   0  0  0  0  0  0  0  0  0  0  0  0
  148.7355  140.7401  154.7023 C   0  0  0  0  0  0  0  0  0  0  0  0
  148.6658  139.5060  153.7854 C   0  0  0  0  0  0  0  0  0  0  0  0
  147.2122  139.0576  153.5610 C   0  0  0  0  0  0  0  0  0  0  0  0
  147.1611  137.8103  152.8038 N   0  0  0  0  0  0  0  0  0  0  0  0
  146.0394  137.2049  152.3882 C   0  0  0  0  0  0  0  0  0  0  0  0
  144.9091  137.6455  152.5991 O   0  0  0  0  0  0  0  0  0  0  0  0
  146.3148  136.0720  151.7214 N   0  0  0  0  0  0  0  0  0  0  0  0
  145.3889  135.1649  151.1469 C   0  0  0  0  0  0  0  0  0  0  0  0
  145.5975  133.7645  151.0241 C   0  0  0  0  0  0  0  0  0  0  0  0
  144.5618  133.1694  150.4498 N   0  0  0  0  0  0  0  0  0  0  0  0
  143.6944  134.1769  150.2040 N   0  0  0  0  0  0  0  0  0  0  0  0
  144.1557  135.4094  150.6111 C   0  0  0  0  0  0  0  0  0  0  0  0
  146.5328  138.8700  154.9245 C   0  0  0  0  0  0  0  0  0  0  0  0
  146.6763  140.1317  155.7934 C   0  0  0  0  0  0  0  0  0  0  0  0
  142.8008  134.0095  149.7637 H   0  0  0  0  0  0  0  0  0  0  0  0
  151.6941  144.4507  157.3287 H   0  0  0  0  0  0  0  0  0  0  0  0
  152.2337  142.7686  157.3370 H   0  0  0  0  0  0  0  0  0  0  0  0
  151.5131  143.4781  158.7924 H   0  0  0  0  0  0  0  0  0  0  0  0
  149.6021  143.7174  156.7337 H   0  0  0  0  0  0  0  0  0  0  0  0
  147.5386  141.4269  157.7905 H   0  0  0  0  0  0  0  0  0  0  0  0
  147.8442  142.5118  156.4543 H   0  0  0  0  0  0  0  0  0  0  0  0
  148.2590  141.5961  154.2214 H   0  0  0  0  0  0  0  0  0  0  0  0
  149.7855  140.9997  154.8371 H   0  0  0  0  0  0  0  0  0  0  0  0
  149.1404  139.7338  152.8302 H   0  0  0  0  0  0  0  0  0  0  0  0
  149.2423  138.6931  154.2299 H   0  0  0  0  0  0  0  0  0  0  0  0
  146.6768  139.8357  153.0134 H   0  0  0  0  0  0  0  0  0  0  0  0
  148.0455  137.3767  152.5828 H   0  0  0  0  0  0  0  0  0  0  0  0
  147.2892  135.8283  151.6199 H   0  0  0  0  0  0  0  0  0  0  0  0
  146.4478  133.1719  151.3280 H   0  0  0  0  0  0  0  0  0  0  0  0
  143.5788  136.3135  150.4846 H   0  0  0  0  0  0  0  0  0  0  0  0
  145.4765  138.6368  154.7863 H   0  0  0  0  0  0  0  0  0  0  0  0
  146.9720  138.0192  155.4477 H   0  0  0  0  0  0  0  0  0  0  0  0
  146.1983  139.9499  156.7570 H   0  0  0  0  0  0  0  0  0  0  0  0
  146.1513  140.9708  155.3326 H   0  0  0  0  0  0  0  0  0  0  0  0
  1  2  1  0  0  0  0
  1 22  1  0  0  0  0
  1 23  1  0  0  0  0
  1 24  1  0  0  0  0
  2  3  1  0  0  0  0
  2 25  1  0  0  0  0
  3  4  2  0  0  0  0
  3  5  1  0  0  0  0
  5  6  1  0  0  0  0
  5 26  1  0  0  0  0
  5 27  1  0  0  0  0
  6 20  1  0  0  0  0
  6  7  1  0  0  0  0
  7  8  1  0  0  0  0
  7 28  1  0  0  0  0
  7 29  1  0  0  0  0
  8  9  1  0  0  0  0
  8 30  1  0  0  0  0
  8 31  1  0  0  0  0
  9 10  1  0  0  0  0
  9 19  1  0  0  0  0
  9 32  1  0  0  0  0
 10 11  1  0  0  0  0
 10 33  1  0  0  0  0
 11 12  2  0  0  0  0
 11 13  1  0  0  0  0
 13 14  1  0  0  0  0
 13 34  1  0  0  0  0
 14 18  2  0  0  0  0
 14 15  1  0  0  0  0
 15 16  2  0  0  0  0
 15 35  1  0  0  0  0
 16 17  1  0  0  0  0
 17 21  1  0  0  0  0
 17 18  1  0  0  0  0
 18 36  1  0  0  0  0
 19 20  1  0  0  0  0
 19 37  1  0  0  0  0
 19 38  1  0  0  0  0
 20 39  1  0  0  0  0
 20 40  1  0  0  0  0
M  END
> <s_m_source_file>
AV-unprocessed.smi

> <i_m_source_file_index>
1717

> <i_lp_mmshare_version>
43012

> <i_f3d_flags>
0

> <s_epik_input>
W0NIM11bTkhdQyg9TylbQ0gyXU4xW0NIMl1bQ0gyXVtDSF0oW0NIMl1bQ0gyXTEpW05IXUMoPU8pW05IXWMyW2NIXW5bbkhdW2NIXTI=

> <s_epik_cmdline>
J2VwaWtfcHl0aG9uJywgJy1waCcsICc3LjAnLCAnLXRuJywgJzgnLCAnLW1hJywgJzIwMCcsICctbWV0YWxfYmluZGluZycsICctaW1hZScsICc8aW5maWxlLm1hZT4nLCAnLW9tYWUnLCAnPG91dGZpbGUubWFlPic=

> <r_lp_tautomer_probability>
0.5

> <r_epik_Ionization_Penalty>
0.164786

> <r_epik_Ionization_Penalty_Charging>
0

> <r_epik_Ionization_Penalty_Neutral>
0.164786

> <r_epik_State_Penalty>
0.154069

> <r_epik_Charging_Adjusted_Penalty>
0.154069

> <i_epik_Tot_Q>
0

> <i_epik_Tot_abs_Q>
0

> <r_epik_Metal_State_Penalty>
0.158586

> <b_epik_Metal_Only>
0

> <s_lp_Force_Field>
OPLS_2005

> <r_lp_Energy>
16.0226

> <b_lp_Chiralities_Consistent>
1

> <s_lp_Variant>
AV-unprocessed.smi:1717-1

> <Gold.Version>
5.8.1

> <Gold.Id.Protein>
6NUR|6NUR_protein|mol2

> <Gold.PLP.Fitness>
38.9660

> <Gold.PLP.PLP>
-24.5270

> <Gold.PLP.part.hbond>
-4.0000

> <Gold.PLP.part.metal>
0.0000

> <Gold.PLP.part.buried>
-3.2838

> <Gold.PLP.part.nonpolar>
-19.6621

> <Gold.PLP.part.repulsive>
0.9515

> <Gold.PLP.ligand.clash>
0.0000

> <Gold.PLP.ligand.torsion>
0.2892

> <Gold.PLP.Chemscore.Hbond>
4.0000

> <Gold.PLP.Chemscore.CHOScore>
1.0000

> <Gold.PLP.Chemscore.Metal>
0.0000

> <Gold.Chemscore.Hbonds>
donor molecule, donor type, donor heavy atom, donor atom, acceptor molecule, acceptor atom, score
      L1  H     2    25       P1  8028  1.00
      L1  H    10    33       P1  7948  1.00
      L1  H    13    34       P1  7948  1.00
      L1  H    17    21       P1 10186  1.00
      L1  C    18    36       P1 10171  1.00

> <Gold.PLP.Chemscore.Internal.Correction>
0.0174

> <Gold.Rescore>
     Score         DG    S(hbond)    S(metal)    S(lipo)     H(rot)  DE(clash)    DE(int)     intcor
     19.09     -19.91       3.90        0.00      51.13       1.79       0.48       0.34       ----

> <Gold.Chemscore.Fitness>
19.0881

> <Gold.Chemscore.DG>
-19.9080

> <Gold.Chemscore.ZeroCoef>
-5.4800

> <Gold.Chemscore.Hbond>
3.8973

> <Gold.Chemscore.Metal>
0.0000

> <Gold.Chemscore.Lipo>
51.1251

> <Gold.Chemscore.Internal_Hbond>
0.0000

> <Gold.Chemscore.DEClash>
0.4763

> <Gold.Chemscore.DEInternal>
0.3436

> <Gold.Chemscore.Rot>
1.7854

> <Gold.Chemscore.Internal.Correction>
   9.000000E+99

> <Gold.Chemscore.Hbonds>
donor molecule, donor type, donor heavy atom, donor atom, acceptor molecule, acceptor atom, score
      L1  H     2    25       P1  8028  0.98
      L1  H    10    33       P1  7948  0.96
      L1  H    13    34       P1  7948  0.95
      L1  H    17    21       P1 10186  0.94

> <Gold.Chemscore.Hbond.Weighted>
-13.0169

> <Gold.Chemscore.Metal.Weighted>
-0.0000

> <Gold.Chemscore.Lipo.Weighted>
-5.9816

> <Gold.Chemscore.Internal_Hbond.Weighted>
0.0000

> <Gold.Chemscore.DEClash.Weighted>
0.4763

> <Gold.Chemscore.DEInternal.Weighted>
0.3436

> <Gold.Chemscore.Rot.Weighted>
4.5706

> <Gold.Chemscore.Internal.Correction.Weighted>
   9.000000E+99

> <Gold.Protein.RotatedTorsions>
[ 6907 6896 6895 6894 ] final   41.47 input  -60.11 | X-H torsion
[ 7974 7965 7964 7962 ] final  162.58 input  175.53 | X-H torsion
[ 8008 7997 7996 7995 ] final   68.71 input   59.86 | X-H torsion
[ 10167 10162 10161 10158 ] final   99.57 input  -65.29 | X-H torsion
[ 10718 10713 10712 10709 ] final  -91.58 input   66.30 | X-H torsion
[ 10763 10752 10751 10750 ] final   40.90 input  -60.55 | X-H torsion
[ 11005 11000 10999 10996 ] final   26.40 input  -57.11 | X-H torsion

> <Gold.Protein.ActiveResidues>
 VAL166  LYS551  ARG553  GLY616  TRP617  ASP618  TYR619  PRO620  LYS621  CYS622 
 ASP623  PHE694  ASN695  SER759  ASP760  ASP761  ALA762  ILE779  LEU786  VAL792 
 PHE793  MET794  SER795  GLU796  ALA797  LYS798  CYS799  TRP800  GLU811  SER814 

> <Gold.Protein.RotatedAtoms>
  152.1957  134.8633  160.0512 H   0  0  0  0  0  0  0  0  0  0  0  0  # atno 6907 bound_to 6896
  151.9505  133.3659  159.4006 H   0  0  0  0  0  0  0  0  0  0  0  0  # atno 6908 bound_to 6896
  150.6944  134.4269  159.5274 H   0  0  0  0  0  0  0  0  0  0  0  0  # atno 6909 bound_to 6896
  144.7630  139.8060  143.6326 H   0  0  0  0  0  0  0  0  0  0  0  0  # atno 7974 bound_to 7965
  155.7125  140.3494  155.4980 H   0  0  0  0  0  0  0  0  0  0  0  0  # atno 8008 bound_to 7997
  155.9342  140.1090  157.1129 H   0  0  0  0  0  0  0  0  0  0  0  0  # atno 8009 bound_to 7997
  154.4091  140.1225  156.4829 H   0  0  0  0  0  0  0  0  0  0  0  0  # atno 8010 bound_to 7997
  139.7606  144.6955  151.0298 H   0  0  0  0  0  0  0  0  0  0  0  0  # atno 10167 bound_to 10162
  155.9995  130.4953  150.5495 H   0  0  0  0  0  0  0  0  0  0  0  0  # atno 10718 bound_to 10713
  152.9923  135.6178  154.2700 H   0  0  0  0  0  0  0  0  0  0  0  0  # atno 10763 bound_to 10752
  154.2433  135.2788  155.2847 H   0  0  0  0  0  0  0  0  0  0  0  0  # atno 10764 bound_to 10752
  154.5350  135.5777  153.6849 H   0  0  0  0  0  0  0  0  0  0  0  0  # atno 10765 bound_to 10752
  140.3374  134.2370  155.7694 H   0  0  0  0  0  0  0  0  0  0  0  0  # atno 11005 bound_to 11000
  146.1711  139.4862  142.9927 LP  0  0  0  0  0  0  0  0  0  0  0  0  # atno 17320 bound_to 7965
  145.6560  141.0252  143.1735 LP  0  0  0  0  0  0  0  0  0  0  0  0  # atno 17321 bound_to 7965
  140.7807  143.4702  151.0157 LP  0  0  0  0  0  0  0  0  0  0  0  0  # atno 17342 bound_to 10162
  139.8388  143.7592  152.3180 LP  0  0  0  0  0  0  0  0  0  0  0  0  # atno 17343 bound_to 10162
  157.3420  131.0718  151.1780 LP  0  0  0  0  0  0  0  0  0  0  0  0  # atno 17370 bound_to 10713
  157.2625  130.6666  149.5981 LP  0  0  0  0  0  0  0  0  0  0  0  0  # atno 17371 bound_to 10713
  141.2047  133.7878  157.0271 LP  0  0  0  0  0  0  0  0  0  0  0  0  # atno 17394 bound_to 11000
  140.0809  134.9648  157.1623 LP  0  0  0  0  0  0  0  0  0  0  0  0  # atno 17395 bound_to 11000

$$$$
