AV-unprocessed.smi:754|AV-procd|sdf|3610|dock9
  -GOLD-   22720 1 03D 1   1.00000     0.00000
 Structure written by MMmdl.
 37 38  0  0  0  0  0  0  0  0  1 V2000
  144.7694  134.7172  150.7778 C   0  0  0  0  0  0  0  0  0  0  0  0
  145.6188  135.9811  150.9286 C   0  0  0  0  0  0  0  0  0  0  0  0
  145.5971  136.3895  152.2860 O   0  0  0  0  0  0  0  0  0  0  0  0
  146.6332  137.3057  152.6029 C   0  0  1  0  0  0  0  0  0  0  0  0
  146.4910  138.6828  151.9480 C   0  0  0  0  0  0  0  0  0  0  0  0
  146.9210  139.2873  153.2887 C   0  0  2  0  0  0  0  0  0  0  0  0
  148.3680  139.4937  153.3300 N   0  0  0  0  0  0  0  0  0  0  0  0
  149.0711  139.7598  154.4406 C   0  0  0  0  0  0  0  0  0  0  0  0
  148.5577  139.9490  155.5428 O   0  0  0  0  0  0  0  0  0  0  0  0
  150.5914  139.7793  154.2901 C   0  0  0  0  0  0  0  0  0  0  0  0
  151.1645  138.5479  154.8004 N   0  0  0  0  0  0  0  0  0  0  0  0
  150.9611  137.2756  154.4522 C   0  0  0  0  0  0  0  0  0  0  0  0
  151.7205  136.4494  155.1550 N   0  0  0  0  0  0  0  0  0  0  0  0
  152.4279  137.3019  155.9863 N   0  0  0  0  0  0  0  0  0  0  0  0
  152.1033  138.5484  155.7795 N   0  0  0  0  0  0  0  0  0  0  0  0
  146.4570  137.9758  153.9871 C   0  0  0  0  0  0  0  0  0  0  0  0
  145.0213  138.0314  154.5260 C   0  0  0  0  0  0  0  0  0  0  0  0
  147.3243  137.4083  155.1182 C   0  0  0  0  0  0  0  0  0  0  0  0
  144.7600  134.3757  149.7428 H   0  0  0  0  0  0  0  0  0  0  0  0
  143.7379  134.9010  151.0793 H   0  0  0  0  0  0  0  0  0  0  0  0
  145.1600  133.9070  151.3940 H   0  0  0  0  0  0  0  0  0  0  0  0
  146.6434  135.7808  150.6125 H   0  0  0  0  0  0  0  0  0  0  0  0
  145.2242  136.7708  150.2879 H   0  0  0  0  0  0  0  0  0  0  0  0
  147.6322  136.8823  152.4751 H   0  0  0  0  0  0  0  0  0  0  0  0
  147.1686  138.8624  151.1123 H   0  0  0  0  0  0  0  0  0  0  0  0
  145.4603  138.9261  151.6855 H   0  0  0  0  0  0  0  0  0  0  0  0
  146.3361  140.1674  153.5620 H   0  0  0  0  0  0  0  0  0  0  0  0
  148.8746  139.3561  152.4670 H   0  0  0  0  0  0  0  0  0  0  0  0
  150.8656  139.9051  153.2416 H   0  0  0  0  0  0  0  0  0  0  0  0
  151.0149  140.6197  154.8417 H   0  0  0  0  0  0  0  0  0  0  0  0
  150.2717  136.9593  153.6832 H   0  0  0  0  0  0  0  0  0  0  0  0
  144.9475  138.6902  155.3917 H   0  0  0  0  0  0  0  0  0  0  0  0
  144.6681  137.0461  154.8322 H   0  0  0  0  0  0  0  0  0  0  0  0
  144.3195  138.4043  153.7794 H   0  0  0  0  0  0  0  0  0  0  0  0
  147.3707  138.0918  155.9666 H   0  0  0  0  0  0  0  0  0  0  0  0
  148.3489  137.2223  154.7950 H   0  0  0  0  0  0  0  0  0  0  0  0
  146.9356  136.4568  155.4824 H   0  0  0  0  0  0  0  0  0  0  0  0
  1  2  1  0  0  0  0
  1 19  1  0  0  0  0
  1 20  1  0  0  0  0
  1 21  1  0  0  0  0
  2  3  1  0  0  0  0
  2 22  1  0  0  0  0
  2 23  1  0  0  0  0
  3  4  1  0  0  0  0
  4 16  1  0  0  0  0
  4  5  1  0  0  0  0
  4 24  1  0  0  0  0
  5  6  1  0  0  0  0
  5 25  1  0  0  0  0
  5 26  1  0  0  0  0
  6  7  1  0  0  0  0
  6 16  1  0  0  0  0
  6 27  1  0  0  0  0
  7  8  1  0  0  0  0
  7 28  1  0  0  0  0
  8  9  2  0  0  0  0
  8 10  1  0  0  0  0
 10 11  1  0  0  0  0
 10 29  1  0  0  0  0
 10 30  1  0  0  0  0
 11 15  1  0  0  0  0
 11 12  1  0  0  0  0
 12 13  2  0  0  0  0
 12 31  1  0  0  0  0
 13 14  1  0  0  0  0
 14 15  2  0  0  0  0
 16 17  1  0  0  0  0
 16 18  1  0  0  0  0
 17 32  1  0  0  0  0
 17 33  1  0  0  0  0
 17 34  1  0  0  0  0
 18 35  1  0  0  0  0
 18 36  1  0  0  0  0
 18 37  1  0  0  0  0
M  END
> <s_m_source_file>
AV-unprocessed.smi

> <i_m_source_file_index>
754

> <i_lp_mmshare_version>
43012

> <i_f3d_flags>
0

> <s_epik_input>
W0NIM11bQ0gyXU9bQ0BASF0oQzEoW0NIM10pW0NIM10pW0NIMl1bQ0BIXTFbTkhdQyg9TylbQ0gyXW4yW2NIXW5ubjI=

> <s_epik_cmdline>
J2VwaWtfcHl0aG9uJywgJy1waCcsICc3LjAnLCAnLXRuJywgJzgnLCAnLW1hJywgJzIwMCcsICctbWV0YWxfYmluZGluZycsICctaW1hZScsICc8aW5maWxlLm1hZT4nLCAnLW9tYWUnLCAnPG91dGZpbGUubWFlPic=

> <r_lp_tautomer_probability>
1

> <r_epik_Ionization_Penalty>
8.28422e-07

> <r_epik_Ionization_Penalty_Charging>
0

> <r_epik_Ionization_Penalty_Neutral>
8.28422e-07

> <r_epik_State_Penalty>
-0

> <r_epik_Charging_Adjusted_Penalty>
0

> <i_epik_Tot_Q>
0

> <i_epik_Tot_abs_Q>
0

> <r_epik_Metal_State_Penalty>
-0

> <b_epik_Metal_Only>
0

> <s_lp_Force_Field>
OPLS_2005

> <r_lp_Energy>
21.5247

> <b_lp_Chiralities_Consistent>
1

> <s_lp_Variant>
AV-unprocessed.smi:754-4

> <Gold.Version>
5.8.1

> <Gold.Id.Protein>
6NUR|6NUR_protein|mol2

> <Gold.PLP.Fitness>
32.5470

> <Gold.PLP.PLP>
-24.1458

> <Gold.PLP.part.hbond>
-2.6734

> <Gold.PLP.part.metal>
0.0000

> <Gold.PLP.part.buried>
0.7866

> <Gold.PLP.part.nonpolar>
-24.4783

> <Gold.PLP.part.repulsive>
0.3932

> <Gold.PLP.ligand.clash>
0.0000

> <Gold.PLP.ligand.torsion>
0.4631

> <Gold.PLP.Chemscore.Hbond>
1.9600

> <Gold.PLP.Chemscore.CHOScore>
1.0395

> <Gold.PLP.Chemscore.Metal>
0.0000

> <Gold.Chemscore.Hbonds>
donor molecule, donor type, donor heavy atom, donor atom, acceptor molecule, acceptor atom, score
      L1  H     7    28       P1  7957  0.98
      P1  H 10752 10763       L1    13  0.95
      L1  C    12    31       P1  7948  0.81
      L1  C    12    31       P1  7949  0.19

> <Gold.PLP.Chemscore.Internal.Correction>
0.3290

> <Gold.Rescore>
     Score         DG    S(hbond)    S(metal)    S(lipo)     H(rot)  DE(clash)    DE(int)     intcor
      8.04     -11.09       1.94        0.00      46.36       2.46       2.34       0.71       ----

> <Gold.Chemscore.Fitness>
8.0390

> <Gold.Chemscore.DG>
-11.0880

> <Gold.Chemscore.ZeroCoef>
-5.4800

> <Gold.Chemscore.Hbond>
1.9417

> <Gold.Chemscore.Metal>
0.0000

> <Gold.Chemscore.Lipo>
46.3627

> <Gold.Chemscore.Internal_Hbond>
0.0000

> <Gold.Chemscore.DEClash>
2.3372

> <Gold.Chemscore.DEInternal>
0.7119

> <Gold.Chemscore.Rot>
2.4616

> <Gold.Chemscore.Internal.Correction>
   9.000000E+99

> <Gold.Chemscore.Hbonds>
donor molecule, donor type, donor heavy atom, donor atom, acceptor molecule, acceptor atom, score
      L1  H     7    28       P1  7957  0.92
      P1  H 10752 10763       L1    13  0.21

> <Gold.Chemscore.Hbond.Weighted>
-6.4852

> <Gold.Chemscore.Metal.Weighted>
-0.0000

> <Gold.Chemscore.Lipo.Weighted>
-5.4244

> <Gold.Chemscore.Internal_Hbond.Weighted>
0.0000

> <Gold.Chemscore.DEClash.Weighted>
2.3372

> <Gold.Chemscore.DEInternal.Weighted>
0.7119

> <Gold.Chemscore.Rot.Weighted>
6.3016

> <Gold.Chemscore.Internal.Correction.Weighted>
   9.000000E+99

> <Gold.Protein.RotatedTorsions>
[ 6907 6896 6895 6894 ] final   41.84 input  -60.11 | X-H torsion
[ 7974 7965 7964 7962 ] final   57.86 input  175.53 | X-H torsion
[ 8008 7997 7996 7995 ] final   84.03 input   59.86 | X-H torsion
[ 10167 10162 10161 10158 ] final   93.82 input  -65.29 | X-H torsion
[ 10718 10713 10712 10709 ] final -101.89 input   66.30 | X-H torsion
[ 10763 10752 10751 10750 ] final   57.75 input  -60.55 | X-H torsion
[ 11005 11000 10999 10996 ] final -133.18 input  -57.11 | X-H torsion

> <Gold.Protein.ActiveResidues>
 VAL166  LYS551  ARG553  GLY616  TRP617  ASP618  TYR619  PRO620  LYS621  CYS622 
 ASP623  PHE694  ASN695  SER759  ASP760  ASP761  ALA762  ILE779  LEU786  VAL792 
 PHE793  MET794  SER795  GLU796  ALA797  LYS798  CYS799  TRP800  GLU811  SER814 

> <Gold.Protein.RotatedAtoms>
  152.2003  134.8593  160.0508 H   0  0  0  0  0  0  0  0  0  0  0  0  # atno 6907 bound_to 6896
  151.9449  133.3644  159.3987 H   0  0  0  0  0  0  0  0  0  0  0  0  # atno 6908 bound_to 6896
  150.6953  134.4324  159.5298 H   0  0  0  0  0  0  0  0  0  0  0  0  # atno 6909 bound_to 6896
  145.9245  139.3756  143.0458 H   0  0  0  0  0  0  0  0  0  0  0  0  # atno 7974 bound_to 7965
  155.9318  140.3414  155.6255 H   0  0  0  0  0  0  0  0  0  0  0  0  # atno 8008 bound_to 7997
  155.7148  140.0776  157.2374 H   0  0  0  0  0  0  0  0  0  0  0  0  # atno 8009 bound_to 7997
  154.4086  140.1616  156.2324 H   0  0  0  0  0  0  0  0  0  0  0  0  # atno 8010 bound_to 7997
  139.8143  144.6760  150.9600 H   0  0  0  0  0  0  0  0  0  0  0  0  # atno 10167 bound_to 10162
  156.0210  130.5395  150.7029 H   0  0  0  0  0  0  0  0  0  0  0  0  # atno 10718 bound_to 10713
  152.9856  135.5631  154.5441 H   0  0  0  0  0  0  0  0  0  0  0  0  # atno 10763 bound_to 10752
  154.4890  135.2792  155.1513 H   0  0  0  0  0  0  0  0  0  0  0  0  # atno 10764 bound_to 10752
  154.2991  135.6311  153.5470 H   0  0  0  0  0  0  0  0  0  0  0  0  # atno 10765 bound_to 10752
  140.9104  134.1575  157.4393 H   0  0  0  0  0  0  0  0  0  0  0  0  # atno 11005 bound_to 11000
  145.8507  140.9530  143.0751 LP  0  0  0  0  0  0  0  0  0  0  0  0  # atno 17320 bound_to 7965
  144.6757  140.0404  143.7481 LP  0  0  0  0  0  0  0  0  0  0  0  0  # atno 17321 bound_to 7965
  140.7816  143.4154  151.0926 LP  0  0  0  0  0  0  0  0  0  0  0  0  # atno 17342 bound_to 10162
  139.7819  143.8344  152.3139 LP  0  0  0  0  0  0  0  0  0  0  0  0  # atno 17343 bound_to 10162
  157.4685  131.0890  151.0668 LP  0  0  0  0  0  0  0  0  0  0  0  0  # atno 17370 bound_to 10713
  157.1135  130.6032  149.5487 LP  0  0  0  0  0  0  0  0  0  0  0  0  # atno 17371 bound_to 10713
  139.8756  134.9933  156.5640 LP  0  0  0  0  0  0  0  0  0  0  0  0  # atno 17394 bound_to 11000
  140.8117  133.8424  155.8816 LP  0  0  0  0  0  0  0  0  0  0  0  0  # atno 17395 bound_to 11000

$$$$
