AV-unprocessed.smi:991|AV-procd|sdf|4328|dock9
  -GOLD-   22720 2233D 1   1.00000     0.00000
 Structure written by MMmdl.
 32 33  0  0  0  0  0  0  0  0  1 V2000
  150.4916  139.5940  154.3800 O   0  0  0  0  0  0  0  0  0  0  0  0
  151.4329  139.0179  154.9248 C   0  0  0  0  0  0  0  0  0  0  0  0
  151.9410  137.6879  154.3665 C   0  0  0  0  0  0  0  0  0  0  0  0
  151.5028  136.5717  155.1849 N   0  0  0  0  0  0  0  0  0  0  0  0
  150.3392  135.9190  155.2116 C   0  0  0  0  0  0  0  0  0  0  0  0
  150.2948  134.9408  156.1055 N   0  0  0  0  0  0  0  0  0  0  0  0
  151.5520  135.0525  156.6292 C   0  0  0  0  0  0  0  0  0  0  0  0
  152.3170  136.0144  156.1126 N   0  0  0  0  0  0  0  0  0  0  0  0
  152.0674  139.4969  156.0072 N   0  0  0  0  0  0  0  0  0  0  0  0
  151.7522  140.7552  156.6802 C   0  0  0  0  0  0  0  0  0  0  0  0
  152.4572  140.9110  158.0405 C   0  0  0  0  0  0  0  0  0  0  0  0
  153.2130  140.0257  158.4457 O   0  0  0  0  0  0  0  0  0  0  0  0
  152.2100  142.0240  158.7617 N   0  0  0  0  0  0  0  0  0  0  0  0
  152.7959  142.3483  160.0620 C   0  0  0  0  0  0  0  0  0  0  0  0
  152.3853  143.7924  160.3529 C   0  0  0  0  0  0  0  0  0  0  0  0
  151.1101  143.9877  159.5446 C   0  0  0  0  0  0  0  0  0  0  0  0
  151.2972  143.0802  158.3289 C   0  0  0  0  0  0  0  0  0  0  0  0
  151.5707  137.5425  153.3506 H   0  0  0  0  0  0  0  0  0  0  0  0
  153.0309  137.6990  154.3135 H   0  0  0  0  0  0  0  0  0  0  0  0
  149.5083  136.1668  154.5670 H   0  0  0  0  0  0  0  0  0  0  0  0
  151.9144  134.4058  157.4147 H   0  0  0  0  0  0  0  0  0  0  0  0
  152.8323  138.9567  156.3853 H   0  0  0  0  0  0  0  0  0  0  0  0
  152.0041  141.5903  156.0246 H   0  0  0  0  0  0  0  0  0  0  0  0
  150.6744  140.7930  156.8393 H   0  0  0  0  0  0  0  0  0  0  0  0
  152.3834  141.6776  160.8170 H   0  0  0  0  0  0  0  0  0  0  0  0
  153.8816  142.2411  160.0649 H   0  0  0  0  0  0  0  0  0  0  0  0
  152.2463  143.9866  161.4170 H   0  0  0  0  0  0  0  0  0  0  0  0
  153.1553  144.4729  159.9870 H   0  0  0  0  0  0  0  0  0  0  0  0
  150.2532  143.6462  160.1271 H   0  0  0  0  0  0  0  0  0  0  0  0
  150.9350  145.0291  159.2724 H   0  0  0  0  0  0  0  0  0  0  0  0
  151.7566  143.6303  157.5062 H   0  0  0  0  0  0  0  0  0  0  0  0
  150.3426  142.6827  157.9799 H   0  0  0  0  0  0  0  0  0  0  0  0
  1  2  2  0  0  0  0
  2  3  1  0  0  0  0
  2  9  1  0  0  0  0
  3  4  1  0  0  0  0
  3 18  1  0  0  0  0
  3 19  1  0  0  0  0
  4  8  1  0  0  0  0
  4  5  1  0  0  0  0
  5  6  2  0  0  0  0
  5 20  1  0  0  0  0
  6  7  1  0  0  0  0
  7  8  2  0  0  0  0
  7 21  1  0  0  0  0
  9 10  1  0  0  0  0
  9 22  1  0  0  0  0
 10 11  1  0  0  0  0
 10 23  1  0  0  0  0
 10 24  1  0  0  0  0
 11 12  2  0  0  0  0
 11 13  1  0  0  0  0
 13 17  1  0  0  0  0
 13 14  1  0  0  0  0
 14 15  1  0  0  0  0
 14 25  1  0  0  0  0
 14 26  1  0  0  0  0
 15 16  1  0  0  0  0
 15 27  1  0  0  0  0
 15 28  1  0  0  0  0
 16 17  1  0  0  0  0
 16 29  1  0  0  0  0
 16 30  1  0  0  0  0
 17 31  1  0  0  0  0
 17 32  1  0  0  0  0
M  END
> <s_m_source_file>
AV-unprocessed.smi

> <i_m_source_file_index>
991

> <i_lp_mmshare_version>
43012

> <i_f3d_flags>
0

> <s_epik_input>
bjFbY0hdbltjSF1uMVtDSDJdQyg9TylbTkhdW0NIMl1DKD1PKU4yW0NIMl1bQ0gyXVtDSDJdW0NIMl0y

> <s_epik_cmdline>
J2VwaWtfcHl0aG9uJywgJy1waCcsICc3LjAnLCAnLXRuJywgJzgnLCAnLW1hJywgJzIwMCcsICctbWV0YWxfYmluZGluZycsICctaW1hZScsICc8aW5maWxlLm1hZT4nLCAnLW9tYWUnLCAnPG91dGZpbGUubWFlPic=

> <r_lp_tautomer_probability>
1

> <r_epik_Ionization_Penalty>
7.3183e-06

> <r_epik_Ionization_Penalty_Charging>
0

> <r_epik_Ionization_Penalty_Neutral>
7.3183e-06

> <r_epik_State_Penalty>
-0

> <r_epik_Charging_Adjusted_Penalty>
0

> <i_epik_Tot_Q>
0

> <i_epik_Tot_abs_Q>
0

> <r_epik_Metal_State_Penalty>
-0

> <b_epik_Metal_Only>
0

> <s_lp_Force_Field>
OPLS_2005

> <r_lp_Energy>
26.0119

> <b_lp_Chiralities_Consistent>
1

> <s_lp_Variant>
AV-unprocessed.smi:991-1

> <Gold.Version>
5.8.1

> <Gold.Id.Protein>
6NUR|6NUR_protein|mol2

> <Gold.PLP.Fitness>
40.9637

> <Gold.PLP.PLP>
-31.4552

> <Gold.PLP.part.hbond>
-3.0000

> <Gold.PLP.part.metal>
0.0000

> <Gold.PLP.part.buried>
-3.1082

> <Gold.PLP.part.nonpolar>
-24.1209

> <Gold.PLP.part.repulsive>
0.4292

> <Gold.PLP.ligand.clash>
0.0000

> <Gold.PLP.ligand.torsion>
0.5662

> <Gold.PLP.Chemscore.Hbond>
2.6250

> <Gold.PLP.Chemscore.CHOScore>
0.9201

> <Gold.PLP.Chemscore.Metal>
0.0000

> <Gold.Chemscore.Hbonds>
donor molecule, donor type, donor heavy atom, donor atom, acceptor molecule, acceptor atom, score
      P1  H  7989  7998       L1     1  0.70
      P1  H  7997  8009       L1    12  1.00
      P1  H 10752 10765       L1     8  0.55
      L1  C     5    20       P1  7948  0.49

> <Gold.PLP.Chemscore.Internal.Correction>
0.0057

> <Gold.Rescore>
     Score         DG    S(hbond)    S(metal)    S(lipo)     H(rot)  DE(clash)    DE(int)     intcor
     11.08     -11.74       1.89        0.00      55.17       2.54       0.02       0.64       ----

> <Gold.Chemscore.Fitness>
11.0843

> <Gold.Chemscore.DG>
-11.7404

> <Gold.Chemscore.ZeroCoef>
-5.4800

> <Gold.Chemscore.Hbond>
1.8861

> <Gold.Chemscore.Metal>
0.0000

> <Gold.Chemscore.Lipo>
55.1660

> <Gold.Chemscore.Internal_Hbond>
0.0000

> <Gold.Chemscore.DEClash>
0.0158

> <Gold.Chemscore.DEInternal>
0.6403

> <Gold.Chemscore.Rot>
2.5366

> <Gold.Chemscore.Internal.Correction>
   9.000000E+99

> <Gold.Chemscore.Hbonds>
donor molecule, donor type, donor heavy atom, donor atom, acceptor molecule, acceptor atom, score
      P1  H  7989  7998       L1     1  0.07
      P1  H  7997  8009       L1    12  0.37
      P1  H 10752 10765       L1     8  0.04

> <Gold.Chemscore.Hbond.Weighted>
-6.2997

> <Gold.Chemscore.Metal.Weighted>
-0.0000

> <Gold.Chemscore.Lipo.Weighted>
-6.4544

> <Gold.Chemscore.Internal_Hbond.Weighted>
0.0000

> <Gold.Chemscore.DEClash.Weighted>
0.0158

> <Gold.Chemscore.DEInternal.Weighted>
0.6403

> <Gold.Chemscore.Rot.Weighted>
6.4937

> <Gold.Chemscore.Internal.Correction.Weighted>
   9.000000E+99

> <Gold.Protein.RotatedTorsions>
[ 6907 6896 6895 6894 ] final   73.47 input  -60.11 | X-H torsion
[ 7974 7965 7964 7962 ] final  119.71 input  175.53 | X-H torsion
[ 8008 7997 7996 7995 ] final  147.55 input   59.86 | X-H torsion
[ 10167 10162 10161 10158 ] final -155.99 input  -65.29 | X-H torsion
[ 10718 10713 10712 10709 ] final   41.52 input   66.30 | X-H torsion
[ 10763 10752 10751 10750 ] final -143.26 input  -60.55 | X-H torsion
[ 11005 11000 10999 10996 ] final   83.80 input  -57.11 | X-H torsion

> <Gold.Protein.ActiveResidues>
 VAL166  LYS551  ARG553  GLY616  TRP617  ASP618  TYR619  PRO620  LYS621  CYS622 
 ASP623  PHE694  ASN695  SER759  ASP760  ASP761  ALA762  ILE779  LEU786  VAL792 
 PHE793  MET794  SER795  GLU796  ALA797  LYS798  CYS799  TRP800  GLU811  SER814 

> <Gold.Protein.RotatedAtoms>
  152.4925  134.4417  159.9545 H   0  0  0  0  0  0  0  0  0  0  0  0  # atno 6907 bound_to 6896
  151.4401  133.3639  159.2788 H   0  0  0  0  0  0  0  0  0  0  0  0  # atno 6908 bound_to 6896
  150.9093  134.8533  159.7474 H   0  0  0  0  0  0  0  0  0  0  0  0  # atno 6909 bound_to 6896
  145.1399  139.3274  143.4621 H   0  0  0  0  0  0  0  0  0  0  0  0  # atno 7974 bound_to 7965
  156.2821  140.2152  156.5555 H   0  0  0  0  0  0  0  0  0  0  0  0  # atno 8008 bound_to 7997
  154.7256  140.0500  157.0702 H   0  0  0  0  0  0  0  0  0  0  0  0  # atno 8009 bound_to 7997
  155.0421  140.3147  155.4724 H   0  0  0  0  0  0  0  0  0  0  0  0  # atno 8010 bound_to 7997
  139.6886  143.9458  152.2374 H   0  0  0  0  0  0  0  0  0  0  0  0  # atno 10167 bound_to 10162
  157.3945  130.7825  149.7297 H   0  0  0  0  0  0  0  0  0  0  0  0  # atno 10718 bound_to 10713
  154.8477  135.3473  154.6159 H   0  0  0  0  0  0  0  0  0  0  0  0  # atno 10763 bound_to 10752
  153.6767  135.6982  153.5135 H   0  0  0  0  0  0  0  0  0  0  0  0  # atno 10764 bound_to 10752
  153.2700  135.4296  155.0934 H   0  0  0  0  0  0  0  0  0  0  0  0  # atno 10765 bound_to 10752
  139.9020  134.8170  156.2358 H   0  0  0  0  0  0  0  0  0  0  0  0  # atno 11005 bound_to 11000
  146.3506  140.1432  142.8594 LP  0  0  0  0  0  0  0  0  0  0  0  0  # atno 17320 bound_to 7965
  145.0543  140.9041  143.4976 LP  0  0  0  0  0  0  0  0  0  0  0  0  # atno 17321 bound_to 7965
  139.9268  144.6766  150.8404 LP  0  0  0  0  0  0  0  0  0  0  0  0  # atno 17342 bound_to 10162
  140.7676  143.3336  151.2356 LP  0  0  0  0  0  0  0  0  0  0  0  0  # atno 17343 bound_to 10162
  155.9807  130.4027  150.3515 LP  0  0  0  0  0  0  0  0  0  0  0  0  # atno 17370 bound_to 10713
  157.1635  131.0351  151.2830 LP  0  0  0  0  0  0  0  0  0  0  0  0  # atno 17371 bound_to 10713
  141.0316  133.6985  156.1440 LP  0  0  0  0  0  0  0  0  0  0  0  0  # atno 17394 bound_to 11000
  140.7087  134.4485  157.5583 LP  0  0  0  0  0  0  0  0  0  0  0  0  # atno 17395 bound_to 11000

$$$$
