AV-unprocessed.smi:622|AV-procd|sdf|3090|dock4
  -GOLD-   22720 0 13D 1   1.00000     0.00000
 Structure written by MMmdl.
 36 37  0  0  0  0  0  0  0  0  1 V2000
  150.9571  140.9661  156.3871 O   0  0  0  0  0  0  0  0  0  0  0  0
  150.2475  141.9633  156.2566 C   0  0  0  0  0  0  0  0  0  0  0  0
  149.2057  142.0676  155.4137 N   0  0  0  0  0  0  0  0  0  0  0  0
  148.6623  141.0751  154.5544 C   0  0  0  0  0  0  0  0  0  0  0  0
  147.5902  141.3009  153.6577 C   0  0  0  0  0  0  0  0  0  0  0  0
  147.1533  140.2409  152.8401 C   0  0  0  0  0  0  0  0  0  0  0  0
  147.8074  138.9980  152.9436 C   0  0  0  0  0  0  0  0  0  0  0  0
  148.8399  138.7727  153.7831 N   0  0  0  0  0  0  0  0  0  0  0  0
  149.2544  139.7943  154.5628 C   0  0  0  0  0  0  0  0  0  0  0  0
  150.4343  143.1056  156.9341 N   0  0  0  0  0  0  0  0  0  0  0  0
  151.4741  143.3573  157.9304 C   0  0  0  0  0  0  0  0  0  0  0  0
  151.6129  142.1013  158.8115 C   0  0  0  0  0  0  0  0  0  0  0  0
  152.6382  142.2093  159.9535 C   0  0  0  0  0  0  0  0  0  0  0  0
  152.1416  143.0823  161.1171 C   0  0  0  0  0  0  0  0  0  0  0  0
  152.4071  144.5909  160.9720 C   0  0  0  0  0  0  0  0  0  0  0  0
  152.2923  145.1773  159.5540 C   0  0  0  0  0  0  0  0  0  0  0  0
  151.1244  144.6441  158.7075 C   0  0  0  0  0  0  0  0  0  0  0  0
  148.7791  142.9800  155.3449 H   0  0  0  0  0  0  0  0  0  0  0  0
  147.1084  142.2624  153.5701 H   0  0  0  0  0  0  0  0  0  0  0  0
  146.3379  140.3790  152.1456 H   0  0  0  0  0  0  0  0  0  0  0  0
  147.4969  138.1641  152.3314 H   0  0  0  0  0  0  0  0  0  0  0  0
  150.0850  139.5789  155.2190 H   0  0  0  0  0  0  0  0  0  0  0  0
  149.8000  143.8688  156.7490 H   0  0  0  0  0  0  0  0  0  0  0  0
  152.4297  143.5153  157.4272 H   0  0  0  0  0  0  0  0  0  0  0  0
  150.6406  141.8255  159.2225 H   0  0  0  0  0  0  0  0  0  0  0  0
  151.9064  141.2683  158.1710 H   0  0  0  0  0  0  0  0  0  0  0  0
  152.8063  141.2033  160.3395 H   0  0  0  0  0  0  0  0  0  0  0  0
  153.6064  142.5519  159.5868 H   0  0  0  0  0  0  0  0  0  0  0  0
  151.0745  142.9133  161.2660 H   0  0  0  0  0  0  0  0  0  0  0  0
  152.6148  142.7462  162.0405 H   0  0  0  0  0  0  0  0  0  0  0  0
  151.7216  145.1207  161.6347 H   0  0  0  0  0  0  0  0  0  0  0  0
  153.4060  144.8141  161.3485 H   0  0  0  0  0  0  0  0  0  0  0  0
  152.1921  146.2589  159.6503 H   0  0  0  0  0  0  0  0  0  0  0  0
  153.2293  145.0263  159.0168 H   0  0  0  0  0  0  0  0  0  0  0  0
  150.8684  145.4181  157.9822 H   0  0  0  0  0  0  0  0  0  0  0  0
  150.2329  144.5048  159.3204 H   0  0  0  0  0  0  0  0  0  0  0  0
  1  2  2  0  0  0  0
  2  3  1  0  0  0  0
  2 10  1  0  0  0  0
  3  4  1  0  0  0  0
  3 18  1  0  0  0  0
  4  9  1  0  0  0  0
  4  5  2  0  0  0  0
  5  6  1  0  0  0  0
  5 19  1  0  0  0  0
  6  7  2  0  0  0  0
  6 20  1  0  0  0  0
  7  8  1  0  0  0  0
  7 21  1  0  0  0  0
  8  9  2  0  0  0  0
  9 22  1  0  0  0  0
 10 11  1  0  0  0  0
 10 23  1  0  0  0  0
 11 17  1  0  0  0  0
 11 12  1  0  0  0  0
 11 24  1  0  0  0  0
 12 13  1  0  0  0  0
 12 25  1  0  0  0  0
 12 26  1  0  0  0  0
 13 14  1  0  0  0  0
 13 27  1  0  0  0  0
 13 28  1  0  0  0  0
 14 15  1  0  0  0  0
 14 29  1  0  0  0  0
 14 30  1  0  0  0  0
 15 16  1  0  0  0  0
 15 31  1  0  0  0  0
 15 32  1  0  0  0  0
 16 17  1  0  0  0  0
 16 33  1  0  0  0  0
 16 34  1  0  0  0  0
 17 35  1  0  0  0  0
 17 36  1  0  0  0  0
M  END
> <s_m_source_file>
AV-unprocessed.smi

> <i_m_source_file_index>
622

> <i_lp_mmshare_version>
43012

> <i_f3d_flags>
0

> <s_epik_input>
W2NIXTFuW2NIXVtjSF1bY0hdYzFbTkhdQyg9TylbTkhdW0NIXTJbQ0gyXVtDSDJdW0NIMl1bQ0gyXVtDSDJdW0NIMl0y

> <s_epik_cmdline>
J2VwaWtfcHl0aG9uJywgJy1waCcsICc3LjAnLCAnLXRuJywgJzgnLCAnLW1hJywgJzIwMCcsICctbWV0YWxfYmluZGluZycsICctaW1hZScsICc8aW5maWxlLm1hZT4nLCAnLW9tYWUnLCAnPG91dGZpbGUubWFlPic=

> <r_epik_Ionization_Penalty>
0.00494148

> <r_epik_Ionization_Penalty_Charging>
0

> <r_epik_Ionization_Penalty_Neutral>
0.00494148

> <r_epik_State_Penalty>
0.00355757

> <r_epik_Charging_Adjusted_Penalty>
0.00355757

> <i_epik_Tot_Q>
0

> <i_epik_Tot_abs_Q>
0

> <r_epik_Metal_State_Penalty>
-0

> <b_epik_Metal_Only>
0

> <s_lp_Force_Field>
OPLS_2005

> <r_lp_Energy>
17.9389

> <b_lp_Chiralities_Consistent>
1

> <s_lp_Variant>
AV-unprocessed.smi:622-1

> <Gold.Version>
5.8.1

> <Gold.Id.Protein>
6NUR|6NUR_protein|mol2

> <Gold.PLP.Fitness>
43.4632

> <Gold.PLP.PLP>
-35.4470

> <Gold.PLP.part.hbond>
-2.0000

> <Gold.PLP.part.metal>
0.0000

> <Gold.PLP.part.buried>
-1.6959

> <Gold.PLP.part.nonpolar>
-32.0253

> <Gold.PLP.part.repulsive>
0.7025

> <Gold.PLP.ligand.clash>
0.0000

> <Gold.PLP.ligand.torsion>
0.2174

> <Gold.PLP.Chemscore.Hbond>
1.9680

> <Gold.PLP.Chemscore.CHOScore>
0.8446

> <Gold.PLP.Chemscore.Metal>
0.0000

> <Gold.Chemscore.Hbonds>
donor molecule, donor type, donor heavy atom, donor atom, acceptor molecule, acceptor atom, score
      L1  H     3    18       P1  8028  0.99
      L1  H    10    23       P1  8028  0.99
      L1  C     7    21       P1  7948  0.86

> <Gold.PLP.Chemscore.Internal.Correction>
0.0131

> <Gold.Rescore>
     Score         DG    S(hbond)    S(metal)    S(lipo)     H(rot)  DE(clash)    DE(int)     intcor
     18.36     -22.71       1.93        0.00     114.04       1.00       1.21       3.15       ----

> <Gold.Chemscore.Fitness>
18.3553

> <Gold.Chemscore.DG>
-22.7132

> <Gold.Chemscore.ZeroCoef>
-5.4800

> <Gold.Chemscore.Hbond>
1.9315

> <Gold.Chemscore.Metal>
0.0000

> <Gold.Chemscore.Lipo>
114.0352

> <Gold.Chemscore.Internal_Hbond>
0.0000

> <Gold.Chemscore.DEClash>
1.2063

> <Gold.Chemscore.DEInternal>
3.1516

> <Gold.Chemscore.Rot>
1.0000

> <Gold.Chemscore.Internal.Correction>
   9.000000E+99

> <Gold.Chemscore.Hbonds>
donor molecule, donor type, donor heavy atom, donor atom, acceptor molecule, acceptor atom, score
      L1  H     3    18       P1  8028  0.93
      L1  H    10    23       P1  8028  0.93

> <Gold.Chemscore.Hbond.Weighted>
-6.4511

> <Gold.Chemscore.Metal.Weighted>
-0.0000

> <Gold.Chemscore.Lipo.Weighted>
-13.3421

> <Gold.Chemscore.Internal_Hbond.Weighted>
0.0000

> <Gold.Chemscore.DEClash.Weighted>
1.2063

> <Gold.Chemscore.DEInternal.Weighted>
3.1516

> <Gold.Chemscore.Rot.Weighted>
2.5600

> <Gold.Chemscore.Internal.Correction.Weighted>
   9.000000E+99

> <Gold.Protein.RotatedTorsions>
[ 6907 6896 6895 6894 ] final  105.85 input  -60.11 | X-H torsion
[ 7974 7965 7964 7962 ] final  -27.41 input  175.53 | X-H torsion
[ 8008 7997 7996 7995 ] final -166.59 input   59.86 | X-H torsion
[ 10167 10162 10161 10158 ] final  -73.92 input  -65.29 | X-H torsion
[ 10718 10713 10712 10709 ] final  -42.98 input   66.30 | X-H torsion
[ 10763 10752 10751 10750 ] final   87.48 input  -60.55 | X-H torsion
[ 11005 11000 10999 10996 ] final  -21.03 input  -57.11 | X-H torsion

> <Gold.Protein.ActiveResidues>
 VAL166  LYS551  ARG553  GLY616  TRP617  ASP618  TYR619  PRO620  LYS621  CYS622 
 ASP623  PHE694  ASN695  SER759  ASP760  ASP761  ALA762  ILE779  LEU786  VAL792 
 PHE793  MET794  SER795  GLU796  ALA797  LYS798  CYS799  TRP800  GLU811  SER814 

> <Gold.Protein.RotatedAtoms>
  152.5215  133.9468  159.7652 H   0  0  0  0  0  0  0  0  0  0  0  0  # atno 6907 bound_to 6896
  150.9786  133.6260  159.2733 H   0  0  0  0  0  0  0  0  0  0  0  0  # atno 6908 bound_to 6896
  151.3446  135.0877  159.9435 H   0  0  0  0  0  0  0  0  0  0  0  0  # atno 6909 bound_to 6896
  146.1360  140.5147  142.8673 H   0  0  0  0  0  0  0  0  0  0  0  0  # atno 7974 bound_to 7965
  155.8659  140.0985  157.1583 H   0  0  0  0  0  0  0  0  0  0  0  0  # atno 8008 bound_to 7997
  154.3993  140.1356  156.4081 H   0  0  0  0  0  0  0  0  0  0  0  0  # atno 8009 bound_to 7997
  155.7805  140.3458  155.5297 H   0  0  0  0  0  0  0  0  0  0  0  0  # atno 8010 bound_to 7997
  140.5070  143.2351  151.7657 H   0  0  0  0  0  0  0  0  0  0  0  0  # atno 10167 bound_to 10162
  156.2538  130.4190  149.8619 H   0  0  0  0  0  0  0  0  0  0  0  0  # atno 10718 bound_to 10713
  153.1672  135.4542  154.9853 H   0  0  0  0  0  0  0  0  0  0  0  0  # atno 10763 bound_to 10752
  154.7940  135.3231  154.7712 H   0  0  0  0  0  0  0  0  0  0  0  0  # atno 10764 bound_to 10752
  153.8193  135.6948  153.4884 H   0  0  0  0  0  0  0  0  0  0  0  0  # atno 10765 bound_to 10752
  140.8521  133.7849  155.9978 H   0  0  0  0  0  0  0  0  0  0  0  0  # atno 11005 bound_to 11000
  144.7740  140.5699  143.6651 LP  0  0  0  0  0  0  0  0  0  0  0  0  # atno 17320 bound_to 7965
  145.5155  139.1478  143.3581 LP  0  0  0  0  0  0  0  0  0  0  0  0  # atno 17321 bound_to 7965
  139.4886  144.4443  151.9728 LP  0  0  0  0  0  0  0  0  0  0  0  0  # atno 17342 bound_to 10162
  140.3534  144.3061  150.5945 LP  0  0  0  0  0  0  0  0  0  0  0  0  # atno 17343 bound_to 10162
  156.6159  130.8606  151.3464 LP  0  0  0  0  0  0  0  0  0  0  0  0  # atno 17370 bound_to 10713
  157.7225  130.9577  150.1495 LP  0  0  0  0  0  0  0  0  0  0  0  0  # atno 17371 bound_to 10713
  140.8778  134.2648  157.5159 LP  0  0  0  0  0  0  0  0  0  0  0  0  # atno 17394 bound_to 11000
  139.8704  134.9600  156.4349 LP  0  0  0  0  0  0  0  0  0  0  0  0  # atno 17395 bound_to 11000

$$$$
