AV-unprocessed.smi:3032|AV-procd|sdf|11569|dock4
  -GOLD-   2272016533D 1   1.00000     0.00000
 Structure written by MMmdl.
 36 37  0  0  0  0  0  0  0  0  2 V2000
  151.5834  145.6491  159.9422 C   0  0  0  0  0  0  0  0  0  0  0  0
  151.8167  144.1387  160.0871 C   0  0  2  0  0  0  0  0  0  0  0  0
  152.3165  143.7792  161.4985 C   0  0  0  0  0  0  0  0  0  0  0  0
  152.5358  142.2664  161.6522 C   0  0  0  0  0  0  0  0  0  0  0  0
  153.4924  141.7195  160.5748 C   0  0  0  0  0  0  0  0  0  0  0  0
  153.0916  142.1053  159.1303 C   0  0  1  0  0  0  0  0  0  0  0  0
  151.9330  141.2606  158.5676 C   0  0  0  0  0  0  0  0  0  0  0  0
  151.4672  140.3147  159.2035 O   0  0  0  0  0  0  0  0  0  0  0  0
  151.4717  141.6233  157.3613 N   0  0  0  0  0  0  0  0  0  0  0  0
  150.3282  141.0214  156.6835 C   0  0  0  0  0  0  0  0  0  0  0  0
  150.0262  141.6884  155.3279 C   0  0  0  0  0  0  0  0  0  0  0  0
  148.8823  141.0347  154.5773 C   0  0  0  0  0  0  0  0  0  0  0  0
  148.8278  139.7400  154.2025 N   0  5  0  0  0  0  0  0  0  0  0  0
  147.7150  139.5073  153.5341 N   0  0  0  0  0  0  0  0  0  0  0  0
  147.0966  140.6937  153.5046 C   0  0  0  0  0  0  0  0  0  0  0  0
  147.7895  141.6502  154.1311 N   0  0  0  0  0  0  0  0  0  0  0  0
  152.8077  143.6211  159.0236 C   0  0  0  0  0  0  0  0  0  0  0  0
  152.5077  146.2096  160.0853 H   0  0  0  0  0  0  0  0  0  0  0  0
  150.8594  146.0062  160.6753 H   0  0  0  0  0  0  0  0  0  0  0  0
  151.1959  145.8918  158.9521 H   0  0  0  0  0  0  0  0  0  0  0  0
  150.8542  143.6498  159.9328 H   0  0  0  0  0  0  0  0  0  0  0  0
  153.2506  144.3040  161.7037 H   0  0  0  0  0  0  0  0  0  0  0  0
  151.6004  144.1203  162.2467 H   0  0  0  0  0  0  0  0  0  0  0  0
  152.9406  142.0535  162.6420 H   0  0  0  0  0  0  0  0  0  0  0  0
  151.5765  141.7521  161.6065 H   0  0  0  0  0  0  0  0  0  0  0  0
  154.4937  142.1044  160.7712 H   0  0  0  0  0  0  0  0  0  0  0  0
  153.5693  140.6354  160.6691 H   0  0  0  0  0  0  0  0  0  0  0  0
  153.9569  141.8950  158.4990 H   0  0  0  0  0  0  0  0  0  0  0  0
  151.8997  142.4182  156.9089 H   0  0  0  0  0  0  0  0  0  0  0  0
  150.5608  139.9685  156.5230 H   0  0  0  0  0  0  0  0  0  0  0  0
  149.4473  141.0480  157.3264 H   0  0  0  0  0  0  0  0  0  0  0  0
  149.7895  142.7419  155.4789 H   0  0  0  0  0  0  0  0  0  0  0  0
  150.9135  141.6614  154.6943 H   0  0  0  0  0  0  0  0  0  0  0  0
  146.1411  140.8614  153.0232 H   0  0  0  0  0  0  0  0  0  0  0  0
  152.4341  143.8591  158.0262 H   0  0  0  0  0  0  0  0  0  0  0  0
  153.7505  144.1610  159.1204 H   0  0  0  0  0  0  0  0  0  0  0  0
  1  2  1  0  0  0  0
  1 18  1  0  0  0  0
  1 19  1  0  0  0  0
  1 20  1  0  0  0  0
  2 17  1  0  0  0  0
  2  3  1  0  0  0  0
  2 21  1  0  0  0  0
  3  4  1  0  0  0  0
  3 22  1  0  0  0  0
  3 23  1  0  0  0  0
  4  5  1  0  0  0  0
  4 24  1  0  0  0  0
  4 25  1  0  0  0  0
  5  6  1  0  0  0  0
  5 26  1  0  0  0  0
  5 27  1  0  0  0  0
  6  7  1  0  0  0  0
  6 17  1  0  0  0  0
  6 28  1  0  0  0  0
  7  8  2  0  0  0  0
  7  9  1  0  0  0  0
  9 10  1  0  0  0  0
  9 29  1  0  0  0  0
 10 11  1  0  0  0  0
 10 30  1  0  0  0  0
 10 31  1  0  0  0  0
 11 32  1  0  0  0  0
 11 33  1  0  0  0  0
 11 12  1  0  0  0  0
 12 16  2  0  0  0  0
 12 13  1  0  0  0  0
 13 14  1  0  0  0  0
 14 15  2  0  0  0  0
 15 16  1  0  0  0  0
 15 34  1  0  0  0  0
 17 35  1  0  0  0  0
 17 36  1  0  0  0  0
M  CHG  1  13  -1
M  END
> <s_m_source_file>
AV-unprocessed.smi

> <i_m_source_file_index>
3032

> <i_lp_mmshare_version>
43012

> <i_f3d_flags>
0

> <s_epik_input>
W0NIM11bQ0BASF0xW0NIMl1bQ0gyXVtDSDJdW0NASF0oW0NIMl0xKUMoPU8pW05IXVtDSDJdW0NIMl1jMm5uW2NIXVtuSF0y

> <s_epik_cmdline>
J2VwaWtfcHl0aG9uJywgJy1waCcsICc3LjAnLCAnLXRuJywgJzgnLCAnLW1hJywgJzIwMCcsICctbWV0YWxfYmluZGluZycsICctaW1hZScsICc8aW5maWxlLm1hZT4nLCAnLW9tYWUnLCAnPG91dGZpbGUubWFlPic=

> <r_lp_tautomer_probability>
0.948284

> <r_epik_Ionization_Penalty>
12.042

> <r_epik_Ionization_Penalty_Charging>
12.042

> <r_epik_Ionization_Penalty_Neutral>
4.36781e-08

> <r_epik_State_Penalty>
4.67286

> <r_epik_Charging_Adjusted_Penalty>
16.7149

> <i_epik_Tot_Q>
-1

> <i_epik_Tot_abs_Q>
1

> <r_epik_Metal_State_Penalty>
0.981637

> <b_epik_Metal_Only>
1

> <s_lp_Force_Field>
OPLS_2005

> <r_lp_Energy>
8.77891

> <b_lp_Chiralities_Consistent>
1

> <s_lp_Variant>
AV-unprocessed.smi:3032-13

> <Gold.Version>
5.8.1

> <Gold.Id.Protein>
6NUR|6NUR_protein|mol2

> <Gold.PLP.Fitness>
41.9337

> <Gold.PLP.PLP>
-39.2238

> <Gold.PLP.part.hbond>
0.0000

> <Gold.PLP.part.metal>
0.0000

> <Gold.PLP.part.buried>
-4.9524

> <Gold.PLP.part.nonpolar>
-34.8818

> <Gold.PLP.part.repulsive>
0.8845

> <Gold.PLP.ligand.clash>
0.0000

> <Gold.PLP.ligand.torsion>
0.1624

> <Gold.PLP.Chemscore.Hbond>
0.0000

> <Gold.PLP.Chemscore.CHOScore>
0.9928

> <Gold.PLP.Chemscore.Metal>
0.0000

> <Gold.Chemscore.Hbonds>
donor molecule, donor type, donor heavy atom, donor atom, acceptor molecule, acceptor atom, score
      L1  C    15    34       P1 10175  0.98

> <Gold.PLP.Chemscore.Internal.Correction>
0.0563

> <Gold.Rescore>
     Score         DG    S(hbond)    S(metal)    S(lipo)     H(rot)  DE(clash)    DE(int)     intcor
     11.11     -11.28       0.00        0.00      98.01       2.21       0.01       0.15       ----

> <Gold.Chemscore.Fitness>
11.1123

> <Gold.Chemscore.DG>
-11.2775

> <Gold.Chemscore.ZeroCoef>
-5.4800

> <Gold.Chemscore.Hbond>
0.0000

> <Gold.Chemscore.Metal>
0.0000

> <Gold.Chemscore.Lipo>
98.0145

> <Gold.Chemscore.Internal_Hbond>
0.0000

> <Gold.Chemscore.DEClash>
0.0109

> <Gold.Chemscore.DEInternal>
0.1542

> <Gold.Chemscore.Rot>
2.2149

> <Gold.Chemscore.Internal.Correction>
   9.000000E+99

> <Gold.Chemscore.Hbond.Weighted>
-0.0000

> <Gold.Chemscore.Metal.Weighted>
-0.0000

> <Gold.Chemscore.Lipo.Weighted>
-11.4677

> <Gold.Chemscore.Internal_Hbond.Weighted>
0.0000

> <Gold.Chemscore.DEClash.Weighted>
0.0109

> <Gold.Chemscore.DEInternal.Weighted>
0.1542

> <Gold.Chemscore.Rot.Weighted>
5.6702

> <Gold.Chemscore.Internal.Correction.Weighted>
   9.000000E+99

> <Gold.Protein.RotatedTorsions>
[ 6907 6896 6895 6894 ] final  -12.33 input  -60.11 | X-H torsion
[ 7974 7965 7964 7962 ] final   -4.33 input  175.53 | X-H torsion
[ 8008 7997 7996 7995 ] final    6.09 input   59.86 | X-H torsion
[ 10167 10162 10161 10158 ] final -179.67 input  -65.29 | X-H torsion
[ 10718 10713 10712 10709 ] final   16.14 input   66.30 | X-H torsion
[ 10763 10752 10751 10750 ] final -163.29 input  -60.55 | X-H torsion
[ 11005 11000 10999 10996 ] final -159.66 input  -57.11 | X-H torsion

> <Gold.Protein.ActiveResidues>
 VAL166  LYS551  ARG553  GLY616  TRP617  ASP618  TYR619  PRO620  LYS621  CYS622 
 ASP623  PHE694  ASN695  SER759  ASP760  ASP761  ALA762  ILE779  LEU786  VAL792 
 PHE793  MET794  SER795  GLU796  ALA797  LYS798  CYS799  TRP800  GLU811  SER814 

> <Gold.Protein.RotatedAtoms>
  151.3722  135.0924  159.9468 H   0  0  0  0  0  0  0  0  0  0  0  0  # atno 6907 bound_to 6896
  152.5132  133.9154  159.7518 H   0  0  0  0  0  0  0  0  0  0  0  0  # atno 6908 bound_to 6896
  150.9570  133.6432  159.2790 H   0  0  0  0  0  0  0  0  0  0  0  0  # atno 6909 bound_to 6896
  146.2374  140.1855  142.8332 H   0  0  0  0  0  0  0  0  0  0  0  0  # atno 7974 bound_to 7965
  154.7366  140.2741  155.6409 H   0  0  0  0  0  0  0  0  0  0  0  0  # atno 8008 bound_to 7997
  156.2863  140.2705  156.2007 H   0  0  0  0  0  0  0  0  0  0  0  0  # atno 8009 bound_to 7997
  155.0312  140.0371  157.2464 H   0  0  0  0  0  0  0  0  0  0  0  0  # atno 8010 bound_to 7997
  139.5376  144.2454  152.0827 H   0  0  0  0  0  0  0  0  0  0  0  0  # atno 10167 bound_to 10162
  157.0636  130.6319  149.5791 H   0  0  0  0  0  0  0  0  0  0  0  0  # atno 10718 bound_to 10713
  154.7136  135.3011  154.9159 H   0  0  0  0  0  0  0  0  0  0  0  0  # atno 10763 bound_to 10752
  154.0053  135.6701  153.4766 H   0  0  0  0  0  0  0  0  0  0  0  0  # atno 10764 bound_to 10752
  153.0775  135.5027  154.8349 H   0  0  0  0  0  0  0  0  0  0  0  0  # atno 10765 bound_to 10752
  140.6401  134.4560  157.5233 H   0  0  0  0  0  0  0  0  0  0  0  0  # atno 11005 bound_to 11000
  144.9900  140.8538  143.5345 LP  0  0  0  0  0  0  0  0  0  0  0  0  # atno 17320 bound_to 7965
  145.1860  139.2326  143.5268 LP  0  0  0  0  0  0  0  0  0  0  0  0  # atno 17321 bound_to 7965
  140.1927  144.4735  150.6470 LP  0  0  0  0  0  0  0  0  0  0  0  0  # atno 17342 bound_to 10162
  140.6590  143.2246  151.5901 LP  0  0  0  0  0  0  0  0  0  0  0  0  # atno 17343 bound_to 10162
  155.9971  130.5042  150.7521 LP  0  0  0  0  0  0  0  0  0  0  0  0  # atno 17370 bound_to 10713
  157.4934  131.0913  151.0399 LP  0  0  0  0  0  0  0  0  0  0  0  0  # atno 17371 bound_to 10713
  139.9083  134.8399  156.1621 LP  0  0  0  0  0  0  0  0  0  0  0  0  # atno 17394 bound_to 11000
  141.0613  133.6840  156.1958 LP  0  0  0  0  0  0  0  0  0  0  0  0  # atno 17395 bound_to 11000

$$$$
