AV-unprocessed.smi:160|AV-procd|sdf|1363|dock4
  -GOLD-   2262019 73D 1   1.00000     0.00000
 Structure written by MMmdl.
 28 29  0  0  0  0  0  0  0  0  2 V2000
  149.1282  135.4401  158.7434 N   0  5  0  0  0  0  0  0  0  0  0  0
  149.1375  136.7594  158.4523 C   0  0  0  0  0  0  0  0  0  0  0  0
  148.9442  137.6809  159.2445 O   0  0  0  0  0  0  0  0  0  0  0  0
  149.4148  137.0786  157.0023 C   0  0  0  0  0  0  0  0  0  0  0  0
  149.6658  136.0786  156.1039 N   0  0  0  0  0  0  0  0  0  0  0  0
  149.8374  136.8120  155.0126 C   0  0  0  0  0  0  0  0  0  0  0  0
  149.7358  138.1301  155.2160 N   0  0  0  0  0  0  0  0  0  0  0  0
  149.7951  139.2773  154.2576 C   0  0  2  0  0  0  0  0  0  0  0  0
  150.7168  140.2088  154.7461 O   0  0  0  0  0  0  0  0  0  0  0  0
  150.0553  141.3367  155.3151 C   0  0  2  0  0  0  0  0  0  0  0  0
  149.7716  141.0959  156.8163 C   0  0  0  0  0  0  0  0  0  0  0  0
  149.1935  142.2508  157.3857 O   0  0  0  0  0  0  0  0  0  0  0  0
  148.8119  141.4443  154.4211 C   0  0  2  0  0  0  0  0  0  0  0  0
  147.7531  142.1593  155.0271 O   0  0  0  0  0  0  0  0  0  0  0  0
  148.4337  139.9928  154.1538 C   0  0  1  0  0  0  0  0  0  0  0  0
  147.8754  139.8743  152.8608 O   0  0  0  0  0  0  0  0  0  0  0  0
  149.4229  138.3253  156.5198 N   0  0  0  0  0  0  0  0  0  0  0  0
  150.1502  138.8347  153.3258 H   0  0  0  0  0  0  0  0  0  0  0  0
  150.6729  142.2289  155.2023 H   0  0  0  0  0  0  0  0  0  0  0  0
  149.0937  141.9394  153.4899 H   0  0  0  0  0  0  0  0  0  0  0  0
  147.7447  139.6208  154.9142 H   0  0  0  0  0  0  0  0  0  0  0  0
  148.3962  134.8525  158.3268 H   0  0  0  0  0  0  0  0  0  0  0  0
  150.0445  136.3784  154.0452 H   0  0  0  0  0  0  0  0  0  0  0  0
  149.0453  140.2935  156.9439 H   0  0  0  0  0  0  0  0  0  0  0  0
  150.6608  140.8019  157.3714 H   0  0  0  0  0  0  0  0  0  0  0  0
  149.0860  142.8985  156.7059 H   0  0  0  0  0  0  0  0  0  0  0  0
  148.1155  142.9211  155.4532 H   0  0  0  0  0  0  0  0  0  0  0  0
  148.5830  139.8278  152.2354 H   0  0  0  0  0  0  0  0  0  0  0  0
  1  2  1  0  0  0  0
  1 22  1  0  0  0  0
  2  3  2  0  0  0  0
  2  4  1  0  0  0  0
  4 17  2  0  0  0  0
  4  5  1  0  0  0  0
  5  6  2  0  0  0  0
  6  7  1  0  0  0  0
  6 23  1  0  0  0  0
  7  8  1  0  0  0  0
  7 17  1  0  0  0  0
  8 18  1  0  0  0  0
  8 15  1  0  0  0  0
  8  9  1  0  0  0  0
  9 10  1  0  0  0  0
 10 19  1  0  0  0  0
 10 11  1  0  0  0  0
 10 13  1  0  0  0  0
 11 12  1  0  0  0  0
 11 24  1  0  0  0  0
 11 25  1  0  0  0  0
 12 26  1  0  0  0  0
 13 20  1  0  0  0  0
 13 14  1  0  0  0  0
 13 15  1  0  0  0  0
 14 27  1  0  0  0  0
 15 21  1  0  0  0  0
 15 16  1  0  0  0  0
 16 28  1  0  0  0  0
M  CHG  1   1  -1
M  END
> <s_m_source_file>
AV-unprocessed.smi

> <i_m_source_file_index>
160

> <i_lp_mmshare_version>
43012

> <i_f3d_flags>
0

> <s_epik_input>
W05IMl1DKD1PKWMxbltjSF1uKG4xKVtDQEBIXTJPW0NASF0oW0NIMl1bT0hdKVtDQEBIXShbT0hdKVtDQEhdMltPSF0=

> <s_epik_cmdline>
J2VwaWtfcHl0aG9uJywgJy1waCcsICc3LjAnLCAnLXRuJywgJzgnLCAnLW1hJywgJzIwMCcsICctbWV0YWxfYmluZGluZycsICctaW1hZScsICc8aW5maWxlLm1hZT4nLCAnLW9tYWUnLCAnPG91dGZpbGUubWFlPic=

> <r_lp_tautomer_probability>
1

> <r_epik_Ionization_Penalty>
6.6993

> <r_epik_Ionization_Penalty_Charging>
6.6993

> <r_epik_Ionization_Penalty_Neutral>
6.01698e-06

> <r_epik_State_Penalty>
6.69929

> <r_epik_Charging_Adjusted_Penalty>
13.3986

> <i_epik_Tot_Q>
-1

> <i_epik_Tot_abs_Q>
1

> <r_epik_Metal_State_Penalty>
2.62798

> <b_epik_Metal_Only>
1

> <s_epik_Chemistry_Notes>
This compound contains an acetal/aminal-like group ( X-CH(R)-Y where X, Y are N, S, or O) that may be acid/base labile, releasing an aldehyde.

> <s_lp_Force_Field>
OPLS_2005

> <r_lp_Energy>
38.9008

> <b_lp_Chiralities_Consistent>
1

> <s_lp_Variant>
AV-unprocessed.smi:160-21

> <Gold.Version>
5.8.1

> <Gold.Id.Protein>
6NUR|6NUR_protein|mol2

> <Gold.PLP.Fitness>
44.7342

> <Gold.PLP.PLP>
-23.8423

> <Gold.PLP.part.hbond>
-6.4857

> <Gold.PLP.part.metal>
0.0000

> <Gold.PLP.part.buried>
-3.2097

> <Gold.PLP.part.nonpolar>
-13.9647

> <Gold.PLP.part.repulsive>
0.1033

> <Gold.PLP.ligand.clash>
0.0000

> <Gold.PLP.ligand.torsion>
0.0949

> <Gold.PLP.Chemscore.Hbond>
6.0000

> <Gold.PLP.Chemscore.CHOScore>
1.0083

> <Gold.PLP.Chemscore.Metal>
0.0000

> <Gold.Chemscore.Hbonds>
donor molecule, donor type, donor heavy atom, donor atom, acceptor molecule, acceptor atom, score
      L1  H    12    26       P1  8028  0.81
      L1  H    14    27       P1  8028  1.00
      L1  H    16    28       P1  7957  0.89
      P1  H  6896  6907       L1     1  2.00
      P1  H  7989  7998       L1     9  1.00
      L1  C     6    23       P1  7948  0.97
      L1  C     6    23       P1  7949  0.01

> <Gold.PLP.Chemscore.Internal.Correction>
0.0567

> <Gold.Rescore>
     Score         DG    S(hbond)    S(metal)    S(lipo)     H(rot)  DE(clash)    DE(int)     intcor
     11.11     -12.55       4.28        0.00      26.59       4.04       0.00       1.44       ----

> <Gold.Chemscore.Fitness>
11.1077

> <Gold.Chemscore.DG>
-12.5466

> <Gold.Chemscore.ZeroCoef>
-5.4800

> <Gold.Chemscore.Hbond>
4.2811

> <Gold.Chemscore.Metal>
0.0000

> <Gold.Chemscore.Lipo>
26.5872

> <Gold.Chemscore.Internal_Hbond>
0.0000

> <Gold.Chemscore.DEClash>
0.0000

> <Gold.Chemscore.DEInternal>
1.4389

> <Gold.Chemscore.Rot>
4.0403

> <Gold.Chemscore.Internal.Correction>
   9.000000E+99

> <Gold.Chemscore.Hbonds>
donor molecule, donor type, donor heavy atom, donor atom, acceptor molecule, acceptor atom, score
      L1  H    12    26       P1  8028  0.79
      L1  H    14    27       P1  8028  0.91
      L1  H    16    28       P1  7957  0.87
      P1  H  6896  6907       L1     1  0.93
      P1  H  7989  7998       L1     9  0.31

> <Gold.Chemscore.Hbond.Weighted>
-14.2989

> <Gold.Chemscore.Metal.Weighted>
-0.0000

> <Gold.Chemscore.Lipo.Weighted>
-3.1107

> <Gold.Chemscore.Internal_Hbond.Weighted>
0.0000

> <Gold.Chemscore.DEClash.Weighted>
0.0000

> <Gold.Chemscore.DEInternal.Weighted>
1.4389

> <Gold.Chemscore.Rot.Weighted>
10.3431

> <Gold.Chemscore.Internal.Correction.Weighted>
   9.000000E+99

> <Gold.Protein.RotatedTorsions>
[ 6907 6896 6895 6894 ] final  -75.08 input  -60.11 | X-H torsion
[ 7974 7965 7964 7962 ] final -145.58 input  175.53 | X-H torsion
[ 8008 7997 7996 7995 ] final  157.12 input   59.86 | X-H torsion
[ 10167 10162 10161 10158 ] final  134.58 input  -65.29 | X-H torsion
[ 10718 10713 10712 10709 ] final  -49.10 input   66.30 | X-H torsion
[ 10763 10752 10751 10750 ] final  154.47 input  -60.55 | X-H torsion
[ 11005 11000 10999 10996 ] final -143.39 input  -57.11 | X-H torsion

> <Gold.Protein.ActiveResidues>
 VAL166  LYS551  ARG553  GLY616  TRP617  ASP618  TYR619  PRO620  LYS621  CYS622 
 ASP623  PHE694  ASN695  SER759  ASP760  ASP761  ALA762  ILE779  LEU786  VAL792 
 PHE793  MET794  SER795  GLU796  ALA797  LYS798  CYS799  TRP800  GLU811  SER814 

> <Gold.Protein.RotatedAtoms>
  150.7071  134.4774  159.5453 H   0  0  0  0  0  0  0  0  0  0  0  0  # atno 6907 bound_to 6896
  152.2418  134.8218  160.0468 H   0  0  0  0  0  0  0  0  0  0  0  0  # atno 6908 bound_to 6896
  151.8997  133.3500  159.3863 H   0  0  0  0  0  0  0  0  0  0  0  0  # atno 6909 bound_to 6896
  144.8217  140.5565  143.5574 H   0  0  0  0  0  0  0  0  0  0  0  0  # atno 7974 bound_to 7965
  156.2382  140.1894  156.7060 H   0  0  0  0  0  0  0  0  0  0  0  0  # atno 8008 bound_to 7997
  154.6147  140.0617  156.9566 H   0  0  0  0  0  0  0  0  0  0  0  0  # atno 8009 bound_to 7997
  155.1959  140.3288  155.4353 H   0  0  0  0  0  0  0  0  0  0  0  0  # atno 8010 bound_to 7997
  139.5250  144.6560  151.5161 H   0  0  0  0  0  0  0  0  0  0  0  0  # atno 10167 bound_to 10162
  156.1925  130.4153  149.9352 H   0  0  0  0  0  0  0  0  0  0  0  0  # atno 10718 bound_to 10713
  154.1529  135.2814  155.3130 H   0  0  0  0  0  0  0  0  0  0  0  0  # atno 10763 bound_to 10752
  154.6204  135.5469  153.7572 H   0  0  0  0  0  0  0  0  0  0  0  0  # atno 10764 bound_to 10752
  153.0215  135.6437  154.1672 H   0  0  0  0  0  0  0  0  0  0  0  0  # atno 10765 bound_to 10752
  140.8130  134.2722  157.4933 H   0  0  0  0  0  0  0  0  0  0  0  0  # atno 11005 bound_to 11000
  145.5090  139.1480  143.3615 LP  0  0  0  0  0  0  0  0  0  0  0  0  # atno 17320 bound_to 7965
  146.2523  140.5230  142.8888 LP  0  0  0  0  0  0  0  0  0  0  0  0  # atno 17321 bound_to 7965
  140.6386  143.8935  150.6670 LP  0  0  0  0  0  0  0  0  0  0  0  0  # atno 17342 bound_to 10162
  140.2262  143.3771  152.1603 LP  0  0  0  0  0  0  0  0  0  0  0  0  # atno 17343 bound_to 10162
  156.7087  130.8962  151.3607 LP  0  0  0  0  0  0  0  0  0  0  0  0  # atno 17370 bound_to 10713
  157.6937  130.9260  150.0586 LP  0  0  0  0  0  0  0  0  0  0  0  0  # atno 17371 bound_to 10713
  139.8713  134.9493  156.4023 LP  0  0  0  0  0  0  0  0  0  0  0  0  # atno 17394 bound_to 11000
  140.9178  133.7666  155.9869 LP  0  0  0  0  0  0  0  0  0  0  0  0  # atno 17395 bound_to 11000

$$$$
