AV-unprocessed.smi:199|AV-procd|sdf|1571|dock5
  -GOLD-   2262019453D 1   1.00000     0.00000
 Structure written by MMmdl.
 51 55  0  0  0  0  0  0  0  0  1 V2000
  150.7136  140.2192  157.0716 C   0  0  0  0  0  0  0  0  0  0  0  0
  150.9298  139.8985  155.5844 C   0  0  1  0  0  0  0  0  0  0  0  0
  152.2518  139.3843  155.4430 O   0  0  0  0  0  0  0  0  0  0  0  0
  152.2737  138.4631  154.3670 C   0  0  0  0  0  0  0  0  0  0  0  0
  150.9579  137.7220  154.5451 C   0  0  0  0  0  0  0  0  0  0  0  0
  149.9915  138.8306  154.9530 C   0  0  2  0  0  0  0  0  0  0  0  0
  149.4471  139.3862  153.7672 O   0  0  0  0  0  0  0  0  0  0  0  0
  148.8115  138.3373  155.8320 C   0  0  0  0  0  0  0  0  0  0  0  0
  147.8777  137.4819  155.1145 N   0  0  0  0  0  0  0  0  0  0  0  0
  146.6131  137.8156  154.6887 C   0  0  0  0  0  0  0  0  0  0  0  0
  145.9733  136.8707  154.0569 N   0  0  0  0  0  0  0  0  0  0  0  0
  146.8599  135.7996  154.0433 C   0  0  0  0  0  0  0  0  0  0  0  0
  146.8202  134.4722  153.5218 C   0  0  0  0  0  0  0  0  0  0  0  0
  145.7671  133.9455  152.8365 N   0  0  0  0  0  0  0  0  0  0  0  0
  144.5265  134.6928  152.6831 C   0  0  1  0  0  0  0  0  0  0  0  0
  144.8761  135.7850  151.6537 C   0  0  0  0  0  0  0  0  0  0  0  0
  145.8642  135.0346  150.7479 C   0  0  0  0  0  0  0  0  0  0  0  0
  145.8924  133.6400  151.4167 C   0  0  2  0  0  0  0  0  0  0  0  0
  144.5852  132.8604  151.1570 C   0  0  2  0  0  0  0  0  0  0  0  0
  144.1822  132.6724  149.6825 C   0  0  0  0  0  0  0  0  0  0  0  0
  142.8783  132.1378  149.6038 O   0  0  0  0  0  0  0  0  0  0  0  0
  143.5932  133.6651  152.0173 C   0  0  0  0  0  0  0  0  0  0  0  0
  147.9048  133.6845  153.7511 N   0  0  0  0  0  0  0  0  0  0  0  0
  148.9635  134.1583  154.4124 C   0  0  0  0  0  0  0  0  0  0  0  0
  149.1458  135.3725  154.9313 N   0  0  0  0  0  0  0  0  0  0  0  0
  148.0574  136.1666  154.7235 C   0  0  0  0  0  0  0  0  0  0  0  0
  149.7180  140.6251  157.2514 H   0  0  0  0  0  0  0  0  0  0  0  0
  151.4346  140.9625  157.4122 H   0  0  0  0  0  0  0  0  0  0  0  0
  150.8414  139.3338  157.6947 H   0  0  0  0  0  0  0  0  0  0  0  0
  150.8775  140.8320  155.0208 H   0  0  0  0  0  0  0  0  0  0  0  0
  152.2998  139.0014  153.4181 H   0  0  0  0  0  0  0  0  0  0  0  0
  153.1408  137.8044  154.4177 H   0  0  0  0  0  0  0  0  0  0  0  0
  150.6493  137.1709  153.6555 H   0  0  0  0  0  0  0  0  0  0  0  0
  151.0713  137.0041  155.3582 H   0  0  0  0  0  0  0  0  0  0  0  0
  150.1322  139.4374  153.1186 H   0  0  0  0  0  0  0  0  0  0  0  0
  149.1815  137.7734  156.6884 H   0  0  0  0  0  0  0  0  0  0  0  0
  148.2557  139.1838  156.2376 H   0  0  0  0  0  0  0  0  0  0  0  0
  146.1791  138.7905  154.8571 H   0  0  0  0  0  0  0  0  0  0  0  0
  144.0945  135.0892  153.5997 H   0  0  0  0  0  0  0  0  0  0  0  0
  144.0020  136.1538  151.1161 H   0  0  0  0  0  0  0  0  0  0  0  0
  145.3622  136.6354  152.1335 H   0  0  0  0  0  0  0  0  0  0  0  0
  145.5623  135.0177  149.7018 H   0  0  0  0  0  0  0  0  0  0  0  0
  146.8470  135.5053  150.7917 H   0  0  0  0  0  0  0  0  0  0  0  0
  146.7748  133.0555  151.1539 H   0  0  0  0  0  0  0  0  0  0  0  0
  144.7075  131.8713  151.6030 H   0  0  0  0  0  0  0  0  0  0  0  0
  144.2048  133.6131  149.1330 H   0  0  0  0  0  0  0  0  0  0  0  0
  144.8685  131.9855  149.1869 H   0  0  0  0  0  0  0  0  0  0  0  0
  142.2580  132.8363  149.7472 H   0  0  0  0  0  0  0  0  0  0  0  0
  143.1242  133.0206  152.7617 H   0  0  0  0  0  0  0  0  0  0  0  0
  142.8005  134.1402  151.4382 H   0  0  0  0  0  0  0  0  0  0  0  0
  149.7814  133.4654  154.5436 H   0  0  0  0  0  0  0  0  0  0  0  0
  1  2  1  0  0  0  0
  1 27  1  0  0  0  0
  1 28  1  0  0  0  0
  1 29  1  0  0  0  0
  2  6  1  0  0  0  0
  2  3  1  0  0  0  0
  2 30  1  0  0  0  0
  3  4  1  0  0  0  0
  4  5  1  0  0  0  0
  4 31  1  0  0  0  0
  4 32  1  0  0  0  0
  5  6  1  0  0  0  0
  5 33  1  0  0  0  0
  5 34  1  0  0  0  0
  6  7  1  0  0  0  0
  6  8  1  0  0  0  0
  7 35  1  0  0  0  0
  8  9  1  0  0  0  0
  8 36  1  0  0  0  0
  8 37  1  0  0  0  0
  9 26  1  0  0  0  0
  9 10  1  0  0  0  0
 10 11  2  0  0  0  0
 10 38  1  0  0  0  0
 11 12  1  0  0  0  0
 12 26  2  0  0  0  0
 12 13  1  0  0  0  0
 13 14  1  0  0  0  0
 13 23  2  0  0  0  0
 14 18  1  0  0  0  0
 14 15  1  0  0  0  0
 15 22  1  0  0  0  0
 15 16  1  0  0  0  0
 15 39  1  0  0  0  0
 16 17  1  0  0  0  0
 16 40  1  0  0  0  0
 16 41  1  0  0  0  0
 17 18  1  0  0  0  0
 17 42  1  0  0  0  0
 17 43  1  0  0  0  0
 18 19  1  0  0  0  0
 18 44  1  0  0  0  0
 19 20  1  0  0  0  0
 19 22  1  0  0  0  0
 19 45  1  0  0  0  0
 20 21  1  0  0  0  0
 20 46  1  0  0  0  0
 20 47  1  0  0  0  0
 21 48  1  0  0  0  0
 22 49  1  0  0  0  0
 22 50  1  0  0  0  0
 23 24  1  0  0  0  0
 24 25  2  0  0  0  0
 24 51  1  0  0  0  0
 25 26  1  0  0  0  0
M  END
> <s_m_source_file>
AV-unprocessed.smi

> <i_m_source_file_index>
199

> <i_lp_mmshare_version>
43012

> <i_f3d_flags>
0

> <s_epik_input>
W0NIMl0xW0NIMl1PW0NAQEhdKFtDSDNdKVtDQEBdMShbT0hdKVtDSDJdbihbY0hdbjIpYyhjMjMpbltjSF1uYzNOKFtDQEBIXTQ1KVtDQEhdKFtDSDJdW0NIMl00KVtDQEhdKFtDSDJdNSlbQ0gyXVtPSF0=

> <s_epik_cmdline>
J2VwaWtfcHl0aG9uJywgJy1waCcsICc3LjAnLCAnLXRuJywgJzgnLCAnLW1hJywgJzIwMCcsICctbWV0YWxfYmluZGluZycsICctaW1hZScsICc8aW5maWxlLm1hZT4nLCAnLW9tYWUnLCAnPG91dGZpbGUubWFlPic=

> <r_lp_tautomer_probability>
1

> <r_epik_Ionization_Penalty>
0.00583903

> <r_epik_Ionization_Penalty_Charging>
0

> <r_epik_Ionization_Penalty_Neutral>
0.00583903

> <r_epik_State_Penalty>
-0

> <r_epik_Charging_Adjusted_Penalty>
0

> <i_epik_Tot_Q>
0

> <i_epik_Tot_abs_Q>
0

> <r_epik_Metal_State_Penalty>
-0

> <b_epik_Metal_Only>
0

> <s_lp_Force_Field>
OPLS_2005

> <r_lp_Energy>
83.1527

> <b_lp_Chiralities_Consistent>
1

> <s_lp_Variant>
AV-unprocessed.smi:199-12

> <Gold.Version>
5.8.1

> <Gold.Id.Protein>
6NUR|6NUR_protein|mol2

> <Gold.PLP.Fitness>
42.5890

> <Gold.PLP.PLP>
-37.1419

> <Gold.PLP.part.hbond>
-3.5924

> <Gold.PLP.part.metal>
0.0000

> <Gold.PLP.part.buried>
-4.3926

> <Gold.PLP.part.nonpolar>
-27.2803

> <Gold.PLP.part.repulsive>
0.4452

> <Gold.PLP.ligand.clash>
0.0000

> <Gold.PLP.ligand.torsion>
0.3597

> <Gold.PLP.Chemscore.Hbond>
2.0497

> <Gold.PLP.Chemscore.CHOScore>
0.0000

> <Gold.PLP.Chemscore.Metal>
0.0000

> <Gold.Chemscore.Hbonds>
donor molecule, donor type, donor heavy atom, donor atom, acceptor molecule, acceptor atom, score
      L1  H     7    35       P1  7957  0.31
      L1  H    21    48       P1 10186  1.00
      P1  H  7997  8008       L1     3  0.18
      P1  H 10785 10796       L1    21  0.59

> <Gold.PLP.Chemscore.Internal.Correction>
0.0174

> <Gold.Rescore>
     Score         DG    S(hbond)    S(metal)    S(lipo)     H(rot)  DE(clash)    DE(int)     intcor
     11.07     -12.78       1.79        0.00      78.43       3.07       0.09       1.63       ----

> <Gold.Chemscore.Fitness>
11.0697

> <Gold.Chemscore.DG>
-12.7827

> <Gold.Chemscore.ZeroCoef>
-5.4800

> <Gold.Chemscore.Hbond>
1.7943

> <Gold.Chemscore.Metal>
0.0000

> <Gold.Chemscore.Lipo>
78.4316

> <Gold.Chemscore.Internal_Hbond>
0.0000

> <Gold.Chemscore.DEClash>
0.0862

> <Gold.Chemscore.DEInternal>
1.6268

> <Gold.Chemscore.Rot>
3.0729

> <Gold.Chemscore.Internal.Correction>
   9.000000E+99

> <Gold.Chemscore.Hbonds>
donor molecule, donor type, donor heavy atom, donor atom, acceptor molecule, acceptor atom, score
      L1  H     7    35       P1  7957  0.30
      L1  H    21    48       P1 10186  0.94
      P1  H  7997  8008       L1     3  0.18
      P1  H 10785 10796       L1    21  0.26

> <Gold.Chemscore.Hbond.Weighted>
-5.9930

> <Gold.Chemscore.Metal.Weighted>
-0.0000

> <Gold.Chemscore.Lipo.Weighted>
-9.1765

> <Gold.Chemscore.Internal_Hbond.Weighted>
0.0000

> <Gold.Chemscore.DEClash.Weighted>
0.0862

> <Gold.Chemscore.DEInternal.Weighted>
1.6268

> <Gold.Chemscore.Rot.Weighted>
7.8667

> <Gold.Chemscore.Internal.Correction.Weighted>
   9.000000E+99

> <Gold.Protein.RotatedTorsions>
[ 6907 6896 6895 6894 ] final  127.12 input  -60.11 | X-H torsion
[ 7974 7965 7964 7962 ] final   -3.12 input  175.53 | X-H torsion
[ 8008 7997 7996 7995 ] final  -37.85 input   59.86 | X-H torsion
[ 10167 10162 10161 10158 ] final   46.29 input  -65.29 | X-H torsion
[ 10718 10713 10712 10709 ] final  101.56 input   66.30 | X-H torsion
[ 10763 10752 10751 10750 ] final  173.31 input  -60.55 | X-H torsion
[ 11005 11000 10999 10996 ] final -148.40 input  -57.11 | X-H torsion

> <Gold.Protein.ActiveResidues>
 VAL166  LYS551  ARG553  GLY616  TRP617  ASP618  TYR619  PRO620  LYS621  CYS622 
 ASP623  PHE694  ASN695  SER759  ASP760  ASP761  ALA762  ILE779  LEU786  VAL792 
 PHE793  MET794  SER795  GLU796  ALA797  LYS798  CYS799  TRP800  GLU811  SER814 

> <Gold.Protein.RotatedAtoms>
  152.3842  133.6587  159.6184 H   0  0  0  0  0  0  0  0  0  0  0  0  # atno 6907 bound_to 6896
  150.7765  133.9064  159.3365 H   0  0  0  0  0  0  0  0  0  0  0  0  # atno 6908 bound_to 6896
  151.6863  135.0955  160.0277 H   0  0  0  0  0  0  0  0  0  0  0  0  # atno 6909 bound_to 6896
  146.2394  140.1674  142.8332 H   0  0  0  0  0  0  0  0  0  0  0  0  # atno 7974 bound_to 7965
  154.4046  140.1593  156.2605 H   0  0  0  0  0  0  0  0  0  0  0  0  # atno 8008 bound_to 7997
  155.9041  140.3431  155.6026 H   0  0  0  0  0  0  0  0  0  0  0  0  # atno 8009 bound_to 7997
  155.7414  140.0793  157.2235 H   0  0  0  0  0  0  0  0  0  0  0  0  # atno 8010 bound_to 7997
  140.3154  144.2770  150.6192 H   0  0  0  0  0  0  0  0  0  0  0  0  # atno 10167 bound_to 10162
  157.6826  131.0729  150.5270 H   0  0  0  0  0  0  0  0  0  0  0  0  # atno 10718 bound_to 10713
  154.4383  135.2761  155.1865 H   0  0  0  0  0  0  0  0  0  0  0  0  # atno 10763 bound_to 10752
  154.3743  135.6102  153.5760 H   0  0  0  0  0  0  0  0  0  0  0  0  # atno 10764 bound_to 10752
  152.9839  135.5865  154.4706 H   0  0  0  0  0  0  0  0  0  0  0  0  # atno 10765 bound_to 10752
  140.7616  134.3292  157.5100 H   0  0  0  0  0  0  0  0  0  0  0  0  # atno 11005 bound_to 11000
  145.0040  140.8656  143.5265 LP  0  0  0  0  0  0  0  0  0  0  0  0  # atno 17320 bound_to 7965
  145.1697  139.2411  143.5348 LP  0  0  0  0  0  0  0  0  0  0  0  0  # atno 17321 bound_to 7965
  140.5531  143.2203  151.7893 LP  0  0  0  0  0  0  0  0  0  0  0  0  # atno 17342 bound_to 10162
  139.4885  144.4450  151.9721 LP  0  0  0  0  0  0  0  0  0  0  0  0  # atno 17343 bound_to 10162
  156.5581  130.4248  149.6075 LP  0  0  0  0  0  0  0  0  0  0  0  0  # atno 17370 bound_to 10713
  156.2844  130.7089  151.1922 LP  0  0  0  0  0  0  0  0  0  0  0  0  # atno 17371 bound_to 10713
  139.8770  134.9205  156.3253 LP  0  0  0  0  0  0  0  0  0  0  0  0  # atno 17394 bound_to 11000
  140.9658  133.7359  156.0465 LP  0  0  0  0  0  0  0  0  0  0  0  0  # atno 17395 bound_to 11000

$$$$
