#       Name:                AV-unprocessed.smi:99
#       Creating user name   scv26
#       Creation time:       Thu Mar 26 17:37:41 2020


#       File generated by GOLD software.
#

@<TRIPOS>MOLECULE
AV-unprocessed.smi:99
    65    68     1
SMALL
NO_CHARGES


@<TRIPOS>ATOM
      1 ****        -3.4587   0.1680  -2.4848 O.2            1 S1                 0.0000
      2 ****        -2.7851   0.7027  -1.6019 C.2            1 S1                 0.0000
      3 ****        -1.5039   0.3859  -1.3462 O.3            1 S1                 0.0000
      4 ****        -0.8422  -0.6159  -2.1021 C.3            1 S1                 0.0000
      5 ****         0.6507  -0.6303  -1.7460 C.3            1 S1                 0.0000
      6 ****         1.2763   0.5718  -2.1640 O.3            1 S1                 0.0000
      7 ****         2.3925   0.8227  -1.3649 C.3            1 S1                 0.0000
      8 ****         2.3822   2.2890  -0.9847 N.am           1 S1                 0.0000
      9 ****         1.1827   2.9482  -0.7778 C.2            1 S1                 0.0000
     10 ****         1.1468   4.2505  -0.4300 C.2            1 S1                 0.0000
     11 ****         2.4001   4.9820  -0.2671 C.2            1 S1                 0.0000
     12 ****         2.3596   6.1721   0.0386 O.2            1 S1                 0.0000
     13 ****         3.5695   4.3057  -0.4613 N.pl3          1 S1                -1.0000
     14 ****         3.6081   2.9848  -0.8039 C.2            1 S1                 0.0000
     15 ****         4.6575   2.3578  -0.9513 O.2            1 S1                 0.0000
     16 ****         2.3388  -0.1191  -0.1377 C.3            1 S1                 0.0000
     17 ****         2.4736   0.5288   1.1141 O.3            1 S1                 0.0000
     18 ****         0.9588  -0.7514  -0.2531 C.3            1 S1                 0.0000
     19 ****         0.9972  -2.1255   0.1104 O.3            1 S1                 0.0000
     20 ****         0.5844  -2.5296   1.3305 C.2            1 S1                 0.0000
     21 ****         0.1497  -1.7671   2.1958 O.2            1 S1                 0.0000
     22 ****         0.7059  -4.0037   1.5222 C.ar           1 S1                 0.0000
     23 ****         0.2866  -4.5805   2.7438 C.ar           1 S1                 0.0000
     24 ****         0.3886  -5.9694   2.9537 C.ar           1 S1                 0.0000
     25 ****         0.9125  -6.7987   1.9451 C.ar           1 S1                 0.0000
     26 ****         1.3341  -6.2372   0.7257 C.ar           1 S1                 0.0000
     27 ****         1.2319  -4.8484   0.5135 C.ar           1 S1                 0.0000
     28 ****        -3.3004   1.7779  -0.7060 C.ar           1 S1                 0.0000
     29 ****        -4.6005   2.2928  -0.9171 C.ar           1 S1                 0.0000
     30 ****        -5.1106   3.3126  -0.0903 C.ar           1 S1                 0.0000
     31 ****        -4.3270   3.8294   0.9581 C.ar           1 S1                 0.0000
     32 ****        -3.0332   3.3232   1.1806 C.ar           1 S1                 0.0000
     33 ****        -2.5223   2.3022   0.3562 C.ar           1 S1                 0.0000
     34 ****        -1.2888  -1.5858  -1.8796 H              1 S1                 0.0000
     35 ****        -0.9678  -0.4330  -3.1700 H              1 S1                 0.0000
     36 ****         1.1438  -1.4407  -2.2858 H              1 S1                 0.0000
     37 ****         3.2800   0.6655  -1.9788 H              1 S1                 0.0000
     38 ****         0.2520   2.4150  -0.8908 H              1 S1                 0.0000
     39 ****         0.2009   4.7471  -0.2711 H              1 S1                 0.0000
     40 ****         3.1244  -0.8666  -0.2574 H              1 S1                 0.0000
     41 ****         3.2833   1.0173   1.1101 H              1 S1                 0.0000
     42 ****         0.2319  -0.1765   0.3225 H              1 S1                 0.0000
     43 ****        -0.1187  -3.9642   3.5334 H              1 S1                 0.0000
     44 ****         0.0642  -6.3985   3.8904 H              1 S1                 0.0000
     45 ****         0.9909  -7.8637   2.1066 H              1 S1                 0.0000
     46 ****         1.7369  -6.8728  -0.0491 H              1 S1                 0.0000
     47 ****         1.5650  -4.4504  -0.4339 H              1 S1                 0.0000
     48 ****        -5.2196   1.9135  -1.7173 H              1 S1                 0.0000
     49 ****        -6.1044   3.6993  -0.2620 H              1 S1                 0.0000
     50 ****        -4.7180   4.6120   1.5913 H              1 S1                 0.0000
     51 ****        -2.4308   3.7171   1.9858 H              1 S1                 0.0000
     52 ****        -1.5280   1.9330   0.5599 H              1 S1                 0.0000
     53 ****        -3.0556  -0.5448  -3.0588 LP             1 S1                 0.0000
     54 ****        -4.4084   0.4470  -2.6273 LP             1 S1                 0.0000
     55 ****         0.6297   1.3300  -2.0797 LP             1 S1                 0.0000
     56 ****         1.5633   0.4831  -3.1179 LP             1 S1                 0.0000
     57 ****         1.4777   6.6244   0.1717 LP             1 S1                 0.0000
     58 ****         3.2085   6.6878   0.1541 LP             1 S1                 0.0000
     59 ****         4.4328   4.7975  -0.3481 LP             1 S1                 0.0000
     60 ****         4.6306   1.3874  -1.1914 LP             1 S1                 0.0000
     61 ****         5.5366   2.8190  -0.8310 LP             1 S1                 0.0000
     62 ****         2.4928  -0.1516   1.8466 LP             1 S1                 0.0000
     63 ****         1.7040   1.1511   1.2573 LP             1 S1                 0.0000
     64 ****         0.0873  -0.7861   2.0121 LP             1 S1                 0.0000
     65 ****        -0.1406  -2.1294   3.0814 LP             1 S1                 0.0000
@<TRIPOS>BOND
    1    1    2 2     
    2    2    3 1     
    3    2   28 1     
    4    3    4 1     
    5    4    5 1     
    6    4   34 1     
    7    4   35 1     
    8    5   18 1     
    9    5    6 1     
   10    5   36 1     
   11    6    7 1     
   12    7    8 1     
   13    7   16 1     
   14    7   37 1     
   15    8   14 am    
   16    8    9 1     
   17    9   10 2     
   18    9   38 1     
   19   10   11 1     
   20   10   39 1     
   21   11   12 2     
   22   11   13 1     
   23   13   14 1     
   24   14   15 2     
   25   16   17 1     
   26   16   18 1     
   27   16   40 1     
   28   17   41 1     
   29   18   19 1     
   30   18   42 1     
   31   19   20 1     
   32   20   21 2     
   33   20   22 1     
   34   22   27 ar    
   35   22   23 ar    
   36   23   24 ar    
   37   23   43 1     
   38   24   25 ar    
   39   24   44 1     
   40   25   26 ar    
   41   25   45 1     
   42   26   27 ar    
   43   26   46 1     
   44   27   47 1     
   45   28   33 ar    
   46   28   29 ar    
   47   29   30 ar    
   48   29   48 1     
   49   30   31 ar    
   50   30   49 1     
   51   31   32 ar    
   52   31   50 1     
   53   32   33 ar    
   54   32   51 1     
   55   33   52 1     
   56    1   53 1     
   57    1   54 1     
   58    6   55 1     
   59    6   56 1     
   60   12   57 1     
   61   12   58 1     
   62   13   59 1     
   63   15   60 1     
   64   15   61 1     
   65   17   62 1     
   66   17   63 1     
   67   21   64 1     
   68   21   65 1     
@<TRIPOS>SUBSTRUCTURE
      1 S1             1
@<TRIPOS>SET
LONE_PAIRS      STATIC     ATOMS    <user>   **** ""
13 53 54 55 56 57 58 59 60 61 62 63 64 65
DONOR_HYDROGENS      STATIC     ATOMS    <user>   **** ""
1 41
ATOM$BLUE        STATIC     ATOMS    COLORGROUP SYSTEM
13 53 54 55 56 57 58 59 60 61 62 63 64 65
ATOM$RED        STATIC     ATOMS    COLORGROUP SYSTEM
1 41
