AV-unprocessed.smi:3329|AV-procd|sdf|12797|dock1
  -GOLD-   2272019153D 1   1.00000     0.00000
 Structure written by MMmdl.
 41 42  0  0  0  0  0  0  0  0  1 V2000
  151.6174  145.2891  160.1048 C   0  0  0  0  0  0  0  0  0  0  0  0
  151.8551  143.8856  159.6271 C   0  0  0  0  0  0  0  0  0  0  0  0
  152.5137  142.8262  160.3142 C   0  0  0  0  0  0  0  0  0  0  0  0
  152.5546  141.7047  159.6130 N   0  0  0  0  0  0  0  0  0  0  0  0
  151.9275  142.0082  158.4569 N   0  0  0  0  0  0  0  0  0  0  0  0
  151.7787  140.9957  157.4301 C   0  0  0  0  0  0  0  0  0  0  0  0
  152.4546  139.6772  157.8334 C   0  0  0  0  0  0  0  0  0  0  0  0
  151.8171  139.1558  159.0324 N   0  0  0  0  0  0  0  0  0  0  0  0
  150.4563  138.6981  158.7392 C   0  0  0  0  0  0  0  0  0  0  0  0
  150.1413  137.3965  159.4731 C   0  0  0  0  0  0  0  0  0  0  0  0
  151.0110  136.8517  160.1514 O   0  0  0  0  0  0  0  0  0  0  0  0
  148.8914  136.9222  159.3345 N   0  0  0  0  0  0  0  0  0  0  0  0
  148.3105  135.7164  159.9313 C   0  0  1  0  0  0  0  0  0  0  0  0
  146.8904  135.4972  159.3719 C   0  0  0  0  0  0  0  0  0  0  0  0
  149.1379  134.5744  159.4996 C   0  0  0  0  0  0  0  0  0  0  0  0
  149.7846  133.6760  159.1615 N   0  0  0  0  0  0  0  0  0  0  0  0
  148.2587  135.7583  161.4628 C   0  0  0  0  0  0  0  0  0  0  0  0
  147.4296  134.7936  162.2806 C   0  0  0  0  0  0  0  0  0  0  0  0
  147.0469  136.2563  162.2190 C   0  0  0  0  0  0  0  0  0  0  0  0
  151.4964  143.3172  158.4376 C   0  0  0  0  0  0  0  0  0  0  0  0
  151.8445  145.4009  161.1651 H   0  0  0  0  0  0  0  0  0  0  0  0
  150.5792  145.5915  159.9660 H   0  0  0  0  0  0  0  0  0  0  0  0
  152.2365  146.0067  159.5662 H   0  0  0  0  0  0  0  0  0  0  0  0
  152.9596  142.8390  161.2980 H   0  0  0  0  0  0  0  0  0  0  0  0
  150.7136  140.8386  157.2534 H   0  0  0  0  0  0  0  0  0  0  0  0
  152.2015  141.3774  156.4994 H   0  0  0  0  0  0  0  0  0  0  0  0
  152.3722  138.9495  157.0245 H   0  0  0  0  0  0  0  0  0  0  0  0
  153.5167  139.8437  158.0197 H   0  0  0  0  0  0  0  0  0  0  0  0
  151.8201  139.8705  159.7462 H   0  0  0  0  0  0  0  0  0  0  0  0
  149.7373  139.4706  159.0189 H   0  0  0  0  0  0  0  0  0  0  0  0
  150.3446  138.5265  157.6675 H   0  0  0  0  0  0  0  0  0  0  0  0
  148.2670  137.4592  158.7500 H   0  0  0  0  0  0  0  0  0  0  0  0
  146.4754  134.5507  159.7200 H   0  0  0  0  0  0  0  0  0  0  0  0
  146.8933  135.4694  158.2816 H   0  0  0  0  0  0  0  0  0  0  0  0
  146.2011  136.2831  159.6817 H   0  0  0  0  0  0  0  0  0  0  0  0
  149.2061  136.0454  161.9139 H   0  0  0  0  0  0  0  0  0  0  0  0
  146.7933  134.0844  161.7555 H   0  0  0  0  0  0  0  0  0  0  0  0
  147.8625  134.4268  163.2089 H   0  0  0  0  0  0  0  0  0  0  0  0
  147.2270  136.8608  163.1057 H   0  0  0  0  0  0  0  0  0  0  0  0
  146.1552  136.5197  161.6541 H   0  0  0  0  0  0  0  0  0  0  0  0
  150.9734  143.7312  157.5883 H   0  0  0  0  0  0  0  0  0  0  0  0
  1  2  1  0  0  0  0
  1 21  1  0  0  0  0
  1 22  1  0  0  0  0
  1 23  1  0  0  0  0
  2 20  2  0  0  0  0
  2  3  1  0  0  0  0
  3  4  2  0  0  0  0
  3 24  1  0  0  0  0
  4  5  1  0  0  0  0
  5  6  1  0  0  0  0
  5 20  1  0  0  0  0
  6  7  1  0  0  0  0
  6 25  1  0  0  0  0
  6 26  1  0  0  0  0
  7  8  1  0  0  0  0
  7 27  1  0  0  0  0
  7 28  1  0  0  0  0
  8  9  1  0  0  0  0
  8 29  1  0  0  0  0
  9 10  1  0  0  0  0
  9 30  1  0  0  0  0
  9 31  1  0  0  0  0
 10 11  2  0  0  0  0
 10 12  1  0  0  0  0
 12 13  1  0  0  0  0
 12 32  1  0  0  0  0
 13 14  1  0  0  0  0
 13 15  1  0  0  0  0
 13 17  1  0  0  0  0
 14 33  1  0  0  0  0
 14 34  1  0  0  0  0
 14 35  1  0  0  0  0
 15 16  3  0  0  0  0
 17 19  1  0  0  0  0
 17 18  1  0  0  0  0
 17 36  1  0  0  0  0
 18 19  1  0  0  0  0
 18 37  1  0  0  0  0
 18 38  1  0  0  0  0
 19 39  1  0  0  0  0
 19 40  1  0  0  0  0
 20 41  1  0  0  0  0
M  END
> <s_m_source_file>
AV-unprocessed.smi

> <i_m_source_file_index>
3329

> <i_lp_mmshare_version>
43012

> <i_f3d_flags>
0

> <s_epik_input>
W0NIM11jMVtjSF1ubihbY0hdMSlbQ0gyXVtDSDJdW05IXVtDSDJdQyg9TylbTkhdW0NAQF0oW0NIM10pKEMjTilbQ0hdMltDSDJdW0NIMl0y

> <s_epik_cmdline>
J2VwaWtfcHl0aG9uJywgJy1waCcsICc3LjAnLCAnLXRuJywgJzgnLCAnLW1hJywgJzIwMCcsICctbWV0YWxfYmluZGluZycsICctaW1hZScsICc8aW5maWxlLm1hZT4nLCAnLW9tYWUnLCAnPG91dGZpbGUubWFlPic=

> <r_lp_tautomer_probability>
1

> <r_epik_Ionization_Penalty>
0.481866

> <r_epik_Ionization_Penalty_Charging>
0

> <r_epik_Ionization_Penalty_Neutral>
0.481866

> <r_epik_State_Penalty>
0.48398

> <r_epik_Charging_Adjusted_Penalty>
0.48398

> <i_epik_Tot_Q>
0

> <i_epik_Tot_abs_Q>
0

> <r_epik_Metal_State_Penalty>
0.5042

> <b_epik_Metal_Only>
0

> <s_lp_Force_Field>
OPLS_2005

> <r_lp_Energy>
12.8497

> <b_lp_Chiralities_Consistent>
1

> <s_lp_Variant>
AV-unprocessed.smi:3329-3

> <Gold.Version>
5.8.1

> <Gold.Id.Protein>
6NUR|6NUR_protein|mol2

> <Gold.PLP.Fitness>
47.2721

> <Gold.PLP.PLP>
-39.5830

> <Gold.PLP.part.hbond>
-2.0000

> <Gold.PLP.part.metal>
0.0000

> <Gold.PLP.part.buried>
-5.5509

> <Gold.PLP.part.nonpolar>
-33.2199

> <Gold.PLP.part.repulsive>
0.1901

> <Gold.PLP.ligand.clash>
0.0000

> <Gold.PLP.ligand.torsion>
1.1361

> <Gold.PLP.Chemscore.Hbond>
1.7605

> <Gold.PLP.Chemscore.CHOScore>
1.0000

> <Gold.PLP.Chemscore.Metal>
0.0000

> <Gold.Chemscore.Hbonds>
donor molecule, donor type, donor heavy atom, donor atom, acceptor molecule, acceptor atom, score
      P1  H  6896  6907       L1    11  1.00

> <Gold.PLP.Chemscore.Internal.Correction>
1.6799

> <Gold.Rescore>
     Score         DG    S(hbond)    S(metal)    S(lipo)     H(rot)  DE(clash)    DE(int)     intcor
     14.43     -15.69       1.43        0.00      97.02       2.31       0.09       1.18       ----

> <Gold.Chemscore.Fitness>
14.4273

> <Gold.Chemscore.DG>
-15.6949

> <Gold.Chemscore.ZeroCoef>
-5.4800

> <Gold.Chemscore.Hbond>
1.4326

> <Gold.Chemscore.Metal>
0.0000

> <Gold.Chemscore.Lipo>
97.0186

> <Gold.Chemscore.Internal_Hbond>
0.0000

> <Gold.Chemscore.DEClash>
0.0908

> <Gold.Chemscore.DEInternal>
1.1768

> <Gold.Chemscore.Rot>
2.3129

> <Gold.Chemscore.Internal.Correction>
   9.000000E+99

> <Gold.Chemscore.Hbonds>
donor molecule, donor type, donor heavy atom, donor atom, acceptor molecule, acceptor atom, score
      P1  H  6896  6907       L1    11  1.00

> <Gold.Chemscore.Hbond.Weighted>
-4.7849

> <Gold.Chemscore.Metal.Weighted>
-0.0000

> <Gold.Chemscore.Lipo.Weighted>
-11.3512

> <Gold.Chemscore.Internal_Hbond.Weighted>
0.0000

> <Gold.Chemscore.DEClash.Weighted>
0.0908

> <Gold.Chemscore.DEInternal.Weighted>
1.1768

> <Gold.Chemscore.Rot.Weighted>
5.9211

> <Gold.Chemscore.Internal.Correction.Weighted>
   9.000000E+99

> <Gold.Protein.RotatedTorsions>
[ 6907 6896 6895 6894 ] final   -0.47 input  -60.11 | X-H torsion
[ 7974 7965 7964 7962 ] final    5.30 input  175.53 | X-H torsion
[ 8008 7997 7996 7995 ] final  -50.74 input   59.86 | X-H torsion
[ 10167 10162 10161 10158 ] final   16.96 input  -65.29 | X-H torsion
[ 10718 10713 10712 10709 ] final  104.76 input   66.30 | X-H torsion
[ 10763 10752 10751 10750 ] final   77.72 input  -60.55 | X-H torsion
[ 11005 11000 10999 10996 ] final   55.45 input  -57.11 | X-H torsion

> <Gold.Protein.ActiveResidues>
 VAL166  LYS551  ARG553  GLY616  TRP617  ASP618  TYR619  PRO620  LYS621  CYS622 
 ASP623  PHE694  ASN695  SER759  ASP760  ASP761  ALA762  ILE779  LEU786  VAL792 
 PHE793  MET794  SER795  GLU796  ALA797  LYS798  CYS799  TRP800  GLU811  SER814 

> <Gold.Protein.RotatedAtoms>
  151.5618  135.1065  159.9974 H   0  0  0  0  0  0  0  0  0  0  0  0  # atno 6907 bound_to 6896
  152.4443  133.7502  159.6700 H   0  0  0  0  0  0  0  0  0  0  0  0  # atno 6908 bound_to 6896
  150.8355  133.7953  159.3105 H   0  0  0  0  0  0  0  0  0  0  0  0  # atno 6909 bound_to 6896
  146.2441  140.0404  142.8382 H   0  0  0  0  0  0  0  0  0  0  0  0  # atno 7974 bound_to 7965
  154.4068  140.1265  156.4715 H   0  0  0  0  0  0  0  0  0  0  0  0  # atno 8008 bound_to 7997
  155.7174  140.3493  155.4981 H   0  0  0  0  0  0  0  0  0  0  0  0  # atno 8009 bound_to 7997
  155.9245  140.1058  157.1171 H   0  0  0  0  0  0  0  0  0  0  0  0  # atno 8010 bound_to 7997
  140.5760  143.9071  150.6751 H   0  0  0  0  0  0  0  0  0  0  0  0  # atno 10167 bound_to 10162
  157.6729  131.0811  150.5755 H   0  0  0  0  0  0  0  0  0  0  0  0  # atno 10718 bound_to 10713
  153.0820  135.4903  154.8521 H   0  0  0  0  0  0  0  0  0  0  0  0  # atno 10763 bound_to 10752
  154.7162  135.3030  154.9121 H   0  0  0  0  0  0  0  0  0  0  0  0  # atno 10764 bound_to 10752
  153.9800  135.6791  153.4803 H   0  0  0  0  0  0  0  0  0  0  0  0  # atno 10765 bound_to 10752
  140.0606  134.5608  155.9157 H   0  0  0  0  0  0  0  0  0  0  0  0  # atno 11005 bound_to 11000
  145.1074  140.9384  143.4676 LP  0  0  0  0  0  0  0  0  0  0  0  0  # atno 17320 bound_to 7965
  145.0610  139.3105  143.5880 LP  0  0  0  0  0  0  0  0  0  0  0  0  # atno 17321 bound_to 7965
  140.2558  143.3560  152.1366 LP  0  0  0  0  0  0  0  0  0  0  0  0  # atno 17342 bound_to 10162
  139.5143  144.6946  151.5666 LP  0  0  0  0  0  0  0  0  0  0  0  0  # atno 17343 bound_to 10162
  156.6056  130.4366  149.5879 LP  0  0  0  0  0  0  0  0  0  0  0  0  # atno 17370 bound_to 10713
  156.2471  130.6885  151.1610 LP  0  0  0  0  0  0  0  0  0  0  0  0  # atno 17371 bound_to 10713
  141.1971  133.6595  156.5726 LP  0  0  0  0  0  0  0  0  0  0  0  0  # atno 17394 bound_to 11000
  140.3776  134.7551  157.4640 LP  0  0  0  0  0  0  0  0  0  0  0  0  # atno 17395 bound_to 11000

$$$$
