#       Name:                AV-unprocessed.smi:201
#       Creating user name   scv26
#       Creation time:       Thu Mar 26 19:46:44 2020


#       File generated by GOLD software.
#

@<TRIPOS>MOLECULE
AV-unprocessed.smi:201
    71    73     1
SMALL
NO_CHARGES


@<TRIPOS>ATOM
      1 ****        -0.7832   5.1715   1.4597 C.3            1 S1                 0.0000
      2 ****        -1.2130   3.7202   1.1729 C.3            1 S1                 0.0000
      3 ****        -2.6661   3.5311   1.6613 C.3            1 S1                 0.0000
      4 ****        -0.2867   2.7440   1.7736 N.3            1 S1                 0.0000
      5 ****         1.1610   2.8962   1.6002 C.3            1 S1                 0.0000
      6 ****         1.6275   2.7350   0.1388 C.3            1 S1                 0.0000
      7 ****         3.0145   3.0103   0.0044 O.3            1 S1                 0.0000
      8 ****         3.8641   1.9622   0.4497 C.3            1 S1                 0.0000
      9 ****         5.3217   2.3632   0.1952 C.3            1 S1                 0.0000
     10 ****         5.7781   3.2086   1.2293 O.3            1 S1                 0.0000
     11 ****        -0.6504   1.4375   1.7679 C.ar           1 S1                 0.0000
     12 ****        -0.4655   0.7395   2.9168 N.ar           1 S1                 0.0000
     13 ****        -0.7919  -0.5547   2.9764 C.ar           1 S1                 0.0000
     14 ****        -1.2996  -1.3324   2.0183 N.ar           1 S1                 0.0000
     15 ****        -1.4746  -0.6386   0.8571 C.ar           1 S1                 0.0000
     16 ****        -1.1810   0.7380   0.6450 C.ar           1 S1                 0.0000
     17 ****        -1.4875   1.0877  -0.6649 N.2            1 S1                 0.0000
     18 ****        -1.9475  -0.0137  -1.1914 C.2            1 S1                 0.0000
     19 ****        -1.9567  -1.1059  -0.3537 N.pl3          1 S1                 0.0000
     20 ****        -2.4141  -2.4506  -0.6742 C.3            1 S1                 0.0000
     21 ****        -1.3448  -3.3983  -1.3013 C.3            1 S1                 0.0000
     22 ****        -1.9872  -4.8095  -1.4249 C.3            1 S1                 0.0000
     23 ****        -3.1211  -4.8149  -2.2701 O.3            1 S1                 0.0000
     24 ****        -0.8654  -2.8737  -2.6802 C.3            1 S1                 0.0000
     25 ****         0.3208  -3.6794  -3.2406 C.3            1 S1                 0.0000
     26 ****         1.4012  -3.6546  -2.3159 O.3            1 S1                 0.0000
     27 ****         1.0775  -4.2474  -1.0641 C.3            1 S1                 0.0000
     28 ****        -0.0836  -3.4816  -0.4015 C.3            1 S1                 0.0000
     29 ****        -1.5057   5.8809   1.0549 H              1 S1                 0.0000
     30 ****         0.1760   5.4101   1.0005 H              1 S1                 0.0000
     31 ****        -0.7018   5.3577   2.5312 H              1 S1                 0.0000
     32 ****        -1.1992   3.5867   0.0916 H              1 S1                 0.0000
     33 ****        -3.3225   4.2915   1.2376 H              1 S1                 0.0000
     34 ****        -2.7298   3.6099   2.7470 H              1 S1                 0.0000
     35 ****        -3.0829   2.5664   1.3737 H              1 S1                 0.0000
     36 ****         1.4684   3.8701   1.9790 H              1 S1                 0.0000
     37 ****         1.6730   2.1737   2.2361 H              1 S1                 0.0000
     38 ****         1.3960   1.7429  -0.2510 H              1 S1                 0.0000
     39 ****         1.0986   3.4473  -0.4943 H              1 S1                 0.0000
     40 ****         3.7079   1.7213   1.5016 H              1 S1                 0.0000
     41 ****         3.6381   1.0624  -0.1246 H              1 S1                 0.0000
     42 ****         5.9542   1.4750   0.1921 H              1 S1                 0.0000
     43 ****         5.4381   2.8479  -0.7746 H              1 S1                 0.0000
     44 ****         5.2488   3.9917   1.2289 H              1 S1                 0.0000
     45 ****        -0.6200  -1.0366   3.9276 H              1 S1                 0.0000
     46 ****        -2.2881  -0.0622  -2.2156 H              1 S1                 0.0000
     47 ****        -2.8061  -2.8922   0.2430 H              1 S1                 0.0000
     48 ****        -3.2699  -2.3514  -1.3431 H              1 S1                 0.0000
     49 ****        -1.2890  -5.5482  -1.8139 H              1 S1                 0.0000
     50 ****        -2.2943  -5.1721  -0.4433 H              1 S1                 0.0000
     51 ****        -3.4755  -5.6908  -2.2915 H              1 S1                 0.0000
     52 ****        -1.6852  -2.8656  -3.3989 H              1 S1                 0.0000
     53 ****        -0.5353  -1.8396  -2.5918 H              1 S1                 0.0000
     54 ****         0.0397  -4.7075  -3.4696 H              1 S1                 0.0000
     55 ****         0.6582  -3.2351  -4.1772 H              1 S1                 0.0000
     56 ****         0.8473  -5.3046  -1.1946 H              1 S1                 0.0000
     57 ****         1.9588  -4.2030  -0.4239 H              1 S1                 0.0000
     58 ****         0.2878  -2.4822  -0.1780 H              1 S1                 0.0000
     59 ****        -0.3307  -3.9348   0.5590 H              1 S1                 0.0000
     60 ****        -0.4453   3.0882   2.6990 LP             1 S1                 0.0000
     61 ****         3.2240   3.8308   0.5363 LP             1 S1                 0.0000
     62 ****         3.2077   3.1811  -0.9618 LP             1 S1                 0.0000
     63 ****         6.7361   3.4482   1.0719 LP             1 S1                 0.0000
     64 ****         5.6914   2.7426   2.1098 LP             1 S1                 0.0000
     65 ****        -0.0839   1.1951   3.7210 LP             1 S1                 0.0000
     66 ****        -1.5232  -2.2999   2.1365 LP             1 S1                 0.0000
     67 ****        -1.3800   1.9799  -1.1036 LP             1 S1                 0.0000
     68 ****        -2.8552  -4.5361  -3.1929 LP             1 S1                 0.0000
     69 ****        -3.8089  -4.1814  -1.9157 LP             1 S1                 0.0000
     70 ****         1.6640  -2.7026  -2.1589 LP             1 S1                 0.0000
     71 ****         2.1722  -4.1519  -2.7138 LP             1 S1                 0.0000
@<TRIPOS>BOND
    1    1    2 1     
    2    1   29 1     
    3    1   30 1     
    4    1   31 1     
    5    2    3 1     
    6    2    4 1     
    7    2   32 1     
    8    3   33 1     
    9    3   34 1     
   10    3   35 1     
   11    4    5 1     
   12    4   11 1     
   13    5    6 1     
   14    5   36 1     
   15    5   37 1     
   16    6    7 1     
   17    6   38 1     
   18    6   39 1     
   19    7    8 1     
   20    8    9 1     
   21    8   40 1     
   22    8   41 1     
   23    9   10 1     
   24    9   42 1     
   25    9   43 1     
   26   10   44 1     
   27   11   16 ar    
   28   11   12 ar    
   29   12   13 ar    
   30   13   14 ar    
   31   13   45 1     
   32   14   15 ar    
   33   15   19 1     
   34   15   16 ar    
   35   16   17 1     
   36   17   18 2     
   37   18   19 1     
   38   18   46 1     
   39   19   20 1     
   40   20   21 1     
   41   20   47 1     
   42   20   48 1     
   43   21   28 1     
   44   21   22 1     
   45   21   24 1     
   46   22   23 1     
   47   22   49 1     
   48   22   50 1     
   49   23   51 1     
   50   24   25 1     
   51   24   52 1     
   52   24   53 1     
   53   25   26 1     
   54   25   54 1     
   55   25   55 1     
   56   26   27 1     
   57   27   28 1     
   58   27   56 1     
   59   27   57 1     
   60   28   58 1     
   61   28   59 1     
   62    4   60 1     
   63    7   61 1     
   64    7   62 1     
   65   10   63 1     
   66   10   64 1     
   67   12   65 1     
   68   14   66 1     
   69   17   67 1     
   70   23   68 1     
   71   23   69 1     
   72   26   70 1     
   73   26   71 1     
@<TRIPOS>SUBSTRUCTURE
      1 S1             1
@<TRIPOS>SET
LONE_PAIRS      STATIC     ATOMS    <user>   **** ""
12 60 61 62 63 64 65 66 67 68 69 70 71
DONOR_HYDROGENS      STATIC     ATOMS    <user>   **** ""
2 44 51
ATOM$BLUE        STATIC     ATOMS    COLORGROUP SYSTEM
12 60 61 62 63 64 65 66 67 68 69 70 71
ATOM$RED        STATIC     ATOMS    COLORGROUP SYSTEM
2 44 51
