AV-unprocessed.smi:738|AV-procd|sdf|3540|dock3
  -GOLD-   22720 0533D 1   1.00000     0.00000
 Structure written by MMmdl.
 35 37  0  0  0  0  0  0  0  0  1 V2000
  147.7257  140.3419  152.5518 N   0  0  0  0  0  0  0  0  0  0  0  0
  147.5108  140.9395  153.7278 C   0  0  0  0  0  0  0  0  0  0  0  0
  146.4386  141.4705  154.0110 O   0  0  0  0  0  0  0  0  0  0  0  0
  148.6786  140.9896  154.6700 C   0  0  0  0  0  0  0  0  0  0  0  0
  148.6743  141.8717  155.7727 C   0  0  0  0  0  0  0  0  0  0  0  0
  149.6817  141.9522  156.6674 N   0  0  0  0  0  0  0  0  0  0  0  0
  150.7529  141.1377  156.5113 C   0  0  0  0  0  0  0  0  0  0  0  0
  151.7953  141.2338  157.4482 N   0  0  0  0  0  0  0  0  0  0  0  0
  151.9923  140.0013  158.2126 C   0  0  0  0  0  0  0  0  0  0  0  0
  153.1803  140.1362  159.1969 C   0  0  0  0  0  0  0  0  0  0  0  0
  153.0397  141.2993  160.0194 O   0  0  0  0  0  0  0  0  0  0  0  0
  152.9477  142.4608  159.2060 C   0  0  2  0  0  0  0  0  0  0  0  0
  152.7556  143.7895  159.9320 C   0  0  0  0  0  0  0  0  0  0  0  0
  152.0711  144.6923  158.8830 C   0  0  0  0  0  0  0  0  0  0  0  0
  151.5986  143.7643  157.7444 C   0  0  0  0  0  0  0  0  0  0  0  0
  151.6877  142.3660  158.3589 C   0  0  1  0  0  0  0  0  0  0  0  0
  150.8489  140.2103  155.4478 C   0  0  0  0  0  0  0  0  0  0  0  0
  152.2250  139.1795  155.2675 Cl  0  0  0  0  0  0  0  0  0  0  0  0
  149.7934  140.1349  154.5184 C   0  0  0  0  0  0  0  0  0  0  0  0
  146.9770  140.2844  151.8767 H   0  0  0  0  0  0  0  0  0  0  0  0
  148.6333  139.9554  152.3381 H   0  0  0  0  0  0  0  0  0  0  0  0
  147.8433  142.5398  155.9459 H   0  0  0  0  0  0  0  0  0  0  0  0
  151.0855  139.7695  158.7733 H   0  0  0  0  0  0  0  0  0  0  0  0
  152.1662  139.1690  157.5294 H   0  0  0  0  0  0  0  0  0  0  0  0
  153.2378  139.2554  159.8363 H   0  0  0  0  0  0  0  0  0  0  0  0
  154.1229  140.1871  158.6495 H   0  0  0  0  0  0  0  0  0  0  0  0
  153.8323  142.5370  158.5689 H   0  0  0  0  0  0  0  0  0  0  0  0
  152.0942  143.6530  160.7886 H   0  0  0  0  0  0  0  0  0  0  0  0
  153.6952  144.2038  160.2984 H   0  0  0  0  0  0  0  0  0  0  0  0
  151.2309  145.2233  159.3318 H   0  0  0  0  0  0  0  0  0  0  0  0
  152.7621  145.4428  158.4980 H   0  0  0  0  0  0  0  0  0  0  0  0
  150.5940  144.0052  157.3959 H   0  0  0  0  0  0  0  0  0  0  0  0
  152.2776  143.8480  156.8942 H   0  0  0  0  0  0  0  0  0  0  0  0
  150.8287  142.2155  159.0163 H   0  0  0  0  0  0  0  0  0  0  0  0
  149.8472  139.4255  153.7056 H   0  0  0  0  0  0  0  0  0  0  0  0
  1  2  1  0  0  0  0
  1 20  1  0  0  0  0
  1 21  1  0  0  0  0
  2  3  2  0  0  0  0
  2  4  1  0  0  0  0
  4 19  1  0  0  0  0
  4  5  2  0  0  0  0
  5  6  1  0  0  0  0
  5 22  1  0  0  0  0
  6  7  2  0  0  0  0
  7  8  1  0  0  0  0
  7 17  1  0  0  0  0
  8 16  1  0  0  0  0
  8  9  1  0  0  0  0
  9 10  1  0  0  0  0
  9 23  1  0  0  0  0
  9 24  1  0  0  0  0
 10 11  1  0  0  0  0
 10 25  1  0  0  0  0
 10 26  1  0  0  0  0
 11 12  1  0  0  0  0
 12 16  1  0  0  0  0
 12 13  1  0  0  0  0
 12 27  1  0  0  0  0
 13 14  1  0  0  0  0
 13 28  1  0  0  0  0
 13 29  1  0  0  0  0
 14 15  1  0  0  0  0
 14 30  1  0  0  0  0
 14 31  1  0  0  0  0
 15 16  1  0  0  0  0
 15 32  1  0  0  0  0
 15 33  1  0  0  0  0
 16 34  1  0  0  0  0
 17 18  1  0  0  0  0
 17 19  2  0  0  0  0
 19 35  1  0  0  0  0
M  END
> <s_m_source_file>
AV-unprocessed.smi

> <i_m_source_file_index>
738

> <i_lp_mmshare_version>
43012

> <i_f3d_flags>
0

> <s_epik_input>
W05IMl1DKD1PKWMxW2NIXW5jKGMoQ2wpW2NIXTEpTihbQ0gyXVtDSDJdTzIpW0NASF0oW0NASF0yMylbQ0gyXVtDSDJdW0NIMl0z

> <s_epik_cmdline>
J2VwaWtfcHl0aG9uJywgJy1waCcsICc3LjAnLCAnLXRuJywgJzgnLCAnLW1hJywgJzIwMCcsICctbWV0YWxfYmluZGluZycsICctaW1hZScsICc8aW5maWxlLm1hZT4nLCAnLW9tYWUnLCAnPG91dGZpbGUubWFlPic=

> <r_lp_tautomer_probability>
1

> <r_epik_Ionization_Penalty>
6.75978e-06

> <r_epik_Ionization_Penalty_Charging>
0

> <r_epik_Ionization_Penalty_Neutral>
6.75978e-06

> <r_epik_State_Penalty>
-0

> <r_epik_Charging_Adjusted_Penalty>
0

> <i_epik_Tot_Q>
0

> <i_epik_Tot_abs_Q>
0

> <r_epik_Metal_State_Penalty>
-0

> <b_epik_Metal_Only>
0

> <s_lp_Force_Field>
OPLS_2005

> <r_lp_Energy>
40.6009

> <b_lp_Chiralities_Consistent>
1

> <s_lp_Variant>
AV-unprocessed.smi:738-3

> <Gold.Version>
5.8.1

> <Gold.Id.Protein>
6NUR|6NUR_protein|mol2

> <Gold.PLP.Fitness>
42.4693

> <Gold.PLP.PLP>
-39.4463

> <Gold.PLP.part.hbond>
-0.4790

> <Gold.PLP.part.metal>
0.0000

> <Gold.PLP.part.buried>
-2.3233

> <Gold.PLP.part.nonpolar>
-36.7704

> <Gold.PLP.part.repulsive>
0.7322

> <Gold.PLP.ligand.clash>
0.0000

> <Gold.PLP.ligand.torsion>
0.2076

> <Gold.PLP.Chemscore.Hbond>
0.6720

> <Gold.PLP.Chemscore.CHOScore>
0.4579

> <Gold.PLP.Chemscore.Metal>
0.0000

> <Gold.Chemscore.Hbonds>
donor molecule, donor type, donor heavy atom, donor atom, acceptor molecule, acceptor atom, score
      L1  H     1    21       P1  7957  0.68
      L1  C     5    22       P1  8028  0.46

> <Gold.PLP.Chemscore.Internal.Correction>
0.0484

> <Gold.Rescore>
     Score         DG    S(hbond)    S(metal)    S(lipo)     H(rot)  DE(clash)    DE(int)     intcor
     16.48     -18.19       0.92        0.00     104.18       1.00       0.04       1.67       ----

> <Gold.Chemscore.Fitness>
16.4799

> <Gold.Chemscore.DG>
-18.1883

> <Gold.Chemscore.ZeroCoef>
-5.4800

> <Gold.Chemscore.Hbond>
0.9221

> <Gold.Chemscore.Metal>
0.0000

> <Gold.Chemscore.Lipo>
104.1762

> <Gold.Chemscore.Internal_Hbond>
0.0000

> <Gold.Chemscore.DEClash>
0.0400

> <Gold.Chemscore.DEInternal>
1.6683

> <Gold.Chemscore.Rot>
1.0000

> <Gold.Chemscore.Internal.Correction>
   9.000000E+99

> <Gold.Chemscore.Hbonds>
donor molecule, donor type, donor heavy atom, donor atom, acceptor molecule, acceptor atom, score
      L1  H     1    21       P1  7957  0.65

> <Gold.Chemscore.Hbond.Weighted>
-3.0797

> <Gold.Chemscore.Metal.Weighted>
-0.0000

> <Gold.Chemscore.Lipo.Weighted>
-12.1886

> <Gold.Chemscore.Internal_Hbond.Weighted>
0.0000

> <Gold.Chemscore.DEClash.Weighted>
0.0400

> <Gold.Chemscore.DEInternal.Weighted>
1.6683

> <Gold.Chemscore.Rot.Weighted>
2.5600

> <Gold.Chemscore.Internal.Correction.Weighted>
   9.000000E+99

> <Gold.Protein.RotatedTorsions>
[ 6907 6896 6895 6894 ] final   73.85 input  -60.11 | X-H torsion
[ 7974 7965 7964 7962 ] final  149.56 input  175.53 | X-H torsion
[ 8008 7997 7996 7995 ] final   60.86 input   59.86 | X-H torsion
[ 10167 10162 10161 10158 ] final  -64.06 input  -65.29 | X-H torsion
[ 10718 10713 10712 10709 ] final -127.73 input   66.30 | X-H torsion
[ 10763 10752 10751 10750 ] final  -90.51 input  -60.55 | X-H torsion
[ 11005 11000 10999 10996 ] final   98.86 input  -57.11 | X-H torsion

> <Gold.Protein.ActiveResidues>
 VAL166  LYS551  ARG553  GLY616  TRP617  ASP618  TYR619  PRO620  LYS621  CYS622 
 ASP623  PHE694  ASN695  SER759  ASP760  ASP761  ALA762  ILE779  LEU786  VAL792 
 PHE793  MET794  SER795  GLU796  ALA797  LYS798  CYS799  TRP800  GLU811  SER814 

> <Gold.Protein.RotatedAtoms>
  152.4945  134.4359  159.9527 H   0  0  0  0  0  0  0  0  0  0  0  0  # atno 6907 bound_to 6896
  151.4340  133.3656  159.2780 H   0  0  0  0  0  0  0  0  0  0  0  0  # atno 6908 bound_to 6896
  150.9134  134.8575  159.7500 H   0  0  0  0  0  0  0  0  0  0  0  0  # atno 6909 bound_to 6896
  144.8429  139.6296  143.6008 H   0  0  0  0  0  0  0  0  0  0  0  0  # atno 7974 bound_to 7965
  155.5891  140.3492  155.4561 H   0  0  0  0  0  0  0  0  0  0  0  0  # atno 8008 bound_to 7997
  156.0315  140.1275  157.0278 H   0  0  0  0  0  0  0  0  0  0  0  0  # atno 8009 bound_to 7997
  154.4354  140.1042  156.6092 H   0  0  0  0  0  0  0  0  0  0  0  0  # atno 8010 bound_to 7997
  140.5827  143.2329  151.6308 H   0  0  0  0  0  0  0  0  0  0  0  0  # atno 10167 bound_to 10162
  156.1884  130.6779  151.0393 H   0  0  0  0  0  0  0  0  0  0  0  0  # atno 10718 bound_to 10713
  154.6665  135.5302  153.8084 H   0  0  0  0  0  0  0  0  0  0  0  0  # atno 10763 bound_to 10752
  153.0474  135.6518  154.0791 H   0  0  0  0  0  0  0  0  0  0  0  0  # atno 10764 bound_to 10752
  154.0695  135.2955  155.3290 H   0  0  0  0  0  0  0  0  0  0  0  0  # atno 10765 bound_to 10752
  139.8771  134.9069  156.4519 H   0  0  0  0  0  0  0  0  0  0  0  0  # atno 11005 bound_to 11000
  146.2718  139.6655  142.9290 LP  0  0  0  0  0  0  0  0  0  0  0  0  # atno 17320 bound_to 7965
  145.4657  141.0434  143.2726 LP  0  0  0  0  0  0  0  0  0  0  0  0  # atno 17321 bound_to 7965
  139.5179  144.3300  152.0835 LP  0  0  0  0  0  0  0  0  0  0  0  0  # atno 17342 bound_to 10162
  140.2452  144.4227  150.6243 LP  0  0  0  0  0  0  0  0  0  0  0  0  # atno 17343 bound_to 10162
  157.6913  131.0809  150.7098 LP  0  0  0  0  0  0  0  0  0  0  0  0  # atno 17370 bound_to 10713
  156.7154  130.4664  149.5536 LP  0  0  0  0  0  0  0  0  0  0  0  0  # atno 17371 bound_to 10713
  140.8925  133.7837  155.9588 LP  0  0  0  0  0  0  0  0  0  0  0  0  # atno 17394 bound_to 11000
  140.8738  134.2694  157.5178 LP  0  0  0  0  0  0  0  0  0  0  0  0  # atno 17395 bound_to 11000

$$$$
