AV-unprocessed.smi:2027|AV-procd|sdf|8209|dock6
  -GOLD-   2272010473D 1   1.00000     0.00000
 Structure written by MMmdl.
 49 51  0  0  0  0  0  0  0  0  1 V2000
  153.0871  142.9036  161.3006 C   0  0  0  0  0  0  0  0  0  0  0  0
  152.4644  142.5619  159.9586 C   0  0  0  0  0  0  0  0  0  0  0  0
  152.8422  141.3638  159.3112 C   0  0  0  0  0  0  0  0  0  0  0  0
  152.2825  141.0060  158.0652 C   0  0  0  0  0  0  0  0  0  0  0  0
  152.5018  139.8964  157.2669 N   0  0  0  0  0  0  0  0  0  0  0  0
  151.6823  140.1343  156.2467 C   0  0  0  0  0  0  0  0  0  0  0  0
  150.9561  141.2678  156.2902 N   0  0  0  0  0  0  0  0  0  0  0  0
  149.9946  141.7340  155.3058 C   0  0  0  0  0  0  0  0  0  0  0  0
  149.1718  140.5774  154.7087 C   0  0  2  0  0  0  0  0  0  0  0  0
  149.9461  139.9120  153.7289 O   0  0  0  0  0  0  0  0  0  0  0  0
  147.8643  141.0709  154.0539 C   0  0  0  0  0  0  0  0  0  0  0  0
  146.8904  141.7328  154.9377 N   0  0  0  0  0  0  0  0  0  0  0  0
  145.8282  140.7933  155.2794 C   0  0  0  0  0  0  0  0  0  0  0  0
  146.2872  142.9407  154.3560 C   0  0  0  0  0  0  0  0  0  0  0  0
  145.2205  143.5922  155.1941 C   0  0  0  0  0  0  0  0  0  0  0  0
  143.8637  143.8312  154.8338 C   0  0  0  0  0  0  0  0  0  0  0  0
  143.1783  144.4429  155.7849 N   0  0  0  0  0  0  0  0  0  0  0  0
  144.0677  144.6122  156.7839 N   0  0  0  0  0  0  0  0  0  0  0  0
  143.6553  145.2853  157.9963 C   0  0  0  0  0  0  0  0  0  0  0  0
  145.3020  144.0874  156.4661 C   0  0  0  0  0  0  0  0  0  0  0  0
  151.3267  141.8866  157.4796 C   0  0  0  0  0  0  0  0  0  0  0  0
  150.9480  143.0846  158.1108 C   0  0  0  0  0  0  0  0  0  0  0  0
  151.5167  143.4272  159.3551 C   0  0  0  0  0  0  0  0  0  0  0  0
  151.0956  144.7206  160.0297 C   0  0  0  0  0  0  0  0  0  0  0  0
  153.7270  142.0970  161.6597 H   0  0  0  0  0  0  0  0  0  0  0  0
  152.3137  143.0747  162.0499 H   0  0  0  0  0  0  0  0  0  0  0  0
  153.6963  143.8040  161.2185 H   0  0  0  0  0  0  0  0  0  0  0  0
  153.5656  140.7053  159.7691 H   0  0  0  0  0  0  0  0  0  0  0  0
  151.6004  139.4408  155.4224 H   0  0  0  0  0  0  0  0  0  0  0  0
  149.3347  142.4522  155.7940 H   0  0  0  0  0  0  0  0  0  0  0  0
  150.5245  142.2761  154.5210 H   0  0  0  0  0  0  0  0  0  0  0  0
  148.9736  139.8791  155.5136 H   0  0  0  0  0  0  0  0  0  0  0  0
  149.5248  140.0178  152.8898 H   0  0  0  0  0  0  0  0  0  0  0  0
  148.1034  141.7401  153.2260 H   0  0  0  0  0  0  0  0  0  0  0  0
  147.3987  140.2000  153.5893 H   0  0  0  0  0  0  0  0  0  0  0  0
  145.1168  141.2437  155.9728 H   0  0  0  0  0  0  0  0  0  0  0  0
  146.2345  139.9056  155.7653 H   0  0  0  0  0  0  0  0  0  0  0  0
  145.2819  140.4748  154.3904 H   0  0  0  0  0  0  0  0  0  0  0  0
  147.0752  143.6568  154.1175 H   0  0  0  0  0  0  0  0  0  0  0  0
  145.8458  142.6809  153.3929 H   0  0  0  0  0  0  0  0  0  0  0  0
  143.3629  143.5906  153.9076 H   0  0  0  0  0  0  0  0  0  0  0  0
  144.5033  145.3880  158.6740 H   0  0  0  0  0  0  0  0  0  0  0  0
  142.8722  144.7094  158.4902 H   0  0  0  0  0  0  0  0  0  0  0  0
  143.2738  146.2783  157.7547 H   0  0  0  0  0  0  0  0  0  0  0  0
  146.1357  144.1320  157.1515 H   0  0  0  0  0  0  0  0  0  0  0  0
  150.2210  143.7323  157.6439 H   0  0  0  0  0  0  0  0  0  0  0  0
  150.4772  145.3291  159.3693 H   0  0  0  0  0  0  0  0  0  0  0  0
  151.9663  145.3154  160.3063 H   0  0  0  0  0  0  0  0  0  0  0  0
  150.5187  144.5074  160.9298 H   0  0  0  0  0  0  0  0  0  0  0  0
  1  2  1  0  0  0  0
  1 25  1  0  0  0  0
  1 26  1  0  0  0  0
  1 27  1  0  0  0  0
  2 23  1  0  0  0  0
  2  3  2  0  0  0  0
  3  4  1  0  0  0  0
  3 28  1  0  0  0  0
  4 21  2  0  0  0  0
  4  5  1  0  0  0  0
  5  6  2  0  0  0  0
  6  7  1  0  0  0  0
  6 29  1  0  0  0  0
  7  8  1  0  0  0  0
  7 21  1  0  0  0  0
  8  9  1  0  0  0  0
  8 30  1  0  0  0  0
  8 31  1  0  0  0  0
  9 10  1  0  0  0  0
  9 11  1  0  0  0  0
  9 32  1  0  0  0  0
 10 33  1  0  0  0  0
 11 12  1  0  0  0  0
 11 34  1  0  0  0  0
 11 35  1  0  0  0  0
 12 13  1  0  0  0  0
 12 14  1  0  0  0  0
 13 36  1  0  0  0  0
 13 37  1  0  0  0  0
 13 38  1  0  0  0  0
 14 15  1  0  0  0  0
 14 39  1  0  0  0  0
 14 40  1  0  0  0  0
 15 20  2  0  0  0  0
 15 16  1  0  0  0  0
 16 17  2  0  0  0  0
 16 41  1  0  0  0  0
 17 18  1  0  0  0  0
 18 19  1  0  0  0  0
 18 20  1  0  0  0  0
 19 42  1  0  0  0  0
 19 43  1  0  0  0  0
 19 44  1  0  0  0  0
 20 45  1  0  0  0  0
 21 22  1  0  0  0  0
 22 23  2  0  0  0  0
 22 46  1  0  0  0  0
 23 24  1  0  0  0  0
 24 47  1  0  0  0  0
 24 48  1  0  0  0  0
 24 49  1  0  0  0  0
M  END
> <s_m_source_file>
AV-unprocessed.smi

> <i_m_source_file_index>
2027

> <i_lp_mmshare_version>
43012

> <i_f3d_flags>
0

> <s_epik_input>
W0NIM11jKFtjSF0xKWMoW0NIM10pW2NIXWMoYzEyKW4oW2NIXW4yKVtDSDJdW0NASF0oW09IXSlbQ0gyXU4oW0NIM10pW0NIMl1jM1tjSF1ubihbQ0gzXSlbY0hdMw==

> <s_epik_cmdline>
J2VwaWtfcHl0aG9uJywgJy1waCcsICc3LjAnLCAnLXRuJywgJzgnLCAnLW1hJywgJzIwMCcsICctbWV0YWxfYmluZGluZycsICctaW1hZScsICc8aW5maWxlLm1hZT4nLCAnLW9tYWUnLCAnPG91dGZpbGUubWFlPic=

> <r_lp_tautomer_probability>
1

> <r_epik_Ionization_Penalty>
0.374241

> <r_epik_Ionization_Penalty_Charging>
0

> <r_epik_Ionization_Penalty_Neutral>
0.374241

> <r_epik_State_Penalty>
0.350767

> <r_epik_Charging_Adjusted_Penalty>
0.350767

> <i_epik_Tot_Q>
0

> <i_epik_Tot_abs_Q>
0

> <r_epik_Metal_State_Penalty>
0.343203

> <b_epik_Metal_Only>
0

> <s_lp_Force_Field>
OPLS_2005

> <r_lp_Energy>
16.8083

> <b_lp_Chiralities_Consistent>
1

> <s_lp_Variant>
AV-unprocessed.smi:2027-1

> <Gold.Version>
5.8.1

> <Gold.Id.Protein>
6NUR|6NUR_protein|mol2

> <Gold.PLP.Fitness>
57.4759

> <Gold.PLP.PLP>
-47.4731

> <Gold.PLP.part.hbond>
-3.0000

> <Gold.PLP.part.metal>
0.0000

> <Gold.PLP.part.buried>
-6.3584

> <Gold.PLP.part.nonpolar>
-37.4237

> <Gold.PLP.part.repulsive>
0.1529

> <Gold.PLP.ligand.clash>
0.0000

> <Gold.PLP.ligand.torsion>
1.1048

> <Gold.PLP.Chemscore.Hbond>
2.8320

> <Gold.PLP.Chemscore.CHOScore>
1.2141

> <Gold.PLP.Chemscore.Metal>
0.0000

> <Gold.Chemscore.Hbonds>
donor molecule, donor type, donor heavy atom, donor atom, acceptor molecule, acceptor atom, score
      L1  H    10    33       P1  7957  0.99
      P1  H  7989  7998       L1    10  0.80
      P1  H  7997  8010       L1     5  1.00
      L1  C    16    41       P1 10174  1.00
      L1  C    20    45       P1  8029  0.15

> <Gold.PLP.Chemscore.Internal.Correction>
0.0739

> <Gold.Rescore>
     Score         DG    S(hbond)    S(metal)    S(lipo)     H(rot)  DE(clash)    DE(int)     intcor
     16.79     -19.63       1.66        0.00     126.34       2.42       0.95       1.88       ----

> <Gold.Chemscore.Fitness>
16.7918

> <Gold.Chemscore.DG>
-19.6280

> <Gold.Chemscore.ZeroCoef>
-5.4800

> <Gold.Chemscore.Hbond>
1.6650

> <Gold.Chemscore.Metal>
0.0000

> <Gold.Chemscore.Lipo>
126.3403

> <Gold.Chemscore.Internal_Hbond>
0.0000

> <Gold.Chemscore.DEClash>
0.9518

> <Gold.Chemscore.DEInternal>
1.8844

> <Gold.Chemscore.Rot>
2.4198

> <Gold.Chemscore.Internal.Correction>
   9.000000E+99

> <Gold.Chemscore.Hbonds>
donor molecule, donor type, donor heavy atom, donor atom, acceptor molecule, acceptor atom, score
      L1  H    10    33       P1  7957  0.94
      P1  H  7989  7998       L1    10  0.19
      P1  H  7997  8010       L1     5  0.34

> <Gold.Chemscore.Hbond.Weighted>
-5.5609

> <Gold.Chemscore.Metal.Weighted>
-0.0000

> <Gold.Chemscore.Lipo.Weighted>
-14.7818

> <Gold.Chemscore.Internal_Hbond.Weighted>
0.0000

> <Gold.Chemscore.DEClash.Weighted>
0.9518

> <Gold.Chemscore.DEInternal.Weighted>
1.8844

> <Gold.Chemscore.Rot.Weighted>
6.1948

> <Gold.Chemscore.Internal.Correction.Weighted>
   9.000000E+99

> <Gold.Protein.RotatedTorsions>
[ 6907 6896 6895 6894 ] final  176.30 input  -60.11 | X-H torsion
[ 7974 7965 7964 7962 ] final   61.17 input  175.53 | X-H torsion
[ 8008 7997 7996 7995 ] final   55.75 input   59.86 | X-H torsion
[ 10167 10162 10161 10158 ] final  -54.10 input  -65.29 | X-H torsion
[ 10718 10713 10712 10709 ] final  -89.88 input   66.30 | X-H torsion
[ 10763 10752 10751 10750 ] final   71.85 input  -60.55 | X-H torsion
[ 11005 11000 10999 10996 ] final  -53.00 input  -57.11 | X-H torsion

> <Gold.Protein.ActiveResidues>
 VAL166  LYS551  ARG553  GLY616  TRP617  ASP618  TYR619  PRO620  LYS621  CYS622 
 ASP623  PHE694  ASN695  SER759  ASP760  ASP761  ALA762  ILE779  LEU786  VAL792 
 PHE793  MET794  SER795  GLU796  ALA797  LYS798  CYS799  TRP800  GLU811  SER814 

> <Gold.Protein.RotatedAtoms>
  151.7224  133.3315  159.3318 H   0  0  0  0  0  0  0  0  0  0  0  0  # atno 6907 bound_to 6896
  150.7647  134.6436  159.6260 H   0  0  0  0  0  0  0  0  0  0  0  0  # atno 6908 bound_to 6896
  152.3644  134.6828  160.0248 H   0  0  0  0  0  0  0  0  0  0  0  0  # atno 6909 bound_to 6896
  145.8878  139.3489  143.0667 H   0  0  0  0  0  0  0  0  0  0  0  0  # atno 7974 bound_to 7965
  155.5062  140.3476  155.4380 H   0  0  0  0  0  0  0  0  0  0  0  0  # atno 8008 bound_to 7997
  156.0880  140.1403  156.9656 H   0  0  0  0  0  0  0  0  0  0  0  0  # atno 8009 bound_to 7997
  154.4618  140.0932  156.6891 H   0  0  0  0  0  0  0  0  0  0  0  0  # atno 8010 bound_to 7997
  140.6449  143.2529  151.4887 H   0  0  0  0  0  0  0  0  0  0  0  0  # atno 10167 bound_to 10162
  155.9985  130.4889  150.5239 H   0  0  0  0  0  0  0  0  0  0  0  0  # atno 10718 bound_to 10713
  153.0423  135.5121  154.7655 H   0  0  0  0  0  0  0  0  0  0  0  0  # atno 10763 bound_to 10752
  154.6583  135.2935  154.9902 H   0  0  0  0  0  0  0  0  0  0  0  0  # atno 10764 bound_to 10752
  154.0762  135.6670  153.4884 H   0  0  0  0  0  0  0  0  0  0  0  0  # atno 10765 bound_to 10752
  141.0954  133.6625  156.4108 H   0  0  0  0  0  0  0  0  0  0  0  0  # atno 11005 bound_to 11000
  145.8946  140.9282  143.0534 LP  0  0  0  0  0  0  0  0  0  0  0  0  # atno 17320 bound_to 7965
  144.6729  140.0951  143.7463 LP  0  0  0  0  0  0  0  0  0  0  0  0  # atno 17321 bound_to 7965
  139.5659  144.2043  152.1764 LP  0  0  0  0  0  0  0  0  0  0  0  0  # atno 17342 bound_to 10162
  140.1325  144.5276  150.6794 LP  0  0  0  0  0  0  0  0  0  0  0  0  # atno 17343 bound_to 10162
  157.3197  131.0679  151.1941 LP  0  0  0  0  0  0  0  0  0  0  0  0  # atno 17370 bound_to 10713
  157.2858  130.6772  149.6089 LP  0  0  0  0  0  0  0  0  0  0  0  0  # atno 17371 bound_to 10713
  140.5153  134.6356  157.5299 LP  0  0  0  0  0  0  0  0  0  0  0  0  # atno 17394 bound_to 11000
  139.9789  134.7170  155.9897 LP  0  0  0  0  0  0  0  0  0  0  0  0  # atno 17395 bound_to 11000

$$$$
