AV-unprocessed.smi:2510|AV-procd|sdf|9875|dock7
  -GOLD-   2272013503D 1   1.00000     0.00000
 Structure written by MMmdl.
 48 49  0  0  0  0  0  0  0  0  1 V2000
  151.8281  138.9454  157.3789 C   0  0  0  0  0  0  0  0  0  0  0  0
  150.9020  137.8049  156.9227 C   0  0  0  0  0  0  0  0  0  0  0  0
  150.2092  137.9714  155.5483 C   0  0  0  0  0  0  0  0  0  0  0  0
  151.2751  137.6476  154.4622 C   0  0  0  0  0  0  0  0  0  0  0  0
  152.5509  138.5110  154.4750 C   0  0  0  0  0  0  0  0  0  0  0  0
  148.8299  137.2718  155.3599 C   0  0  2  0  0  0  0  0  0  0  0  0
  148.8845  136.0373  154.5825 N   0  0  0  0  0  0  0  0  0  0  0  0
  148.4180  134.8505  154.9961 C   0  0  0  0  0  0  0  0  0  0  0  0
  147.9012  134.6814  156.1018 O   0  0  0  0  0  0  0  0  0  0  0  0
  148.5635  133.6971  153.9950 C   0  0  0  0  0  0  0  0  0  0  0  0
  147.2357  133.2465  153.4421 C   0  0  0  0  0  0  0  0  0  0  0  0
  146.8822  133.0316  152.0769 C   0  0  0  0  0  0  0  0  0  0  0  0
  145.5756  132.6355  152.1243 C   0  0  0  0  0  0  0  0  0  0  0  0
  144.6202  132.2557  151.0450 C   0  0  0  0  0  0  0  0  0  0  0  0
  145.2218  132.6356  153.4537 N   0  0  0  0  0  0  0  0  0  0  0  0
  146.2251  133.0116  154.2681 N   0  0  0  0  0  0  0  0  0  0  0  0
  148.3406  138.4753  154.5438 C   0  0  1  0  0  0  0  0  0  0  0  0
  146.8673  138.8591  154.6139 C   0  0  0  0  0  0  0  0  0  0  0  0
  149.3803  139.2729  155.3478 C   0  0  2  0  0  0  0  0  0  0  0  0
  150.0615  140.2738  154.6072 O   0  0  0  0  0  0  0  0  0  0  0  0
  149.2529  141.3937  154.2923 C   0  0  0  0  0  0  0  0  0  0  0  0
  144.3119  132.3859  153.8145 H   0  0  0  0  0  0  0  0  0  0  0  0
  152.3358  138.6718  158.3040 H   0  0  0  0  0  0  0  0  0  0  0  0
  151.2708  139.8595  157.5834 H   0  0  0  0  0  0  0  0  0  0  0  0
  152.5987  139.1703  156.6426 H   0  0  0  0  0  0  0  0  0  0  0  0
  151.5004  136.8935  156.9135 H   0  0  0  0  0  0  0  0  0  0  0  0
  150.1557  137.6593  157.7048 H   0  0  0  0  0  0  0  0  0  0  0  0
  151.5838  136.6051  154.5486 H   0  0  0  0  0  0  0  0  0  0  0  0
  150.8370  137.7295  153.4675 H   0  0  0  0  0  0  0  0  0  0  0  0
  153.1859  138.2568  153.6262 H   0  0  0  0  0  0  0  0  0  0  0  0
  153.1447  138.3463  155.3737 H   0  0  0  0  0  0  0  0  0  0  0  0
  152.3346  139.5758  154.4074 H   0  0  0  0  0  0  0  0  0  0  0  0
  148.2523  137.1788  156.2805 H   0  0  0  0  0  0  0  0  0  0  0  0
  149.2963  136.0942  153.6623 H   0  0  0  0  0  0  0  0  0  0  0  0
  149.2268  134.0136  153.1888 H   0  0  0  0  0  0  0  0  0  0  0  0
  149.0587  132.8627  154.4926 H   0  0  0  0  0  0  0  0  0  0  0  0
  147.4985  133.1482  151.1976 H   0  0  0  0  0  0  0  0  0  0  0  0
  145.0791  132.3658  150.0622 H   0  0  0  0  0  0  0  0  0  0  0  0
  143.7318  132.8865  151.0744 H   0  0  0  0  0  0  0  0  0  0  0  0
  144.3046  131.2181  151.1552 H   0  0  0  0  0  0  0  0  0  0  0  0
  148.6652  138.3875  153.5052 H   0  0  0  0  0  0  0  0  0  0  0  0
  146.5463  139.0224  155.6429 H   0  0  0  0  0  0  0  0  0  0  0  0
  146.2375  138.0747  154.1944 H   0  0  0  0  0  0  0  0  0  0  0  0
  146.6638  139.7717  154.0553 H   0  0  0  0  0  0  0  0  0  0  0  0
  148.9743  139.6569  156.2854 H   0  0  0  0  0  0  0  0  0  0  0  0
  149.8558  142.1442  153.7813 H   0  0  0  0  0  0  0  0  0  0  0  0
  148.8397  141.8510  155.1922 H   0  0  0  0  0  0  0  0  0  0  0  0
  148.4340  141.1194  153.6282 H   0  0  0  0  0  0  0  0  0  0  0  0
  1  2  1  0  0  0  0
  1 23  1  0  0  0  0
  1 24  1  0  0  0  0
  1 25  1  0  0  0  0
  2  3  1  0  0  0  0
  2 26  1  0  0  0  0
  2 27  1  0  0  0  0
  3 19  1  0  0  0  0
  3  4  1  0  0  0  0
  3  6  1  0  0  0  0
  4  5  1  0  0  0  0
  4 28  1  0  0  0  0
  4 29  1  0  0  0  0
  5 30  1  0  0  0  0
  5 31  1  0  0  0  0
  5 32  1  0  0  0  0
  6  7  1  0  0  0  0
  6 17  1  0  0  0  0
  6 33  1  0  0  0  0
  7  8  1  0  0  0  0
  7 34  1  0  0  0  0
  8  9  2  0  0  0  0
  8 10  1  0  0  0  0
 10 11  1  0  0  0  0
 10 35  1  0  0  0  0
 10 36  1  0  0  0  0
 11 16  2  0  0  0  0
 11 12  1  0  0  0  0
 12 13  2  0  0  0  0
 12 37  1  0  0  0  0
 13 14  1  0  0  0  0
 13 15  1  0  0  0  0
 14 38  1  0  0  0  0
 14 39  1  0  0  0  0
 14 40  1  0  0  0  0
 15 22  1  0  0  0  0
 15 16  1  0  0  0  0
 17 18  1  0  0  0  0
 17 19  1  0  0  0  0
 17 41  1  0  0  0  0
 18 42  1  0  0  0  0
 18 43  1  0  0  0  0
 18 44  1  0  0  0  0
 19 20  1  0  0  0  0
 19 45  1  0  0  0  0
 20 21  1  0  0  0  0
 21 46  1  0  0  0  0
 21 47  1  0  0  0  0
 21 48  1  0  0  0  0
M  END
> <s_m_source_file>
AV-unprocessed.smi

> <i_m_source_file_index>
2510

> <i_lp_mmshare_version>
43012

> <i_f3d_flags>
0

> <s_epik_input>
W0NIM11PW0NAQEhdMVtDQEhdKFtDSDNdKVtDQEBIXShDMShbQ0gyXVtDSDNdKVtDSDJdW0NIM10pW05IXUMoPU8pW0NIMl1jMltjSF1jKFtDSDNdKVtuSF1uMg==

> <s_epik_cmdline>
J2VwaWtfcHl0aG9uJywgJy1waCcsICc3LjAnLCAnLXRuJywgJzgnLCAnLW1hJywgJzIwMCcsICctbWV0YWxfYmluZGluZycsICctaW1hZScsICc8aW5maWxlLm1hZT4nLCAnLW9tYWUnLCAnPG91dGZpbGUubWFlPic=

> <r_lp_tautomer_probability>
0.5

> <r_epik_Ionization_Penalty>
9.73156e-05

> <r_epik_Ionization_Penalty_Charging>
0

> <r_epik_Ionization_Penalty_Neutral>
9.73156e-05

> <r_epik_State_Penalty>
0.41068

> <r_epik_Charging_Adjusted_Penalty>
0.41068

> <i_epik_Tot_Q>
0

> <i_epik_Tot_abs_Q>
0

> <r_epik_Metal_State_Penalty>
0.410699

> <b_epik_Metal_Only>
0

> <s_lp_Force_Field>
OPLS_2005

> <r_lp_Energy>
28.5674

> <b_lp_Chiralities_Consistent>
1

> <s_lp_Variant>
AV-unprocessed.smi:2510-6

> <Gold.Version>
5.8.1

> <Gold.Id.Protein>
6NUR|6NUR_protein|mol2

> <Gold.PLP.Fitness>
35.6289

> <Gold.PLP.PLP>
-28.3969

> <Gold.PLP.part.hbond>
-2.8897

> <Gold.PLP.part.metal>
0.0000

> <Gold.PLP.part.buried>
-3.6699

> <Gold.PLP.part.nonpolar>
-21.7209

> <Gold.PLP.part.repulsive>
0.2018

> <Gold.PLP.ligand.clash>
0.0000

> <Gold.PLP.ligand.torsion>
0.6785

> <Gold.PLP.Chemscore.Hbond>
2.6703

> <Gold.PLP.Chemscore.CHOScore>
0.0000

> <Gold.PLP.Chemscore.Metal>
0.0000

> <Gold.Chemscore.Hbonds>
donor molecule, donor type, donor heavy atom, donor atom, acceptor molecule, acceptor atom, score
      L1  H     7    34       P1  7948  0.93
      L1  H    15    22       P1 10957  1.00
      P1  H  7989  7998       L1    20  0.70

> <Gold.PLP.Chemscore.Internal.Correction>
0.5782

> <Gold.Rescore>
     Score         DG    S(hbond)    S(metal)    S(lipo)     H(rot)  DE(clash)    DE(int)     intcor
     14.36     -16.55       2.03        0.00      76.23       1.81       0.16       2.03       ----

> <Gold.Chemscore.Fitness>
14.3562

> <Gold.Chemscore.DG>
-16.5468

> <Gold.Chemscore.ZeroCoef>
-5.4800

> <Gold.Chemscore.Hbond>
2.0306

> <Gold.Chemscore.Metal>
0.0000

> <Gold.Chemscore.Lipo>
76.2267

> <Gold.Chemscore.Internal_Hbond>
0.0000

> <Gold.Chemscore.DEClash>
0.1571

> <Gold.Chemscore.DEInternal>
2.0334

> <Gold.Chemscore.Rot>
1.8102

> <Gold.Chemscore.Internal.Correction>
   9.000000E+99

> <Gold.Chemscore.Hbonds>
donor molecule, donor type, donor heavy atom, donor atom, acceptor molecule, acceptor atom, score
      L1  H     7    34       P1  7948  0.71
      L1  H    15    22       P1 10957  0.29
      P1  H  7989  7998       L1    20  0.07

> <Gold.Chemscore.Hbond.Weighted>
-6.7824

> <Gold.Chemscore.Metal.Weighted>
-0.0000

> <Gold.Chemscore.Lipo.Weighted>
-8.9185

> <Gold.Chemscore.Internal_Hbond.Weighted>
0.0000

> <Gold.Chemscore.DEClash.Weighted>
0.1571

> <Gold.Chemscore.DEInternal.Weighted>
2.0334

> <Gold.Chemscore.Rot.Weighted>
4.6341

> <Gold.Chemscore.Internal.Correction.Weighted>
   9.000000E+99

> <Gold.Protein.RotatedTorsions>
[ 6907 6896 6895 6894 ] final   92.60 input  -60.11 | X-H torsion
[ 7974 7965 7964 7962 ] final -141.16 input  175.53 | X-H torsion
[ 8008 7997 7996 7995 ] final   83.54 input   59.86 | X-H torsion
[ 10167 10162 10161 10158 ] final  161.66 input  -65.29 | X-H torsion
[ 10718 10713 10712 10709 ] final   80.96 input   66.30 | X-H torsion
[ 10763 10752 10751 10750 ] final -144.60 input  -60.55 | X-H torsion
[ 11005 11000 10999 10996 ] final   38.34 input  -57.11 | X-H torsion

> <Gold.Protein.ActiveResidues>
 VAL166  LYS551  ARG553  GLY616  TRP617  ASP618  TYR619  PRO620  LYS621  CYS622 
 ASP623  PHE694  ASN695  SER759  ASP760  ASP761  ALA762  ILE779  LEU786  VAL792 
 PHE793  MET794  SER795  GLU796  ALA797  LYS798  CYS799  TRP800  GLU811  SER814 

> <Gold.Protein.RotatedAtoms>
  152.5453  134.1477  159.8505 H   0  0  0  0  0  0  0  0  0  0  0  0  # atno 6907 bound_to 6896
  151.1507  133.4902  159.2603 H   0  0  0  0  0  0  0  0  0  0  0  0  # atno 6908 bound_to 6896
  151.1475  135.0221  159.8708 H   0  0  0  0  0  0  0  0  0  0  0  0  # atno 6909 bound_to 6896
  144.8541  140.6113  143.5371 H   0  0  0  0  0  0  0  0  0  0  0  0  # atno 7974 bound_to 7965
  155.9252  140.3418  155.6204 H   0  0  0  0  0  0  0  0  0  0  0  0  # atno 8008 bound_to 7997
  155.7225  140.0785  157.2343 H   0  0  0  0  0  0  0  0  0  0  0  0  # atno 8009 bound_to 7997
  154.4076  140.1603  156.2405 H   0  0  0  0  0  0  0  0  0  0  0  0  # atno 8010 bound_to 7997
  139.4852  144.4514  151.8824 H   0  0  0  0  0  0  0  0  0  0  0  0  # atno 10167 bound_to 10162
  157.6820  130.9983  150.2156 H   0  0  0  0  0  0  0  0  0  0  0  0  # atno 10718 bound_to 10713
  154.8421  135.3436  154.6371 H   0  0  0  0  0  0  0  0  0  0  0  0  # atno 10763 bound_to 10752
  153.6982  135.6971  153.5075 H   0  0  0  0  0  0  0  0  0  0  0  0  # atno 10764 bound_to 10752
  153.2543  135.4343  155.0784 H   0  0  0  0  0  0  0  0  0  0  0  0  # atno 10765 bound_to 10752
  140.2136  134.3725  155.8037 H   0  0  0  0  0  0  0  0  0  0  0  0  # atno 11005 bound_to 11000
  145.4441  139.1532  143.3954 LP  0  0  0  0  0  0  0  0  0  0  0  0  # atno 17320 bound_to 7965
  146.2809  140.4564  142.8777 LP  0  0  0  0  0  0  0  0  0  0  0  0  # atno 17321 bound_to 7965
  140.3971  144.2540  150.5895 LP  0  0  0  0  0  0  0  0  0  0  0  0  # atno 17342 bound_to 10162
  140.5092  143.2295  151.8562 LP  0  0  0  0  0  0  0  0  0  0  0  0  # atno 17343 bound_to 10162
  156.2818  130.3734  149.7928 LP  0  0  0  0  0  0  0  0  0  0  0  0  # atno 17370 bound_to 10713
  156.5614  130.8385  151.3330 LP  0  0  0  0  0  0  0  0  0  0  0  0  # atno 17371 bound_to 10713
  141.2225  133.7156  156.8459 LP  0  0  0  0  0  0  0  0  0  0  0  0  # atno 17394 bound_to 11000
  140.1924  134.8956  157.3076 LP  0  0  0  0  0  0  0  0  0  0  0  0  # atno 17395 bound_to 11000

$$$$
