AV-unprocessed.smi:2364|AV-procd|sdf|9417|dock3
  -GOLD-   2272013 53D 1   1.00000     0.00000
 Structure written by MMmdl.
 46 47  0  0  0  0  0  0  0  0  1 V2000
  139.5450  142.3699  154.7193 C   0  0  0  0  0  0  0  0  0  0  0  0
  140.6876  141.4741  154.2100 C   0  0  0  0  0  0  0  0  0  0  0  0
  140.3930  139.9447  154.1949 C   0  0  1  0  0  0  0  0  0  0  0  0
  140.2106  139.4262  155.6406 C   0  0  0  0  0  0  0  0  0  0  0  0
  139.1142  139.6271  153.3784 C   0  0  0  0  0  0  0  0  0  0  0  0
  138.8928  140.5497  152.3303 O   0  0  0  0  0  0  0  0  0  0  0  0
  141.4809  139.2000  153.5437 N   0  0  0  0  0  0  0  0  0  0  0  0
  141.5964  137.8742  153.3515 C   0  0  0  0  0  0  0  0  0  0  0  0
  140.7561  137.0492  153.7104 O   0  0  0  0  0  0  0  0  0  0  0  0
  142.7438  137.5796  152.7145 N   0  0  0  0  0  0  0  0  0  0  0  0
  143.2693  136.2982  152.4036 C   0  0  0  0  0  0  0  0  0  0  0  0
  142.7665  135.1999  153.0352 N   0  0  0  0  0  0  0  0  0  0  0  0
  143.4991  134.2648  152.4446 C   0  0  0  0  0  0  0  0  0  0  0  0
  144.3905  134.7341  151.5620 N   0  0  0  0  0  0  0  0  0  0  0  0
  145.2954  134.0240  150.6524 C   0  0  0  0  0  0  0  0  0  0  0  0
  144.5389  133.0334  149.7367 C   0  0  0  0  0  0  0  0  0  0  0  0
  143.9608  131.8456  150.5283 C   0  0  0  0  0  0  0  0  0  0  0  0
  145.0679  131.1020  151.2940 C   0  0  0  0  0  0  0  0  0  0  0  0
  145.8732  132.0560  152.1917 C   0  0  0  0  0  0  0  0  0  0  0  0
  146.4202  133.2495  151.3850 C   0  0  0  0  0  0  0  0  0  0  0  0
  144.2163  136.0781  151.4905 N   0  0  0  0  0  0  0  0  0  0  0  0
  139.8384  143.4190  154.6795 H   0  0  0  0  0  0  0  0  0  0  0  0
  139.2870  142.1458  155.7539 H   0  0  0  0  0  0  0  0  0  0  0  0
  138.6446  142.2622  154.1147 H   0  0  0  0  0  0  0  0  0  0  0  0
  140.9583  141.8069  153.2079 H   0  0  0  0  0  0  0  0  0  0  0  0
  141.5752  141.6693  154.8127 H   0  0  0  0  0  0  0  0  0  0  0  0
  139.3656  139.9081  156.1332 H   0  0  0  0  0  0  0  0  0  0  0  0
  141.0861  139.6200  156.2602 H   0  0  0  0  0  0  0  0  0  0  0  0
  140.0289  138.3510  155.6576 H   0  0  0  0  0  0  0  0  0  0  0  0
  139.1640  138.6271  152.9469 H   0  0  0  0  0  0  0  0  0  0  0  0
  138.2371  139.6358  154.0268 H   0  0  0  0  0  0  0  0  0  0  0  0
  139.4076  140.2851  151.5834 H   0  0  0  0  0  0  0  0  0  0  0  0
  142.2403  139.7688  153.1995 H   0  0  0  0  0  0  0  0  0  0  0  0
  143.3188  138.3612  152.4371 H   0  0  0  0  0  0  0  0  0  0  0  0
  143.3731  133.2144  152.6606 H   0  0  0  0  0  0  0  0  0  0  0  0
  145.7585  134.7862  150.0247 H   0  0  0  0  0  0  0  0  0  0  0  0
  143.7472  133.5388  149.1838 H   0  0  0  0  0  0  0  0  0  0  0  0
  145.2250  132.6534  148.9787 H   0  0  0  0  0  0  0  0  0  0  0  0
  143.2016  132.1964  151.2284 H   0  0  0  0  0  0  0  0  0  0  0  0
  143.4570  131.1582  149.8484 H   0  0  0  0  0  0  0  0  0  0  0  0
  144.6334  130.3028  151.8951 H   0  0  0  0  0  0  0  0  0  0  0  0
  145.7401  130.6216  150.5820 H   0  0  0  0  0  0  0  0  0  0  0  0
  145.2421  132.4117  153.0066 H   0  0  0  0  0  0  0  0  0  0  0  0
  146.6975  131.5162  152.6583 H   0  0  0  0  0  0  0  0  0  0  0  0
  147.1334  132.8788  150.6476 H   0  0  0  0  0  0  0  0  0  0  0  0
  146.9944  133.9117  152.0342 H   0  0  0  0  0  0  0  0  0  0  0  0
  1  2  1  0  0  0  0
  1 22  1  0  0  0  0
  1 23  1  0  0  0  0
  1 24  1  0  0  0  0
  2  3  1  0  0  0  0
  2 25  1  0  0  0  0
  2 26  1  0  0  0  0
  3  4  1  0  0  0  0
  3  5  1  0  0  0  0
  3  7  1  0  0  0  0
  4 27  1  0  0  0  0
  4 28  1  0  0  0  0
  4 29  1  0  0  0  0
  5  6  1  0  0  0  0
  5 30  1  0  0  0  0
  5 31  1  0  0  0  0
  6 32  1  0  0  0  0
  7  8  1  0  0  0  0
  7 33  1  0  0  0  0
  8  9  2  0  0  0  0
  8 10  1  0  0  0  0
 10 11  1  0  0  0  0
 10 34  1  0  0  0  0
 11 21  2  0  0  0  0
 11 12  1  0  0  0  0
 12 13  2  0  0  0  0
 13 14  1  0  0  0  0
 13 35  1  0  0  0  0
 14 15  1  0  0  0  0
 14 21  1  0  0  0  0
 15 20  1  0  0  0  0
 15 16  1  0  0  0  0
 15 36  1  0  0  0  0
 16 17  1  0  0  0  0
 16 37  1  0  0  0  0
 16 38  1  0  0  0  0
 17 18  1  0  0  0  0
 17 39  1  0  0  0  0
 17 40  1  0  0  0  0
 18 19  1  0  0  0  0
 18 41  1  0  0  0  0
 18 42  1  0  0  0  0
 19 20  1  0  0  0  0
 19 43  1  0  0  0  0
 19 44  1  0  0  0  0
 20 45  1  0  0  0  0
 20 46  1  0  0  0  0
M  END
> <s_m_source_file>
AV-unprocessed.smi

> <i_m_source_file_index>
2364

> <i_lp_mmshare_version>
43012

> <i_f3d_flags>
0

> <s_epik_input>
W0NIM11bQ0gyXVtDQEBdKFtDSDNdKShbQ0gyXVtPSF0pW05IXUMoPU8pW05IXWMxbltjSF1uKG4xKVtDSF0yW0NIMl1bQ0gyXVtDSDJdW0NIMl1bQ0gyXTI=

> <s_epik_cmdline>
J2VwaWtfcHl0aG9uJywgJy1waCcsICc3LjAnLCAnLXRuJywgJzgnLCAnLW1hJywgJzIwMCcsICctbWV0YWxfYmluZGluZycsICctaW1hZScsICc8aW5maWxlLm1hZT4nLCAnLW9tYWUnLCAnPG91dGZpbGUubWFlPic=

> <r_lp_tautomer_probability>
1

> <r_epik_Ionization_Penalty>
9.31261e-05

> <r_epik_Ionization_Penalty_Charging>
0

> <r_epik_Ionization_Penalty_Neutral>
9.31261e-05

> <r_epik_State_Penalty>
-0

> <r_epik_Charging_Adjusted_Penalty>
0

> <i_epik_Tot_Q>
0

> <i_epik_Tot_abs_Q>
0

> <r_epik_Metal_State_Penalty>
-0

> <b_epik_Metal_Only>
0

> <s_lp_Force_Field>
OPLS_2005

> <r_lp_Energy>
23.546

> <b_lp_Chiralities_Consistent>
1

> <s_lp_Variant>
AV-unprocessed.smi:2364-1

> <Gold.Version>
5.8.1

> <Gold.Id.Protein>
6NUR|6NUR_protein|mol2

> <Gold.PLP.Fitness>
42.6352

> <Gold.PLP.PLP>
-32.9098

> <Gold.PLP.part.hbond>
-3.0000

> <Gold.PLP.part.metal>
0.0000

> <Gold.PLP.part.buried>
-6.1518

> <Gold.PLP.part.nonpolar>
-24.9471

> <Gold.PLP.part.repulsive>
1.0926

> <Gold.PLP.ligand.clash>
0.0000

> <Gold.PLP.ligand.torsion>
0.6995

> <Gold.PLP.Chemscore.Hbond>
2.7956

> <Gold.PLP.Chemscore.CHOScore>
0.8665

> <Gold.PLP.Chemscore.Metal>
0.0000

> <Gold.Chemscore.Hbonds>
donor molecule, donor type, donor heavy atom, donor atom, acceptor molecule, acceptor atom, score
      L1  H     6    32       P1 10160  0.34
      L1  H     7    33       P1 10175  1.00
      L1  H    10    34       P1 10175  0.81
      L1  C    13    35       P1 10957  0.69

> <Gold.PLP.Chemscore.Internal.Correction>
0.1381

> <Gold.Rescore>
     Score         DG    S(hbond)    S(metal)    S(lipo)     H(rot)  DE(clash)    DE(int)     intcor
     13.11     -15.95       2.70        0.00      63.45       2.34       0.13       2.71       ----

> <Gold.Chemscore.Fitness>
13.1138

> <Gold.Chemscore.DG>
-15.9522

> <Gold.Chemscore.ZeroCoef>
-5.4800

> <Gold.Chemscore.Hbond>
2.7029

> <Gold.Chemscore.Metal>
0.0000

> <Gold.Chemscore.Lipo>
63.4464

> <Gold.Chemscore.Internal_Hbond>
0.0000

> <Gold.Chemscore.DEClash>
0.1280

> <Gold.Chemscore.DEInternal>
2.7104

> <Gold.Chemscore.Rot>
2.3354

> <Gold.Chemscore.Internal.Correction>
   9.000000E+99

> <Gold.Chemscore.Hbonds>
donor molecule, donor type, donor heavy atom, donor atom, acceptor molecule, acceptor atom, score
      L1  H     6    32       P1 10160  0.34
      L1  H     7    33       P1 10175  0.85
      L1  H    10    34       P1 10175  0.76

> <Gold.Chemscore.Hbond.Weighted>
-9.0277

> <Gold.Chemscore.Metal.Weighted>
-0.0000

> <Gold.Chemscore.Lipo.Weighted>
-7.4232

> <Gold.Chemscore.Internal_Hbond.Weighted>
0.0000

> <Gold.Chemscore.DEClash.Weighted>
0.1280

> <Gold.Chemscore.DEInternal.Weighted>
2.7104

> <Gold.Chemscore.Rot.Weighted>
5.9787

> <Gold.Chemscore.Internal.Correction.Weighted>
   9.000000E+99

> <Gold.Protein.RotatedTorsions>
[ 6907 6896 6895 6894 ] final  128.19 input  -60.11 | X-H torsion
[ 7974 7965 7964 7962 ] final  -67.67 input  175.53 | X-H torsion
[ 8008 7997 7996 7995 ] final -142.77 input   59.86 | X-H torsion
[ 10167 10162 10161 10158 ] final  -13.11 input  -65.29 | X-H torsion
[ 10718 10713 10712 10709 ] final  -59.97 input   66.30 | X-H torsion
[ 10763 10752 10751 10750 ] final  129.52 input  -60.55 | X-H torsion
[ 11005 11000 10999 10996 ] final  -26.68 input  -57.11 | X-H torsion

> <Gold.Protein.ActiveResidues>
 VAL166  LYS551  ARG553  GLY616  TRP617  ASP618  TYR619  PRO620  LYS621  CYS622 
 ASP623  PHE694  ASN695  SER759  ASP760  ASP761  ALA762  ILE779  LEU786  VAL792 
 PHE793  MET794  SER795  GLU796  ALA797  LYS798  CYS799  TRP800  GLU811  SER814 

> <Gold.Protein.RotatedAtoms>
  152.3743  133.6460  159.6110 H   0  0  0  0  0  0  0  0  0  0  0  0  # atno 6907 bound_to 6896
  150.7692  133.9219  159.3409 H   0  0  0  0  0  0  0  0  0  0  0  0  # atno 6908 bound_to 6896
  151.7036  135.0927  160.0306 H   0  0  0  0  0  0  0  0  0  0  0  0  # atno 6909 bound_to 6896
  145.7263  140.9017  143.0604 H   0  0  0  0  0  0  0  0  0  0  0  0  # atno 7974 bound_to 7965
  155.4997  140.0574  157.2941 H   0  0  0  0  0  0  0  0  0  0  0  0  # atno 8008 bound_to 7997
  154.4591  140.1988  156.0244 H   0  0  0  0  0  0  0  0  0  0  0  0  # atno 8009 bound_to 7997
  156.0857  140.3240  155.7755 H   0  0  0  0  0  0  0  0  0  0  0  0  # atno 8010 bound_to 7997
  140.7175  143.5461  150.9354 H   0  0  0  0  0  0  0  0  0  0  0  0  # atno 10167 bound_to 10162
  156.1024  130.4184  150.0789 H   0  0  0  0  0  0  0  0  0  0  0  0  # atno 10718 bound_to 10713
  153.7430  135.3221  155.3307 H   0  0  0  0  0  0  0  0  0  0  0  0  # atno 10763 bound_to 10752
  154.8288  135.4549  154.1007 H   0  0  0  0  0  0  0  0  0  0  0  0  # atno 10764 bound_to 10752
  153.2188  135.6945  153.8107 H   0  0  0  0  0  0  0  0  0  0  0  0  # atno 10765 bound_to 10752
  140.9051  133.7498  156.0596 H   0  0  0  0  0  0  0  0  0  0  0  0  # atno 11005 bound_to 11000
  144.6904  139.9270  143.7470 LP  0  0  0  0  0  0  0  0  0  0  0  0  # atno 17320 bound_to 7965
  146.0579  139.3575  143.0599 LP  0  0  0  0  0  0  0  0  0  0  0  0  # atno 17321 bound_to 7965
  139.9185  143.6635  152.3101 LP  0  0  0  0  0  0  0  0  0  0  0  0  # atno 17342 bound_to 10162
  139.7043  144.7630  151.1220 LP  0  0  0  0  0  0  0  0  0  0  0  0  # atno 17343 bound_to 10162
  156.8773  130.9544  151.3603 LP  0  0  0  0  0  0  0  0  0  0  0  0  # atno 17370 bound_to 10713
  157.6196  130.8645  149.9086 LP  0  0  0  0  0  0  0  0  0  0  0  0  # atno 17371 bound_to 10713
  140.8181  134.3322  157.5390 LP  0  0  0  0  0  0  0  0  0  0  0  0  # atno 17394 bound_to 11000
  139.8748  134.9293  156.3473 LP  0  0  0  0  0  0  0  0  0  0  0  0  # atno 17395 bound_to 11000

$$$$
