AV-unprocessed.smi:1413|AV-procd|sdf|5759|dock3
  -GOLD-   22720 5393D 1   1.00000     0.00000
 Structure written by MMmdl.
 53 55  0  0  0  0  0  0  0  0  1 V2000
  151.8222  144.4208  157.3679 C   0  0  0  0  0  0  0  0  0  0  0  0
  151.1092  143.5925  158.4517 C   0  0  1  0  0  0  0  0  0  0  0  0
  150.1931  142.4930  157.8787 C   0  0  0  0  0  0  0  0  0  0  0  0
  150.9759  141.3662  157.3798 N   0  0  0  0  0  0  0  0  0  0  0  0
  150.2695  140.4457  156.5771 C   0  0  0  0  0  0  0  0  0  0  0  0
  149.2581  139.6394  157.1486 C   0  0  0  0  0  0  0  0  0  0  0  0
  148.5653  138.7263  156.3317 C   0  0  0  0  0  0  0  0  0  0  0  0
  148.9011  138.6306  154.9675 C   0  0  0  0  0  0  0  0  0  0  0  0
  148.1719  137.7157  154.1614 N   0  0  0  0  0  0  0  0  0  0  0  0
  146.9222  137.2563  154.3420 C   0  0  0  0  0  0  0  0  0  0  0  0
  146.1634  137.5990  155.2484 O   0  0  0  0  0  0  0  0  0  0  0  0
  146.5907  136.3761  153.3863 N   0  0  0  0  0  0  0  0  0  0  0  0
  145.3033  135.6960  153.2537 C   0  0  1  0  0  0  0  0  0  0  0  0
  144.1942  136.7547  153.1697 C   0  0  0  0  0  0  0  0  0  0  0  0
  145.3032  134.7709  152.0192 C   0  0  1  0  0  0  0  0  0  0  0  0
  146.3133  133.6240  152.0640 C   0  0  0  0  0  0  0  0  0  0  0  0
  145.7274  132.6053  151.1012 C   0  0  0  0  0  0  0  0  0  0  0  0
  144.2527  133.0046  150.9911 C   0  0  0  0  0  0  0  0  0  0  0  0
  144.0747  134.0675  151.9183 O   0  0  0  0  0  0  0  0  0  0  0  0
  149.9153  139.4883  154.4799 C   0  0  0  0  0  0  0  0  0  0  0  0
  150.5792  140.3678  155.2596 N   0  0  0  0  0  0  0  0  0  0  0  0
  151.9164  140.8398  158.3647 C   0  0  0  0  0  0  0  0  0  0  0  0
  152.8263  141.9644  158.8901 C   0  0  2  0  0  0  0  0  0  0  0  0
  153.7392  141.4790  160.0211 C   0  0  0  0  0  0  0  0  0  0  0  0
  152.0254  143.0322  159.3954 O   0  0  0  0  0  0  0  0  0  0  0  0
  151.0974  144.9402  156.7409 H   0  0  0  0  0  0  0  0  0  0  0  0
  152.4336  143.8039  156.7097 H   0  0  0  0  0  0  0  0  0  0  0  0
  152.4685  145.1749  157.8172 H   0  0  0  0  0  0  0  0  0  0  0  0
  150.4818  144.2851  159.0135 H   0  0  0  0  0  0  0  0  0  0  0  0
  149.5320  142.1244  158.6641 H   0  0  0  0  0  0  0  0  0  0  0  0
  149.5520  142.9192  157.1078 H   0  0  0  0  0  0  0  0  0  0  0  0
  148.9983  139.7230  158.1934 H   0  0  0  0  0  0  0  0  0  0  0  0
  147.7863  138.1074  156.7523 H   0  0  0  0  0  0  0  0  0  0  0  0
  148.6401  137.4107  153.3208 H   0  0  0  0  0  0  0  0  0  0  0  0
  147.2845  136.1612  152.6853 H   0  0  0  0  0  0  0  0  0  0  0  0
  145.1119  135.0899  154.1413 H   0  0  0  0  0  0  0  0  0  0  0  0
  143.2099  136.2906  153.1038 H   0  0  0  0  0  0  0  0  0  0  0  0
  144.3191  137.3932  152.2945 H   0  0  0  0  0  0  0  0  0  0  0  0
  144.1951  137.3944  154.0528 H   0  0  0  0  0  0  0  0  0  0  0  0
  145.4494  135.3546  151.1078 H   0  0  0  0  0  0  0  0  0  0  0  0
  147.3225  133.9342  151.7913 H   0  0  0  0  0  0  0  0  0  0  0  0
  146.3516  133.1970  153.0673 H   0  0  0  0  0  0  0  0  0  0  0  0
  146.2092  132.6668  150.1247 H   0  0  0  0  0  0  0  0  0  0  0  0
  145.8519  131.5884  151.4745 H   0  0  0  0  0  0  0  0  0  0  0  0
  144.0263  133.3610  149.9853 H   0  0  0  0  0  0  0  0  0  0  0  0
  143.5787  132.1785  151.2183 H   0  0  0  0  0  0  0  0  0  0  0  0
  150.2012  139.5026  153.4399 H   0  0  0  0  0  0  0  0  0  0  0  0
  151.3590  140.3886  159.1869 H   0  0  0  0  0  0  0  0  0  0  0  0
  152.5307  140.0572  157.9178 H   0  0  0  0  0  0  0  0  0  0  0  0
  153.4583  142.3309  158.0810 H   0  0  0  0  0  0  0  0  0  0  0  0
  154.3813  140.6647  159.6847 H   0  0  0  0  0  0  0  0  0  0  0  0
  153.1584  141.1179  160.8703 H   0  0  0  0  0  0  0  0  0  0  0  0
  154.3824  142.2847  160.3756 H   0  0  0  0  0  0  0  0  0  0  0  0
  1  2  1  0  0  0  0
  1 26  1  0  0  0  0
  1 27  1  0  0  0  0
  1 28  1  0  0  0  0
  2 25  1  0  0  0  0
  2  3  1  0  0  0  0
  2 29  1  0  0  0  0
  3  4  1  0  0  0  0
  3 30  1  0  0  0  0
  3 31  1  0  0  0  0
  4  5  1  0  0  0  0
  4 22  1  0  0  0  0
  5 21  1  0  0  0  0
  5  6  2  0  0  0  0
  6  7  1  0  0  0  0
  6 32  1  0  0  0  0
  7  8  2  0  0  0  0
  7 33  1  0  0  0  0
  8  9  1  0  0  0  0
  8 20  1  0  0  0  0
  9 10  1  0  0  0  0
  9 34  1  0  0  0  0
 10 11  2  0  0  0  0
 10 12  1  0  0  0  0
 12 13  1  0  0  0  0
 12 35  1  0  0  0  0
 13 14  1  0  0  0  0
 13 15  1  0  0  0  0
 13 36  1  0  0  0  0
 14 37  1  0  0  0  0
 14 38  1  0  0  0  0
 14 39  1  0  0  0  0
 15 19  1  0  0  0  0
 15 16  1  0  0  0  0
 15 40  1  0  0  0  0
 16 17  1  0  0  0  0
 16 41  1  0  0  0  0
 16 42  1  0  0  0  0
 17 18  1  0  0  0  0
 17 43  1  0  0  0  0
 17 44  1  0  0  0  0
 18 19  1  0  0  0  0
 18 45  1  0  0  0  0
 18 46  1  0  0  0  0
 20 21  2  0  0  0  0
 20 47  1  0  0  0  0
 22 23  1  0  0  0  0
 22 48  1  0  0  0  0
 22 49  1  0  0  0  0
 23 24  1  0  0  0  0
 23 25  1  0  0  0  0
 23 50  1  0  0  0  0
 24 51  1  0  0  0  0
 24 52  1  0  0  0  0
 24 53  1  0  0  0  0
M  END
> <s_m_source_file>
AV-unprocessed.smi

> <i_m_source_file_index>
1413

> <i_lp_mmshare_version>
43012

> <i_f3d_flags>
0

> <s_epik_input>
W0NIM11bQ0BASF0xW0NIMl1OKFtDSDJdW0NASF0oTzEpW0NIM10pYzJbY0hdW2NIXWMoW2NIXW4yKVtOSF1DKD1PKVtOSF1bQ0BIXShbQ0gzXSlbQ0BASF0zW0NIMl1bQ0gyXVtDSDJdTzM=

> <s_epik_cmdline>
J2VwaWtfcHl0aG9uJywgJy1waCcsICc3LjAnLCAnLXRuJywgJzgnLCAnLW1hJywgJzIwMCcsICctbWV0YWxfYmluZGluZycsICctaW1hZScsICc8aW5maWxlLm1hZT4nLCAnLW9tYWUnLCAnPG91dGZpbGUubWFlPic=

> <r_lp_tautomer_probability>
1

> <r_epik_Ionization_Penalty>
0.00271172

> <r_epik_Ionization_Penalty_Charging>
0

> <r_epik_Ionization_Penalty_Neutral>
0.00271172

> <r_epik_State_Penalty>
0.00186503

> <r_epik_Charging_Adjusted_Penalty>
0.00186503

> <i_epik_Tot_Q>
0

> <i_epik_Tot_abs_Q>
0

> <r_epik_Metal_State_Penalty>
-0

> <b_epik_Metal_Only>
0

> <s_lp_Force_Field>
OPLS_2005

> <r_lp_Energy>
37.0854

> <b_lp_Chiralities_Consistent>
1

> <s_lp_Variant>
AV-unprocessed.smi:1413-12

> <Gold.Version>
5.8.1

> <Gold.Id.Protein>
6NUR|6NUR_protein|mol2

> <Gold.PLP.Fitness>
47.8835

> <Gold.PLP.PLP>
-38.6221

> <Gold.PLP.part.hbond>
-3.0000

> <Gold.PLP.part.metal>
0.0000

> <Gold.PLP.part.buried>
-7.6210

> <Gold.PLP.part.nonpolar>
-29.1743

> <Gold.PLP.part.repulsive>
0.3094

> <Gold.PLP.ligand.clash>
0.0000

> <Gold.PLP.ligand.torsion>
0.3323

> <Gold.PLP.Chemscore.Hbond>
2.1917

> <Gold.PLP.Chemscore.CHOScore>
1.0000

> <Gold.PLP.Chemscore.Metal>
0.0000

> <Gold.Chemscore.Hbonds>
donor molecule, donor type, donor heavy atom, donor atom, acceptor molecule, acceptor atom, score
      L1  H     9    34       P1  7948  1.00
      L1  H    12    35       P1  7948  1.00
      P1  H  7989  7998       L1    21  0.24
      L1  C    20    47       P1  7957  1.00

> <Gold.PLP.Chemscore.Internal.Correction>
0.3509

> <Gold.Rescore>
     Score         DG    S(hbond)    S(metal)    S(lipo)     H(rot)  DE(clash)    DE(int)     intcor
     18.71     -20.47       1.96        0.00     101.62       1.35       0.03       1.73       ----

> <Gold.Chemscore.Fitness>
18.7093

> <Gold.Chemscore.DG>
-20.4653

> <Gold.Chemscore.ZeroCoef>
-5.4800

> <Gold.Chemscore.Hbond>
1.9593

> <Gold.Chemscore.Metal>
0.0000

> <Gold.Chemscore.Lipo>
101.6236

> <Gold.Chemscore.Internal_Hbond>
0.0000

> <Gold.Chemscore.DEClash>
0.0262

> <Gold.Chemscore.DEInternal>
1.7299

> <Gold.Chemscore.Rot>
1.3471

> <Gold.Chemscore.Internal.Correction>
   9.000000E+99

> <Gold.Chemscore.Hbonds>
donor molecule, donor type, donor heavy atom, donor atom, acceptor molecule, acceptor atom, score
      L1  H     9    34       P1  7948  0.98
      L1  H    12    35       P1  7948  0.99

> <Gold.Chemscore.Hbond.Weighted>
-6.5439

> <Gold.Chemscore.Metal.Weighted>
-0.0000

> <Gold.Chemscore.Lipo.Weighted>
-11.8900

> <Gold.Chemscore.Internal_Hbond.Weighted>
0.0000

> <Gold.Chemscore.DEClash.Weighted>
0.0262

> <Gold.Chemscore.DEInternal.Weighted>
1.7299

> <Gold.Chemscore.Rot.Weighted>
3.4485

> <Gold.Chemscore.Internal.Correction.Weighted>
   9.000000E+99

> <Gold.Protein.RotatedTorsions>
[ 6907 6896 6895 6894 ] final   -2.07 input  -60.11 | X-H torsion
[ 7974 7965 7964 7962 ] final  165.58 input  175.53 | X-H torsion
[ 8008 7997 7996 7995 ] final    9.58 input   59.86 | X-H torsion
[ 10167 10162 10161 10158 ] final  -48.21 input  -65.29 | X-H torsion
[ 10718 10713 10712 10709 ] final -155.71 input   66.30 | X-H torsion
[ 10763 10752 10751 10750 ] final  123.58 input  -60.55 | X-H torsion
[ 11005 11000 10999 10996 ] final -147.33 input  -57.11 | X-H torsion

> <Gold.Protein.ActiveResidues>
 VAL166  LYS551  ARG553  GLY616  TRP617  ASP618  TYR619  PRO620  LYS621  CYS622 
 ASP623  PHE694  ASN695  SER759  ASP760  ASP761  ALA762  ILE779  LEU786  VAL792 
 PHE793  MET794  SER795  GLU796  ALA797  LYS798  CYS799  TRP800  GLU811  SER814 

> <Gold.Protein.RotatedAtoms>
  151.5358  135.1068  159.9913 H   0  0  0  0  0  0  0  0  0  0  0  0  # atno 6907 bound_to 6896
  152.4558  133.7716  159.6812 H   0  0  0  0  0  0  0  0  0  0  0  0  # atno 6908 bound_to 6896
  150.8501  133.7735  159.3053 H   0  0  0  0  0  0  0  0  0  0  0  0  # atno 6909 bound_to 6896
  144.7497  139.8491  143.6370 H   0  0  0  0  0  0  0  0  0  0  0  0  # atno 7974 bound_to 7965
  154.7819  140.2820  155.6057 H   0  0  0  0  0  0  0  0  0  0  0  0  # atno 8008 bound_to 7997
  156.2951  140.2621  156.2575 H   0  0  0  0  0  0  0  0  0  0  0  0  # atno 8009 bound_to 7997
  154.9774  140.0375  157.2251 H   0  0  0  0  0  0  0  0  0  0  0  0  # atno 8010 bound_to 7997
  140.6741  143.2750  151.4038 H   0  0  0  0  0  0  0  0  0  0  0  0  # atno 10167 bound_to 10162
  156.5165  130.8459  151.2666 H   0  0  0  0  0  0  0  0  0  0  0  0  # atno 10718 bound_to 10713
  153.6478  135.3368  155.3091 H   0  0  0  0  0  0  0  0  0  0  0  0  # atno 10763 bound_to 10752
  154.8544  135.4334  154.1936 H   0  0  0  0  0  0  0  0  0  0  0  0  # atno 10764 bound_to 10752
  153.2871  135.7014  153.7403 H   0  0  0  0  0  0  0  0  0  0  0  0  # atno 10765 bound_to 10752
  140.7727  134.3170  157.5070 H   0  0  0  0  0  0  0  0  0  0  0  0  # atno 11005 bound_to 11000
  146.1428  139.4490  143.0098 LP  0  0  0  0  0  0  0  0  0  0  0  0  # atno 17320 bound_to 7965
  145.6991  141.0141  143.1514 LP  0  0  0  0  0  0  0  0  0  0  0  0  # atno 17321 bound_to 7965
  139.6024  144.1268  152.2212 LP  0  0  0  0  0  0  0  0  0  0  0  0  # atno 17342 bound_to 10162
  140.0656  144.5821  150.7230 LP  0  0  0  0  0  0  0  0  0  0  0  0  # atno 17343 bound_to 10162
  157.7443  130.9932  150.2662 LP  0  0  0  0  0  0  0  0  0  0  0  0  # atno 17370 bound_to 10713
  156.3190  130.3783  149.7592 LP  0  0  0  0  0  0  0  0  0  0  0  0  # atno 17371 bound_to 10713
  139.8753  134.9271  156.3416 LP  0  0  0  0  0  0  0  0  0  0  0  0  # atno 17394 bound_to 11000
  140.9558  133.7421  156.0333 LP  0  0  0  0  0  0  0  0  0  0  0  0  # atno 17395 bound_to 11000

$$$$
