AV-unprocessed.smi:36|AV-procd|sdf|286|dock3
  -GOLD-   2262016 63D 1   1.00000     0.00000
 Structure written by MMmdl.
 64 67  0  0  0  0  0  0  0  0  1 V2000
  154.3731  130.5158  154.9430 C   0  0  0  0  0  0  0  0  0  0  0  0
  153.3636  129.6512  155.7167 C   0  0  0  0  0  0  0  0  0  0  0  0
  152.0475  129.5506  154.9271 C   0  0  0  0  0  0  0  0  0  0  0  0
  153.9421  128.2439  155.9388 C   0  0  0  0  0  0  0  0  0  0  0  0
  153.0098  130.4539  157.4138 Si  0  0  0  0  0  0  0  0  0  0  0  0
  152.0655  129.2649  158.5557 C   0  0  0  0  0  0  0  0  0  0  0  0
  154.6193  131.0112  158.2563 C   0  0  0  0  0  0  0  0  0  0  0  0
  152.0432  131.8169  157.1511 O   0  0  0  0  0  0  0  0  0  0  0  0
  150.7386  131.7540  156.6144 C   0  0  0  0  0  0  0  0  0  0  0  0
  150.2008  133.1757  156.4113 C   0  0  1  0  0  0  0  0  0  0  0  0
  151.2896  134.0780  156.2331 O   0  0  0  0  0  0  0  0  0  0  0  0
  150.9406  135.0846  155.3292 C   0  0  2  0  0  0  0  0  0  0  0  0
  151.0773  136.3987  156.0217 N   0  0  0  0  0  0  0  0  0  0  0  0
  151.5275  136.6550  157.2987 C   0  0  0  0  0  0  0  0  0  0  0  0
  151.5498  137.9160  157.6395 N   0  0  0  0  0  0  0  0  0  0  0  0
  151.0753  138.5776  156.5135 C   0  0  0  0  0  0  0  0  0  0  0  0
  150.8482  139.9422  156.1965 C   0  0  0  0  0  0  0  0  0  0  0  0
  151.1245  140.9064  157.1057 N   0  0  0  0  0  0  0  0  0  0  0  0
  152.1415  140.8973  158.1425 C   0  0  0  0  0  0  0  0  0  0  0  0
  152.9710  139.9925  158.2388 O   0  0  0  0  0  0  0  0  0  0  0  0
  152.1790  142.1006  159.0389 C   0  0  0  0  0  0  0  0  0  0  0  0
  152.7802  142.0133  160.3150 C   0  0  0  0  0  0  0  0  0  0  0  0
  152.7995  143.1307  161.1721 C   0  0  0  0  0  0  0  0  0  0  0  0
  152.2109  144.3427  160.7640 C   0  0  0  0  0  0  0  0  0  0  0  0
  151.6013  144.4359  159.4987 C   0  0  0  0  0  0  0  0  0  0  0  0
  151.5815  143.3192  158.6405 C   0  0  0  0  0  0  0  0  0  0  0  0
  150.3603  140.2239  154.9593 N   0  0  0  0  0  0  0  0  0  0  0  0
  150.1112  139.2371  154.0930 C   0  0  0  0  0  0  0  0  0  0  0  0
  150.2795  137.9228  154.2543 N   0  0  0  0  0  0  0  0  0  0  0  0
  150.7711  137.6336  155.4937 C   0  0  0  0  0  0  0  0  0  0  0  0
  149.4869  134.8480  154.9194 C   0  0  0  0  0  0  0  0  0  0  0  0
  149.3560  133.3578  155.1478 C   0  0  2  0  0  0  0  0  0  0  0  0
  148.0051  132.9936  155.3441 O   0  0  0  0  0  0  0  0  0  0  0  0
  154.5973  130.0849  153.9668 H   0  0  0  0  0  0  0  0  0  0  0  0
  155.3146  130.6082  155.4850 H   0  0  0  0  0  0  0  0  0  0  0  0
  153.9891  131.5226  154.7765 H   0  0  0  0  0  0  0  0  0  0  0  0
  151.6154  130.5350  154.7463 H   0  0  0  0  0  0  0  0  0  0  0  0
  151.3066  128.9597  155.4666 H   0  0  0  0  0  0  0  0  0  0  0  0
  152.2026  129.0782  153.9565 H   0  0  0  0  0  0  0  0  0  0  0  0
  154.1415  127.7432  154.9908 H   0  0  0  0  0  0  0  0  0  0  0  0
  153.2519  127.6165  156.5038 H   0  0  0  0  0  0  0  0  0  0  0  0
  154.8803  128.2822  156.4927 H   0  0  0  0  0  0  0  0  0  0  0  0
  152.6296  128.3504  158.7372 H   0  0  0  0  0  0  0  0  0  0  0  0
  151.1057  128.9763  158.1279 H   0  0  0  0  0  0  0  0  0  0  0  0
  151.8641  129.7183  159.5259 H   0  0  0  0  0  0  0  0  0  0  0  0
  155.2949  130.1726  158.4238 H   0  0  0  0  0  0  0  0  0  0  0  0
  154.4251  131.4674  159.2267 H   0  0  0  0  0  0  0  0  0  0  0  0
  155.1541  131.7451  157.6543 H   0  0  0  0  0  0  0  0  0  0  0  0
  150.7678  131.2241  155.6617 H   0  0  0  0  0  0  0  0  0  0  0  0
  150.0892  131.1880  157.2830 H   0  0  0  0  0  0  0  0  0  0  0  0
  149.6411  133.5012  157.2904 H   0  0  0  0  0  0  0  0  0  0  0  0
  151.6405  135.1033  154.4933 H   0  0  0  0  0  0  0  0  0  0  0  0
  151.8434  135.8717  157.9724 H   0  0  0  0  0  0  0  0  0  0  0  0
  150.5295  141.7212  157.0787 H   0  0  0  0  0  0  0  0  0  0  0  0
  153.2334  141.0890  160.6443 H   0  0  0  0  0  0  0  0  0  0  0  0
  153.2640  143.0569  162.1444 H   0  0  0  0  0  0  0  0  0  0  0  0
  152.2238  145.1987  161.4225 H   0  0  0  0  0  0  0  0  0  0  0  0
  151.1445  145.3640  159.1871 H   0  0  0  0  0  0  0  0  0  0  0  0
  151.0983  143.4095  157.6784 H   0  0  0  0  0  0  0  0  0  0  0  0
  149.7223  139.5454  153.1336 H   0  0  0  0  0  0  0  0  0  0  0  0
  148.8189  135.4029  155.5813 H   0  0  0  0  0  0  0  0  0  0  0  0
  149.3092  135.1578  153.8893 H   0  0  0  0  0  0  0  0  0  0  0  0
  149.7823  132.8055  154.3090 H   0  0  0  0  0  0  0  0  0  0  0  0
  147.8436  132.1851  154.8813 H   0  0  0  0  0  0  0  0  0  0  0  0
  1  2  1  0  0  0  0
  1 34  1  0  0  0  0
  1 35  1  0  0  0  0
  1 36  1  0  0  0  0
  2  3  1  0  0  0  0
  2  4  1  0  0  0  0
  2  5  1  0  0  0  0
  3 37  1  0  0  0  0
  3 38  1  0  0  0  0
  3 39  1  0  0  0  0
  4 40  1  0  0  0  0
  4 41  1  0  0  0  0
  4 42  1  0  0  0  0
  5  6  1  0  0  0  0
  5  7  1  0  0  0  0
  5  8  1  0  0  0  0
  6 43  1  0  0  0  0
  6 44  1  0  0  0  0
  6 45  1  0  0  0  0
  7 46  1  0  0  0  0
  7 47  1  0  0  0  0
  7 48  1  0  0  0  0
  8  9  1  0  0  0  0
  9 10  1  0  0  0  0
  9 49  1  0  0  0  0
  9 50  1  0  0  0  0
 10 32  1  0  0  0  0
 10 11  1  0  0  0  0
 10 51  1  0  0  0  0
 11 12  1  0  0  0  0
 12 13  1  0  0  0  0
 12 31  1  0  0  0  0
 12 52  1  0  0  0  0
 13 30  1  0  0  0  0
 13 14  1  0  0  0  0
 14 15  2  0  0  0  0
 14 53  1  0  0  0  0
 15 16  1  0  0  0  0
 16 30  2  0  0  0  0
 16 17  1  0  0  0  0
 17 18  1  0  0  0  0
 17 27  2  0  0  0  0
 18 19  1  0  0  0  0
 18 54  1  0  0  0  0
 19 20  2  0  0  0  0
 19 21  1  0  0  0  0
 21 26  1  0  0  0  0
 21 22  2  0  0  0  0
 22 23  1  0  0  0  0
 22 55  1  0  0  0  0
 23 24  2  0  0  0  0
 23 56  1  0  0  0  0
 24 25  1  0  0  0  0
 24 57  1  0  0  0  0
 25 26  2  0  0  0  0
 25 58  1  0  0  0  0
 26 59  1  0  0  0  0
 27 28  1  0  0  0  0
 28 29  2  0  0  0  0
 28 60  1  0  0  0  0
 29 30  1  0  0  0  0
 31 32  1  0  0  0  0
 31 61  1  0  0  0  0
 31 62  1  0  0  0  0
 32 33  1  0  0  0  0
 32 63  1  0  0  0  0
 33 64  1  0  0  0  0
M  END
> <s_m_source_file>
AV-unprocessed.smi

> <i_m_source_file_index>
36

> <i_lp_mmshare_version>
43012

> <i_f3d_flags>
0

> <s_epik_input>
W0NIM11DKFtDSDNdKShbQ0gzXSlbU2ldKFtDSDNdKShbQ0gzXSlPW0NIMl1bQ0BASF0xT1tDQEhdKFtDSDJdW0NASF0xW09IXSluKFtjSF1uMiljKGMyMyluW2NIXW5jM1tOSF1DKD1PKWM0W2NIXVtjSF1bY0hdW2NIXVtjSF00

> <s_epik_cmdline>
J2VwaWtfcHl0aG9uJywgJy1waCcsICc3LjAnLCAnLXRuJywgJzgnLCAnLW1hJywgJzIwMCcsICctbWV0YWxfYmluZGluZycsICctaW1hZScsICc8aW5maWxlLm1hZT4nLCAnLW9tYWUnLCAnPG91dGZpbGUubWFlPic=

> <r_lp_tautomer_probability>
1

> <r_epik_Ionization_Penalty>
0.00150433

> <r_epik_Ionization_Penalty_Charging>
0

> <r_epik_Ionization_Penalty_Neutral>
0.00150433

> <r_epik_State_Penalty>
0.00724046

> <r_epik_Charging_Adjusted_Penalty>
0.00724046

> <i_epik_Tot_Q>
0

> <i_epik_Tot_abs_Q>
0

> <r_epik_Metal_State_Penalty>
0.323355

> <b_epik_Metal_Only>
0

> <s_epik_Chemistry_Notes>
This compound contains an acetal/aminal-like group ( X-CH(R)-Y where X, Y are N, S, or O) that may be acid/base labile, releasing an aldehyde.

> <s_lp_Force_Field>
OPLS_2005

> <r_lp_Energy>
35.7954

> <b_lp_Chiralities_Consistent>
1

> <s_lp_Variant>
AV-unprocessed.smi:36-8

> <Gold.Version>
5.8.1

> <Gold.Id.Protein>
6NUR|6NUR_protein|mol2

> <Gold.PLP.Fitness>
51.1325

> <Gold.PLP.PLP>
-46.7784

> <Gold.PLP.part.hbond>
-2.0635

> <Gold.PLP.part.metal>
0.0000

> <Gold.PLP.part.buried>
-4.5398

> <Gold.PLP.part.nonpolar>
-40.7236

> <Gold.PLP.part.repulsive>
0.3792

> <Gold.PLP.ligand.clash>
0.0000

> <Gold.PLP.ligand.torsion>
1.3213

> <Gold.PLP.Chemscore.Hbond>
1.1983

> <Gold.PLP.Chemscore.CHOScore>
1.0000

> <Gold.PLP.Chemscore.Metal>
0.0000

> <Gold.Chemscore.Hbonds>
donor molecule, donor type, donor heavy atom, donor atom, acceptor molecule, acceptor atom, score
      P1  H  7989  7998       L1    27  0.20
      P1  H  7997  8010       L1    20  0.99
      L1  C    28    60       P1  7957  1.00

> <Gold.PLP.Chemscore.Internal.Correction>
0.4020

> <Gold.Rescore>
     Score         DG    S(hbond)    S(metal)    S(lipo)     H(rot)  DE(clash)    DE(int)     intcor
     11.07     -15.22       0.96        0.00     114.95       2.70       0.26       3.88       ----

> <Gold.Chemscore.Fitness>
11.0745

> <Gold.Chemscore.DG>
-15.2172

> <Gold.Chemscore.ZeroCoef>
-5.4800

> <Gold.Chemscore.Hbond>
0.9612

> <Gold.Chemscore.Metal>
0.0000

> <Gold.Chemscore.Lipo>
114.9515

> <Gold.Chemscore.Internal_Hbond>
0.0000

> <Gold.Chemscore.DEClash>
0.2629

> <Gold.Chemscore.DEInternal>
3.8798

> <Gold.Chemscore.Rot>
2.7041

> <Gold.Chemscore.Internal.Correction>
   9.000000E+99

> <Gold.Chemscore.Hbonds>
donor molecule, donor type, donor heavy atom, donor atom, acceptor molecule, acceptor atom, score
      P1  H  7997  8010       L1    20  0.81

> <Gold.Chemscore.Hbond.Weighted>
-3.2104

> <Gold.Chemscore.Metal.Weighted>
-0.0000

> <Gold.Chemscore.Lipo.Weighted>
-13.4493

> <Gold.Chemscore.Internal_Hbond.Weighted>
0.0000

> <Gold.Chemscore.DEClash.Weighted>
0.2629

> <Gold.Chemscore.DEInternal.Weighted>
3.8798

> <Gold.Chemscore.Rot.Weighted>
6.9225

> <Gold.Chemscore.Internal.Correction.Weighted>
   9.000000E+99

> <Gold.Protein.RotatedTorsions>
[ 6907 6896 6895 6894 ] final -170.90 input  -60.11 | X-H torsion
[ 7974 7965 7964 7962 ] final -174.51 input  175.53 | X-H torsion
[ 8008 7997 7996 7995 ] final   45.75 input   59.86 | X-H torsion
[ 10167 10162 10161 10158 ] final   81.04 input  -65.29 | X-H torsion
[ 10718 10713 10712 10709 ] final  122.61 input   66.30 | X-H torsion
[ 10763 10752 10751 10750 ] final  160.94 input  -60.55 | X-H torsion
[ 11005 11000 10999 10996 ] final   55.14 input  -57.11 | X-H torsion

> <Gold.Protein.ActiveResidues>
 VAL166  LYS551  ARG553  GLY616  TRP617  ASP618  TYR619  PRO620  LYS621  CYS622 
 ASP623  PHE694  ASN695  SER759  ASP760  ASP761  ALA762  ILE779  LEU786  VAL792 
 PHE793  MET794  SER795  GLU796  ALA797  LYS798  CYS799  TRP800  GLU811  SER814 

> <Gold.Protein.RotatedAtoms>
  151.5152  133.3477  159.2891 H   0  0  0  0  0  0  0  0  0  0  0  0  # atno 6907 bound_to 6896
  150.8687  134.8058  159.7149 H   0  0  0  0  0  0  0  0  0  0  0  0  # atno 6908 bound_to 6896
  152.4683  134.5033  159.9783 H   0  0  0  0  0  0  0  0  0  0  0  0  # atno 6909 bound_to 6896
  144.7131  140.1461  143.6388 H   0  0  0  0  0  0  0  0  0  0  0  0  # atno 7974 bound_to 7965
  155.3411  140.3408  155.4239 H   0  0  0  0  0  0  0  0  0  0  0  0  # atno 8008 bound_to 7997
  156.1813  140.1665  156.8305 H   0  0  0  0  0  0  0  0  0  0  0  0  # atno 8009 bound_to 7997
  154.5336  140.0740  156.8372 H   0  0  0  0  0  0  0  0  0  0  0  0  # atno 8010 bound_to 7997
  139.9434  144.6074  150.8229 H   0  0  0  0  0  0  0  0  0  0  0  0  # atno 10167 bound_to 10162
  157.5729  131.1082  150.8333 H   0  0  0  0  0  0  0  0  0  0  0  0  # atno 10718 bound_to 10713
  154.2552  135.2770  155.2800 H   0  0  0  0  0  0  0  0  0  0  0  0  # atno 10763 bound_to 10752
  154.5431  135.5697  153.6860 H   0  0  0  0  0  0  0  0  0  0  0  0  # atno 10764 bound_to 10752
  152.9973  135.6256  154.2701 H   0  0  0  0  0  0  0  0  0  0  0  0  # atno 10765 bound_to 10752
  140.0630  134.5575  155.9130 H   0  0  0  0  0  0  0  0  0  0  0  0  # atno 11005 bound_to 11000
  145.9159  139.2515  143.1410 LP  0  0  0  0  0  0  0  0  0  0  0  0  # atno 17320 bound_to 7965
  145.9670  140.8791  143.0182 LP  0  0  0  0  0  0  0  0  0  0  0  0  # atno 17321 bound_to 7965
  140.7604  143.3150  151.2753 LP  0  0  0  0  0  0  0  0  0  0  0  0  # atno 17342 bound_to 10162
  139.6686  144.0061  152.2738 LP  0  0  0  0  0  0  0  0  0  0  0  0  # atno 17343 bound_to 10162
  156.8800  130.5176  149.5291 LP  0  0  0  0  0  0  0  0  0  0  0  0  # atno 17370 bound_to 10713
  156.0774  130.5793  150.9499 LP  0  0  0  0  0  0  0  0  0  0  0  0  # atno 17371 bound_to 10713
  141.1981  133.6600  156.5776 LP  0  0  0  0  0  0  0  0  0  0  0  0  # atno 17394 bound_to 11000
  140.3741  134.7580  157.4618 LP  0  0  0  0  0  0  0  0  0  0  0  0  # atno 17395 bound_to 11000

$$$$
