AV-unprocessed.smi:1762|AV-procd|sdf|7121|dock1
  -GOLD-   22720 8353D 1   1.00000     0.00000
 Structure written by MMmdl.
 52 53  0  0  0  0  0  0  0  0  3 V2000
  145.8988  135.5659  155.1933 C   0  0  0  0  0  0  0  0  0  0  0  0
  146.6168  136.4666  154.1830 C   0  0  2  0  0  0  0  0  0  0  0  0
  147.7752  137.2466  154.8269 C   0  0  0  0  0  0  0  0  0  0  0  0
  148.3785  138.1666  153.8323 N   0  3  2  0  0  0  0  0  0  0  0  0
  149.6673  138.8213  154.2180 C   0  0  1  0  0  0  0  0  0  0  0  0
  149.4991  140.0396  155.1623 C   0  0  0  0  0  0  0  0  0  0  0  0
  148.4310  140.1456  155.7745 O   0  0  0  0  0  0  0  0  0  0  0  0
  150.5958  140.8495  155.1773 N   0  5  0  0  0  0  0  0  0  0  0  0
  150.7507  141.9979  156.0717 C   0  0  0  0  0  0  0  0  0  0  0  0
  151.4466  141.6036  157.3974 C   0  0  0  0  0  0  0  0  0  0  0  0
  151.7182  142.7488  158.3716 C   0  0  0  0  0  0  0  0  0  0  0  0
  151.9579  144.0569  157.8931 C   0  0  0  0  0  0  0  0  0  0  0  0
  152.2369  145.0764  158.8235 C   0  0  0  0  0  0  0  0  0  0  0  0
  152.2737  144.7548  160.1932 C   0  0  0  0  0  0  0  0  0  0  0  0
  152.0371  143.4193  160.5731 C   0  0  0  0  0  0  0  0  0  0  0  0
  151.7738  142.4334  159.6896 N   0  0  0  0  0  0  0  0  0  0  0  0
  150.7653  137.7922  154.6403 C   0  0  0  0  0  0  0  0  0  0  0  0
  150.5514  137.2419  156.0655 C   0  0  0  0  0  0  0  0  0  0  0  0
  152.1831  138.3864  154.5332 C   0  0  0  0  0  0  0  0  0  0  0  0
  147.3547  139.0953  153.2951 C   0  0  0  0  0  0  0  0  0  0  0  0
  146.1716  138.3100  152.6977 C   0  0  1  0  0  0  0  0  0  0  0  0
  146.5012  137.6352  151.3540 C   0  0  0  0  0  0  0  0  0  0  0  0
  145.6587  137.3827  153.6557 O   0  0  0  0  0  0  0  0  0  0  0  0
  146.5866  134.8462  155.6379 H   0  0  0  0  0  0  0  0  0  0  0  0
  145.0950  135.0065  154.7143 H   0  0  0  0  0  0  0  0  0  0  0  0
  145.4602  136.1526  156.0001 H   0  0  0  0  0  0  0  0  0  0  0  0
  147.0026  135.8351  153.3825 H   0  0  0  0  0  0  0  0  0  0  0  0
  147.4061  137.8143  155.6793 H   0  0  0  0  0  0  0  0  0  0  0  0
  148.5202  136.5472  155.2044 H   0  0  0  0  0  0  0  0  0  0  0  0
  150.0474  139.2445  153.2864 H   0  0  0  0  0  0  0  0  0  0  0  0
  151.3196  142.7958  155.5939 H   0  0  0  0  0  0  0  0  0  0  0  0
  149.7867  142.4481  156.3127 H   0  0  0  0  0  0  0  0  0  0  0  0
  150.8224  140.8741  157.9145 H   0  0  0  0  0  0  0  0  0  0  0  0
  152.3820  141.0846  157.1831 H   0  0  0  0  0  0  0  0  0  0  0  0
  151.9316  144.2724  156.8351 H   0  0  0  0  0  0  0  0  0  0  0  0
  152.4248  146.0869  158.4927 H   0  0  0  0  0  0  0  0  0  0  0  0
  152.4844  145.5111  160.9348 H   0  0  0  0  0  0  0  0  0  0  0  0
  152.0652  143.1341  161.6143 H   0  0  0  0  0  0  0  0  0  0  0  0
  150.7322  136.9372  153.9646 H   0  0  0  0  0  0  0  0  0  0  0  0
  150.5441  138.0454  156.8025 H   0  0  0  0  0  0  0  0  0  0  0  0
  151.3456  136.5475  156.3406 H   0  0  0  0  0  0  0  0  0  0  0  0
  149.6119  136.6975  156.1581 H   0  0  0  0  0  0  0  0  0  0  0  0
  152.2890  139.2715  155.1613 H   0  0  0  0  0  0  0  0  0  0  0  0
  152.4299  138.6699  153.5101 H   0  0  0  0  0  0  0  0  0  0  0  0
  152.9354  137.6638  154.8511 H   0  0  0  0  0  0  0  0  0  0  0  0
  146.9947  139.7411  154.0975 H   0  0  0  0  0  0  0  0  0  0  0  0
  147.7899  139.7466  152.5360 H   0  0  0  0  0  0  0  0  0  0  0  0
  145.3672  139.0202  152.5039 H   0  0  0  0  0  0  0  0  0  0  0  0
  146.7691  138.3795  150.6038 H   0  0  0  0  0  0  0  0  0  0  0  0
  145.6414  137.0823  150.9754 H   0  0  0  0  0  0  0  0  0  0  0  0
  147.3377  136.9412  151.4325 H   0  0  0  0  0  0  0  0  0  0  0  0
  148.6301  137.5785  153.0514 H   0  0  0  0  0  0  0  0  0  0  0  0
  1  2  1  0  0  0  0
  1 24  1  0  0  0  0
  1 25  1  0  0  0  0
  1 26  1  0  0  0  0
  2 23  1  0  0  0  0
  2  3  1  0  0  0  0
  2 27  1  0  0  0  0
  3  4  1  0  0  0  0
  3 28  1  0  0  0  0
  3 29  1  0  0  0  0
  4  5  1  0  0  0  0
  4 20  1  0  0  0  0
  4 52  1  0  0  0  0
  5  6  1  0  0  0  0
  5 17  1  0  0  0  0
  5 30  1  0  0  0  0
  6  7  2  0  0  0  0
  6  8  1  0  0  0  0
  8  9  1  0  0  0  0
  9 10  1  0  0  0  0
  9 31  1  0  0  0  0
  9 32  1  0  0  0  0
 10 11  1  0  0  0  0
 10 33  1  0  0  0  0
 10 34  1  0  0  0  0
 11 16  1  0  0  0  0
 11 12  2  0  0  0  0
 12 13  1  0  0  0  0
 12 35  1  0  0  0  0
 13 14  2  0  0  0  0
 13 36  1  0  0  0  0
 14 15  1  0  0  0  0
 14 37  1  0  0  0  0
 15 16  2  0  0  0  0
 15 38  1  0  0  0  0
 17 18  1  0  0  0  0
 17 19  1  0  0  0  0
 17 39  1  0  0  0  0
 18 40  1  0  0  0  0
 18 41  1  0  0  0  0
 18 42  1  0  0  0  0
 19 43  1  0  0  0  0
 19 44  1  0  0  0  0
 19 45  1  0  0  0  0
 20 21  1  0  0  0  0
 20 46  1  0  0  0  0
 20 47  1  0  0  0  0
 21 22  1  0  0  0  0
 21 23  1  0  0  0  0
 21 48  1  0  0  0  0
 22 49  1  0  0  0  0
 22 50  1  0  0  0  0
 22 51  1  0  0  0  0
M  CHG  1   4   1
M  CHG  1   8  -1
M  END
> <s_m_source_file>
AV-unprocessed.smi

> <i_m_source_file_index>
1762

> <i_lp_mmshare_version>
43012

> <i_f3d_flags>
0

> <s_epik_input>
W0NIM11bQ0BASF0xW0NIMl1OKFtDSDJdW0NASF0oTzEpW0NIM10pW0NAQEhdKFtDSF0oW0NIM10pW0NIM10pQyg9TylbTkhdW0NIMl1bQ0gyXWMyW2NIXVtjSF1bY0hdW2NIXW4y

> <s_epik_cmdline>
J2VwaWtfcHl0aG9uJywgJy1waCcsICc3LjAnLCAnLXRuJywgJzgnLCAnLW1hJywgJzIwMCcsICctbWV0YWxfYmluZGluZycsICctaW1hZScsICc8aW5maWxlLm1hZT4nLCAnLW9tYWUnLCAnPG91dGZpbGUubWFlPic=

> <r_epik_Ionization_Penalty>
7.82966

> <r_epik_Ionization_Penalty_Charging>
7.7461

> <r_epik_Ionization_Penalty_Neutral>
0.0835571

> <r_epik_State_Penalty>
8.52273

> <r_epik_Charging_Adjusted_Penalty>
16.2688

> <i_epik_Tot_Q>
0

> <i_epik_Tot_abs_Q>
2

> <r_epik_Metal_State_Penalty>
4.47451

> <b_epik_Metal_Only>
1

> <s_lp_Force_Field>
OPLS_2005

> <r_lp_Energy>
25.1161

> <b_lp_Chiralities_Consistent>
1

> <s_lp_Variant>
AV-unprocessed.smi:1762-23

> <Gold.Version>
5.8.1

> <Gold.Id.Protein>
6NUR|6NUR_protein|mol2

> <Gold.PLP.Fitness>
49.3393

> <Gold.PLP.PLP>
-42.4153

> <Gold.PLP.part.hbond>
-2.0000

> <Gold.PLP.part.metal>
0.0000

> <Gold.PLP.part.buried>
-1.6464

> <Gold.PLP.part.nonpolar>
-38.7227

> <Gold.PLP.part.repulsive>
0.2593

> <Gold.PLP.ligand.clash>
0.0000

> <Gold.PLP.ligand.torsion>
1.1707

> <Gold.PLP.Chemscore.Hbond>
2.8160

> <Gold.PLP.Chemscore.CHOScore>
0.0000

> <Gold.PLP.Chemscore.Metal>
0.0000

> <Gold.Chemscore.Hbonds>
donor molecule, donor type, donor heavy atom, donor atom, acceptor molecule, acceptor atom, score
      L1  H     4    52       P1  7948  2.00
      P1  H  7989  7998       L1     8  0.80

> <Gold.PLP.Chemscore.Internal.Correction>
0.8173

> <Gold.Rescore>
     Score         DG    S(hbond)    S(metal)    S(lipo)     H(rot)  DE(clash)    DE(int)     intcor
     18.13     -22.33       1.68        0.00     131.07       1.60       1.50       2.69       ----

> <Gold.Chemscore.Fitness>
18.1347

> <Gold.Chemscore.DG>
-22.3252

> <Gold.Chemscore.ZeroCoef>
-5.4800

> <Gold.Chemscore.Hbond>
1.6792

> <Gold.Chemscore.Metal>
0.0000

> <Gold.Chemscore.Lipo>
131.0737

> <Gold.Chemscore.Internal_Hbond>
0.0000

> <Gold.Chemscore.DEClash>
1.5045

> <Gold.Chemscore.DEInternal>
2.6860

> <Gold.Chemscore.Rot>
1.6012

> <Gold.Chemscore.Internal.Correction>
   9.000000E+99

> <Gold.Chemscore.Hbonds>
donor molecule, donor type, donor heavy atom, donor atom, acceptor molecule, acceptor atom, score
      L1  H     4    52       P1  7948  1.00
      P1  H  7989  7998       L1     8  0.66

> <Gold.Chemscore.Hbond.Weighted>
-5.6085

> <Gold.Chemscore.Metal.Weighted>
-0.0000

> <Gold.Chemscore.Lipo.Weighted>
-15.3356

> <Gold.Chemscore.Internal_Hbond.Weighted>
0.0000

> <Gold.Chemscore.DEClash.Weighted>
1.5045

> <Gold.Chemscore.DEInternal.Weighted>
2.6860

> <Gold.Chemscore.Rot.Weighted>
4.0990

> <Gold.Chemscore.Internal.Correction.Weighted>
   9.000000E+99

> <Gold.Protein.RotatedTorsions>
[ 6907 6896 6895 6894 ] final -151.94 input  -60.11 | X-H torsion
[ 7974 7965 7964 7962 ] final  103.97 input  175.53 | X-H torsion
[ 8008 7997 7996 7995 ] final  -85.31 input   59.86 | X-H torsion
[ 10167 10162 10161 10158 ] final  -60.85 input  -65.29 | X-H torsion
[ 10718 10713 10712 10709 ] final  -45.23 input   66.30 | X-H torsion
[ 10763 10752 10751 10750 ] final  -38.45 input  -60.55 | X-H torsion
[ 11005 11000 10999 10996 ] final -132.46 input  -57.11 | X-H torsion

> <Gold.Protein.ActiveResidues>
 VAL166  LYS551  ARG553  GLY616  TRP617  ASP618  TYR619  PRO620  LYS621  CYS622 
 ASP623  PHE694  ASN695  SER759  ASP760  ASP761  ALA762  ILE779  LEU786  VAL792 
 PHE793  MET794  SER795  GLU796  ALA797  LYS798  CYS799  TRP800  GLU811  SER814 

> <Gold.Protein.RotatedAtoms>
  151.2204  133.4505  159.2600 H   0  0  0  0  0  0  0  0  0  0  0  0  # atno 6907 bound_to 6896
  151.0890  134.9905  159.8403 H   0  0  0  0  0  0  0  0  0  0  0  0  # atno 6908 bound_to 6896
  152.5432  134.2139  159.8814 H   0  0  0  0  0  0  0  0  0  0  0  0  # atno 6909 bound_to 6896
  145.3389  139.2467  143.3620 H   0  0  0  0  0  0  0  0  0  0  0  0  # atno 7974 bound_to 7965
  154.6394  140.0593  156.9827 H   0  0  0  0  0  0  0  0  0  0  0  0  # atno 8008 bound_to 7997
  155.1541  140.3277  155.4406 H   0  0  0  0  0  0  0  0  0  0  0  0  # atno 8009 bound_to 7997
  156.2523  140.1942  156.6651 H   0  0  0  0  0  0  0  0  0  0  0  0  # atno 8010 bound_to 7997
  140.6045  143.2370  151.5854 H   0  0  0  0  0  0  0  0  0  0  0  0  # atno 10167 bound_to 10162
  156.2305  130.4172  149.8881 H   0  0  0  0  0  0  0  0  0  0  0  0  # atno 10718 bound_to 10713
  153.9131  135.6790  153.4750 H   0  0  0  0  0  0  0  0  0  0  0  0  # atno 10763 bound_to 10752
  153.1068  135.4802  154.8963 H   0  0  0  0  0  0  0  0  0  0  0  0  # atno 10764 bound_to 10752
  154.7517  135.3186  154.8501 H   0  0  0  0  0  0  0  0  0  0  0  0  # atno 10765 bound_to 10752
  140.9168  134.1496  157.4346 H   0  0  0  0  0  0  0  0  0  0  0  0  # atno 11005 bound_to 11000
  146.3015  140.3983  142.8702 LP  0  0  0  0  0  0  0  0  0  0  0  0  # atno 17320 bound_to 7965
  144.8805  140.7394  143.5989 LP  0  0  0  0  0  0  0  0  0  0  0  0  # atno 17321 bound_to 7965
  139.5314  144.2904  152.1157 LP  0  0  0  0  0  0  0  0  0  0  0  0  # atno 17342 bound_to 10162
  140.2091  144.4581  150.6394 LP  0  0  0  0  0  0  0  0  0  0  0  0  # atno 17343 bound_to 10162
  156.6497  130.8738  151.3529 LP  0  0  0  0  0  0  0  0  0  0  0  0  # atno 17370 bound_to 10713
  157.7131  130.9464  150.1157 LP  0  0  0  0  0  0  0  0  0  0  0  0  # atno 17371 bound_to 10713
  139.8767  134.9956  156.5754 LP  0  0  0  0  0  0  0  0  0  0  0  0  # atno 17394 bound_to 11000
  140.8039  133.8483  155.8751 LP  0  0  0  0  0  0  0  0  0  0  0  0  # atno 17395 bound_to 11000

$$$$
