#       Name:                AV-unprocessed.smi:2114
#       Creating user name   scv26
#       Creation time:       Fri Mar 27 11:36:31 2020


#       File generated by GOLD software.
#

@<TRIPOS>MOLECULE
AV-unprocessed.smi:2114
    55    56     1
SMALL
NO_CHARGES


@<TRIPOS>ATOM
      1 ****        -5.6861  -0.1706  -3.4002 C.3            1 S1                 0.0000
      2 ****        -5.2227   0.2441  -2.1272 O.3            1 S1                 0.0000
      3 ****        -5.6093  -0.6450  -1.0916 C.3            1 S1                 0.0000
      4 ****        -5.0843  -0.1227   0.2545 C.3            1 S1                 0.0000
      5 ****        -5.6111  -0.9650   1.4279 C.3            1 S1                 0.0000
      6 ****        -3.6239  -0.1288   0.2455 N.am           1 S1                 0.0000
      7 ****        -2.8386   0.6591   0.9985 C.2            1 S1                 0.0000
      8 ****        -3.2734   1.5029   1.7825 O.2            1 S1                 0.0000
      9 ****        -1.3610   0.4958   0.7877 C.ar           1 S1                 0.0000
     10 ****        -0.7928  -0.7468   0.4310 C.ar           1 S1                 0.0000
     11 ****         0.6034  -0.8440   0.2779 C.ar           1 S1                 0.0000
     12 ****         1.4032   0.3029   0.4928 C.ar           1 S1                 0.0000
     13 ****         2.8049   0.2247   0.3504 N.3            1 S1                 0.0000
     14 ****         3.2833  -0.3084  -0.9218 C.3            1 S1                 0.0000
     15 ****         4.7805  -0.6668  -0.8421 C.3            1 S1                 0.0000
     16 ****         5.0579  -1.9637  -0.0608 C.3            1 S1                 0.0000
     17 ****         5.5278   0.4410  -0.3342 O.3            1 S1                 0.0000
     18 ****         5.0915   0.9245   0.9356 C.3            1 S1                 0.0000
     19 ****         5.9889   2.1022   1.3299 C.3            1 S1                 0.0000
     20 ****         3.6110   1.3351   0.8497 C.3            1 S1                 0.0000
     21 ****         0.8576   1.4916   0.8487 N.ar           1 S1                 0.0000
     22 ****        -0.4816   1.5803   0.9930 C.ar           1 S1                 0.0000
     23 ****        -5.3574   0.5393  -4.1589 H              1 S1                 0.0000
     24 ****        -6.7757  -0.2128  -3.4286 H              1 S1                 0.0000
     25 ****        -5.2903  -1.1524  -3.6637 H              1 S1                 0.0000
     26 ****        -6.6980  -0.7134  -1.0622 H              1 S1                 0.0000
     27 ****        -5.2248  -1.6474  -1.2886 H              1 S1                 0.0000
     28 ****        -5.4390   0.9021   0.3790 H              1 S1                 0.0000
     29 ****        -6.7011  -0.9622   1.4537 H              1 S1                 0.0000
     30 ****        -5.2621  -0.5755   2.3846 H              1 S1                 0.0000
     31 ****        -5.2831  -2.0021   1.3507 H              1 S1                 0.0000
     32 ****        -3.1773  -0.7712  -0.3925 H              1 S1                 0.0000
     33 ****        -1.4073  -1.6229   0.2823 H              1 S1                 0.0000
     34 ****         1.0443  -1.7951   0.0188 H              1 S1                 0.0000
     35 ****         2.7173  -1.1834  -1.2387 H              1 S1                 0.0000
     36 ****         3.1312   0.4541  -1.6869 H              1 S1                 0.0000
     37 ****         5.1365  -0.8307  -1.8596 H              1 S1                 0.0000
     38 ****         4.5913  -2.8171  -0.5530 H              1 S1                 0.0000
     39 ****         4.6681  -1.9261   0.9563 H              1 S1                 0.0000
     40 ****         6.1283  -2.1615  -0.0029 H              1 S1                 0.0000
     41 ****         5.2114   0.1438   1.6871 H              1 S1                 0.0000
     42 ****         5.7042   2.5039   2.3027 H              1 S1                 0.0000
     43 ****         5.9225   2.9104   0.6009 H              1 S1                 0.0000
     44 ****         7.0326   1.7931   1.3906 H              1 S1                 0.0000
     45 ****         3.4936   2.1915   0.1837 H              1 S1                 0.0000
     46 ****         3.2639   1.6396   1.8381 H              1 S1                 0.0000
     47 ****        -0.8560   2.5524   1.2800 H              1 S1                 0.0000
     48 ****        -5.5977   1.1497  -1.9289 LP             1 S1                 0.0000
     49 ****        -4.2242   0.2946  -2.1503 LP             1 S1                 0.0000
     50 ****        -4.2601   1.6296   1.8840 LP             1 S1                 0.0000
     51 ****        -2.6398   2.0616   2.3177 LP             1 S1                 0.0000
     52 ****         2.9846  -0.4882   1.0282 LP             1 S1                 0.0000
     53 ****         5.4598   1.1905  -0.9927 LP             1 S1                 0.0000
     54 ****         6.4833   0.1587  -0.2482 LP             1 S1                 0.0000
     55 ****         1.4386   2.2910   1.0021 LP             1 S1                 0.0000
@<TRIPOS>BOND
    1    1    2 1     
    2    1   23 1     
    3    1   24 1     
    4    1   25 1     
    5    2    3 1     
    6    3    4 1     
    7    3   26 1     
    8    3   27 1     
    9    4    5 1     
   10    4    6 1     
   11    4   28 1     
   12    5   29 1     
   13    5   30 1     
   14    5   31 1     
   15    6    7 am    
   16    6   32 1     
   17    7    8 2     
   18    7    9 1     
   19    9   22 ar    
   20    9   10 ar    
   21   10   11 ar    
   22   10   33 1     
   23   11   12 ar    
   24   11   34 1     
   25   12   13 1     
   26   12   21 ar    
   27   13   20 1     
   28   13   14 1     
   29   14   15 1     
   30   14   35 1     
   31   14   36 1     
   32   15   16 1     
   33   15   17 1     
   34   15   37 1     
   35   16   38 1     
   36   16   39 1     
   37   16   40 1     
   38   17   18 1     
   39   18   19 1     
   40   18   20 1     
   41   18   41 1     
   42   19   42 1     
   43   19   43 1     
   44   19   44 1     
   45   20   45 1     
   46   20   46 1     
   47   21   22 ar    
   48   22   47 1     
   49    2   48 1     
   50    2   49 1     
   51    8   50 1     
   52    8   51 1     
   53   13   52 1     
   54   17   53 1     
   55   17   54 1     
   56   21   55 1     
@<TRIPOS>SUBSTRUCTURE
      1 S1             1
@<TRIPOS>SET
LONE_PAIRS      STATIC     ATOMS    <user>   **** ""
8 48 49 50 51 52 53 54 55
DONOR_HYDROGENS      STATIC     ATOMS    <user>   **** ""
1 32
ATOM$BLUE        STATIC     ATOMS    COLORGROUP SYSTEM
8 48 49 50 51 52 53 54 55
ATOM$RED        STATIC     ATOMS    COLORGROUP SYSTEM
1 32
