AV-unprocessed.smi:1193|AV-procd|sdf|4989|dock7
  -GOLD-   22720 3593D 1   1.00000     0.00000
 Structure written by MMmdl.
 38 39  0  0  0  0  0  0  0  0  1 V2000
  151.9199  138.3953  154.4701 C   0  0  0  0  0  0  0  0  0  0  0  0
  150.5432  138.2398  154.1432 O   0  0  0  0  0  0  0  0  0  0  0  0
  149.7085  139.3350  154.2609 C   0  0  0  0  0  0  0  0  0  0  0  0
  150.2400  140.5074  154.6898 N   0  0  0  0  0  0  0  0  0  0  0  0
  149.4266  141.5768  154.8077 C   0  0  0  0  0  0  0  0  0  0  0  0
  148.0516  141.5347  154.5135 C   0  0  0  0  0  0  0  0  0  0  0  0
  147.4978  140.3199  154.0688 C   0  0  0  0  0  0  0  0  0  0  0  0
  148.3417  139.1916  153.9260 C   0  0  0  0  0  0  0  0  0  0  0  0
  147.8863  137.9125  153.5019 N   0  0  0  0  0  0  0  0  0  0  0  0
  146.7176  137.3047  153.7669 C   0  0  0  0  0  0  0  0  0  0  0  0
  145.8086  137.7716  154.4530 O   0  0  0  0  0  0  0  0  0  0  0  0
  146.6506  136.1068  153.1681 N   0  0  0  0  0  0  0  0  0  0  0  0
  145.5227  135.1816  153.2588 C   0  0  0  0  0  0  0  0  0  0  0  0
  144.8245  134.9363  151.9087 C   0  0  0  0  0  0  0  0  0  0  0  0
  144.0727  135.7934  151.4401 O   0  0  0  0  0  0  0  0  0  0  0  0
  145.0516  133.7644  151.2801 N   0  0  0  0  0  0  0  0  0  0  0  0
  144.4843  133.3600  149.9940 C   0  0  0  0  0  0  0  0  0  0  0  0
  145.2378  132.0920  149.5913 C   0  0  0  0  0  0  0  0  0  0  0  0
  145.7044  131.5002  150.9140 C   0  0  0  0  0  0  0  0  0  0  0  0
  145.9241  132.7189  151.8110 C   0  0  0  0  0  0  0  0  0  0  0  0
  152.4349  137.4467  154.3187 H   0  0  0  0  0  0  0  0  0  0  0  0
  152.0524  138.6805  155.5148 H   0  0  0  0  0  0  0  0  0  0  0  0
  152.4007  139.1379  153.8316 H   0  0  0  0  0  0  0  0  0  0  0  0
  149.8847  142.4919  155.1525 H   0  0  0  0  0  0  0  0  0  0  0  0
  147.4343  142.4131  154.6311 H   0  0  0  0  0  0  0  0  0  0  0  0
  146.4399  140.2767  153.8618 H   0  0  0  0  0  0  0  0  0  0  0  0
  148.4997  137.4306  152.8610 H   0  0  0  0  0  0  0  0  0  0  0  0
  147.4442  135.8021  152.6241 H   0  0  0  0  0  0  0  0  0  0  0  0
  145.8573  134.2350  153.6864 H   0  0  0  0  0  0  0  0  0  0  0  0
  144.7979  135.6046  153.9546 H   0  0  0  0  0  0  0  0  0  0  0  0
  143.4226  133.1452  150.1254 H   0  0  0  0  0  0  0  0  0  0  0  0
  144.5850  134.1337  149.2319 H   0  0  0  0  0  0  0  0  0  0  0  0
  144.6247  131.4020  149.0109 H   0  0  0  0  0  0  0  0  0  0  0  0
  146.1049  132.3586  148.9853 H   0  0  0  0  0  0  0  0  0  0  0  0
  144.9137  130.8756  151.3318 H   0  0  0  0  0  0  0  0  0  0  0  0
  146.5982  130.8841  150.8115 H   0  0  0  0  0  0  0  0  0  0  0  0
  146.9594  133.0576  151.7508 H   0  0  0  0  0  0  0  0  0  0  0  0
  145.7022  132.4889  152.8543 H   0  0  0  0  0  0  0  0  0  0  0  0
  1  2  1  0  0  0  0
  1 21  1  0  0  0  0
  1 22  1  0  0  0  0
  1 23  1  0  0  0  0
  2  3  1  0  0  0  0
  3  8  1  0  0  0  0
  3  4  2  0  0  0  0
  4  5  1  0  0  0  0
  5  6  2  0  0  0  0
  5 24  1  0  0  0  0
  6  7  1  0  0  0  0
  6 25  1  0  0  0  0
  7  8  2  0  0  0  0
  7 26  1  0  0  0  0
  8  9  1  0  0  0  0
  9 10  1  0  0  0  0
  9 27  1  0  0  0  0
 10 11  2  0  0  0  0
 10 12  1  0  0  0  0
 12 13  1  0  0  0  0
 12 28  1  0  0  0  0
 13 14  1  0  0  0  0
 13 29  1  0  0  0  0
 13 30  1  0  0  0  0
 14 15  2  0  0  0  0
 14 16  1  0  0  0  0
 16 20  1  0  0  0  0
 16 17  1  0  0  0  0
 17 18  1  0  0  0  0
 17 31  1  0  0  0  0
 17 32  1  0  0  0  0
 18 19  1  0  0  0  0
 18 33  1  0  0  0  0
 18 34  1  0  0  0  0
 19 20  1  0  0  0  0
 19 35  1  0  0  0  0
 19 36  1  0  0  0  0
 20 37  1  0  0  0  0
 20 38  1  0  0  0  0
M  END
> <s_m_source_file>
AV-unprocessed.smi

> <i_m_source_file_index>
1193

> <i_lp_mmshare_version>
43012

> <i_f3d_flags>
0

> <s_epik_input>
W0NIM11PYzFuW2NIXVtjSF1bY0hdYzFbTkhdQyg9TylbTkhdW0NIMl1DKD1PKU4yW0NIMl1bQ0gyXVtDSDJdW0NIMl0y

> <s_epik_cmdline>
J2VwaWtfcHl0aG9uJywgJy1waCcsICc3LjAnLCAnLXRuJywgJzgnLCAnLW1hJywgJzIwMCcsICctbWV0YWxfYmluZGluZycsICctaW1hZScsICc8aW5maWxlLm1hZT4nLCAnLW9tYWUnLCAnPG91dGZpbGUubWFlPic=

> <r_lp_tautomer_probability>
1

> <r_epik_Ionization_Penalty>
0.000141665

> <r_epik_Ionization_Penalty_Charging>
0

> <r_epik_Ionization_Penalty_Neutral>
0.000141665

> <r_epik_State_Penalty>
-0

> <r_epik_Charging_Adjusted_Penalty>
0

> <i_epik_Tot_Q>
0

> <i_epik_Tot_abs_Q>
0

> <r_epik_Metal_State_Penalty>
-0

> <b_epik_Metal_Only>
0

> <s_lp_Force_Field>
OPLS_2005

> <r_lp_Energy>
26.7485

> <b_lp_Chiralities_Consistent>
1

> <s_lp_Variant>
AV-unprocessed.smi:1193-1

> <Gold.Version>
5.8.1

> <Gold.Id.Protein>
6NUR|6NUR_protein|mol2

> <Gold.PLP.Fitness>
44.4147

> <Gold.PLP.PLP>
-33.5540

> <Gold.PLP.part.hbond>
-3.0000

> <Gold.PLP.part.metal>
0.0000

> <Gold.PLP.part.buried>
-4.4004

> <Gold.PLP.part.nonpolar>
-26.5878

> <Gold.PLP.part.repulsive>
0.6435

> <Gold.PLP.ligand.clash>
0.0000

> <Gold.PLP.ligand.torsion>
0.4789

> <Gold.PLP.Chemscore.Hbond>
2.9360

> <Gold.PLP.Chemscore.CHOScore>
1.0000

> <Gold.PLP.Chemscore.Metal>
0.0000

> <Gold.Chemscore.Hbonds>
donor molecule, donor type, donor heavy atom, donor atom, acceptor molecule, acceptor atom, score
      L1  H     9    27       P1  7948  1.00
      L1  H    12    28       P1  7948  0.98
      P1  H  7989  7998       L1     4  0.94
      L1  C     5    24       P1  8028  1.00

> <Gold.PLP.Chemscore.Internal.Correction>
0.0104

> <Gold.Rescore>
     Score         DG    S(hbond)    S(metal)    S(lipo)     H(rot)  DE(clash)    DE(int)     intcor
     16.72     -17.91       2.37        0.00      73.18       1.58       0.07       1.12       ----

> <Gold.Chemscore.Fitness>
16.7183

> <Gold.Chemscore.DG>
-17.9088

> <Gold.Chemscore.ZeroCoef>
-5.4800

> <Gold.Chemscore.Hbond>
2.3690

> <Gold.Chemscore.Metal>
0.0000

> <Gold.Chemscore.Lipo>
73.1809

> <Gold.Chemscore.Internal_Hbond>
0.0000

> <Gold.Chemscore.DEClash>
0.0677

> <Gold.Chemscore.DEInternal>
1.1229

> <Gold.Chemscore.Rot>
1.5804

> <Gold.Chemscore.Internal.Correction>
   9.000000E+99

> <Gold.Chemscore.Hbonds>
donor molecule, donor type, donor heavy atom, donor atom, acceptor molecule, acceptor atom, score
      L1  H     9    27       P1  7948  0.98
      L1  H    12    28       P1  7948  0.92
      P1  H  7989  7998       L1     4  0.34

> <Gold.Chemscore.Hbond.Weighted>
-7.9126

> <Gold.Chemscore.Metal.Weighted>
-0.0000

> <Gold.Chemscore.Lipo.Weighted>
-8.5622

> <Gold.Chemscore.Internal_Hbond.Weighted>
0.0000

> <Gold.Chemscore.DEClash.Weighted>
0.0677

> <Gold.Chemscore.DEInternal.Weighted>
1.1229

> <Gold.Chemscore.Rot.Weighted>
4.0459

> <Gold.Chemscore.Internal.Correction.Weighted>
   9.000000E+99

> <Gold.Protein.RotatedTorsions>
[ 6907 6896 6895 6894 ] final   94.50 input  -60.11 | X-H torsion
[ 7974 7965 7964 7962 ] final  122.77 input  175.53 | X-H torsion
[ 8008 7997 7996 7995 ] final   37.58 input   59.86 | X-H torsion
[ 10167 10162 10161 10158 ] final  -78.70 input  -65.29 | X-H torsion
[ 10718 10713 10712 10709 ] final  118.11 input   66.30 | X-H torsion
[ 10763 10752 10751 10750 ] final -146.75 input  -60.55 | X-H torsion
[ 11005 11000 10999 10996 ] final  150.57 input  -57.11 | X-H torsion

> <Gold.Protein.ActiveResidues>
 VAL166  LYS551  ARG553  GLY616  TRP617  ASP618  TYR619  PRO620  LYS621  CYS622 
 ASP623  PHE694  ASN695  SER759  ASP760  ASP761  ALA762  ILE779  LEU786  VAL792 
 PHE793  MET794  SER795  GLU796  ALA797  LYS798  CYS799  TRP800  GLU811  SER814 

> <Gold.Protein.RotatedAtoms>
  152.5449  134.1184  159.8388 H   0  0  0  0  0  0  0  0  0  0  0  0  # atno 6907 bound_to 6896
  151.1243  133.5074  159.2608 H   0  0  0  0  0  0  0  0  0  0  0  0  # atno 6908 bound_to 6896
  151.1745  135.0343  159.8820 H   0  0  0  0  0  0  0  0  0  0  0  0  # atno 6909 bound_to 6896
  145.1037  139.3500  143.4799 H   0  0  0  0  0  0  0  0  0  0  0  0  # atno 7974 bound_to 7965
  155.2060  140.3319  155.4336 H   0  0  0  0  0  0  0  0  0  0  0  0  # atno 8008 bound_to 7997
  156.2388  140.1885  156.7094 H   0  0  0  0  0  0  0  0  0  0  0  0  # atno 8009 bound_to 7997
  154.6109  140.0609  156.9478 H   0  0  0  0  0  0  0  0  0  0  0  0  # atno 8010 bound_to 7997
  140.4659  143.2440  151.8278 H   0  0  0  0  0  0  0  0  0  0  0  0  # atno 10167 bound_to 10162
  157.6052  131.1044  150.7710 H   0  0  0  0  0  0  0  0  0  0  0  0  # atno 10718 bound_to 10713
  154.8320  135.3378  154.6711 H   0  0  0  0  0  0  0  0  0  0  0  0  # atno 10763 bound_to 10752
  153.7330  135.6951  153.4989 H   0  0  0  0  0  0  0  0  0  0  0  0  # atno 10764 bound_to 10752
  153.2298  135.4420  155.0535 H   0  0  0  0  0  0  0  0  0  0  0  0  # atno 10765 bound_to 10752
  140.1143  134.8904  157.1981 H   0  0  0  0  0  0  0  0  0  0  0  0  # atno 11005 bound_to 11000
  146.3529  140.0926  142.8612 LP  0  0  0  0  0  0  0  0  0  0  0  0  # atno 17320 bound_to 7965
  145.0926  140.9294  143.4760 LP  0  0  0  0  0  0  0  0  0  0  0  0  # atno 17321 bound_to 7965
  139.4812  144.4951  151.9134 LP  0  0  0  0  0  0  0  0  0  0  0  0  # atno 17342 bound_to 10162
  140.4036  144.2460  150.5892 LP  0  0  0  0  0  0  0  0  0  0  0  0  # atno 17343 bound_to 10162
  156.8100  130.4949  149.5357 LP  0  0  0  0  0  0  0  0  0  0  0  0  # atno 17370 bound_to 10713
  156.1136  130.6058  151.0086 LP  0  0  0  0  0  0  0  0  0  0  0  0  # atno 17371 bound_to 10713
  140.3050  134.3089  155.7280 LP  0  0  0  0  0  0  0  0  0  0  0  0  # atno 17394 bound_to 11000
  141.2137  133.7615  156.9695 LP  0  0  0  0  0  0  0  0  0  0  0  0  # atno 17395 bound_to 11000

$$$$
