AV-unprocessed.smi:937|AV-procd|sdf|4212|dock1
  -GOLD-   22720 2123D 1   1.00000     0.00000
 Structure written by MMmdl.
 45 46  0  0  0  0  0  0  0  0  1 V2000
  144.3988  145.2819  153.3009 C   0  0  0  0  0  0  0  0  0  0  0  0
  145.0125  144.2746  154.2507 C   0  0  0  0  0  0  0  0  0  0  0  0
  145.9051  143.2872  153.7826 C   0  0  0  0  0  0  0  0  0  0  0  0
  146.4401  142.3729  154.7107 C   0  0  0  0  0  0  0  0  0  0  0  0
  146.0648  142.4810  156.0656 C   0  0  0  0  0  0  0  0  0  0  0  0
  146.6014  141.5168  157.1050 C   0  0  0  0  0  0  0  0  0  0  0  0
  148.1221  141.3428  156.9976 C   0  0  0  0  0  0  0  0  0  0  0  0
  148.8109  142.3279  157.8193 N   0  0  0  0  0  0  0  0  0  0  0  0
  150.1273  142.5849  157.7577 C   0  0  0  0  0  0  0  0  0  0  0  0
  150.8929  142.0131  156.9841 O   0  0  0  0  0  0  0  0  0  0  0  0
  150.5621  143.5180  158.6237 N   0  0  0  0  0  0  0  0  0  0  0  0
  151.9242  144.0272  158.8142 C   0  0  1  0  0  0  0  0  0  0  0  0
  152.0394  144.9012  160.0822 C   0  0  0  0  0  0  0  0  0  0  0  0
  151.9066  144.0724  161.3699 C   0  0  0  0  0  0  0  0  0  0  0  0
  152.9258  142.9232  161.4006 C   0  0  0  0  0  0  0  0  0  0  0  0
  152.7976  142.0137  160.1606 C   0  0  2  0  0  0  0  0  0  0  0  0
  153.8090  140.8490  160.1908 C   0  0  0  0  0  0  0  0  0  0  0  0
  153.9428  140.3680  161.4272 F   0  0  0  0  0  0  0  0  0  0  0  0
  153.3994  139.8668  159.3881 F   0  0  0  0  0  0  0  0  0  0  0  0
  154.9990  141.2681  159.7603 F   0  0  0  0  0  0  0  0  0  0  0  0
  152.9226  142.8529  158.8675 C   0  0  0  0  0  0  0  0  0  0  0  0
  145.1673  143.5069  156.4299 C   0  0  0  0  0  0  0  0  0  0  0  0
  144.6484  144.3873  155.5472 N   0  0  0  0  0  0  0  0  0  0  0  0
  144.7565  145.1343  152.2815 H   0  0  0  0  0  0  0  0  0  0  0  0
  144.6536  146.2970  153.6067 H   0  0  0  0  0  0  0  0  0  0  0  0
  143.3127  145.1851  153.2970 H   0  0  0  0  0  0  0  0  0  0  0  0
  146.1734  143.2279  152.7379 H   0  0  0  0  0  0  0  0  0  0  0  0
  147.1235  141.6025  154.3849 H   0  0  0  0  0  0  0  0  0  0  0  0
  146.3329  141.8746  158.1000 H   0  0  0  0  0  0  0  0  0  0  0  0
  146.1045  140.5540  156.9788 H   0  0  0  0  0  0  0  0  0  0  0  0
  148.4022  140.3369  157.3148 H   0  0  0  0  0  0  0  0  0  0  0  0
  148.4443  141.4561  155.9616 H   0  0  0  0  0  0  0  0  0  0  0  0
  148.2540  142.8424  158.4859 H   0  0  0  0  0  0  0  0  0  0  0  0
  149.8660  143.9023  159.2461 H   0  0  0  0  0  0  0  0  0  0  0  0
  152.1863  144.6347  157.9461 H   0  0  0  0  0  0  0  0  0  0  0  0
  153.0095  145.3997  160.0819 H   0  0  0  0  0  0  0  0  0  0  0  0
  151.2952  145.6981  160.0751 H   0  0  0  0  0  0  0  0  0  0  0  0
  152.0492  144.7152  162.2389 H   0  0  0  0  0  0  0  0  0  0  0  0
  150.8957  143.6705  161.4493 H   0  0  0  0  0  0  0  0  0  0  0  0
  153.9344  143.3347  161.4550 H   0  0  0  0  0  0  0  0  0  0  0  0
  152.7828  142.3397  162.3105 H   0  0  0  0  0  0  0  0  0  0  0  0
  151.8001  141.5719  160.1789 H   0  0  0  0  0  0  0  0  0  0  0  0
  152.7871  142.2171  157.9917 H   0  0  0  0  0  0  0  0  0  0  0  0
  153.9362  143.2495  158.7952 H   0  0  0  0  0  0  0  0  0  0  0  0
  144.8530  143.6222  157.4568 H   0  0  0  0  0  0  0  0  0  0  0  0
  1  2  1  0  0  0  0
  1 24  1  0  0  0  0
  1 25  1  0  0  0  0
  1 26  1  0  0  0  0
  2 23  1  0  0  0  0
  2  3  2  0  0  0  0
  3  4  1  0  0  0  0
  3 27  1  0  0  0  0
  4  5  2  0  0  0  0
  4 28  1  0  0  0  0
  5  6  1  0  0  0  0
  5 22  1  0  0  0  0
  6  7  1  0  0  0  0
  6 29  1  0  0  0  0
  6 30  1  0  0  0  0
  7  8  1  0  0  0  0
  7 31  1  0  0  0  0
  7 32  1  0  0  0  0
  8  9  1  0  0  0  0
  8 33  1  0  0  0  0
  9 10  2  0  0  0  0
  9 11  1  0  0  0  0
 11 12  1  0  0  0  0
 11 34  1  0  0  0  0
 12 21  1  0  0  0  0
 12 13  1  0  0  0  0
 12 35  1  0  0  0  0
 13 14  1  0  0  0  0
 13 36  1  0  0  0  0
 13 37  1  0  0  0  0
 14 15  1  0  0  0  0
 14 38  1  0  0  0  0
 14 39  1  0  0  0  0
 15 16  1  0  0  0  0
 15 40  1  0  0  0  0
 15 41  1  0  0  0  0
 16 17  1  0  0  0  0
 16 21  1  0  0  0  0
 16 42  1  0  0  0  0
 17 18  1  0  0  0  0
 17 19  1  0  0  0  0
 17 20  1  0  0  0  0
 21 43  1  0  0  0  0
 21 44  1  0  0  0  0
 22 23  2  0  0  0  0
 22 45  1  0  0  0  0
M  END
> <s_m_source_file>
AV-unprocessed.smi

> <i_m_source_file_index>
937

> <i_lp_mmshare_version>
43012

> <i_f3d_flags>
0

> <s_epik_input>
W0NIM11jMVtjSF1bY0hdYyhbY0hdbjEpW0NIMl1bQ0gyXVtOSF1DKD1PKVtOSF1bQ0BASF0yW0NIMl1bQ0gyXVtDSDJdW0NAQEhdKEMoRikoRilGKVtDSDJdMg==

> <s_epik_cmdline>
J2VwaWtfcHl0aG9uJywgJy1waCcsICc3LjAnLCAnLXRuJywgJzgnLCAnLW1hJywgJzIwMCcsICctbWV0YWxfYmluZGluZycsICctaW1hZScsICc8aW5maWxlLm1hZT4nLCAnLW9tYWUnLCAnPG91dGZpbGUubWFlPic=

> <r_epik_Ionization_Penalty>
0.0563445

> <r_epik_Ionization_Penalty_Charging>
0

> <r_epik_Ionization_Penalty_Neutral>
0.0563445

> <r_epik_State_Penalty>
0.0485409

> <r_epik_Charging_Adjusted_Penalty>
0.0485409

> <i_epik_Tot_Q>
0

> <i_epik_Tot_abs_Q>
0

> <r_epik_Metal_State_Penalty>
0.0443056

> <b_epik_Metal_Only>
0

> <s_lp_Force_Field>
OPLS_2005

> <r_lp_Energy>
18.524

> <b_lp_Chiralities_Consistent>
1

> <s_lp_Variant>
AV-unprocessed.smi:937-4

> <Gold.Version>
5.8.1

> <Gold.Id.Protein>
6NUR|6NUR_protein|mol2

> <Gold.PLP.Fitness>
48.5930

> <Gold.PLP.PLP>
-50.5124

> <Gold.PLP.part.hbond>
-0.3422

> <Gold.PLP.part.metal>
0.0000

> <Gold.PLP.part.buried>
-6.7321

> <Gold.PLP.part.nonpolar>
-44.1190

> <Gold.PLP.part.repulsive>
0.3580

> <Gold.PLP.ligand.clash>
0.0000

> <Gold.PLP.ligand.torsion>
1.0330

> <Gold.PLP.Chemscore.Hbond>
0.0000

> <Gold.PLP.Chemscore.CHOScore>
0.0000

> <Gold.PLP.Chemscore.Metal>
0.0000

> <Gold.PLP.Chemscore.Internal.Correction>
0.1466

> <Gold.Rescore>
     Score         DG    S(hbond)    S(metal)    S(lipo)     H(rot)  DE(clash)    DE(int)     intcor
     13.40     -15.71       0.00        0.00     122.07       1.58       0.13       2.17       ----

> <Gold.Chemscore.Fitness>
13.4027

> <Gold.Chemscore.DG>
-15.7053

> <Gold.Chemscore.ZeroCoef>
-5.4800

> <Gold.Chemscore.Hbond>
0.0000

> <Gold.Chemscore.Metal>
0.0000

> <Gold.Chemscore.Lipo>
122.0747

> <Gold.Chemscore.Internal_Hbond>
0.0000

> <Gold.Chemscore.DEClash>
0.1293

> <Gold.Chemscore.DEInternal>
2.1733

> <Gold.Chemscore.Rot>
1.5849

> <Gold.Chemscore.Internal.Correction>
   9.000000E+99

> <Gold.Chemscore.Hbond.Weighted>
-0.0000

> <Gold.Chemscore.Metal.Weighted>
-0.0000

> <Gold.Chemscore.Lipo.Weighted>
-14.2827

> <Gold.Chemscore.Internal_Hbond.Weighted>
0.0000

> <Gold.Chemscore.DEClash.Weighted>
0.1293

> <Gold.Chemscore.DEInternal.Weighted>
2.1733

> <Gold.Chemscore.Rot.Weighted>
4.0574

> <Gold.Chemscore.Internal.Correction.Weighted>
   9.000000E+99

> <Gold.Protein.RotatedTorsions>
[ 6907 6896 6895 6894 ] final  -20.43 input  -60.11 | X-H torsion
[ 7974 7965 7964 7962 ] final   53.02 input  175.53 | X-H torsion
[ 8008 7997 7996 7995 ] final  145.68 input   59.86 | X-H torsion
[ 10167 10162 10161 10158 ] final   73.51 input  -65.29 | X-H torsion
[ 10718 10713 10712 10709 ] final  161.98 input   66.30 | X-H torsion
[ 10763 10752 10751 10750 ] final  117.32 input  -60.55 | X-H torsion
[ 11005 11000 10999 10996 ] final -135.26 input  -57.11 | X-H torsion

> <Gold.Protein.ActiveResidues>
 VAL166  LYS551  ARG553  GLY616  TRP617  ASP618  TYR619  PRO620  LYS621  CYS622 
 ASP623  PHE694  ASN695  SER759  ASP760  ASP761  ALA762  ILE779  LEU786  VAL792 
 PHE793  MET794  SER795  GLU796  ALA797  LYS798  CYS799  TRP800  GLU811  SER814 

> <Gold.Protein.RotatedAtoms>
  151.2483  135.0613  159.9051 H   0  0  0  0  0  0  0  0  0  0  0  0  # atno 6907 bound_to 6896
  152.5383  134.0360  159.8056 H   0  0  0  0  0  0  0  0  0  0  0  0  # atno 6908 bound_to 6896
  151.0564  133.5531  159.2669 H   0  0  0  0  0  0  0  0  0  0  0  0  # atno 6909 bound_to 6896
  145.9754  139.4189  143.0164 H   0  0  0  0  0  0  0  0  0  0  0  0  # atno 7974 bound_to 7965
  156.2876  140.2202  156.5255 H   0  0  0  0  0  0  0  0  0  0  0  0  # atno 8008 bound_to 7997
  154.7493  140.0481  157.0901 H   0  0  0  0  0  0  0  0  0  0  0  0  # atno 8009 bound_to 7997
  155.0131  140.3115  155.4825 H   0  0  0  0  0  0  0  0  0  0  0  0  # atno 8010 bound_to 7997
  140.0237  144.5520  150.7561 H   0  0  0  0  0  0  0  0  0  0  0  0  # atno 10167 bound_to 10162
  157.1289  131.0511  151.2380 H   0  0  0  0  0  0  0  0  0  0  0  0  # atno 10718 bound_to 10713
  153.5506  135.3540  155.2758 H   0  0  0  0  0  0  0  0  0  0  0  0  # atno 10763 bound_to 10752
  154.8707  135.4113  154.2941 H   0  0  0  0  0  0  0  0  0  0  0  0  # atno 10764 bound_to 10752
  153.3666  135.7062  153.6739 H   0  0  0  0  0  0  0  0  0  0  0  0  # atno 10765 bound_to 10752
  140.8914  134.1806  157.4525 H   0  0  0  0  0  0  0  0  0  0  0  0  # atno 11005 bound_to 11000
  145.7846  140.9841  143.1081 LP  0  0  0  0  0  0  0  0  0  0  0  0  # atno 17320 bound_to 7965
  144.6847  139.9607  143.7480 LP  0  0  0  0  0  0  0  0  0  0  0  0  # atno 17321 bound_to 7965
  140.7332  143.2714  151.3877 LP  0  0  0  0  0  0  0  0  0  0  0  0  # atno 17342 bound_to 10162
  139.6122  144.1074  152.2310 LP  0  0  0  0  0  0  0  0  0  0  0  0  # atno 17343 bound_to 10162
  157.4410  130.7544  149.7069 LP  0  0  0  0  0  0  0  0  0  0  0  0  # atno 17370 bound_to 10713
  155.9812  130.4022  150.3485 LP  0  0  0  0  0  0  0  0  0  0  0  0  # atno 17371 bound_to 10713
  139.8730  134.9860  156.5306 LP  0  0  0  0  0  0  0  0  0  0  0  0  # atno 17394 bound_to 11000
  140.8342  133.8255  155.9013 LP  0  0  0  0  0  0  0  0  0  0  0  0  # atno 17395 bound_to 11000

$$$$
