#       Name:                AV-unprocessed.smi:3183
#       Creating user name   scv26
#       Creation time:       Fri Mar 27 17:59:09 2020


#       File generated by GOLD software.
#

@<TRIPOS>MOLECULE
AV-unprocessed.smi:3183
    44    45     1
SMALL
NO_CHARGES


@<TRIPOS>ATOM
      1 ****        -4.3304   1.8261   0.2614 C.3            1 S1                 0.0000
      2 ****        -3.0188   2.6352   0.2042 C.3            1 S1                 0.0000
      3 ****        -2.1542   2.4074   1.4620 C.3            1 S1                 0.0000
      4 ****        -1.4906   1.0196   1.4727 C.3            1 S1                 0.0000
      5 ****        -0.6550   0.7910   0.2016 C.3            1 S1                 0.0000
      6 ****        -0.0665  -0.5656   0.2102 N.4            1 S1                 1.0000
      7 ****         1.4099  -0.5968   0.2094 C.3            1 S1                 0.0000
      8 ****         1.9341  -2.0401   0.2114 C.3            1 S1                 0.0000
      9 ****         3.4290  -2.1529   0.2080 C.2            1 S1                 0.0000
     10 ****         4.4004  -1.1887   0.2063 C.2            1 S1                 0.0000
     11 ****         5.6197  -1.9199   0.2036 C.2            1 S1                 0.0000
     12 ****         5.4257  -3.2264   0.2032 N.2            1 S1                 0.0000
     13 ****         4.0843  -3.3732   0.2057 N.pl3          1 S1                 0.0000
     14 ****         3.5380  -4.7173   0.2053 C.3            1 S1                 0.0000
     15 ****        -1.5126   0.9958  -1.0606 C.3            1 S1                 0.0000
     16 ****        -2.1761   2.3886  -1.0743 C.3            1 S1                 0.0000
     17 ****        -2.9573   2.6375  -2.3750 C.3            1 S1                 0.0000
     18 ****        -4.1567   0.7527   0.1933 H              1 S1                 0.0000
     19 ****        -5.0066   2.1041  -0.5470 H              1 S1                 0.0000
     20 ****        -4.8615   2.0132   1.1949 H              1 S1                 0.0000
     21 ****        -3.3092   3.6869   0.2068 H              1 S1                 0.0000
     22 ****        -1.3766   3.1715   1.5040 H              1 S1                 0.0000
     23 ****        -2.7539   2.5408   2.3631 H              1 S1                 0.0000
     24 ****        -0.8566   0.9276   2.3553 H              1 S1                 0.0000
     25 ****        -2.2535   0.2454   1.5632 H              1 S1                 0.0000
     26 ****         0.1469   1.5316   0.1876 H              1 S1                 0.0000
     27 ****        -0.3970  -1.0496   1.0328 H              1 S1                 0.0000
     28 ****         1.7757  -0.0675  -0.6718 H              1 S1                 0.0000
     29 ****         1.7766  -0.0639   1.0881 H              1 S1                 0.0000
     30 ****         1.5422  -2.5601   1.0867 H              1 S1                 0.0000
     31 ****         1.5381  -2.5640  -0.6597 H              1 S1                 0.0000
     32 ****         4.2656  -0.1173   0.2071 H              1 S1                 0.0000
     33 ****         6.6321  -1.5433   0.2020 H              1 S1                 0.0000
     34 ****         2.4488  -4.6972   0.2054 H              1 S1                 0.0000
     35 ****         3.8780  -5.2518   1.0928 H              1 S1                 0.0000
     36 ****         3.8779  -5.2512  -0.6825 H              1 S1                 0.0000
     37 ****        -0.8860   0.8821  -1.9465 H              1 S1                 0.0000
     38 ****        -2.2745   0.2180  -1.1258 H              1 S1                 0.0000
     39 ****        -1.3687   3.1227  -1.0618 H              1 S1                 0.0000
     40 ****        -3.7384   1.8926  -2.5275 H              1 S1                 0.0000
     41 ****        -2.2955   2.5961  -3.2404 H              1 S1                 0.0000
     42 ****        -3.4274   3.6212  -2.3692 H              1 S1                 0.0000
     43 ****        -0.3977  -1.0600  -0.6060 H              1 S1                 0.0000
     44 ****         6.1191  -3.9470   0.2014 LP             1 S1                 0.0000
@<TRIPOS>BOND
    1    1    2 1     
    2    1   18 1     
    3    1   19 1     
    4    1   20 1     
    5    2   16 1     
    6    2    3 1     
    7    2   21 1     
    8    3    4 1     
    9    3   22 1     
   10    3   23 1     
   11    4    5 1     
   12    4   24 1     
   13    4   25 1     
   14    5    6 1     
   15    5   15 1     
   16    5   26 1     
   17    6    7 1     
   18    6   27 1     
   19    6   43 1     
   20    7    8 1     
   21    7   28 1     
   22    7   29 1     
   23    8    9 1     
   24    8   30 1     
   25    8   31 1     
   26    9   13 1     
   27    9   10 2     
   28   10   11 1     
   29   10   32 1     
   30   11   12 2     
   31   11   33 1     
   32   12   13 1     
   33   13   14 1     
   34   14   34 1     
   35   14   35 1     
   36   14   36 1     
   37   15   16 1     
   38   15   37 1     
   39   15   38 1     
   40   16   17 1     
   41   16   39 1     
   42   17   40 1     
   43   17   41 1     
   44   17   42 1     
   45   12   44 1     
@<TRIPOS>SUBSTRUCTURE
      1 S1             1
@<TRIPOS>SET
LONE_PAIRS      STATIC     ATOMS    <user>   **** ""
1 44
DONOR_HYDROGENS      STATIC     ATOMS    <user>   **** ""
2 27 43
ATOM$BLUE        STATIC     ATOMS    COLORGROUP SYSTEM
1 44
ATOM$RED        STATIC     ATOMS    COLORGROUP SYSTEM
2 27 43
