AV-unprocessed.smi:221|AV-procd|sdf|1699|dock1
  -GOLD-   2262020153D 1   1.00000     0.00000
 Structure written by MMmdl.
 50 53  0  0  0  0  0  0  0  0  1 V2000
  144.4624  137.6277  160.6811 N   0  0  0  0  0  0  0  0  0  0  0  0
  145.1447  137.8661  161.8037 C   0  0  0  0  0  0  0  0  0  0  0  0
  144.7513  138.6718  162.6459 O   0  0  0  0  0  0  0  0  0  0  0  0
  146.4566  137.0814  161.9934 C   0  0  1  0  0  0  0  0  0  0  0  0
  146.3839  136.1210  163.1947 C   0  0  0  0  0  0  0  0  0  0  0  0
  145.9107  134.7907  162.6080 C   0  0  1  0  0  0  0  0  0  0  0  0
  144.5797  134.7771  162.5206 F   0  0  0  0  0  0  0  0  0  0  0  0
  146.5224  134.7863  161.2064 C   0  0  0  0  0  0  0  0  0  0  0  0
  146.7446  136.1896  160.8692 N   0  0  0  0  0  0  0  0  0  0  0  0
  147.2525  136.5770  159.6656 C   0  0  0  0  0  0  0  0  0  0  0  0
  148.1220  135.7346  159.0459 N   0  0  0  0  0  0  0  0  0  0  0  0
  148.6557  136.0479  157.8631 C   0  0  0  0  0  0  0  0  0  0  0  0
  148.4637  137.1417  157.1269 N   0  0  0  0  0  0  0  0  0  0  0  0
  147.5966  137.9985  157.7368 C   0  0  0  0  0  0  0  0  0  0  0  0
  146.9512  137.8020  158.9936 C   0  0  0  0  0  0  0  0  0  0  0  0
  146.1495  138.9051  159.2732 N   0  0  0  0  0  0  0  0  0  0  0  0
  146.3098  139.6981  158.2505 C   0  0  0  0  0  0  0  0  0  0  0  0
  147.1665  139.2329  157.2823 N   0  0  0  0  0  0  0  0  0  0  0  0
  147.5264  139.9091  156.0486 C   0  0  0  0  0  0  0  0  0  0  0  0
  149.0526  140.1250  155.8699 C   0  0  1  0  0  0  0  0  0  0  0  0
  149.3995  140.8160  154.5259 C   0  0  0  0  0  0  0  0  0  0  0  0
  150.0334  139.9294  153.6267 O   0  0  0  0  0  0  0  0  0  0  0  0
  149.6285  140.9225  157.0691 C   0  0  1  0  0  0  0  0  0  0  0  0
  151.0487  141.4299  156.8802 C   0  0  0  0  0  0  0  0  0  0  0  0
  151.1438  142.5169  157.9423 C   0  0  0  0  0  0  0  0  0  0  0  0
  149.8539  143.1117  157.9773 O   0  0  0  0  0  0  0  0  0  0  0  0
  148.8996  142.2380  157.3803 C   0  0  0  0  0  0  0  0  0  0  0  0
  147.2798  137.7780  162.1540 H   0  0  0  0  0  0  0  0  0  0  0  0
  146.2045  133.9275  163.2058 H   0  0  0  0  0  0  0  0  0  0  0  0
  143.5937  138.1134  160.5113 H   0  0  0  0  0  0  0  0  0  0  0  0
  144.8136  136.9612  160.0090 H   0  0  0  0  0  0  0  0  0  0  0  0
  147.3841  135.9931  163.6109 H   0  0  0  0  0  0  0  0  0  0  0  0
  145.7430  136.4747  164.0038 H   0  0  0  0  0  0  0  0  0  0  0  0
  147.4829  134.2693  161.2147 H   0  0  0  0  0  0  0  0  0  0  0  0
  145.8714  134.2869  160.4873 H   0  0  0  0  0  0  0  0  0  0  0  0
  149.3333  135.3167  157.4475 H   0  0  0  0  0  0  0  0  0  0  0  0
  145.8095  140.6527  158.1763 H   0  0  0  0  0  0  0  0  0  0  0  0
  147.1291  139.3361  155.2101 H   0  0  0  0  0  0  0  0  0  0  0  0
  147.0002  140.8636  156.0421 H   0  0  0  0  0  0  0  0  0  0  0  0
  149.5332  139.1452  155.8760 H   0  0  0  0  0  0  0  0  0  0  0  0
  148.5049  141.2327  154.0621 H   0  0  0  0  0  0  0  0  0  0  0  0
  150.0895  141.6457  154.6710 H   0  0  0  0  0  0  0  0  0  0  0  0
  149.6085  140.0002  152.7854 H   0  0  0  0  0  0  0  0  0  0  0  0
  149.6073  140.2958  157.9626 H   0  0  0  0  0  0  0  0  0  0  0  0
  151.8059  140.6569  157.0131 H   0  0  0  0  0  0  0  0  0  0  0  0
  151.1718  141.8649  155.8873 H   0  0  0  0  0  0  0  0  0  0  0  0
  151.3537  142.0776  158.9182 H   0  0  0  0  0  0  0  0  0  0  0  0
  151.9190  143.2518  157.7249 H   0  0  0  0  0  0  0  0  0  0  0  0
  148.5351  142.7089  156.4663 H   0  0  0  0  0  0  0  0  0  0  0  0
  148.0480  142.0912  158.0450 H   0  0  0  0  0  0  0  0  0  0  0  0
  1  2  1  0  0  0  0
  1 30  1  0  0  0  0
  1 31  1  0  0  0  0
  2  3  2  0  0  0  0
  2  4  1  0  0  0  0
  4 28  1  0  0  0  0
  4  9  1  0  0  0  0
  4  5  1  0  0  0  0
  5  6  1  0  0  0  0
  5 32  1  0  0  0  0
  5 33  1  0  0  0  0
  6 29  1  0  0  0  0
  6  7  1  0  0  0  0
  6  8  1  0  0  0  0
  8  9  1  0  0  0  0
  8 34  1  0  0  0  0
  8 35  1  0  0  0  0
  9 10  1  0  0  0  0
 10 15  1  0  0  0  0
 10 11  2  0  0  0  0
 11 12  1  0  0  0  0
 12 13  2  0  0  0  0
 12 36  1  0  0  0  0
 13 14  1  0  0  0  0
 14 18  1  0  0  0  0
 14 15  2  0  0  0  0
 15 16  1  0  0  0  0
 16 17  2  0  0  0  0
 17 18  1  0  0  0  0
 17 37  1  0  0  0  0
 18 19  1  0  0  0  0
 19 20  1  0  0  0  0
 19 38  1  0  0  0  0
 19 39  1  0  0  0  0
 20 21  1  0  0  0  0
 20 23  1  0  0  0  0
 20 40  1  0  0  0  0
 21 22  1  0  0  0  0
 21 41  1  0  0  0  0
 21 42  1  0  0  0  0
 22 43  1  0  0  0  0
 23 27  1  0  0  0  0
 23 24  1  0  0  0  0
 23 44  1  0  0  0  0
 24 25  1  0  0  0  0
 24 45  1  0  0  0  0
 24 46  1  0  0  0  0
 25 26  1  0  0  0  0
 25 47  1  0  0  0  0
 25 48  1  0  0  0  0
 26 27  1  0  0  0  0
 27 49  1  0  0  0  0
 27 50  1  0  0  0  0
M  END
> <s_m_source_file>
AV-unprocessed.smi

> <i_m_source_file_index>
221

> <i_lp_mmshare_version>
43012

> <i_f3d_flags>
0

> <s_epik_input>
W05IMl1DKD1PKVtDQEBIXTFbQ0gyXVtDQEBIXShGKVtDSDJdTjFjKG5bY0hdbjIpYyhjMjMpbltjSF1uM1tDSDJdW0NASF0oW0NIMl1bT0hdKVtDQEBIXTRbQ0gyXVtDSDJdT1tDSDJdNA==

> <s_epik_cmdline>
J2VwaWtfcHl0aG9uJywgJy1waCcsICc3LjAnLCAnLXRuJywgJzgnLCAnLW1hJywgJzIwMCcsICctbWV0YWxfYmluZGluZycsICctaW1hZScsICc8aW5maWxlLm1hZT4nLCAnLW9tYWUnLCAnPG91dGZpbGUubWFlPic=

> <r_lp_tautomer_probability>
1

> <r_epik_Ionization_Penalty>
0.000818822

> <r_epik_Ionization_Penalty_Charging>
0

> <r_epik_Ionization_Penalty_Neutral>
0.000818822

> <r_epik_State_Penalty>
0.000440551

> <r_epik_Charging_Adjusted_Penalty>
0.000440551

> <i_epik_Tot_Q>
0

> <i_epik_Tot_abs_Q>
0

> <r_epik_Metal_State_Penalty>
-0

> <b_epik_Metal_Only>
0

> <s_lp_Force_Field>
OPLS_2005

> <r_lp_Energy>
47.9731

> <b_lp_Chiralities_Consistent>
1

> <s_lp_Variant>
AV-unprocessed.smi:221-14

> <Gold.Version>
5.8.1

> <Gold.Id.Protein>
6NUR|6NUR_protein|mol2

> <Gold.PLP.Fitness>
44.4768

> <Gold.PLP.PLP>
-37.2300

> <Gold.PLP.part.hbond>
-3.5711

> <Gold.PLP.part.metal>
0.0000

> <Gold.PLP.part.buried>
-4.1246

> <Gold.PLP.part.nonpolar>
-29.6824

> <Gold.PLP.part.repulsive>
0.7177

> <Gold.PLP.ligand.clash>
0.0000

> <Gold.PLP.ligand.torsion>
1.3628

> <Gold.PLP.Chemscore.Hbond>
3.2960

> <Gold.PLP.Chemscore.CHOScore>
0.0000

> <Gold.PLP.Chemscore.Metal>
0.0000

> <Gold.Chemscore.Hbonds>
donor molecule, donor type, donor heavy atom, donor atom, acceptor molecule, acceptor atom, score
      L1  H    22    43       P1  7957  1.00
      P1  H  6934  6947       L1    16  0.08
      P1  H  7989  7998       L1    22  0.65

> <Gold.PLP.Chemscore.Internal.Correction>
0.0843

> <Gold.Rescore>
     Score         DG    S(hbond)    S(metal)    S(lipo)     H(rot)  DE(clash)    DE(int)     intcor
      5.88      -7.97       0.85        0.00      69.53       3.31       0.25       1.84       ----

> <Gold.Chemscore.Fitness>
5.8797

> <Gold.Chemscore.DG>
-7.9692

> <Gold.Chemscore.ZeroCoef>
-5.4800

> <Gold.Chemscore.Hbond>
0.8460

> <Gold.Chemscore.Metal>
0.0000

> <Gold.Chemscore.Lipo>
69.5260

> <Gold.Chemscore.Internal_Hbond>
0.0000

> <Gold.Chemscore.DEClash>
0.2489

> <Gold.Chemscore.DEInternal>
1.8406

> <Gold.Chemscore.Rot>
3.3089

> <Gold.Chemscore.Internal.Correction>
   9.000000E+99

> <Gold.Chemscore.Hbonds>
donor molecule, donor type, donor heavy atom, donor atom, acceptor molecule, acceptor atom, score
      L1  H    22    43       P1  7957  0.96
      P1  H  7989  7998       L1    22  0.06

> <Gold.Chemscore.Hbond.Weighted>
-2.8255

> <Gold.Chemscore.Metal.Weighted>
-0.0000

> <Gold.Chemscore.Lipo.Weighted>
-8.1345

> <Gold.Chemscore.Internal_Hbond.Weighted>
0.0000

> <Gold.Chemscore.DEClash.Weighted>
0.2489

> <Gold.Chemscore.DEInternal.Weighted>
1.8406

> <Gold.Chemscore.Rot.Weighted>
8.4709

> <Gold.Chemscore.Internal.Correction.Weighted>
   9.000000E+99

> <Gold.Protein.RotatedTorsions>
[ 6907 6896 6895 6894 ] final   33.57 input  -60.11 | X-H torsion
[ 7974 7965 7964 7962 ] final  -75.44 input  175.53 | X-H torsion
[ 8008 7997 7996 7995 ] final  100.37 input   59.86 | X-H torsion
[ 10167 10162 10161 10158 ] final  158.44 input  -65.29 | X-H torsion
[ 10718 10713 10712 10709 ] final   -8.51 input   66.30 | X-H torsion
[ 10763 10752 10751 10750 ] final  -76.25 input  -60.55 | X-H torsion
[ 11005 11000 10999 10996 ] final   54.31 input  -57.11 | X-H torsion

> <Gold.Protein.ActiveResidues>
 VAL166  LYS551  ARG553  GLY616  TRP617  ASP618  TYR619  PRO620  LYS621  CYS622 
 ASP623  PHE694  ASN695  SER759  ASP760  ASP761  ALA762  ILE779  LEU786  VAL792 
 PHE793  MET794  SER795  GLU796  ALA797  LYS798  CYS799  TRP800  GLU811  SER814 

> <Gold.Protein.RotatedAtoms>
  152.0904  134.9411  160.0571 H   0  0  0  0  0  0  0  0  0  0  0  0  # atno 6907 bound_to 6896
  152.0665  133.4081  159.4448 H   0  0  0  0  0  0  0  0  0  0  0  0  # atno 6908 bound_to 6896
  150.6837  134.3061  159.4770 H   0  0  0  0  0  0  0  0  0  0  0  0  # atno 6909 bound_to 6896
  145.6260  140.9350  143.1113 H   0  0  0  0  0  0  0  0  0  0  0  0  # atno 7974 bound_to 7965
  156.1196  140.3214  155.8189 H   0  0  0  0  0  0  0  0  0  0  0  0  # atno 8008 bound_to 7997
  155.4528  140.0533  157.3016 H   0  0  0  0  0  0  0  0  0  0  0  0  # atno 8009 bound_to 7997
  154.4818  140.2056  155.9760 H   0  0  0  0  0  0  0  0  0  0  0  0  # atno 8010 bound_to 7997
  139.4827  144.4824  151.8426 H   0  0  0  0  0  0  0  0  0  0  0  0  # atno 10167 bound_to 10162
  156.7016  130.5095  149.5916 H   0  0  0  0  0  0  0  0  0  0  0  0  # atno 10718 bound_to 10713
  154.4973  135.5804  153.6504 H   0  0  0  0  0  0  0  0  0  0  0  0  # atno 10763 bound_to 10752
  152.9872  135.6127  154.3048 H   0  0  0  0  0  0  0  0  0  0  0  0  # atno 10764 bound_to 10752
  154.2953  135.2848  155.2615 H   0  0  0  0  0  0  0  0  0  0  0  0  # atno 10765 bound_to 10752
  140.0697  134.5487  155.9060 H   0  0  0  0  0  0  0  0  0  0  0  0  # atno 11005 bound_to 11000
  144.7212  139.8023  143.7381 LP  0  0  0  0  0  0  0  0  0  0  0  0  # atno 17320 bound_to 7965
  146.1394  139.4447  143.0118 LP  0  0  0  0  0  0  0  0  0  0  0  0  # atno 17321 bound_to 7965
  140.4301  144.2127  150.5888 LP  0  0  0  0  0  0  0  0  0  0  0  0  # atno 17342 bound_to 10162
  140.4788  143.2386  151.8985 LP  0  0  0  0  0  0  0  0  0  0  0  0  # atno 17343 bound_to 10162
  156.1725  130.6446  151.0854 LP  0  0  0  0  0  0  0  0  0  0  0  0  # atno 17370 bound_to 10713
  157.6971  131.0790  150.6936 LP  0  0  0  0  0  0  0  0  0  0  0  0  # atno 17371 bound_to 10713
  141.2007  133.6614  156.5910 LP  0  0  0  0  0  0  0  0  0  0  0  0  # atno 17394 bound_to 11000
  140.3646  134.7658  157.4557 LP  0  0  0  0  0  0  0  0  0  0  0  0  # atno 17395 bound_to 11000

$$$$
