AV-unprocessed.smi:35|AV-procd|sdf|255|dock2
  -GOLD-   2262016 13D 1   1.00000     0.00000
 Structure written by MMmdl.
 29 30  0  0  0  0  0  0  0  0  1 V2000
  153.3100  139.4242  157.6038 O   0  0  0  0  0  0  0  0  0  0  0  0
  152.1917  139.6349  157.1393 C   0  0  0  0  0  0  0  0  0  0  0  0
  151.2257  140.2997  157.8998 N   0  0  0  0  0  0  0  0  0  0  0  0
  149.9273  140.5958  157.4807 C   0  0  0  0  0  0  0  0  0  0  0  0
  149.1594  141.1978  158.2302 O   0  0  0  0  0  0  0  0  0  0  0  0
  149.5568  140.1876  156.1798 N   0  0  0  0  0  0  0  0  0  0  0  0
  148.1490  140.4971  155.7029 C   0  0  2  0  0  0  0  0  0  0  0  0
  147.6816  139.4530  154.8992 O   0  0  0  0  0  0  0  0  0  0  0  0
  147.6400  139.8633  153.5357 C   0  0  1  0  0  0  0  0  0  0  0  0
  146.6635  138.9969  152.7218 C   0  0  0  0  0  0  0  0  0  0  0  0
  147.3815  138.0714  151.9341 O   0  0  0  0  0  0  0  0  0  0  0  0
  147.2808  141.3503  153.6384 C   0  0  1  0  0  0  0  0  0  0  0  0
  145.8903  141.5294  153.8399 O   0  0  0  0  0  0  0  0  0  0  0  0
  148.0594  141.7989  154.8678 C   0  0  2  0  0  0  0  0  0  0  0  0
  149.3186  142.3133  154.4684 O   0  0  0  0  0  0  0  0  0  0  0  0
  150.4850  139.5233  155.3866 C   0  0  0  0  0  0  0  0  0  0  0  0
  151.7413  139.2451  155.8076 C   0  0  0  0  0  0  0  0  0  0  0  0
  152.9129  138.2911  154.5265 Br  0  0  0  0  0  0  0  0  0  0  0  0
  151.4900  140.5917  158.8294 H   0  0  0  0  0  0  0  0  0  0  0  0
  147.5287  140.5165  156.6010 H   0  0  0  0  0  0  0  0  0  0  0  0
  148.6424  139.7918  153.1098 H   0  0  0  0  0  0  0  0  0  0  0  0
  145.9584  138.4748  153.3694 H   0  0  0  0  0  0  0  0  0  0  0  0
  146.0833  139.6217  152.0422 H   0  0  0  0  0  0  0  0  0  0  0  0
  147.8105  137.4559  152.5089 H   0  0  0  0  0  0  0  0  0  0  0  0
  147.5624  141.8999  152.7390 H   0  0  0  0  0  0  0  0  0  0  0  0
  145.4267  140.8803  153.3332 H   0  0  0  0  0  0  0  0  0  0  0  0
  147.5377  142.5693  155.4373 H   0  0  0  0  0  0  0  0  0  0  0  0
  149.4374  143.1570  154.8777 H   0  0  0  0  0  0  0  0  0  0  0  0
  150.2171  139.2056  154.3909 H   0  0  0  0  0  0  0  0  0  0  0  0
  1  2  2  0  0  0  0
  2 17  1  0  0  0  0
  2  3  1  0  0  0  0
  3 19  1  0  0  0  0
  3  4  1  0  0  0  0
  4  5  2  0  0  0  0
  4  6  1  0  0  0  0
  6  7  1  0  0  0  0
  6 16  1  0  0  0  0
  7 14  1  0  0  0  0
  7  8  1  0  0  0  0
  7 20  1  0  0  0  0
  8  9  1  0  0  0  0
  9 10  1  0  0  0  0
  9 12  1  0  0  0  0
  9 21  1  0  0  0  0
 10 11  1  0  0  0  0
 10 22  1  0  0  0  0
 10 23  1  0  0  0  0
 11 24  1  0  0  0  0
 12 13  1  0  0  0  0
 12 14  1  0  0  0  0
 12 25  1  0  0  0  0
 13 26  1  0  0  0  0
 14 15  1  0  0  0  0
 14 27  1  0  0  0  0
 15 28  1  0  0  0  0
 16 17  2  0  0  0  0
 16 29  1  0  0  0  0
 17 18  1  0  0  0  0
M  END
> <s_m_source_file>
AV-unprocessed.smi

> <i_m_source_file_index>
35

> <i_lp_mmshare_version>
43012

> <i_f3d_flags>
0

> <s_epik_input>
Tz1jMVtuSF1jKD1PKW4oW2NIXWMxQnIpW0NAQEhdMk9bQ0BASF0oW0NIMl1bT0hdKVtDQEBIXShbT0hdKVtDQEhdMltPSF0=

> <s_epik_cmdline>
J2VwaWtfcHl0aG9uJywgJy1waCcsICc3LjAnLCAnLXRuJywgJzgnLCAnLW1hJywgJzIwMCcsICctbWV0YWxfYmluZGluZycsICctaW1hZScsICc8aW5maWxlLm1hZT4nLCAnLW9tYWUnLCAnPG91dGZpbGUubWFlPic=

> <r_lp_tautomer_probability>
0.999537

> <r_epik_Ionization_Penalty>
0.10812

> <r_epik_Ionization_Penalty_Charging>
0.108119

> <r_epik_Ionization_Penalty_Neutral>
4.93006e-07

> <r_epik_State_Penalty>
0.0979238

> <r_epik_Charging_Adjusted_Penalty>
0.206043

> <i_epik_Tot_Q>
0

> <i_epik_Tot_abs_Q>
0

> <r_epik_Metal_State_Penalty>
3.07911

> <b_epik_Metal_Only>
0

> <s_epik_Chemistry_Notes>
This compound contains an acetal/aminal-like group ( X-CH(R)-Y where X, Y are N, S, or O) that may be acid/base labile, releasing an aldehyde.

> <s_lp_Force_Field>
OPLS_2005

> <r_lp_Energy>
34.1394

> <b_lp_Chiralities_Consistent>
1

> <s_lp_Variant>
AV-unprocessed.smi:35-9

> <Gold.Version>
5.8.1

> <Gold.Id.Protein>
6NUR|6NUR_protein|mol2

> <Gold.PLP.Fitness>
39.1682

> <Gold.PLP.PLP>
-27.9619

> <Gold.PLP.part.hbond>
-7.3258

> <Gold.PLP.part.metal>
0.0000

> <Gold.PLP.part.buried>
0.1298

> <Gold.PLP.part.nonpolar>
-19.5869

> <Gold.PLP.part.repulsive>
0.1851

> <Gold.PLP.ligand.clash>
0.0000

> <Gold.PLP.ligand.torsion>
1.2762

> <Gold.PLP.Chemscore.Hbond>
4.5637

> <Gold.PLP.Chemscore.CHOScore>
0.0000

> <Gold.PLP.Chemscore.Metal>
0.0000

> <Gold.Chemscore.Hbonds>
donor molecule, donor type, donor heavy atom, donor atom, acceptor molecule, acceptor atom, score
      L1  H    11    24       P1  7948  0.40
      L1  H    13    26       P1 10175  0.85
      L1  H    15    28       P1  8028  1.00
      P1  H  7954  7966       L1    11  0.60
      P1  H  7997  8009       L1     1  1.00
      P1  H  8011  8017       L1    15  0.12

> <Gold.PLP.Chemscore.Internal.Correction>
0.0676

> <Gold.Rescore>
     Score         DG    S(hbond)    S(metal)    S(lipo)     H(rot)  DE(clash)    DE(int)     intcor
     12.82     -14.47       3.67        0.00      52.50       3.67       0.65       1.00       ----

> <Gold.Chemscore.Fitness>
12.8200

> <Gold.Chemscore.DG>
-14.4706

> <Gold.Chemscore.ZeroCoef>
-5.4800

> <Gold.Chemscore.Hbond>
3.6659

> <Gold.Chemscore.Metal>
0.0000

> <Gold.Chemscore.Lipo>
52.4959

> <Gold.Chemscore.Internal_Hbond>
0.0000

> <Gold.Chemscore.DEClash>
0.6537

> <Gold.Chemscore.DEInternal>
0.9969

> <Gold.Chemscore.Rot>
3.6701

> <Gold.Chemscore.Internal.Correction>
   9.000000E+99

> <Gold.Chemscore.Hbonds>
donor molecule, donor type, donor heavy atom, donor atom, acceptor molecule, acceptor atom, score
      L1  H    11    24       P1  7948  0.40
      L1  H    13    26       P1 10175  0.57
      L1  H    15    28       P1  8028  0.98
      P1  H  7954  7966       L1    11  0.45
      P1  H  7997  8009       L1     1  0.93
      P1  H  8011  8017       L1    15  0.10

> <Gold.Chemscore.Hbond.Weighted>
-12.2440

> <Gold.Chemscore.Metal.Weighted>
-0.0000

> <Gold.Chemscore.Lipo.Weighted>
-6.1420

> <Gold.Chemscore.Internal_Hbond.Weighted>
0.0000

> <Gold.Chemscore.DEClash.Weighted>
0.6537

> <Gold.Chemscore.DEInternal.Weighted>
0.9969

> <Gold.Chemscore.Rot.Weighted>
9.3955

> <Gold.Chemscore.Internal.Correction.Weighted>
   9.000000E+99

> <Gold.Protein.RotatedTorsions>
[ 6907 6896 6895 6894 ] final  121.17 input  -60.11 | X-H torsion
[ 7974 7965 7964 7962 ] final  -32.49 input  175.53 | X-H torsion
[ 8008 7997 7996 7995 ] final  154.03 input   59.86 | X-H torsion
[ 10167 10162 10161 10158 ] final   83.79 input  -65.29 | X-H torsion
[ 10718 10713 10712 10709 ] final  -25.02 input   66.30 | X-H torsion
[ 10763 10752 10751 10750 ] final   43.97 input  -60.55 | X-H torsion
[ 11005 11000 10999 10996 ] final  -97.42 input  -57.11 | X-H torsion

> <Gold.Protein.ActiveResidues>
 VAL166  LYS551  ARG553  GLY616  TRP617  ASP618  TYR619  PRO620  LYS621  CYS622 
 ASP623  PHE694  ASN695  SER759  ASP760  ASP761  ALA762  ILE779  LEU786  VAL792 
 PHE793  MET794  SER795  GLU796  ALA797  LYS798  CYS799  TRP800  GLU811  SER814 

> <Gold.Protein.RotatedAtoms>
  152.4343  133.7332  159.6598 H   0  0  0  0  0  0  0  0  0  0  0  0  # atno 6907 bound_to 6896
  150.8225  133.8218  159.3139 H   0  0  0  0  0  0  0  0  0  0  0  0  # atno 6908 bound_to 6896
  151.5896  135.1056  160.0087 H   0  0  0  0  0  0  0  0  0  0  0  0  # atno 6909 bound_to 6896
  146.0986  140.5799  142.8831 H   0  0  0  0  0  0  0  0  0  0  0  0  # atno 7974 bound_to 7965
  156.2552  140.1977  156.6582 H   0  0  0  0  0  0  0  0  0  0  0  0  # atno 8008 bound_to 7997
  154.6484  140.0575  156.9953 H   0  0  0  0  0  0  0  0  0  0  0  0  # atno 8009 bound_to 7997
  155.1455  140.3246  155.4445 H   0  0  0  0  0  0  0  0  0  0  0  0  # atno 8010 bound_to 7997
  139.9147  144.6250  150.8501 H   0  0  0  0  0  0  0  0  0  0  0  0  # atno 10167 bound_to 10162
  156.4699  130.4522  149.6876 H   0  0  0  0  0  0  0  0  0  0  0  0  # atno 10718 bound_to 10713
  152.9850  135.6085  154.3198 H   0  0  0  0  0  0  0  0  0  0  0  0  # atno 10763 bound_to 10752
  154.2908  135.2775  155.2657 H   0  0  0  0  0  0  0  0  0  0  0  0  # atno 10764 bound_to 10752
  154.4954  135.5881  153.6547 H   0  0  0  0  0  0  0  0  0  0  0  0  # atno 10765 bound_to 10752
  141.1379  133.8170  157.0704 H   0  0  0  0  0  0  0  0  0  0  0  0  # atno 11005 bound_to 11000
  144.7414  140.4953  143.6866 LP  0  0  0  0  0  0  0  0  0  0  0  0  # atno 17320 bound_to 7965
  145.5900  139.1495  143.3188 LP  0  0  0  0  0  0  0  0  0  0  0  0  # atno 17321 bound_to 7965
  140.7677  143.3340  151.2349 LP  0  0  0  0  0  0  0  0  0  0  0  0  # atno 17342 bound_to 10162
  139.6912  143.9689  152.2860 LP  0  0  0  0  0  0  0  0  0  0  0  0  # atno 17343 bound_to 10162
  156.3629  130.7491  151.2465 LP  0  0  0  0  0  0  0  0  0  0  0  0  # atno 17370 bound_to 10713
  157.7492  131.0345  150.4320 LP  0  0  0  0  0  0  0  0  0  0  0  0  # atno 17371 bound_to 10713
  140.0515  134.9803  157.1144 LP  0  0  0  0  0  0  0  0  0  0  0  0  # atno 17394 bound_to 11000
  140.3983  134.2110  155.7164 LP  0  0  0  0  0  0  0  0  0  0  0  0  # atno 17395 bound_to 11000

$$$$
