AV-unprocessed.smi:1753|AV-procd|sdf|7063|dock9
  -GOLD-   22720 8283D 1   1.00000     0.00000
 Structure written by MMmdl.
 37 38  0  0  0  0  0  0  0  0  1 V2000
  145.5648  129.7930  152.0483 C   0  0  0  0  0  0  0  0  0  0  0  0
  146.1132  131.1851  152.1589 C   0  0  0  0  0  0  0  0  0  0  0  0
  147.2419  131.6266  152.9084 C   0  0  0  0  0  0  0  0  0  0  0  0
  147.2756  132.9684  152.6419 C   0  0  0  0  0  0  0  0  0  0  0  0
  148.1504  133.9054  153.0955 N   0  0  0  0  0  0  0  0  0  0  0  0
  148.8770  133.9024  154.2269 C   0  0  0  0  0  0  0  0  0  0  0  0
  148.8818  133.0060  155.0706 O   0  0  0  0  0  0  0  0  0  0  0  0
  149.6172  135.0161  154.3268 N   0  0  0  0  0  0  0  0  0  0  0  0
  150.5207  135.3398  155.4272 C   0  0  0  0  0  0  0  0  0  0  0  0
  150.6088  136.8584  155.6721 C   0  0  1  0  0  0  0  0  0  0  0  0
  151.4201  137.2000  156.9369 C   0  0  0  0  0  0  0  0  0  0  0  0
  151.6735  138.7104  156.9631 C   0  0  0  0  0  0  0  0  0  0  0  0
  151.8709  139.2052  155.2116 S   0  0  0  0  0  0  0  0  0  0  0  0
  150.9403  140.3052  154.9172 O   0  0  0  0  0  0  0  0  0  0  0  0
  153.3020  139.3170  154.8919 O   0  0  0  0  0  0  0  0  0  0  0  0
  151.2225  137.6449  154.5003 C   0  0  0  0  0  0  0  0  0  0  0  0
  146.2324  133.2794  151.7955 N   0  0  0  0  0  0  0  0  0  0  0  0
  145.8366  134.5523  151.2240 C   0  0  0  0  0  0  0  0  0  0  0  0
  145.5189  132.1723  151.4987 N   0  0  0  0  0  0  0  0  0  0  0  0
  146.0394  129.1246  152.7670 H   0  0  0  0  0  0  0  0  0  0  0  0
  145.7347  129.3838  151.0523 H   0  0  0  0  0  0  0  0  0  0  0  0
  144.4913  129.7752  152.2388 H   0  0  0  0  0  0  0  0  0  0  0  0
  147.9012  131.0399  153.5298 H   0  0  0  0  0  0  0  0  0  0  0  0
  148.2629  134.7111  152.4983 H   0  0  0  0  0  0  0  0  0  0  0  0
  149.5497  135.6967  153.5841 H   0  0  0  0  0  0  0  0  0  0  0  0
  150.1369  134.8483  156.3217 H   0  0  0  0  0  0  0  0  0  0  0  0
  151.5140  134.9213  155.2553 H   0  0  0  0  0  0  0  0  0  0  0  0
  149.5987  137.2404  155.8285 H   0  0  0  0  0  0  0  0  0  0  0  0
  150.9155  136.8664  157.8442 H   0  0  0  0  0  0  0  0  0  0  0  0
  152.3800  136.6828  156.8979 H   0  0  0  0  0  0  0  0  0  0  0  0
  150.8116  139.2406  157.3687 H   0  0  0  0  0  0  0  0  0  0  0  0
  152.5574  138.9874  157.5377 H   0  0  0  0  0  0  0  0  0  0  0  0
  152.0637  137.1055  154.0636 H   0  0  0  0  0  0  0  0  0  0  0  0
  150.5041  137.8628  153.7099 H   0  0  0  0  0  0  0  0  0  0  0  0
  146.4588  135.3596  151.6103 H   0  0  0  0  0  0  0  0  0  0  0  0
  144.7962  134.7610  151.4756 H   0  0  0  0  0  0  0  0  0  0  0  0
  145.9405  134.5152  150.1394 H   0  0  0  0  0  0  0  0  0  0  0  0
  1  2  1  0  0  0  0
  1 20  1  0  0  0  0
  1 21  1  0  0  0  0
  1 22  1  0  0  0  0
  2 19  2  0  0  0  0
  2  3  1  0  0  0  0
  3  4  2  0  0  0  0
  3 23  1  0  0  0  0
  4  5  1  0  0  0  0
  4 17  1  0  0  0  0
  5  6  1  0  0  0  0
  5 24  1  0  0  0  0
  6  7  2  0  0  0  0
  6  8  1  0  0  0  0
  8  9  1  0  0  0  0
  8 25  1  0  0  0  0
  9 10  1  0  0  0  0
  9 26  1  0  0  0  0
  9 27  1  0  0  0  0
 10 16  1  0  0  0  0
 10 11  1  0  0  0  0
 10 28  1  0  0  0  0
 11 12  1  0  0  0  0
 11 29  1  0  0  0  0
 11 30  1  0  0  0  0
 12 13  1  0  0  0  0
 12 31  1  0  0  0  0
 12 32  1  0  0  0  0
 13 14  2  0  0  0  0
 13 15  2  0  0  0  0
 13 16  1  0  0  0  0
 16 33  1  0  0  0  0
 16 34  1  0  0  0  0
 17 18  1  0  0  0  0
 17 19  1  0  0  0  0
 18 35  1  0  0  0  0
 18 36  1  0  0  0  0
 18 37  1  0  0  0  0
M  END
> <s_m_source_file>
AV-unprocessed.smi

> <i_m_source_file_index>
1753

> <i_lp_mmshare_version>
43012

> <i_f3d_flags>
0

> <s_epik_input>
W0NIM11jMVtjSF1jKG4objEpW0NIM10pW05IXUMoPU8pW05IXVtDSDJdW0NAQEhdKFtDSDJdMilbQ0gyXVtDSDJdUzIoPU8pPU8=

> <s_epik_cmdline>
J2VwaWtfcHl0aG9uJywgJy1waCcsICc3LjAnLCAnLXRuJywgJzgnLCAnLW1hJywgJzIwMCcsICctbWV0YWxfYmluZGluZycsICctaW1hZScsICc8aW5maWxlLm1hZT4nLCAnLW9tYWUnLCAnPG91dGZpbGUubWFlPic=

> <r_lp_tautomer_probability>
1

> <r_epik_Ionization_Penalty>
9.06651e-05

> <r_epik_Ionization_Penalty_Charging>
0

> <r_epik_Ionization_Penalty_Neutral>
9.06651e-05

> <r_epik_State_Penalty>
-0

> <r_epik_Charging_Adjusted_Penalty>
0

> <i_epik_Tot_Q>
0

> <i_epik_Tot_abs_Q>
0

> <r_epik_Metal_State_Penalty>
-0

> <b_epik_Metal_Only>
0

> <s_lp_Force_Field>
OPLS_2005

> <r_lp_Energy>
6.63642

> <b_lp_Chiralities_Consistent>
1

> <s_lp_Variant>
AV-unprocessed.smi:1753-2

> <Gold.Version>
5.8.1

> <Gold.Id.Protein>
6NUR|6NUR_protein|mol2

> <Gold.PLP.Fitness>
43.7085

> <Gold.PLP.PLP>
-32.7064

> <Gold.PLP.part.hbond>
-4.1613

> <Gold.PLP.part.metal>
0.0000

> <Gold.PLP.part.buried>
-4.2249

> <Gold.PLP.part.nonpolar>
-23.7141

> <Gold.PLP.part.repulsive>
0.2477

> <Gold.PLP.ligand.clash>
0.0000

> <Gold.PLP.ligand.torsion>
0.3507

> <Gold.PLP.Chemscore.Hbond>
3.9000

> <Gold.PLP.Chemscore.CHOScore>
0.0000

> <Gold.PLP.Chemscore.Metal>
0.0000

> <Gold.Chemscore.Hbonds>
donor molecule, donor type, donor heavy atom, donor atom, acceptor molecule, acceptor atom, score
      L1  H     5    24       P1  7948  1.00
      L1  H     8    25       P1  7948  0.95
      P1  H  7989  7998       L1    14  0.95
      P1  H  7997  8010       L1    15  1.00

> <Gold.PLP.Chemscore.Internal.Correction>
0.0035

> <Gold.Rescore>
     Score         DG    S(hbond)    S(metal)    S(lipo)     H(rot)  DE(clash)    DE(int)     intcor
     19.07     -19.58       3.46        0.00      50.22       1.31       0.01       0.50       ----

> <Gold.Chemscore.Fitness>
19.0730

> <Gold.Chemscore.DG>
-19.5801

> <Gold.Chemscore.ZeroCoef>
-5.4800

> <Gold.Chemscore.Hbond>
3.4649

> <Gold.Chemscore.Metal>
0.0000

> <Gold.Chemscore.Lipo>
50.2201

> <Gold.Chemscore.Internal_Hbond>
0.0000

> <Gold.Chemscore.DEClash>
0.0073

> <Gold.Chemscore.DEInternal>
0.4998

> <Gold.Chemscore.Rot>
1.3080

> <Gold.Chemscore.Internal.Correction>
   9.000000E+99

> <Gold.Chemscore.Hbonds>
donor molecule, donor type, donor heavy atom, donor atom, acceptor molecule, acceptor atom, score
      L1  H     5    24       P1  7948  0.34
      L1  H     8    25       P1  7948  0.21
      P1  H  7989  7998       L1    14  0.21
      P1  H  7997  8010       L1    15  1.00

> <Gold.Chemscore.Hbond.Weighted>
-11.5729

> <Gold.Chemscore.Metal.Weighted>
-0.0000

> <Gold.Chemscore.Lipo.Weighted>
-5.8758

> <Gold.Chemscore.Internal_Hbond.Weighted>
0.0000

> <Gold.Chemscore.DEClash.Weighted>
0.0073

> <Gold.Chemscore.DEInternal.Weighted>
0.4998

> <Gold.Chemscore.Rot.Weighted>
3.3485

> <Gold.Chemscore.Internal.Correction.Weighted>
   9.000000E+99

> <Gold.Protein.RotatedTorsions>
[ 6907 6896 6895 6894 ] final  -51.28 input  -60.11 | X-H torsion
[ 7974 7965 7964 7962 ] final   20.85 input  175.53 | X-H torsion
[ 8008 7997 7996 7995 ] final  108.21 input   59.86 | X-H torsion
[ 10167 10162 10161 10158 ] final  -99.15 input  -65.29 | X-H torsion
[ 10718 10713 10712 10709 ] final  161.79 input   66.30 | X-H torsion
[ 10763 10752 10751 10750 ] final  -22.17 input  -60.55 | X-H torsion
[ 11005 11000 10999 10996 ] final  179.38 input  -57.11 | X-H torsion

> <Gold.Protein.ActiveResidues>
 VAL166  LYS551  ARG553  GLY616  TRP617  ASP618  TYR619  PRO620  LYS621  CYS622 
 ASP623  PHE694  ASN695  SER759  ASP760  ASP761  ALA762  ILE779  LEU786  VAL792 
 PHE793  MET794  SER795  GLU796  ALA797  LYS798  CYS799  TRP800  GLU811  SER814 

> <Gold.Protein.RotatedAtoms>
  150.8626  134.7982  159.7094 H   0  0  0  0  0  0  0  0  0  0  0  0  # atno 6907 bound_to 6896
  152.4658  134.5075  159.9753 H   0  0  0  0  0  0  0  0  0  0  0  0  # atno 6908 bound_to 6896
  151.5176  133.3434  159.2931 H   0  0  0  0  0  0  0  0  0  0  0  0  # atno 6909 bound_to 6896
  146.2095  139.8110  142.8700 H   0  0  0  0  0  0  0  0  0  0  0  0  # atno 7974 bound_to 7965
  156.1885  140.3080  155.9285 H   0  0  0  0  0  0  0  0  0  0  0  0  # atno 8008 bound_to 7997
  155.3227  140.0456  157.3057 H   0  0  0  0  0  0  0  0  0  0  0  0  # atno 8009 bound_to 7997
  154.5424  140.2265  155.8629 H   0  0  0  0  0  0  0  0  0  0  0  0  # atno 8010 bound_to 7997
  140.2655  143.3379  152.0585 H   0  0  0  0  0  0  0  0  0  0  0  0  # atno 10167 bound_to 10162
  157.1316  131.0518  151.2369 H   0  0  0  0  0  0  0  0  0  0  0  0  # atno 10718 bound_to 10713
  153.6477  135.6982  153.5219 H   0  0  0  0  0  0  0  0  0  0  0  0  # atno 10763 bound_to 10752
  153.2731  135.4208  155.1006 H   0  0  0  0  0  0  0  0  0  0  0  0  # atno 10764 bound_to 10752
  154.8484  135.3583  154.6022 H   0  0  0  0  0  0  0  0  0  0  0  0  # atno 10765 bound_to 10752
  140.4055  134.6738  157.4586 H   0  0  0  0  0  0  0  0  0  0  0  0  # atno 11005 bound_to 11000
  145.3196  141.0240  143.3508 LP  0  0  0  0  0  0  0  0  0  0  0  0  # atno 17320 bound_to 7965
  144.8876  139.4818  143.6693 LP  0  0  0  0  0  0  0  0  0  0  0  0  # atno 17321 bound_to 7965
  139.5004  144.6691  151.6286 LP  0  0  0  0  0  0  0  0  0  0  0  0  # atno 17342 bound_to 10162
  140.5932  143.9743  150.6337 LP  0  0  0  0  0  0  0  0  0  0  0  0  # atno 17343 bound_to 10162
  157.4387  130.7532  149.7051 LP  0  0  0  0  0  0  0  0  0  0  0  0  # atno 17370 bound_to 10713
  155.9807  130.4027  150.3515 LP  0  0  0  0  0  0  0  0  0  0  0  0  # atno 17371 bound_to 10713
  140.0305  134.6413  155.9113 LP  0  0  0  0  0  0  0  0  0  0  0  0  # atno 17394 bound_to 11000
  141.1841  133.6552  156.5142 LP  0  0  0  0  0  0  0  0  0  0  0  0  # atno 17395 bound_to 11000

$$$$
