AV-unprocessed.smi:3258|AV-procd|sdf|12470|dock9
  -GOLD-   2272018373D 1   1.00000     0.00000
 Structure written by MMmdl.
 38 39  0  0  0  0  0  0  0  0  1 V2000
  143.9917  135.4938  153.0388 C   0  0  0  0  0  0  0  0  0  0  0  0
  144.8632  136.2639  152.0330 C   0  0  2  0  0  0  0  0  0  0  0  0
  144.9290  135.5926  150.6435 C   0  0  0  0  0  0  0  0  0  0  0  0
  145.1572  134.1611  150.7227 N   0  0  0  0  0  0  0  0  0  0  0  0
  144.3052  133.1401  150.3580 C   0  0  0  0  0  0  0  0  0  0  0  0
  144.9488  131.9632  150.6132 C   0  0  0  0  0  0  0  0  0  0  0  0
  146.2068  132.3731  151.1371 C   0  0  0  0  0  0  0  0  0  0  0  0
  146.3296  133.6892  151.2000 N   0  0  0  0  0  0  0  0  0  0  0  0
  146.2076  136.4152  152.5822 N   0  0  0  0  0  0  0  0  0  0  0  0
  146.4959  136.9050  153.7964 C   0  0  0  0  0  0  0  0  0  0  0  0
  145.6496  137.2897  154.6036 O   0  0  0  0  0  0  0  0  0  0  0  0
  147.8172  136.9322  154.0201 N   0  0  0  0  0  0  0  0  0  0  0  0
  148.4578  137.4178  155.2385 C   0  0  0  0  0  0  0  0  0  0  0  0
  149.1979  138.7489  155.0080 C   0  0  1  0  0  0  0  0  0  0  0  0
  149.6072  139.4897  156.2669 C   0  0  0  0  0  0  0  0  0  0  0  0
  150.6884  140.4315  155.7451 C   0  0  0  0  0  0  0  0  0  0  0  0
  151.2890  139.7642  154.6383 O   0  0  0  0  0  0  0  0  0  0  0  0
  150.5516  138.5888  154.3176 C   0  0  0  0  0  0  0  0  0  0  0  0
  142.9538  135.4403  152.7097 H   0  0  0  0  0  0  0  0  0  0  0  0
  143.9950  135.9812  154.0143 H   0  0  0  0  0  0  0  0  0  0  0  0
  144.3508  134.4731  153.1746 H   0  0  0  0  0  0  0  0  0  0  0  0
  144.4238  137.2567  151.9176 H   0  0  0  0  0  0  0  0  0  0  0  0
  143.9969  135.7511  150.0997 H   0  0  0  0  0  0  0  0  0  0  0  0
  145.7190  136.0447  150.0412 H   0  0  0  0  0  0  0  0  0  0  0  0
  143.3227  133.3352  149.9536 H   0  0  0  0  0  0  0  0  0  0  0  0
  144.5779  130.9623  150.4502 H   0  0  0  0  0  0  0  0  0  0  0  0
  147.0293  131.7575  151.4706 H   0  0  0  0  0  0  0  0  0  0  0  0
  146.9741  136.1275  151.9915 H   0  0  0  0  0  0  0  0  0  0  0  0
  148.4283  136.5941  153.2911 H   0  0  0  0  0  0  0  0  0  0  0  0
  147.7314  137.5149  156.0472 H   0  0  0  0  0  0  0  0  0  0  0  0
  149.1704  136.6584  155.5610 H   0  0  0  0  0  0  0  0  0  0  0  0
  148.5765  139.4093  154.4006 H   0  0  0  0  0  0  0  0  0  0  0  0
  148.7819  140.0184  156.7446 H   0  0  0  0  0  0  0  0  0  0  0  0
  150.0349  138.7972  156.9934 H   0  0  0  0  0  0  0  0  0  0  0  0
  150.2436  141.3611  155.3879 H   0  0  0  0  0  0  0  0  0  0  0  0
  151.4255  140.6807  156.5086 H   0  0  0  0  0  0  0  0  0  0  0  0
  151.0892  137.7269  154.7157 H   0  0  0  0  0  0  0  0  0  0  0  0
  150.4586  138.4596  153.2391 H   0  0  0  0  0  0  0  0  0  0  0  0
  1  2  1  0  0  0  0
  1 19  1  0  0  0  0
  1 20  1  0  0  0  0
  1 21  1  0  0  0  0
  2  3  1  0  0  0  0
  2  9  1  0  0  0  0
  2 22  1  0  0  0  0
  3  4  1  0  0  0  0
  3 23  1  0  0  0  0
  3 24  1  0  0  0  0
  4  8  1  0  0  0  0
  4  5  1  0  0  0  0
  5  6  2  0  0  0  0
  5 25  1  0  0  0  0
  6  7  1  0  0  0  0
  6 26  1  0  0  0  0
  7  8  2  0  0  0  0
  7 27  1  0  0  0  0
  9 10  1  0  0  0  0
  9 28  1  0  0  0  0
 10 11  2  0  0  0  0
 10 12  1  0  0  0  0
 12 13  1  0  0  0  0
 12 29  1  0  0  0  0
 13 14  1  0  0  0  0
 13 30  1  0  0  0  0
 13 31  1  0  0  0  0
 14 18  1  0  0  0  0
 14 15  1  0  0  0  0
 14 32  1  0  0  0  0
 15 16  1  0  0  0  0
 15 33  1  0  0  0  0
 15 34  1  0  0  0  0
 16 17  1  0  0  0  0
 16 35  1  0  0  0  0
 16 36  1  0  0  0  0
 17 18  1  0  0  0  0
 18 37  1  0  0  0  0
 18 38  1  0  0  0  0
M  END
> <s_m_source_file>
AV-unprocessed.smi

> <i_m_source_file_index>
3258

> <i_lp_mmshare_version>
43012

> <i_f3d_flags>
0

> <s_epik_input>
bjFbY0hdW2NIXVtjSF1uMVtDSDJdW0NAQEhdKFtDSDNdKVtOSF1DKD1PKVtOSF1bQ0gyXVtDQEBIXTJbQ0gyXVtDSDJdT1tDSDJdMg==

> <s_epik_cmdline>
J2VwaWtfcHl0aG9uJywgJy1waCcsICc3LjAnLCAnLXRuJywgJzgnLCAnLW1hJywgJzIwMCcsICctbWV0YWxfYmluZGluZycsICctaW1hZScsICc8aW5maWxlLm1hZT4nLCAnLW9tYWUnLCAnPG91dGZpbGUubWFlPic=

> <r_lp_tautomer_probability>
1

> <r_epik_Ionization_Penalty>
6.85079e-05

> <r_epik_Ionization_Penalty_Charging>
0

> <r_epik_Ionization_Penalty_Neutral>
6.85079e-05

> <r_epik_State_Penalty>
-0

> <r_epik_Charging_Adjusted_Penalty>
0

> <i_epik_Tot_Q>
0

> <i_epik_Tot_abs_Q>
0

> <r_epik_Metal_State_Penalty>
-0

> <b_epik_Metal_Only>
0

> <s_lp_Force_Field>
OPLS_2005

> <r_lp_Energy>
15.6708

> <b_lp_Chiralities_Consistent>
1

> <s_lp_Variant>
AV-unprocessed.smi:3258-3

> <Gold.Version>
5.8.1

> <Gold.Id.Protein>
6NUR|6NUR_protein|mol2

> <Gold.PLP.Fitness>
42.4867

> <Gold.PLP.PLP>
-28.6472

> <Gold.PLP.part.hbond>
-3.0000

> <Gold.PLP.part.metal>
0.0000

> <Gold.PLP.part.buried>
-5.1876

> <Gold.PLP.part.nonpolar>
-21.4653

> <Gold.PLP.part.repulsive>
0.3400

> <Gold.PLP.ligand.clash>
0.0000

> <Gold.PLP.ligand.torsion>
0.3728

> <Gold.PLP.Chemscore.Hbond>
2.8480

> <Gold.PLP.Chemscore.CHOScore>
2.0000

> <Gold.PLP.Chemscore.Metal>
0.0000

> <Gold.Chemscore.Hbonds>
donor molecule, donor type, donor heavy atom, donor atom, acceptor molecule, acceptor atom, score
      L1  H     9    28       P1  7948  0.85
      L1  H    12    29       P1  7948  1.00
      P1  H  7989  7998       L1    17  1.00
      L1  C     5    25       P1 10186  0.85
      L1  C     7    27       P1 10747  1.00

> <Gold.PLP.Chemscore.Internal.Correction>
0.0411

> <Gold.Rescore>
     Score         DG    S(hbond)    S(metal)    S(lipo)     H(rot)  DE(clash)    DE(int)     intcor
     16.23     -17.69       2.83        0.00      64.53       1.87       0.02       1.43       ----

> <Gold.Chemscore.Fitness>
16.2324

> <Gold.Chemscore.DG>
-17.6853

> <Gold.Chemscore.ZeroCoef>
-5.4800

> <Gold.Chemscore.Hbond>
2.8290

> <Gold.Chemscore.Metal>
0.0000

> <Gold.Chemscore.Lipo>
64.5265

> <Gold.Chemscore.Internal_Hbond>
0.0000

> <Gold.Chemscore.DEClash>
0.0234

> <Gold.Chemscore.DEInternal>
1.4294

> <Gold.Chemscore.Rot>
1.8724

> <Gold.Chemscore.Internal.Correction>
   9.000000E+99

> <Gold.Chemscore.Hbonds>
donor molecule, donor type, donor heavy atom, donor atom, acceptor molecule, acceptor atom, score
      L1  H     9    28       P1  7948  0.84
      L1  H    12    29       P1  7948  0.96
      P1  H  7989  7998       L1    17  0.68

> <Gold.Chemscore.Hbond.Weighted>
-9.4489

> <Gold.Chemscore.Metal.Weighted>
-0.0000

> <Gold.Chemscore.Lipo.Weighted>
-7.5496

> <Gold.Chemscore.Internal_Hbond.Weighted>
0.0000

> <Gold.Chemscore.DEClash.Weighted>
0.0234

> <Gold.Chemscore.DEInternal.Weighted>
1.4294

> <Gold.Chemscore.Rot.Weighted>
4.7933

> <Gold.Chemscore.Internal.Correction.Weighted>
   9.000000E+99

> <Gold.Protein.RotatedTorsions>
[ 6907 6896 6895 6894 ] final   65.96 input  -60.11 | X-H torsion
[ 7974 7965 7964 7962 ] final -103.13 input  175.53 | X-H torsion
[ 8008 7997 7996 7995 ] final -141.35 input   59.86 | X-H torsion
[ 10167 10162 10161 10158 ] final -163.35 input  -65.29 | X-H torsion
[ 10718 10713 10712 10709 ] final  -62.50 input   66.30 | X-H torsion
[ 10763 10752 10751 10750 ] final -177.15 input  -60.55 | X-H torsion
[ 11005 11000 10999 10996 ] final   -6.85 input  -57.11 | X-H torsion

> <Gold.Protein.ActiveResidues>
 VAL166  LYS551  ARG553  GLY616  TRP617  ASP618  TYR619  PRO620  LYS621  CYS622 
 ASP623  PHE694  ASN695  SER759  ASP760  ASP761  ALA762  ILE779  LEU786  VAL792 
 PHE793  MET794  SER795  GLU796  ALA797  LYS798  CYS799  TRP800  GLU811  SER814 

> <Gold.Protein.RotatedAtoms>
  152.4446  134.5521  159.9869 H   0  0  0  0  0  0  0  0  0  0  0  0  # atno 6907 bound_to 6896
  151.5610  133.3397  159.2979 H   0  0  0  0  0  0  0  0  0  0  0  0  # atno 6908 bound_to 6896
  150.8359  134.7665  159.6956 H   0  0  0  0  0  0  0  0  0  0  0  0  # atno 6909 bound_to 6896
  145.2599  140.9266  143.3047 H   0  0  0  0  0  0  0  0  0  0  0  0  # atno 7974 bound_to 7965
  155.4763  140.0557  157.2973 H   0  0  0  0  0  0  0  0  0  0  0  0  # atno 8008 bound_to 7997
  154.4678  140.2026  156.0026 H   0  0  0  0  0  0  0  0  0  0  0  0  # atno 8009 bound_to 7997
  156.1004  140.3220  155.7939 H   0  0  0  0  0  0  0  0  0  0  0  0  # atno 8010 bound_to 7997
  139.6327  144.0409  152.2029 H   0  0  0  0  0  0  0  0  0  0  0  0  # atno 10167 bound_to 10162
  156.0851  130.4210  150.1145 H   0  0  0  0  0  0  0  0  0  0  0  0  # atno 10718 bound_to 10713
  154.5636  135.2822  155.0895 H   0  0  0  0  0  0  0  0  0  0  0  0  # atno 10763 bound_to 10752
  154.2295  135.6377  153.5174 H   0  0  0  0  0  0  0  0  0  0  0  0  # atno 10764 bound_to 10752
  153.0036  135.5533  154.6238 H   0  0  0  0  0  0  0  0  0  0  0  0  # atno 10765 bound_to 10752
  140.7064  133.8946  155.8719 H   0  0  0  0  0  0  0  0  0  0  0  0  # atno 11005 bound_to 11000
  144.9428  139.4170  143.6441 LP  0  0  0  0  0  0  0  0  0  0  0  0  # atno 17320 bound_to 7965
  146.3278  139.8396  142.8893 LP  0  0  0  0  0  0  0  0  0  0  0  0  # atno 17321 bound_to 7965
  140.0079  144.6245  150.7673 LP  0  0  0  0  0  0  0  0  0  0  0  0  # atno 17342 bound_to 10162
  140.7448  143.2866  151.3447 LP  0  0  0  0  0  0  0  0  0  0  0  0  # atno 17343 bound_to 10162
  156.9167  130.9669  151.3555 LP  0  0  0  0  0  0  0  0  0  0  0  0  # atno 17370 bound_to 10713
  157.5982  130.8493  149.8761 LP  0  0  0  0  0  0  0  0  0  0  0  0  # atno 17371 bound_to 10713
  141.0121  134.1006  157.4210 LP  0  0  0  0  0  0  0  0  0  0  0  0  # atno 17394 bound_to 11000
  139.8883  135.0096  156.6612 LP  0  0  0  0  0  0  0  0  0  0  0  0  # atno 17395 bound_to 11000

$$$$
