AV-unprocessed.smi:72|AV-procd|sdf|740|dock6
  -GOLD-   2262017 73D 1   1.00000     0.00000
 Structure written by MMmdl.
 28 29  0  0  0  0  0  0  0  0  2 V2000
  153.4619  137.1678  156.0208 N   0  0  0  0  0  0  0  0  0  0  0  0
  152.6763  138.1224  155.7735 C   0  0  0  0  0  0  0  0  0  0  0  0
  151.8811  138.1104  154.5655 N   0  0  0  0  0  0  0  0  0  0  0  0
  151.0608  139.0968  154.3706 C   0  0  0  0  0  0  0  0  0  0  0  0
  150.9161  140.1828  155.3349 N   0  0  0  0  0  0  0  0  0  0  0  0
  149.9580  141.3465  155.1244 C   0  0  1  0  0  0  0  0  0  0  0  0
  149.2546  141.1777  153.9261 O   0  0  0  0  0  0  0  0  0  0  0  0
  147.9719  140.6181  154.1935 C   0  0  2  0  0  0  0  0  0  0  0  0
  147.0212  140.8075  152.9990 C   0  0  0  0  0  0  0  0  0  0  0  0
  147.2820  139.8266  152.0179 O   0  0  0  0  0  0  0  0  0  0  0  0
  147.5752  141.3409  155.4838 C   0  0  2  0  0  0  0  0  0  0  0  0
  147.0575  142.6295  155.1930 O   0  0  0  0  0  0  0  0  0  0  0  0
  148.8982  141.3967  156.2477 C   0  0  2  0  0  0  0  0  0  0  0  0
  149.0018  142.5452  157.0688 O   0  0  0  0  0  0  0  0  0  0  0  0
  151.7474  140.1894  156.4880 C   0  0  0  0  0  0  0  0  0  0  0  0
  151.6511  141.1382  157.2670 O   0  0  0  0  0  0  0  0  0  0  0  0
  152.6109  139.1543  156.6826 N   0  5  0  0  0  0  0  0  0  0  0  0
  150.5914  142.2327  155.0540 H   0  0  0  0  0  0  0  0  0  0  0  0
  148.0768  139.5555  154.4204 H   0  0  0  0  0  0  0  0  0  0  0  0
  146.8162  140.7892  156.0394 H   0  0  0  0  0  0  0  0  0  0  0  0
  148.9879  140.5045  156.8696 H   0  0  0  0  0  0  0  0  0  0  0  0
  153.9619  137.2887  156.8894 H   0  0  0  0  0  0  0  0  0  0  0  0
  150.4389  139.1656  153.4784 H   0  0  0  0  0  0  0  0  0  0  0  0
  145.9862  140.6839  153.3190 H   0  0  0  0  0  0  0  0  0  0  0  0
  147.1137  141.8053  152.5686 H   0  0  0  0  0  0  0  0  0  0  0  0
  148.1019  140.0369  151.5973 H   0  0  0  0  0  0  0  0  0  0  0  0
  147.6831  143.2717  155.4928 H   0  0  0  0  0  0  0  0  0  0  0  0
  148.9035  143.3090  156.5195 H   0  0  0  0  0  0  0  0  0  0  0  0
  1  2  2  0  0  0  0
  1 22  1  0  0  0  0
  2 17  1  0  0  0  0
  2  3  1  0  0  0  0
  3  4  2  0  0  0  0
  4  5  1  0  0  0  0
  4 23  1  0  0  0  0
  5  6  1  0  0  0  0
  5 15  1  0  0  0  0
  6 18  1  0  0  0  0
  6 13  1  0  0  0  0
  6  7  1  0  0  0  0
  7  8  1  0  0  0  0
  8 19  1  0  0  0  0
  8  9  1  0  0  0  0
  8 11  1  0  0  0  0
  9 10  1  0  0  0  0
  9 24  1  0  0  0  0
  9 25  1  0  0  0  0
 10 26  1  0  0  0  0
 11 20  1  0  0  0  0
 11 12  1  0  0  0  0
 11 13  1  0  0  0  0
 12 27  1  0  0  0  0
 13 21  1  0  0  0  0
 13 14  1  0  0  0  0
 14 28  1  0  0  0  0
 15 16  2  0  0  0  0
 15 17  1  0  0  0  0
M  CHG  1  17  -1
M  END
> <s_m_source_file>
AV-unprocessed.smi

> <i_m_source_file_index>
72

> <i_lp_mmshare_version>
43012

> <i_f3d_flags>
0

> <s_epik_input>
W05IMl1jMW5bY0hdbihjKD1PKW4xKVtDQEBIXTJPW0NASF0oW0NIMl1bT0hdKVtDQEBIXShbT0hdKVtDQEhdMltPSF0=

> <s_epik_cmdline>
J2VwaWtfcHl0aG9uJywgJy1waCcsICc3LjAnLCAnLXRuJywgJzgnLCAnLW1hJywgJzIwMCcsICctbWV0YWxfYmluZGluZycsICctaW1hZScsICc8aW5maWxlLm1hZT4nLCAnLW9tYWUnLCAnPG91dGZpbGUubWFlPic=

> <r_lp_tautomer_probability>
7.17554e-07

> <r_epik_Ionization_Penalty>
12.8705

> <r_epik_Ionization_Penalty_Charging>
5.64144

> <r_epik_Ionization_Penalty_Neutral>
7.22905

> <r_epik_State_Penalty>
3.30104

> <r_epik_Charging_Adjusted_Penalty>
8.94249

> <i_epik_Tot_Q>
-1

> <i_epik_Tot_abs_Q>
1

> <r_epik_Metal_State_Penalty>
0.529074

> <b_epik_Metal_Only>
1

> <s_epik_Chemistry_Notes>
This compound contains an acetal/aminal-like group ( X-CH(R)-Y where X, Y are N, S, or O) that may be acid/base labile, releasing an aldehyde.

> <s_lp_Force_Field>
OPLS_2005

> <r_lp_Energy>
36.2844

> <b_lp_Chiralities_Consistent>
1

> <s_lp_Variant>
AV-unprocessed.smi:72-78

> <Gold.Version>
5.8.1

> <Gold.Id.Protein>
6NUR|6NUR_protein|mol2

> <Gold.PLP.Fitness>
46.8488

> <Gold.PLP.PLP>
-25.8822

> <Gold.PLP.part.hbond>
-6.7440

> <Gold.PLP.part.metal>
0.0000

> <Gold.PLP.part.buried>
-1.5677

> <Gold.PLP.part.nonpolar>
-17.3713

> <Gold.PLP.part.repulsive>
1.0605

> <Gold.PLP.ligand.clash>
0.0000

> <Gold.PLP.ligand.torsion>
0.1688

> <Gold.PLP.Chemscore.Hbond>
6.1921

> <Gold.PLP.Chemscore.CHOScore>
0.9022

> <Gold.PLP.Chemscore.Metal>
0.0000

> <Gold.Chemscore.Hbonds>
donor molecule, donor type, donor heavy atom, donor atom, acceptor molecule, acceptor atom, score
      L1  H    10    26       P1  7957  1.00
      L1  H    12    27       P1  8028  1.00
      L1  H    14    28       P1  8028  1.00
      P1  H  7997  8010       L1    17  2.00
      P1  H  8011  8017       L1     7  0.73
      P1  H 10752 10765       L1     1  0.46
      L1  C     4    23       P1  7957  0.83

> <Gold.PLP.Chemscore.Internal.Correction>
0.0213

> <Gold.Rescore>
     Score         DG    S(hbond)    S(metal)    S(lipo)     H(rot)  DE(clash)    DE(int)     intcor
      7.90     -11.09       3.95        0.00      23.60       4.04       1.08       2.11       ----

> <Gold.Chemscore.Fitness>
7.9018

> <Gold.Chemscore.DG>
-11.0903

> <Gold.Chemscore.ZeroCoef>
-5.4800

> <Gold.Chemscore.Hbond>
3.9498

> <Gold.Chemscore.Metal>
0.0000

> <Gold.Chemscore.Lipo>
23.5984

> <Gold.Chemscore.Internal_Hbond>
0.0000

> <Gold.Chemscore.DEClash>
1.0829

> <Gold.Chemscore.DEInternal>
2.1056

> <Gold.Chemscore.Rot>
4.0403

> <Gold.Chemscore.Internal.Correction>
   9.000000E+99

> <Gold.Chemscore.Hbonds>
donor molecule, donor type, donor heavy atom, donor atom, acceptor molecule, acceptor atom, score
      L1  H    10    26       P1  7957  0.93
      L1  H    12    27       P1  8028  0.26
      L1  H    14    28       P1  8028  0.94
      P1  H  7997  8010       L1    17  0.25
      P1  H  8011  8017       L1     7  0.67
      P1  H 10752 10765       L1     1  0.43

> <Gold.Chemscore.Hbond.Weighted>
-13.1924

> <Gold.Chemscore.Metal.Weighted>
-0.0000

> <Gold.Chemscore.Lipo.Weighted>
-2.7610

> <Gold.Chemscore.Internal_Hbond.Weighted>
0.0000

> <Gold.Chemscore.DEClash.Weighted>
1.0829

> <Gold.Chemscore.DEInternal.Weighted>
2.1056

> <Gold.Chemscore.Rot.Weighted>
10.3431

> <Gold.Chemscore.Internal.Correction.Weighted>
   9.000000E+99

> <Gold.Protein.RotatedTorsions>
[ 6907 6896 6895 6894 ] final  162.15 input  -60.11 | X-H torsion
[ 7974 7965 7964 7962 ] final -106.64 input  175.53 | X-H torsion
[ 8008 7997 7996 7995 ] final   54.87 input   59.86 | X-H torsion
[ 10167 10162 10161 10158 ] final -151.79 input  -65.29 | X-H torsion
[ 10718 10713 10712 10709 ] final   47.70 input   66.30 | X-H torsion
[ 10763 10752 10751 10750 ] final -125.38 input  -60.55 | X-H torsion
[ 11005 11000 10999 10996 ] final -177.13 input  -57.11 | X-H torsion

> <Gold.Protein.ActiveResidues>
 VAL166  LYS551  ARG553  GLY616  TRP617  ASP618  TYR619  PRO620  LYS621  CYS622 
 ASP623  PHE694  ASN695  SER759  ASP760  ASP761  ALA762  ILE779  LEU786  VAL792 
 PHE793  MET794  SER795  GLU796  ALA797  LYS798  CYS799  TRP800  GLU811  SER814 

> <Gold.Protein.RotatedAtoms>
  151.9448  133.3648  159.3978 H   0  0  0  0  0  0  0  0  0  0  0  0  # atno 6907 bound_to 6896
  150.6991  134.4401  159.5297 H   0  0  0  0  0  0  0  0  0  0  0  0  # atno 6908 bound_to 6896
  152.2064  134.8541  160.0553 H   0  0  0  0  0  0  0  0  0  0  0  0  # atno 6909 bound_to 6896
  145.2154  140.9113  143.3290 H   0  0  0  0  0  0  0  0  0  0  0  0  # atno 7974 bound_to 7965
  155.4918  140.3471  155.4356 H   0  0  0  0  0  0  0  0  0  0  0  0  # atno 8008 bound_to 7997
  156.0972  140.1426  156.9544 H   0  0  0  0  0  0  0  0  0  0  0  0  # atno 8009 bound_to 7997
  154.4671  140.0914  156.7025 H   0  0  0  0  0  0  0  0  0  0  0  0  # atno 8010 bound_to 7997
  139.7237  143.8917  152.2512 H   0  0  0  0  0  0  0  0  0  0  0  0  # atno 10167 bound_to 10162
  157.4612  130.8197  149.7888 H   0  0  0  0  0  0  0  0  0  0  0  0  # atno 10718 bound_to 10713
  154.8735  135.4031  154.3259 H   0  0  0  0  0  0  0  0  0  0  0  0  # atno 10763 bound_to 10752
  153.4080  135.7020  153.6385 H   0  0  0  0  0  0  0  0  0  0  0  0  # atno 10764 bound_to 10752
  153.5099  135.3709  155.2552 H   0  0  0  0  0  0  0  0  0  0  0  0  # atno 10765 bound_to 10752
  140.4444  134.6402  157.4772 H   0  0  0  0  0  0  0  0  0  0  0  0  # atno 11005 bound_to 11000
  144.9816  139.3777  143.6259 LP  0  0  0  0  0  0  0  0  0  0  0  0  # atno 17320 bound_to 7965
  146.3388  139.8959  142.8802 LP  0  0  0  0  0  0  0  0  0  0  0  0  # atno 17321 bound_to 7965
  139.8820  144.7012  150.8867 LP  0  0  0  0  0  0  0  0  0  0  0  0  # atno 17342 bound_to 10162
  140.7758  143.3653  151.1750 LP  0  0  0  0  0  0  0  0  0  0  0  0  # atno 17343 bound_to 10162
  156.0029  130.3870  150.2537 LP  0  0  0  0  0  0  0  0  0  0  0  0  # atno 17370 bound_to 10713
  157.0714  131.0118  151.3188 LP  0  0  0  0  0  0  0  0  0  0  0  0  # atno 17371 bound_to 10713
  140.0048  134.6780  155.9472 LP  0  0  0  0  0  0  0  0  0  0  0  0  # atno 17394 bound_to 11000
  141.1692  133.6537  156.4588 LP  0  0  0  0  0  0  0  0  0  0  0  0  # atno 17395 bound_to 11000

$$$$
