AV-unprocessed.smi:1750|AV-procd|sdf|7054|dock1
  -GOLD-   22720 8273D 1   1.00000     0.00000
 Structure written by MMmdl.
 35 36  0  0  0  0  0  0  0  0  2 V2000
  155.0993  137.8698  164.8042 C   0  0  0  0  0  0  0  0  0  0  0  0
  154.8070  136.3924  164.5211 C   0  0  0  0  0  0  0  0  0  0  0  0
  155.4926  135.8895  163.2431 C   0  0  0  0  0  0  0  0  0  0  0  0
  154.7282  136.2374  162.0094 C   0  0  0  0  0  0  0  0  0  0  0  0
  154.4888  135.3589  161.0323 N   0  0  0  0  0  0  0  0  0  0  0  0
  153.7860  135.9267  159.9795 N   0  0  0  0  0  0  0  0  0  0  0  0
  153.5299  137.2303  160.1605 C   0  0  0  0  0  0  0  0  0  0  0  0
  152.8654  137.9684  159.2558 N   0  5  0  0  0  0  0  0  0  0  0  0
  153.2541  139.2394  159.0054 C   0  0  0  0  0  0  0  0  0  0  0  0
  154.4152  139.6431  158.9073 O   0  0  0  0  0  0  0  0  0  0  0  0
  152.2362  140.0974  158.8601 N   0  0  0  0  0  0  0  0  0  0  0  0
  152.3703  141.5212  158.5782 C   0  0  0  0  0  0  0  0  0  0  0  0
  151.9930  142.3608  159.8071 C   0  0  2  0  0  0  0  0  0  0  0  0
  152.0256  143.8717  159.5867 C   0  0  0  0  0  0  0  0  0  0  0  0
  152.1956  144.4191  160.9939 C   0  0  0  0  0  0  0  0  0  0  0  0
  152.7513  143.2335  161.7904 C   0  0  0  0  0  0  0  0  0  0  0  0
  152.9452  142.1894  160.8441 O   0  0  0  0  0  0  0  0  0  0  0  0
  154.1295  137.8577  161.6954 S   0  0  0  0  0  0  0  0  0  0  0  0
  154.5953  138.1976  165.7134 H   0  0  0  0  0  0  0  0  0  0  0  0
  154.7555  138.5028  163.9858 H   0  0  0  0  0  0  0  0  0  0  0  0
  156.1680  138.0411  164.9357 H   0  0  0  0  0  0  0  0  0  0  0  0
  155.1349  135.7933  165.3714 H   0  0  0  0  0  0  0  0  0  0  0  0
  153.7291  136.2476  164.4391 H   0  0  0  0  0  0  0  0  0  0  0  0
  156.4957  136.3106  163.1650 H   0  0  0  0  0  0  0  0  0  0  0  0
  155.6116  134.8062  163.2825 H   0  0  0  0  0  0  0  0  0  0  0  0
  151.2998  139.7310  158.9458 H   0  0  0  0  0  0  0  0  0  0  0  0
  153.3982  141.7413  158.2857 H   0  0  0  0  0  0  0  0  0  0  0  0
  151.7337  141.7815  157.7313 H   0  0  0  0  0  0  0  0  0  0  0  0
  151.0124  142.0602  160.1815 H   0  0  0  0  0  0  0  0  0  0  0  0
  152.8901  144.1443  158.9798 H   0  0  0  0  0  0  0  0  0  0  0  0
  151.1314  144.2476  159.0887 H   0  0  0  0  0  0  0  0  0  0  0  0
  152.8677  145.2777  161.0095 H   0  0  0  0  0  0  0  0  0  0  0  0
  151.2372  144.7351  161.4075 H   0  0  0  0  0  0  0  0  0  0  0  0
  153.6875  143.4732  162.2952 H   0  0  0  0  0  0  0  0  0  0  0  0
  152.0333  142.9088  162.5444 H   0  0  0  0  0  0  0  0  0  0  0  0
  1  2  1  0  0  0  0
  1 19  1  0  0  0  0
  1 20  1  0  0  0  0
  1 21  1  0  0  0  0
  2  3  1  0  0  0  0
  2 22  1  0  0  0  0
  2 23  1  0  0  0  0
  3  4  1  0  0  0  0
  3 24  1  0  0  0  0
  3 25  1  0  0  0  0
  4 18  1  0  0  0  0
  4  5  2  0  0  0  0
  5  6  1  0  0  0  0
  6  7  2  0  0  0  0
  7  8  1  0  0  0  0
  7 18  1  0  0  0  0
  8  9  1  0  0  0  0
  9 10  2  0  0  0  0
  9 11  1  0  0  0  0
 11 12  1  0  0  0  0
 11 26  1  0  0  0  0
 12 13  1  0  0  0  0
 12 27  1  0  0  0  0
 12 28  1  0  0  0  0
 13 17  1  0  0  0  0
 13 14  1  0  0  0  0
 13 29  1  0  0  0  0
 14 15  1  0  0  0  0
 14 30  1  0  0  0  0
 14 31  1  0  0  0  0
 15 16  1  0  0  0  0
 15 32  1  0  0  0  0
 15 33  1  0  0  0  0
 16 17  1  0  0  0  0
 16 34  1  0  0  0  0
 16 35  1  0  0  0  0
M  CHG  1   8  -1
M  END
> <s_m_source_file>
AV-unprocessed.smi

> <i_m_source_file_index>
1750

> <i_lp_mmshare_version>
43012

> <i_f3d_flags>
0

> <s_epik_input>
W0NIM11bQ0gyXVtDSDJdYzFubmMoczEpW05IXUMoPU8pW05IXVtDSDJdW0NAQEhdMltDSDJdW0NIMl1bQ0gyXU8y

> <s_epik_cmdline>
J2VwaWtfcHl0aG9uJywgJy1waCcsICc3LjAnLCAnLXRuJywgJzgnLCAnLW1hJywgJzIwMCcsICctbWV0YWxfYmluZGluZycsICctaW1hZScsICc8aW5maWxlLm1hZT4nLCAnLW9tYWUnLCAnPG91dGZpbGUubWFlPic=

> <r_lp_tautomer_probability>
1

> <r_epik_Ionization_Penalty>
4.22484

> <r_epik_Ionization_Penalty_Charging>
4.21437

> <r_epik_Ionization_Penalty_Neutral>
0.0104685

> <r_epik_State_Penalty>
4.21389

> <r_epik_Charging_Adjusted_Penalty>
8.42826

> <i_epik_Tot_Q>
-1

> <i_epik_Tot_abs_Q>
1

> <r_epik_Metal_State_Penalty>
0.69377

> <b_epik_Metal_Only>
1

> <s_lp_Force_Field>
OPLS_2005

> <r_lp_Energy>
11.1337

> <b_lp_Chiralities_Consistent>
1

> <s_lp_Variant>
AV-unprocessed.smi:1750-3

> <Gold.Version>
5.8.1

> <Gold.Id.Protein>
6NUR|6NUR_protein|mol2

> <Gold.PLP.Fitness>
38.7351

> <Gold.PLP.PLP>
-34.8128

> <Gold.PLP.part.hbond>
-2.5796

> <Gold.PLP.part.metal>
0.0000

> <Gold.PLP.part.buried>
-5.0825

> <Gold.PLP.part.nonpolar>
-26.5458

> <Gold.PLP.part.repulsive>
0.1358

> <Gold.PLP.ligand.clash>
0.0000

> <Gold.PLP.ligand.torsion>
0.9515

> <Gold.PLP.Chemscore.Hbond>
1.9000

> <Gold.PLP.Chemscore.CHOScore>
0.0000

> <Gold.PLP.Chemscore.Metal>
0.0000

> <Gold.Chemscore.Hbonds>
donor molecule, donor type, donor heavy atom, donor atom, acceptor molecule, acceptor atom, score
      P1  H  6896  6909       L1     6  0.99
      P1  H  7997  8008       L1    10  1.00

> <Gold.PLP.Chemscore.Internal.Correction>
0.1254

> <Gold.Rescore>
     Score         DG    S(hbond)    S(metal)    S(lipo)     H(rot)  DE(clash)    DE(int)     intcor
     17.03     -17.84       1.90        0.00      86.34       1.59       0.07       0.74       ----

> <Gold.Chemscore.Fitness>
17.0345

> <Gold.Chemscore.DG>
-17.8385

> <Gold.Chemscore.ZeroCoef>
-5.4800

> <Gold.Chemscore.Hbond>
1.8962

> <Gold.Chemscore.Metal>
0.0000

> <Gold.Chemscore.Lipo>
86.3361

> <Gold.Chemscore.Internal_Hbond>
0.0000

> <Gold.Chemscore.DEClash>
0.0650

> <Gold.Chemscore.DEInternal>
0.7389

> <Gold.Chemscore.Rot>
1.5922

> <Gold.Chemscore.Internal.Correction>
   9.000000E+99

> <Gold.Chemscore.Hbonds>
donor molecule, donor type, donor heavy atom, donor atom, acceptor molecule, acceptor atom, score
      P1  H  6896  6909       L1     6  0.21
      P1  H  7997  8008       L1    10  0.98

> <Gold.Chemscore.Hbond.Weighted>
-6.3333

> <Gold.Chemscore.Metal.Weighted>
-0.0000

> <Gold.Chemscore.Lipo.Weighted>
-10.1013

> <Gold.Chemscore.Internal_Hbond.Weighted>
0.0000

> <Gold.Chemscore.DEClash.Weighted>
0.0650

> <Gold.Chemscore.DEInternal.Weighted>
0.7389

> <Gold.Chemscore.Rot.Weighted>
4.0761

> <Gold.Chemscore.Internal.Correction.Weighted>
   9.000000E+99

> <Gold.Protein.RotatedTorsions>
[ 6907 6896 6895 6894 ] final  151.68 input  -60.11 | X-H torsion
[ 7974 7965 7964 7962 ] final  125.35 input  175.53 | X-H torsion
[ 8008 7997 7996 7995 ] final -117.99 input   59.86 | X-H torsion
[ 10167 10162 10161 10158 ] final  101.98 input  -65.29 | X-H torsion
[ 10718 10713 10712 10709 ] final   42.22 input   66.30 | X-H torsion
[ 10763 10752 10751 10750 ] final   24.93 input  -60.55 | X-H torsion
[ 11005 11000 10999 10996 ] final -170.15 input  -57.11 | X-H torsion

> <Gold.Protein.ActiveResidues>
 VAL166  LYS551  ARG553  GLY616  TRP617  ASP618  TYR619  PRO620  LYS621  CYS622 
 ASP623  PHE694  ASN695  SER759  ASP760  ASP761  ALA762  ILE779  LEU786  VAL792 
 PHE793  MET794  SER795  GLU796  ALA797  LYS798  CYS799  TRP800  GLU811  SER814 

> <Gold.Protein.RotatedAtoms>
  152.0972  133.4231  159.4570 H   0  0  0  0  0  0  0  0  0  0  0  0  # atno 6907 bound_to 6896
  150.6863  134.2802  159.4633 H   0  0  0  0  0  0  0  0  0  0  0  0  # atno 6908 bound_to 6896
  152.0659  134.9564  160.0625 H   0  0  0  0  0  0  0  0  0  0  0  0  # atno 6909 bound_to 6896
  145.0739  139.3708  143.4943 H   0  0  0  0  0  0  0  0  0  0  0  0  # atno 7974 bound_to 7965
  155.0926  140.0395  157.2673 H   0  0  0  0  0  0  0  0  0  0  0  0  # atno 8008 bound_to 7997
  154.6820  140.2635  155.6873 H   0  0  0  0  0  0  0  0  0  0  0  0  # atno 8009 bound_to 7997
  156.2698  140.2776  156.1368 H   0  0  0  0  0  0  0  0  0  0  0  0  # atno 8010 bound_to 7997
  139.7390  144.7016  151.0605 H   0  0  0  0  0  0  0  0  0  0  0  0  # atno 10167 bound_to 10162
  157.4023  130.7867  149.7359 H   0  0  0  0  0  0  0  0  0  0  0  0  # atno 10718 bound_to 10713
  153.0728  135.6594  154.0210 H   0  0  0  0  0  0  0  0  0  0  0  0  # atno 10763 bound_to 10752
  153.9851  135.2951  155.3418 H   0  0  0  0  0  0  0  0  0  0  0  0  # atno 10764 bound_to 10752
  154.7108  135.5206  153.8733 H   0  0  0  0  0  0  0  0  0  0  0  0  # atno 10765 bound_to 10752
  140.5227  134.5694  157.5052 H   0  0  0  0  0  0  0  0  0  0  0  0  # atno 11005 bound_to 11000
  146.3529  140.0498  142.8637 LP  0  0  0  0  0  0  0  0  0  0  0  0  # atno 17320 bound_to 7965
  145.1259  140.9489  143.4573 LP  0  0  0  0  0  0  0  0  0  0  0  0  # atno 17321 bound_to 7965
  140.7783  143.4948  150.9846 LP  0  0  0  0  0  0  0  0  0  0  0  0  # atno 17342 bound_to 10162
  139.8636  143.7282  152.3171 LP  0  0  0  0  0  0  0  0  0  0  0  0  # atno 17343 bound_to 10162
  155.9827  130.4007  150.3404 LP  0  0  0  0  0  0  0  0  0  0  0  0  # atno 17370 bound_to 10713
  157.1533  131.0326  151.2875 LP  0  0  0  0  0  0  0  0  0  0  0  0  # atno 17371 bound_to 10713
  139.9597  134.7474  156.0264 LP  0  0  0  0  0  0  0  0  0  0  0  0  # atno 17394 bound_to 11000
  141.1325  133.6583  156.3504 LP  0  0  0  0  0  0  0  0  0  0  0  0  # atno 17395 bound_to 11000

$$$$
