AV-unprocessed.smi:2317|AV-procd|sdf|9273|dock1
  -GOLD-   2272012493D 1   1.00000     0.00000
 Structure written by MMmdl.
 37 38  0  0  0  0  0  0  0  0  1 V2000
  144.7453  137.2255  152.3068 O   0  0  0  0  0  0  0  0  0  0  0  0
  145.9325  136.9059  152.2496 C   0  0  0  0  0  0  0  0  0  0  0  0
  146.9374  137.7755  152.4198 N   0  0  0  0  0  0  0  0  0  0  0  0
  146.7636  139.1966  152.6976 C   0  0  0  0  0  0  0  0  0  0  0  0
  147.5645  139.6404  153.9399 C   0  0  2  0  0  0  0  0  0  0  0  0
  148.0267  141.1075  153.8127 C   0  0  0  0  0  0  0  0  0  0  0  0
  148.7730  141.5809  155.0701 C   0  0  0  0  0  0  0  0  0  0  0  0
  149.9687  140.6702  155.3841 C   0  0  0  0  0  0  0  0  0  0  0  0
  149.5290  139.2023  155.5195 C   0  0  0  0  0  0  0  0  0  0  0  0
  148.7572  138.7080  154.2802 C   0  0  2  0  0  0  0  0  0  0  0  0
  149.6503  138.6038  153.1872 O   0  0  0  0  0  0  0  0  0  0  0  0
  146.3984  135.6703  151.9984 N   0  0  0  0  0  0  0  0  0  0  0  0
  145.6734  134.4732  151.7438 C   0  0  0  0  0  0  0  0  0  0  0  0
  144.3079  134.4299  151.3704 C   0  0  0  0  0  0  0  0  0  0  0  0
  143.7047  133.1733  151.1619 C   0  0  0  0  0  0  0  0  0  0  0  0
  144.3577  132.0007  151.3057 N   0  0  0  0  0  0  0  0  0  0  0  0
  145.6554  132.0451  151.6744 C   0  0  0  0  0  0  0  0  0  0  0  0
  146.3527  133.2473  151.9084 C   0  0  0  0  0  0  0  0  0  0  0  0
  147.6552  133.2201  152.2815 F   0  0  0  0  0  0  0  0  0  0  0  0
  147.8850  137.4333  152.3542 H   0  0  0  0  0  0  0  0  0  0  0  0
  147.0617  139.7874  151.8298 H   0  0  0  0  0  0  0  0  0  0  0  0
  145.7008  139.3863  152.8537 H   0  0  0  0  0  0  0  0  0  0  0  0
  146.8783  139.6000  154.7877 H   0  0  0  0  0  0  0  0  0  0  0  0
  148.6731  141.2193  152.9413 H   0  0  0  0  0  0  0  0  0  0  0  0
  147.1662  141.7547  153.6394 H   0  0  0  0  0  0  0  0  0  0  0  0
  149.1138  142.6079  154.9354 H   0  0  0  0  0  0  0  0  0  0  0  0
  148.0890  141.5911  155.9195 H   0  0  0  0  0  0  0  0  0  0  0  0
  150.7148  140.7611  154.5937 H   0  0  0  0  0  0  0  0  0  0  0  0
  150.4540  140.9983  156.3035 H   0  0  0  0  0  0  0  0  0  0  0  0
  150.3964  138.5672  155.7031 H   0  0  0  0  0  0  0  0  0  0  0  0
  148.8908  139.1044  156.3987 H   0  0  0  0  0  0  0  0  0  0  0  0
  148.3891  137.7026  154.4871 H   0  0  0  0  0  0  0  0  0  0  0  0
  149.3203  137.9494  152.5904 H   0  0  0  0  0  0  0  0  0  0  0  0
  147.4015  135.5843  151.9222 H   0  0  0  0  0  0  0  0  0  0  0  0
  143.7117  135.3211  151.2514 H   0  0  0  0  0  0  0  0  0  0  0  0
  142.6650  133.1087  150.8766 H   0  0  0  0  0  0  0  0  0  0  0  0
  146.1535  131.0938  151.7883 H   0  0  0  0  0  0  0  0  0  0  0  0
  1  2  2  0  0  0  0
  2  3  1  0  0  0  0
  2 12  1  0  0  0  0
  3  4  1  0  0  0  0
  3 20  1  0  0  0  0
  4  5  1  0  0  0  0
  4 21  1  0  0  0  0
  4 22  1  0  0  0  0
  5 10  1  0  0  0  0
  5  6  1  0  0  0  0
  5 23  1  0  0  0  0
  6  7  1  0  0  0  0
  6 24  1  0  0  0  0
  6 25  1  0  0  0  0
  7  8  1  0  0  0  0
  7 26  1  0  0  0  0
  7 27  1  0  0  0  0
  8  9  1  0  0  0  0
  8 28  1  0  0  0  0
  8 29  1  0  0  0  0
  9 10  1  0  0  0  0
  9 30  1  0  0  0  0
  9 31  1  0  0  0  0
 10 11  1  0  0  0  0
 10 32  1  0  0  0  0
 11 33  1  0  0  0  0
 12 13  1  0  0  0  0
 12 34  1  0  0  0  0
 13 18  1  0  0  0  0
 13 14  2  0  0  0  0
 14 15  1  0  0  0  0
 14 35  1  0  0  0  0
 15 16  2  0  0  0  0
 15 36  1  0  0  0  0
 16 17  1  0  0  0  0
 17 18  2  0  0  0  0
 17 37  1  0  0  0  0
 18 19  1  0  0  0  0
M  END
> <s_m_source_file>
AV-unprocessed.smi

> <i_m_source_file_index>
2317

> <i_lp_mmshare_version>
43012

> <i_f3d_flags>
0

> <s_epik_input>
RmMxW2NIXW5bY0hdW2NIXWMxW05IXUMoPU8pW05IXVtDSDJdW0NAQEhdMltDSDJdW0NIMl1bQ0gyXVtDSDJdW0NASF0yW09IXQ==

> <s_epik_cmdline>
J2VwaWtfcHl0aG9uJywgJy1waCcsICc3LjAnLCAnLXRuJywgJzgnLCAnLW1hJywgJzIwMCcsICctbWV0YWxfYmluZGluZycsICctaW1hZScsICc8aW5maWxlLm1hZT4nLCAnLW9tYWUnLCAnPG91dGZpbGUubWFlPic=

> <r_epik_Ionization_Penalty>
0.00317647

> <r_epik_Ionization_Penalty_Charging>
0

> <r_epik_Ionization_Penalty_Neutral>
0.00317647

> <r_epik_State_Penalty>
0.0022093

> <r_epik_Charging_Adjusted_Penalty>
0.0022093

> <i_epik_Tot_Q>
0

> <i_epik_Tot_abs_Q>
0

> <r_epik_Metal_State_Penalty>
-0

> <b_epik_Metal_Only>
0

> <s_lp_Force_Field>
OPLS_2005

> <r_lp_Energy>
20.2731

> <b_lp_Chiralities_Consistent>
1

> <s_lp_Variant>
AV-unprocessed.smi:2317-3

> <Gold.Version>
5.8.1

> <Gold.Id.Protein>
6NUR|6NUR_protein|mol2

> <Gold.PLP.Fitness>
44.0020

> <Gold.PLP.PLP>
-33.1299

> <Gold.PLP.part.hbond>
-3.7887

> <Gold.PLP.part.metal>
0.0000

> <Gold.PLP.part.buried>
-4.0336

> <Gold.PLP.part.nonpolar>
-26.8025

> <Gold.PLP.part.repulsive>
1.4142

> <Gold.PLP.ligand.clash>
0.0000

> <Gold.PLP.ligand.torsion>
0.5585

> <Gold.PLP.Chemscore.Hbond>
2.9920

> <Gold.PLP.Chemscore.CHOScore>
1.0000

> <Gold.PLP.Chemscore.Metal>
0.0000

> <Gold.Chemscore.Hbonds>
donor molecule, donor type, donor heavy atom, donor atom, acceptor molecule, acceptor atom, score
      L1  H     3    20       P1  7948  0.98
      L1  H    11    33       P1  7948  1.00
      L1  H    12    34       P1  7948  1.00
      L1  C    15    36       P1 10186  1.00

> <Gold.PLP.Chemscore.Internal.Correction>
0.0131

> <Gold.Rescore>
     Score         DG    S(hbond)    S(metal)    S(lipo)     H(rot)  DE(clash)    DE(int)     intcor
     15.87     -18.71       2.84        0.00      71.04       1.79       0.06       2.78       ----

> <Gold.Chemscore.Fitness>
15.8671

> <Gold.Chemscore.DG>
-18.7135

> <Gold.Chemscore.ZeroCoef>
-5.4800

> <Gold.Chemscore.Hbond>
2.8418

> <Gold.Chemscore.Metal>
0.0000

> <Gold.Chemscore.Lipo>
71.0442

> <Gold.Chemscore.Internal_Hbond>
0.0000

> <Gold.Chemscore.DEClash>
0.0637

> <Gold.Chemscore.DEInternal>
2.7827

> <Gold.Chemscore.Rot>
1.7853

> <Gold.Chemscore.Internal.Correction>
   9.000000E+99

> <Gold.Chemscore.Hbonds>
donor molecule, donor type, donor heavy atom, donor atom, acceptor molecule, acceptor atom, score
      L1  H     3    20       P1  7948  0.93
      L1  H    11    33       P1  7948  0.88
      L1  H    12    34       P1  7948  0.97

> <Gold.Chemscore.Hbond.Weighted>
-9.4918

> <Gold.Chemscore.Metal.Weighted>
-0.0000

> <Gold.Chemscore.Lipo.Weighted>
-8.3122

> <Gold.Chemscore.Internal_Hbond.Weighted>
0.0000

> <Gold.Chemscore.DEClash.Weighted>
0.0637

> <Gold.Chemscore.DEInternal.Weighted>
2.7827

> <Gold.Chemscore.Rot.Weighted>
4.5704

> <Gold.Chemscore.Internal.Correction.Weighted>
   9.000000E+99

> <Gold.Protein.RotatedTorsions>
[ 6907 6896 6895 6894 ] final -129.89 input  -60.11 | X-H torsion
[ 7974 7965 7964 7962 ] final  -94.76 input  175.53 | X-H torsion
[ 8008 7997 7996 7995 ] final -140.64 input   59.86 | X-H torsion
[ 10167 10162 10161 10158 ] final  -91.06 input  -65.29 | X-H torsion
[ 10718 10713 10712 10709 ] final -107.93 input   66.30 | X-H torsion
[ 10763 10752 10751 10750 ] final  -92.02 input  -60.55 | X-H torsion
[ 11005 11000 10999 10996 ] final   83.50 input  -57.11 | X-H torsion

> <Gold.Protein.ActiveResidues>
 VAL166  LYS551  ARG553  GLY616  TRP617  ASP618  TYR619  PRO620  LYS621  CYS622 
 ASP623  PHE694  ASN695  SER759  ASP760  ASP761  ALA762  ILE779  LEU786  VAL792 
 PHE793  MET794  SER795  GLU796  ALA797  LYS798  CYS799  TRP800  GLU811  SER814 

> <Gold.Protein.RotatedAtoms>
  150.9337  133.6737  159.2805 H   0  0  0  0  0  0  0  0  0  0  0  0  # atno 6907 bound_to 6896
  151.4150  135.0989  159.9606 H   0  0  0  0  0  0  0  0  0  0  0  0  # atno 6908 bound_to 6896
  152.5038  133.8801  159.7397 H   0  0  0  0  0  0  0  0  0  0  0  0  # atno 6909 bound_to 6896
  145.3691  140.9503  143.2457 H   0  0  0  0  0  0  0  0  0  0  0  0  # atno 7974 bound_to 7965
  155.4646  140.0548  157.2987 H   0  0  0  0  0  0  0  0  0  0  0  0  # atno 8008 bound_to 7997
  154.4723  140.2046  155.9918 H   0  0  0  0  0  0  0  0  0  0  0  0  # atno 8009 bound_to 7997
  156.1076  140.3209  155.8032 H   0  0  0  0  0  0  0  0  0  0  0  0  # atno 8010 bound_to 7997
  140.3487  143.2903  151.9751 H   0  0  0  0  0  0  0  0  0  0  0  0  # atno 10167 bound_to 10162
  156.0461  130.5687  150.7891 H   0  0  0  0  0  0  0  0  0  0  0  0  # atno 10718 bound_to 10713
  154.6820  135.5246  153.8275 H   0  0  0  0  0  0  0  0  0  0  0  0  # atno 10763 bound_to 10752
  153.0571  135.6554  154.0561 H   0  0  0  0  0  0  0  0  0  0  0  0  # atno 10764 bound_to 10752
  154.0447  135.2974  155.3329 H   0  0  0  0  0  0  0  0  0  0  0  0  # atno 10765 bound_to 10752
  139.9029  134.8149  156.2318 H   0  0  0  0  0  0  0  0  0  0  0  0  # atno 11005 bound_to 11000
  144.8590  139.5206  143.6821 LP  0  0  0  0  0  0  0  0  0  0  0  0  # atno 17320 bound_to 7965
  146.2893  139.7094  142.9172 LP  0  0  0  0  0  0  0  0  0  0  0  0  # atno 17321 bound_to 7965
  139.4829  144.6095  151.7460 LP  0  0  0  0  0  0  0  0  0  0  0  0  # atno 17342 bound_to 10162
  140.5240  144.0835  150.6031 LP  0  0  0  0  0  0  0  0  0  0  0  0  # atno 17343 bound_to 10162
  157.5337  131.0938  150.9921 LP  0  0  0  0  0  0  0  0  0  0  0  0  # atno 17370 bound_to 10713
  157.0221  130.5678  149.5332 LP  0  0  0  0  0  0  0  0  0  0  0  0  # atno 17371 bound_to 10713
  141.0340  133.6973  156.1481 LP  0  0  0  0  0  0  0  0  0  0  0  0  # atno 17394 bound_to 11000
  140.7054  134.4519  157.5584 LP  0  0  0  0  0  0  0  0  0  0  0  0  # atno 17395 bound_to 11000

$$$$
