AV-unprocessed.smi:3141|AV-procd|sdf|11968|dock1
  -GOLD-   2272017363D 1   1.00000     0.00000
 Structure written by MMmdl.
 35 37  0  0  0  0  0  0  0  0  1 V2000
  151.5224  141.6559  157.8618 O   0  0  0  0  0  0  0  0  0  0  0  0
  150.7805  142.4088  157.2305 C   0  0  0  0  0  0  0  0  0  0  0  0
  150.9174  143.7405  157.1847 N   0  0  0  0  0  0  0  0  0  0  0  0
  151.9325  144.4898  157.8508 C   0  0  0  0  0  0  0  0  0  0  0  0
  152.2663  144.1089  159.2767 C   0  0  0  0  0  0  0  0  0  0  0  0
  151.5088  145.3781  159.0003 C   0  0  0  0  0  0  0  0  0  0  0  0
  149.7341  141.9942  156.5042 N   0  0  0  0  0  0  0  0  0  0  0  0
  149.2990  140.6025  156.3703 C   0  0  2  0  0  0  0  0  0  0  0  0
  150.4977  139.6897  156.0359 C   0  0  0  0  0  0  0  0  0  0  0  0
  150.3258  139.2454  154.5753 C   0  0  0  0  0  0  0  0  0  0  0  0
  149.2320  140.1414  153.9943 C   0  0  0  0  0  0  0  0  0  0  0  0
  148.3189  140.4185  155.1931 C   0  0  2  0  0  0  0  0  0  0  0  0
  147.3625  141.5074  155.0164 N   0  0  0  0  0  0  0  0  0  0  0  0
  147.1813  142.2622  153.8629 C   0  0  0  0  0  0  0  0  0  0  0  0
  146.2117  143.1967  154.1449 C   0  0  0  0  0  0  0  0  0  0  0  0
  145.8014  143.0587  155.4675 N   0  0  0  0  0  0  0  0  0  0  0  0
  146.5341  142.0508  155.9227 C   0  0  0  0  0  0  0  0  0  0  0  0
  150.2521  144.2666  156.6373 H   0  0  0  0  0  0  0  0  0  0  0  0
  152.7626  144.8536  157.2472 H   0  0  0  0  0  0  0  0  0  0  0  0
  151.7169  143.2835  159.7256 H   0  0  0  0  0  0  0  0  0  0  0  0
  153.3042  144.2019  159.5904 H   0  0  0  0  0  0  0  0  0  0  0  0
  152.0408  146.3184  159.1287 H   0  0  0  0  0  0  0  0  0  0  0  0
  150.4535  145.4003  159.2652 H   0  0  0  0  0  0  0  0  0  0  0  0
  149.1841  142.6900  156.0220 H   0  0  0  0  0  0  0  0  0  0  0  0
  148.8185  140.2860  157.2980 H   0  0  0  0  0  0  0  0  0  0  0  0
  151.4501  140.2042  156.1737 H   0  0  0  0  0  0  0  0  0  0  0  0
  150.5142  138.8193  156.6927 H   0  0  0  0  0  0  0  0  0  0  0  0
  151.2550  139.3107  154.0087 H   0  0  0  0  0  0  0  0  0  0  0  0
  149.9976  138.2056  154.5480 H   0  0  0  0  0  0  0  0  0  0  0  0
  149.6791  141.0681  153.6313 H   0  0  0  0  0  0  0  0  0  0  0  0
  148.7068  139.6714  153.1620 H   0  0  0  0  0  0  0  0  0  0  0  0
  147.7357  139.5150  155.3791 H   0  0  0  0  0  0  0  0  0  0  0  0
  147.7383  142.0713  152.9571 H   0  0  0  0  0  0  0  0  0  0  0  0
  145.7901  143.9589  153.5063 H   0  0  0  0  0  0  0  0  0  0  0  0
  146.4589  141.7036  156.9426 H   0  0  0  0  0  0  0  0  0  0  0  0
  1  2  2  0  0  0  0
  2  3  1  0  0  0  0
  2  7  1  0  0  0  0
  3  4  1  0  0  0  0
  3 18  1  0  0  0  0
  4  6  1  0  0  0  0
  4  5  1  0  0  0  0
  4 19  1  0  0  0  0
  5  6  1  0  0  0  0
  5 20  1  0  0  0  0
  5 21  1  0  0  0  0
  6 22  1  0  0  0  0
  6 23  1  0  0  0  0
  7  8  1  0  0  0  0
  7 24  1  0  0  0  0
  8 12  1  0  0  0  0
  8  9  1  0  0  0  0
  8 25  1  0  0  0  0
  9 10  1  0  0  0  0
  9 26  1  0  0  0  0
  9 27  1  0  0  0  0
 10 11  1  0  0  0  0
 10 28  1  0  0  0  0
 10 29  1  0  0  0  0
 11 12  1  0  0  0  0
 11 30  1  0  0  0  0
 11 31  1  0  0  0  0
 12 13  1  0  0  0  0
 12 32  1  0  0  0  0
 13 17  1  0  0  0  0
 13 14  1  0  0  0  0
 14 15  2  0  0  0  0
 14 33  1  0  0  0  0
 15 16  1  0  0  0  0
 15 34  1  0  0  0  0
 16 17  2  0  0  0  0
 17 35  1  0  0  0  0
M  END
> <s_m_source_file>
AV-unprocessed.smi

> <i_m_source_file_index>
3141

> <i_lp_mmshare_version>
43012

> <i_f3d_flags>
0

> <s_epik_input>
W0NIMl0xW0NIMl1bQ0hdMVtOSF1DKD1PKVtOSF1bQ0BASF0yW0NIMl1bQ0gyXVtDSDJdW0NASF0ybjNbY0hdW2NIXW5bY0hdMw==

> <s_epik_cmdline>
J2VwaWtfcHl0aG9uJywgJy1waCcsICc3LjAnLCAnLXRuJywgJzgnLCAnLW1hJywgJzIwMCcsICctbWV0YWxfYmluZGluZycsICctaW1hZScsICc8aW5maWxlLm1hZT4nLCAnLW9tYWUnLCAnPG91dGZpbGUubWFlPic=

> <r_lp_tautomer_probability>
1

> <r_epik_Ionization_Penalty>
0.728419

> <r_epik_Ionization_Penalty_Charging>
0.728357

> <r_epik_Ionization_Penalty_Neutral>
6.27871e-05

> <r_epik_State_Penalty>
0.753408

> <r_epik_Charging_Adjusted_Penalty>
1.48176

> <i_epik_Tot_Q>
0

> <i_epik_Tot_abs_Q>
0

> <r_epik_Metal_State_Penalty>
0.332413

> <b_epik_Metal_Only>
0

> <s_lp_Force_Field>
OPLS_2005

> <r_lp_Energy>
36.3958

> <b_lp_Chiralities_Consistent>
1

> <s_lp_Variant>
AV-unprocessed.smi:3141-7

> <Gold.Version>
5.8.1

> <Gold.Id.Protein>
6NUR|6NUR_protein|mol2

> <Gold.PLP.Fitness>
41.0539

> <Gold.PLP.PLP>
-36.2905

> <Gold.PLP.part.hbond>
-2.0000

> <Gold.PLP.part.metal>
0.0000

> <Gold.PLP.part.buried>
-2.6019

> <Gold.PLP.part.nonpolar>
-31.7105

> <Gold.PLP.part.repulsive>
0.2502

> <Gold.PLP.ligand.clash>
0.0000

> <Gold.PLP.ligand.torsion>
0.3669

> <Gold.PLP.Chemscore.Hbond>
1.8112

> <Gold.PLP.Chemscore.CHOScore>
0.0000

> <Gold.PLP.Chemscore.Metal>
0.0000

> <Gold.Chemscore.Hbonds>
donor molecule, donor type, donor heavy atom, donor atom, acceptor molecule, acceptor atom, score
      L1  H     3    18       P1  8028  1.00
      L1  H     7    24       P1  8028  0.81

> <Gold.PLP.Chemscore.Internal.Correction>
0.0636

> <Gold.Rescore>
     Score         DG    S(hbond)    S(metal)    S(lipo)     H(rot)  DE(clash)    DE(int)     intcor
     14.39     -17.34       1.88        0.00      82.10       1.57       0.99       1.96       ----

> <Gold.Chemscore.Fitness>
14.3870

> <Gold.Chemscore.DG>
-17.3359

> <Gold.Chemscore.ZeroCoef>
-5.4800

> <Gold.Chemscore.Hbond>
1.8776

> <Gold.Chemscore.Metal>
0.0000

> <Gold.Chemscore.Lipo>
82.0953

> <Gold.Chemscore.Internal_Hbond>
0.0000

> <Gold.Chemscore.DEClash>
0.9892

> <Gold.Chemscore.DEInternal>
1.9598

> <Gold.Chemscore.Rot>
1.5705

> <Gold.Chemscore.Internal.Correction>
   9.000000E+99

> <Gold.Chemscore.Hbonds>
donor molecule, donor type, donor heavy atom, donor atom, acceptor molecule, acceptor atom, score
      L1  H     3    18       P1  8028  0.99
      L1  H     7    24       P1  8028  0.76

> <Gold.Chemscore.Hbond.Weighted>
-6.2713

> <Gold.Chemscore.Metal.Weighted>
-0.0000

> <Gold.Chemscore.Lipo.Weighted>
-9.6051

> <Gold.Chemscore.Internal_Hbond.Weighted>
0.0000

> <Gold.Chemscore.DEClash.Weighted>
0.9892

> <Gold.Chemscore.DEInternal.Weighted>
1.9598

> <Gold.Chemscore.Rot.Weighted>
4.0206

> <Gold.Chemscore.Internal.Correction.Weighted>
   9.000000E+99

> <Gold.Protein.RotatedTorsions>
[ 6907 6896 6895 6894 ] final -139.16 input  -60.11 | X-H torsion
[ 7974 7965 7964 7962 ] final  132.38 input  175.53 | X-H torsion
[ 8008 7997 7996 7995 ] final -167.49 input   59.86 | X-H torsion
[ 10167 10162 10161 10158 ] final  179.26 input  -65.29 | X-H torsion
[ 10718 10713 10712 10709 ] final  -57.92 input   66.30 | X-H torsion
[ 10763 10752 10751 10750 ] final  -79.36 input  -60.55 | X-H torsion
[ 11005 11000 10999 10996 ] final -153.04 input  -57.11 | X-H torsion

> <Gold.Protein.ActiveResidues>
 VAL166  LYS551  ARG553  GLY616  TRP617  ASP618  TYR619  PRO620  LYS621  CYS622 
 ASP623  PHE694  ASN695  SER759  ASP760  ASP761  ALA762  ILE779  LEU786  VAL792 
 PHE793  MET794  SER795  GLU796  ALA797  LYS798  CYS799  TRP800  GLU811  SER814 

> <Gold.Protein.RotatedAtoms>
  151.0442  133.5680  159.2648 H   0  0  0  0  0  0  0  0  0  0  0  0  # atno 6907 bound_to 6896
  151.2715  135.0685  159.9145 H   0  0  0  0  0  0  0  0  0  0  0  0  # atno 6908 bound_to 6896
  152.5370  134.0172  159.8019 H   0  0  0  0  0  0  0  0  0  0  0  0  # atno 6909 bound_to 6896
  144.9975  139.4345  143.5309 H   0  0  0  0  0  0  0  0  0  0  0  0  # atno 7974 bound_to 7965
  155.8784  140.1005  157.1502 H   0  0  0  0  0  0  0  0  0  0  0  0  # atno 8008 bound_to 7997
  154.4003  140.1333  156.4229 H   0  0  0  0  0  0  0  0  0  0  0  0  # atno 8009 bound_to 7997
  155.7671  140.3462  155.5230 H   0  0  0  0  0  0  0  0  0  0  0  0  # atno 8010 bound_to 7997
  139.5329  144.2582  152.0729 H   0  0  0  0  0  0  0  0  0  0  0  0  # atno 10167 bound_to 10162
  156.1174  130.4169  150.0507 H   0  0  0  0  0  0  0  0  0  0  0  0  # atno 10718 bound_to 10713
  154.5376  135.5698  153.6812 H   0  0  0  0  0  0  0  0  0  0  0  0  # atno 10763 bound_to 10752
  152.9955  135.6220  154.2545 H   0  0  0  0  0  0  0  0  0  0  0  0  # atno 10764 bound_to 10752
  154.2475  135.2860  155.2809 H   0  0  0  0  0  0  0  0  0  0  0  0  # atno 10765 bound_to 10752
  140.7124  134.3817  157.5195 H   0  0  0  0  0  0  0  0  0  0  0  0  # atno 11005 bound_to 11000
  146.3445  139.9343  142.8749 LP  0  0  0  0  0  0  0  0  0  0  0  0  # atno 17320 bound_to 7965
  145.2200  140.9931  143.4051 LP  0  0  0  0  0  0  0  0  0  0  0  0  # atno 17321 bound_to 7965
  140.2048  144.4622  150.6414 LP  0  0  0  0  0  0  0  0  0  0  0  0  # atno 17342 bound_to 10162
  140.6518  143.2227  151.6059 LP  0  0  0  0  0  0  0  0  0  0  0  0  # atno 17343 bound_to 10162
  156.8454  130.9440  151.3629 LP  0  0  0  0  0  0  0  0  0  0  0  0  # atno 17370 bound_to 10713
  157.6357  130.8765  149.9355 LP  0  0  0  0  0  0  0  0  0  0  0  0  # atno 17371 bound_to 10713
  139.8868  134.8899  156.2563 LP  0  0  0  0  0  0  0  0  0  0  0  0  # atno 17394 bound_to 11000
  141.0073  133.7116  156.1055 LP  0  0  0  0  0  0  0  0  0  0  0  0  # atno 17395 bound_to 11000

$$$$
