AV-unprocessed.smi:49|AV-procd|sdf|468|dock4
  -GOLD-   2262016333D 1   1.00000     0.00000
 Structure written by MMmdl.
 28 29  0  0  0  0  0  0  0  0  2 V2000
  144.7079  132.1019  150.1489 C   0  0  0  0  0  0  0  0  0  0  0  0
  143.9717  132.8627  151.2573 C   0  0  0  0  0  0  0  0  0  0  0  0
  144.3406  134.3089  151.2902 C   0  0  0  0  0  0  0  0  0  0  0  0
  144.8005  134.9293  152.4183 N   0  0  0  0  0  0  0  0  0  0  0  0
  144.9369  136.1745  151.9669 C   0  0  0  0  0  0  0  0  0  0  0  0
  145.4047  137.3557  152.7637 C   0  0  1  0  0  0  0  0  0  0  0  0
  146.8436  137.2588  153.2755 C   0  0  0  0  0  0  0  0  0  0  0  0
  147.2824  138.7199  153.2796 C   0  0  1  0  0  0  0  0  0  0  0  0
  148.6870  138.8533  153.2332 O   0  0  0  0  0  0  0  0  0  0  0  0
  146.6039  139.2944  152.0305 C   0  0  0  0  0  0  0  0  0  0  0  0
  145.3757  138.4998  151.8279 N   0  3  0  0  0  0  0  0  0  0  0  0
  144.5756  136.2903  150.6868 N   0  0  0  0  0  0  0  0  0  0  0  0
  144.1765  135.0879  150.2224 N   0  0  0  0  0  0  0  0  0  0  0  0
  144.7173  137.5593  153.5864 H   0  0  0  0  0  0  0  0  0  0  0  0
  146.8976  139.2171  154.1715 H   0  0  0  0  0  0  0  0  0  0  0  0
  144.5745  137.1263  150.1196 H   0  0  0  0  0  0  0  0  0  0  0  0
  144.4215  131.0502  150.1439 H   0  0  0  0  0  0  0  0  0  0  0  0
  145.7883  132.1523  150.2880 H   0  0  0  0  0  0  0  0  0  0  0  0
  144.4763  132.5155  149.1669 H   0  0  0  0  0  0  0  0  0  0  0  0
  142.8942  132.7728  151.1141 H   0  0  0  0  0  0  0  0  0  0  0  0
  144.1935  132.4126  152.2258 H   0  0  0  0  0  0  0  0  0  0  0  0
  146.9225  136.7719  154.2480 H   0  0  0  0  0  0  0  0  0  0  0  0
  147.4565  136.6971  152.5676 H   0  0  0  0  0  0  0  0  0  0  0  0
  148.9134  139.4439  152.5305 H   0  0  0  0  0  0  0  0  0  0  0  0
  146.3843  140.3580  152.1266 H   0  0  0  0  0  0  0  0  0  0  0  0
  147.2347  139.1594  151.1506 H   0  0  0  0  0  0  0  0  0  0  0  0
  145.3634  138.1526  150.8789 H   0  0  0  0  0  0  0  0  0  0  0  0
  144.5535  139.0613  151.9968 H   0  0  0  0  0  0  0  0  0  0  0  0
  1  2  1  0  0  0  0
  1 17  1  0  0  0  0
  1 18  1  0  0  0  0
  1 19  1  0  0  0  0
  2 20  1  0  0  0  0
  2 21  1  0  0  0  0
  2  3  1  0  0  0  0
  3  4  1  0  0  0  0
  3 13  2  0  0  0  0
  4  5  2  0  0  0  0
  5  6  1  0  0  0  0
  5 12  1  0  0  0  0
  6 14  1  0  0  0  0
  6 11  1  0  0  0  0
  6  7  1  0  0  0  0
  7  8  1  0  0  0  0
  7 22  1  0  0  0  0
  7 23  1  0  0  0  0
  8 15  1  0  0  0  0
  8  9  1  0  0  0  0
  8 10  1  0  0  0  0
  9 24  1  0  0  0  0
 10 11  1  0  0  0  0
 10 25  1  0  0  0  0
 10 26  1  0  0  0  0
 11 27  1  0  0  0  0
 11 28  1  0  0  0  0
 12 13  1  0  0  0  0
 12 16  1  0  0  0  0
M  CHG  1  11   1
M  END
> <s_m_source_file>
AV-unprocessed.smi

> <i_m_source_file_index>
49

> <i_lp_mmshare_version>
43012

> <i_f3d_flags>
0

> <s_epik_input>
W0NIM11bQ0gyXWMxbmMobltuSF0xKVtDQEBIXTJbQ0gyXVtDQEBIXShbT0hdKVtDSDJdW05IXTI=

> <s_epik_cmdline>
J2VwaWtfcHl0aG9uJywgJy1waCcsICc3LjAnLCAnLXRuJywgJzgnLCAnLW1hJywgJzIwMCcsICctbWV0YWxfYmluZGluZycsICctaW1hZScsICc8aW5maWxlLm1hZT4nLCAnLW9tYWUnLCAnPG91dGZpbGUubWFlPic=

> <r_epik_Ionization_Penalty>
0.372103

> <r_epik_Ionization_Penalty_Charging>
0.0688988

> <r_epik_Ionization_Penalty_Neutral>
0.303204

> <r_epik_State_Penalty>
0.737493

> <r_epik_Charging_Adjusted_Penalty>
0.806392

> <i_epik_Tot_Q>
1

> <i_epik_Tot_abs_Q>
1

> <r_epik_Metal_State_Penalty>
1.01235

> <b_epik_Metal_Only>
0

> <s_lp_Force_Field>
OPLS_2005

> <r_lp_Energy>
17.828

> <b_lp_Chiralities_Consistent>
1

> <s_lp_Variant>
AV-unprocessed.smi:49-6

> <Gold.Version>
5.8.1

> <Gold.Id.Protein>
6NUR|6NUR_protein|mol2

> <Gold.PLP.Fitness>
34.2154

> <Gold.PLP.PLP>
-21.1767

> <Gold.PLP.part.hbond>
-4.8190

> <Gold.PLP.part.metal>
0.0000

> <Gold.PLP.part.buried>
-1.0308

> <Gold.PLP.part.nonpolar>
-16.7047

> <Gold.PLP.part.repulsive>
0.4621

> <Gold.PLP.ligand.clash>
0.0000

> <Gold.PLP.ligand.torsion>
0.0304

> <Gold.PLP.Chemscore.Hbond>
4.3600

> <Gold.PLP.Chemscore.CHOScore>
0.0000

> <Gold.PLP.Chemscore.Metal>
0.0000

> <Gold.Chemscore.Hbonds>
donor molecule, donor type, donor heavy atom, donor atom, acceptor molecule, acceptor atom, score
      L1  H     9    24       P1  7957  1.00
      L1  H    11    27       P1 10171  0.35
      L1  H    11    28       P1 10175  2.00
      L1  H    12    16       P1 10171  0.96

> <Gold.PLP.Chemscore.Internal.Correction>
0.0195

> <Gold.Rescore>
     Score         DG    S(hbond)    S(metal)    S(lipo)     H(rot)  DE(clash)    DE(int)     intcor
     15.51     -16.82       3.41        0.00      40.98       1.89       1.29       0.02       ----

> <Gold.Chemscore.Fitness>
15.5101

> <Gold.Chemscore.DG>
-16.8225

> <Gold.Chemscore.ZeroCoef>
-5.4800

> <Gold.Chemscore.Hbond>
3.4078

> <Gold.Chemscore.Metal>
0.0000

> <Gold.Chemscore.Lipo>
40.9785

> <Gold.Chemscore.Internal_Hbond>
0.0000

> <Gold.Chemscore.DEClash>
1.2912

> <Gold.Chemscore.DEInternal>
0.0211

> <Gold.Chemscore.Rot>
1.8883

> <Gold.Chemscore.Internal.Correction>
   9.000000E+99

> <Gold.Chemscore.Hbonds>
donor molecule, donor type, donor heavy atom, donor atom, acceptor molecule, acceptor atom, score
      L1  H     9    24       P1  7957  0.99
      L1  H    11    27       P1 10171  0.36
      L1  H    11    28       P1 10175  0.99
      L1  H    12    16       P1 10171  0.92

> <Gold.Chemscore.Hbond.Weighted>
-11.3820

> <Gold.Chemscore.Metal.Weighted>
-0.0000

> <Gold.Chemscore.Lipo.Weighted>
-4.7945

> <Gold.Chemscore.Internal_Hbond.Weighted>
0.0000

> <Gold.Chemscore.DEClash.Weighted>
1.2912

> <Gold.Chemscore.DEInternal.Weighted>
0.0211

> <Gold.Chemscore.Rot.Weighted>
4.8340

> <Gold.Chemscore.Internal.Correction.Weighted>
   9.000000E+99

> <Gold.Protein.RotatedTorsions>
[ 6907 6896 6895 6894 ] final   97.79 input  -60.11 | X-H torsion
[ 7974 7965 7964 7962 ] final  -65.95 input  175.53 | X-H torsion
[ 8008 7997 7996 7995 ] final  169.98 input   59.86 | X-H torsion
[ 10167 10162 10161 10158 ] final  158.75 input  -65.29 | X-H torsion
[ 10718 10713 10712 10709 ] final   77.69 input   66.30 | X-H torsion
[ 10763 10752 10751 10750 ] final -114.81 input  -60.55 | X-H torsion
[ 11005 11000 10999 10996 ] final -128.18 input  -57.11 | X-H torsion

> <Gold.Protein.ActiveResidues>
 VAL166  LYS551  ARG553  GLY616  TRP617  ASP618  TYR619  PRO620  LYS621  CYS622 
 ASP623  PHE694  ASN695  SER759  ASP760  ASP761  ALA762  ILE779  LEU786  VAL792 
 PHE793  MET794  SER795  GLU796  ALA797  LYS798  CYS799  TRP800  GLU811  SER814 

> <Gold.Protein.RotatedAtoms>
  152.5419  134.0680  159.8181 H   0  0  0  0  0  0  0  0  0  0  0  0  # atno 6907 bound_to 6896
  151.0799  133.5391  159.2628 H   0  0  0  0  0  0  0  0  0  0  0  0  # atno 6908 bound_to 6896
  151.2222  135.0531  159.9008 H   0  0  0  0  0  0  0  0  0  0  0  0  # atno 6909 bound_to 6896
  145.7479  140.8922  143.0495 H   0  0  0  0  0  0  0  0  0  0  0  0  # atno 7974 bound_to 7965
  156.1407  140.1550  156.8925 H   0  0  0  0  0  0  0  0  0  0  0  0  # atno 8008 bound_to 7997
  154.4985  140.0831  156.7786 H   0  0  0  0  0  0  0  0  0  0  0  0  # atno 8009 bound_to 7997
  155.4083  140.3417  155.4264 H   0  0  0  0  0  0  0  0  0  0  0  0  # atno 8010 bound_to 7997
  139.4828  144.4795  151.8464 H   0  0  0  0  0  0  0  0  0  0  0  0  # atno 10167 bound_to 10162
  157.6719  130.9833  150.1678 H   0  0  0  0  0  0  0  0  0  0  0  0  # atno 10718 bound_to 10713
  154.8456  135.4404  154.1565 H   0  0  0  0  0  0  0  0  0  0  0  0  # atno 10763 bound_to 10752
  153.2712  135.6945  153.7484 H   0  0  0  0  0  0  0  0  0  0  0  0  # atno 10764 bound_to 10752
  153.6724  135.3416  155.3132 H   0  0  0  0  0  0  0  0  0  0  0  0  # atno 10765 bound_to 10752
  140.9538  134.1029  157.4036 H   0  0  0  0  0  0  0  0  0  0  0  0  # atno 11005 bound_to 11000
  144.6856  139.9551  143.7479 LP  0  0  0  0  0  0  0  0  0  0  0  0  # atno 17320 bound_to 7965
  146.0385  139.3399  143.0712 LP  0  0  0  0  0  0  0  0  0  0  0  0  # atno 17321 bound_to 7965
  140.4270  144.2167  150.5887 LP  0  0  0  0  0  0  0  0  0  0  0  0  # atno 17342 bound_to 10162
  140.4818  143.2377  151.8945 LP  0  0  0  0  0  0  0  0  0  0  0  0  # atno 17343 bound_to 10162
  156.2439  130.3693  149.8306 LP  0  0  0  0  0  0  0  0  0  0  0  0  # atno 17370 bound_to 10713
  156.6099  130.8582  151.3452 LP  0  0  0  0  0  0  0  0  0  0  0  0  # atno 17371 bound_to 10713
  139.8856  135.0073  156.6443 LP  0  0  0  0  0  0  0  0  0  0  0  0  # atno 17394 bound_to 11000
  140.7565  133.8853  155.8386 LP  0  0  0  0  0  0  0  0  0  0  0  0  # atno 17395 bound_to 11000

$$$$
