#       Name:                AV-unprocessed.smi:229
#       Creating user name   scv26
#       Creation time:       Thu Mar 26 20:28:53 2020


#       File generated by GOLD software.
#

@<TRIPOS>MOLECULE
AV-unprocessed.smi:229
    70    74     1
SMALL
NO_CHARGES


@<TRIPOS>ATOM
      1 ****        -3.7853  -0.4631   4.0474 C.3            1 S1                 0.0000
      2 ****        -4.6070   0.3454   3.0344 C.3            1 S1                 0.0000
      3 ****        -4.0653   0.2676   1.5975 C.3            1 S1                 0.0000
      4 ****        -2.7031   0.9650   1.4307 C.3            1 S1                 0.0000
      5 ****        -2.3039   0.9479   0.0292 N.3            1 S1                 0.0000
      6 ****        -0.9960   1.2276  -0.2005 C.ar           1 S1                 0.0000
      7 ****        -0.6533   2.3147  -0.9433 N.ar           1 S1                 0.0000
      8 ****         0.6324   2.6031  -1.1666 C.ar           1 S1                 0.0000
      9 ****         1.7188   1.9491  -0.7513 N.ar           1 S1                 0.0000
     10 ****         1.3819   0.8531  -0.0135 C.ar           1 S1                 0.0000
     11 ****         0.0632   0.4221   0.3059 C.ar           1 S1                 0.0000
     12 ****         0.1181  -0.7438   1.0618 N.2            1 S1                 0.0000
     13 ****         1.3949  -0.9815   1.1908 C.2            1 S1                 0.0000
     14 ****         2.2243  -0.0714   0.5763 N.pl3          1 S1                 0.0000
     15 ****         3.6761  -0.0913   0.5540 C.3            1 S1                 0.0000
     16 ****         4.2370  -0.6716  -0.7590 C.3            1 S1                 0.0000
     17 ****         3.7673  -1.9968  -0.9219 O.3            1 S1                 0.0000
     18 ****         5.7789  -0.6393  -0.7914 C.3            1 S1                 0.0000
     19 ****         6.5216  -1.6431   0.0966 C.3            1 S1                 0.0000
     20 ****         7.8610  -1.7120  -0.6018 C.3            1 S1                 0.0000
     21 ****         7.4514  -1.6394  -2.0716 C.3            1 S1                 0.0000
     22 ****         6.2698  -0.8425  -2.1131 O.3            1 S1                 0.0000
     23 ****        -3.3019   1.5412  -0.8558 C.3            1 S1                 0.0000
     24 ****        -4.6850   0.8838  -0.6490 C.3            1 S1                 0.0000
     25 ****        -4.7848  -0.5320  -1.2285 C.3            1 S1                 0.0000
     26 ****        -5.5635  -0.3413  -2.5223 C.3            1 S1                 0.0000
     27 ****        -6.4916   0.6656  -2.1660 O.3            1 S1                 0.0000
     28 ****        -5.7798   1.6445  -1.4222 C.3            1 S1                 0.0000
     29 ****        -5.0177   0.9032   0.7431 O.3            1 S1                 0.0000
     30 ****        -4.2460  -0.4266   5.0346 H              1 S1                 0.0000
     31 ****        -2.7718  -0.0744   4.1451 H              1 S1                 0.0000
     32 ****        -3.7171  -1.5105   3.7521 H              1 S1                 0.0000
     33 ****        -5.6304  -0.0312   3.0446 H              1 S1                 0.0000
     34 ****        -4.6645   1.3866   3.3538 H              1 S1                 0.0000
     35 ****        -3.9729  -0.7833   1.3201 H              1 S1                 0.0000
     36 ****        -2.7670   2.0009   1.7669 H              1 S1                 0.0000
     37 ****        -1.9592   0.4763   2.0574 H              1 S1                 0.0000
     38 ****         0.8164   3.4840  -1.7637 H              1 S1                 0.0000
     39 ****         1.7698  -1.8356   1.7359 H              1 S1                 0.0000
     40 ****         4.0313   0.9299   0.6982 H              1 S1                 0.0000
     41 ****         4.0292  -0.6675   1.4103 H              1 S1                 0.0000
     42 ****         3.8589  -0.0759  -1.5908 H              1 S1                 0.0000
     43 ****         4.0912  -2.3269  -1.7461 H              1 S1                 0.0000
     44 ****         6.1093   0.3634  -0.5149 H              1 S1                 0.0000
     45 ****         6.5965  -1.3191   1.1349 H              1 S1                 0.0000
     46 ****         6.0513  -2.6266   0.0790 H              1 S1                 0.0000
     47 ****         8.4672  -0.8447  -0.3363 H              1 S1                 0.0000
     48 ****         8.4272  -2.6119  -0.3598 H              1 S1                 0.0000
     49 ****         8.2363  -1.2225  -2.7029 H              1 S1                 0.0000
     50 ****         7.2084  -2.6345  -2.4466 H              1 S1                 0.0000
     51 ****        -3.3663   2.6096  -0.6437 H              1 S1                 0.0000
     52 ****        -2.9934   1.4370  -1.8974 H              1 S1                 0.0000
     53 ****        -3.8180  -1.0117  -1.3848 H              1 S1                 0.0000
     54 ****        -5.3683  -1.1712  -0.5643 H              1 S1                 0.0000
     55 ****        -4.9156   0.0159  -3.3245 H              1 S1                 0.0000
     56 ****        -6.0615  -1.2521  -2.8550 H              1 S1                 0.0000
     57 ****        -6.4537   2.1990  -0.7684 H              1 S1                 0.0000
     58 ****        -5.3448   2.3572  -2.1248 H              1 S1                 0.0000
     59 ****        -2.3135  -0.0103  -0.2566 LP             1 S1                 0.0000
     60 ****        -1.3678   2.9015  -1.3245 LP             1 S1                 0.0000
     61 ****         2.6577   2.2267  -0.9547 LP             1 S1                 0.0000
     62 ****        -0.6459  -1.2779   1.4238 LP             1 S1                 0.0000
     63 ****         2.7673  -2.0033  -0.9244 LP             1 S1                 0.0000
     64 ****         4.1024  -2.5688  -0.1732 LP             1 S1                 0.0000
     65 ****         6.4804   0.0423  -2.5288 LP             1 S1                 0.0000
     66 ****         5.5733  -1.3094  -2.6579 LP             1 S1                 0.0000
     67 ****        -7.2236   0.2755  -1.6074 LP             1 S1                 0.0000
     68 ****        -6.8836   1.0777  -2.9885 LP             1 S1                 0.0000
     69 ****        -5.1033   1.8577   1.0289 LP             1 S1                 0.0000
     70 ****        -5.8966   0.4405   0.8590 LP             1 S1                 0.0000
@<TRIPOS>BOND
    1    1    2 1     
    2    1   30 1     
    3    1   31 1     
    4    1   32 1     
    5    2    3 1     
    6    2   33 1     
    7    2   34 1     
    8    3   29 1     
    9    3    4 1     
   10    3   35 1     
   11    4    5 1     
   12    4   36 1     
   13    4   37 1     
   14    5    6 1     
   15    5   23 1     
   16    6   11 ar    
   17    6    7 ar    
   18    7    8 ar    
   19    8    9 ar    
   20    8   38 1     
   21    9   10 ar    
   22   10   14 1     
   23   10   11 ar    
   24   11   12 1     
   25   12   13 2     
   26   13   14 1     
   27   13   39 1     
   28   14   15 1     
   29   15   16 1     
   30   15   40 1     
   31   15   41 1     
   32   16   17 1     
   33   16   18 1     
   34   16   42 1     
   35   17   43 1     
   36   18   22 1     
   37   18   19 1     
   38   18   44 1     
   39   19   20 1     
   40   19   45 1     
   41   19   46 1     
   42   20   21 1     
   43   20   47 1     
   44   20   48 1     
   45   21   22 1     
   46   21   49 1     
   47   21   50 1     
   48   23   24 1     
   49   23   51 1     
   50   23   52 1     
   51   24   28 1     
   52   24   25 1     
   53   24   29 1     
   54   25   26 1     
   55   25   53 1     
   56   25   54 1     
   57   26   27 1     
   58   26   55 1     
   59   26   56 1     
   60   27   28 1     
   61   28   57 1     
   62   28   58 1     
   63    5   59 1     
   64    7   60 1     
   65    9   61 1     
   66   12   62 1     
   67   17   63 1     
   68   17   64 1     
   69   22   65 1     
   70   22   66 1     
   71   27   67 1     
   72   27   68 1     
   73   29   69 1     
   74   29   70 1     
@<TRIPOS>SUBSTRUCTURE
      1 S1             1
@<TRIPOS>SET
LONE_PAIRS      STATIC     ATOMS    <user>   **** ""
12 59 60 61 62 63 64 65 66 67 68 69 70
DONOR_HYDROGENS      STATIC     ATOMS    <user>   **** ""
1 43
ATOM$BLUE        STATIC     ATOMS    COLORGROUP SYSTEM
12 59 60 61 62 63 64 65 66 67 68 69 70
ATOM$RED        STATIC     ATOMS    COLORGROUP SYSTEM
1 43
