AV-unprocessed.smi:33|AV-procd|sdf|200|dock2
  -GOLD-   2262015473D 1   1.00000     0.00000
 Structure written by MMmdl.
 67 72  0  0  0  0  0  0  0  0  1 V2000
  153.4230  139.7300  158.8788 O   0  0  0  0  0  0  0  0  0  0  0  0
  152.9096  140.8406  158.7288 C   0  0  0  0  0  0  0  0  0  0  0  0
  152.2940  141.2307  157.5956 O   0  0  0  0  0  0  0  0  0  0  0  0
  152.0008  140.2824  156.5829 C   0  0  0  0  0  0  0  0  0  0  0  0
  151.0839  140.9301  155.5325 C   0  0  1  0  0  0  0  0  0  0  0  0
  150.9055  140.0513  154.4236 O   0  0  0  0  0  0  0  0  0  0  0  0
  149.7644  139.2580  154.5877 C   0  0  1  0  0  0  0  0  0  0  0  0
  150.1897  137.8320  154.7750 N   0  0  0  0  0  0  0  0  0  0  0  0
  151.4545  137.2822  154.7349 C   0  0  0  0  0  0  0  0  0  0  0  0
  151.5075  135.9890  154.9117 N   0  0  0  0  0  0  0  0  0  0  0  0
  150.1787  135.6153  155.0666 C   0  0  0  0  0  0  0  0  0  0  0  0
  149.5144  134.3777  155.2879 C   0  0  0  0  0  0  0  0  0  0  0  0
  150.1688  133.1970  155.4079 N   0  0  0  0  0  0  0  0  0  0  0  0
  151.4328  133.2041  156.1595 C   0  0  0  0  0  0  0  0  0  0  0  0
  151.6272  134.0704  157.0144 O   0  0  0  0  0  0  0  0  0  0  0  0
  152.4633  132.1355  155.9266 C   0  0  0  0  0  0  0  0  0  0  0  0
  152.4930  131.4369  154.6996 C   0  0  0  0  0  0  0  0  0  0  0  0
  153.4492  130.4261  154.4809 C   0  0  0  0  0  0  0  0  0  0  0  0
  154.3686  130.0942  155.4941 C   0  0  0  0  0  0  0  0  0  0  0  0
  154.3255  130.7665  156.7302 C   0  0  0  0  0  0  0  0  0  0  0  0
  153.3705  131.7780  156.9493 C   0  0  0  0  0  0  0  0  0  0  0  0
  149.5515  132.0135  154.7881 C   0  0  0  0  0  0  0  0  0  0  0  0
  149.8080  130.8928  155.2316 O   0  0  0  0  0  0  0  0  0  0  0  0
  148.5692  132.1652  153.6606 C   0  0  0  0  0  0  0  0  0  0  0  0
  147.4616  131.2939  153.5674 C   0  0  0  0  0  0  0  0  0  0  0  0
  146.5446  131.4214  152.5059 C   0  0  0  0  0  0  0  0  0  0  0  0
  146.7388  132.4086  151.5212 C   0  0  0  0  0  0  0  0  0  0  0  0
  147.8563  133.2618  151.5922 C   0  0  0  0  0  0  0  0  0  0  0  0
  148.7741  133.1345  152.6526 C   0  0  0  0  0  0  0  0  0  0  0  0
  148.1586  134.3933  155.3814 N   0  0  0  0  0  0  0  0  0  0  0  0
  147.4954  135.5472  155.2613 C   0  0  0  0  0  0  0  0  0  0  0  0
  147.9824  136.7733  155.0551 N   0  0  0  0  0  0  0  0  0  0  0  0
  149.3440  136.7612  154.9662 C   0  0  0  0  0  0  0  0  0  0  0  0
  148.9742  139.8208  155.7925 C   0  0  1  0  0  0  0  0  0  0  0  0
  149.0149  139.0200  156.9614 O   0  0  0  0  0  0  0  0  0  0  0  0
  149.6600  141.1533  156.0409 C   0  0  2  0  0  0  0  0  0  0  0  0
  149.0724  142.1003  155.3075 F   0  0  0  0  0  0  0  0  0  0  0  0
  152.9054  141.8947  159.7839 C   0  0  0  0  0  0  0  0  0  0  0  0
  152.2484  143.1223  159.5344 C   0  0  0  0  0  0  0  0  0  0  0  0
  152.2321  144.1386  160.5094 C   0  0  0  0  0  0  0  0  0  0  0  0
  152.8732  143.9400  161.7459 C   0  0  0  0  0  0  0  0  0  0  0  0
  153.5296  142.7232  162.0068 C   0  0  0  0  0  0  0  0  0  0  0  0
  153.5462  141.7052  161.0333 C   0  0  0  0  0  0  0  0  0  0  0  0
  152.9147  139.9051  156.1234 H   0  0  0  0  0  0  0  0  0  0  0  0
  151.4966  139.4324  157.0442 H   0  0  0  0  0  0  0  0  0  0  0  0
  151.5242  141.8717  155.2016 H   0  0  0  0  0  0  0  0  0  0  0  0
  149.1887  139.2473  153.6614 H   0  0  0  0  0  0  0  0  0  0  0  0
  152.3469  137.8673  154.5686 H   0  0  0  0  0  0  0  0  0  0  0  0
  151.7924  131.6836  153.9147 H   0  0  0  0  0  0  0  0  0  0  0  0
  153.4765  129.9051  153.5354 H   0  0  0  0  0  0  0  0  0  0  0  0
  155.1019  129.3194  155.3255 H   0  0  0  0  0  0  0  0  0  0  0  0
  155.0241  130.5059  157.5114 H   0  0  0  0  0  0  0  0  0  0  0  0
  153.3437  132.2838  157.9039 H   0  0  0  0  0  0  0  0  0  0  0  0
  147.3022  130.5328  154.3175 H   0  0  0  0  0  0  0  0  0  0  0  0
  145.6921  130.7608  152.4471 H   0  0  0  0  0  0  0  0  0  0  0  0
  146.0348  132.5065  150.7080 H   0  0  0  0  0  0  0  0  0  0  0  0
  148.0107  134.0137  150.8323 H   0  0  0  0  0  0  0  0  0  0  0  0
  149.6309  133.7917  152.6931 H   0  0  0  0  0  0  0  0  0  0  0  0
  146.4209  135.4787  155.3439 H   0  0  0  0  0  0  0  0  0  0  0  0
  147.9289  139.9519  155.5104 H   0  0  0  0  0  0  0  0  0  0  0  0
  148.5649  138.2082  156.7811 H   0  0  0  0  0  0  0  0  0  0  0  0
  149.6140  141.4876  157.0783 H   0  0  0  0  0  0  0  0  0  0  0  0
  151.7506  143.2985  158.5917 H   0  0  0  0  0  0  0  0  0  0  0  0
  151.7278  145.0720  160.3070 H   0  0  0  0  0  0  0  0  0  0  0  0
  152.8614  144.7198  162.4932 H   0  0  0  0  0  0  0  0  0  0  0  0
  154.0229  142.5699  162.9553 H   0  0  0  0  0  0  0  0  0  0  0  0
  154.0604  140.7842  161.2658 H   0  0  0  0  0  0  0  0  0  0  0  0
  1  2  2  0  0  0  0
  2  3  1  0  0  0  0
  2 38  1  0  0  0  0
  3  4  1  0  0  0  0
  4  5  1  0  0  0  0
  4 44  1  0  0  0  0
  4 45  1  0  0  0  0
  5 36  1  0  0  0  0
  5  6  1  0  0  0  0
  5 46  1  0  0  0  0
  6  7  1  0  0  0  0
  7  8  1  0  0  0  0
  7 34  1  0  0  0  0
  7 47  1  0  0  0  0
  8 33  1  0  0  0  0
  8  9  1  0  0  0  0
  9 10  2  0  0  0  0
  9 48  1  0  0  0  0
 10 11  1  0  0  0  0
 11 33  2  0  0  0  0
 11 12  1  0  0  0  0
 12 13  1  0  0  0  0
 12 30  2  0  0  0  0
 13 14  1  0  0  0  0
 13 22  1  0  0  0  0
 14 15  2  0  0  0  0
 14 16  1  0  0  0  0
 16 21  1  0  0  0  0
 16 17  2  0  0  0  0
 17 18  1  0  0  0  0
 17 49  1  0  0  0  0
 18 19  2  0  0  0  0
 18 50  1  0  0  0  0
 19 20  1  0  0  0  0
 19 51  1  0  0  0  0
 20 21  2  0  0  0  0
 20 52  1  0  0  0  0
 21 53  1  0  0  0  0
 22 23  2  0  0  0  0
 22 24  1  0  0  0  0
 24 29  1  0  0  0  0
 24 25  2  0  0  0  0
 25 26  1  0  0  0  0
 25 54  1  0  0  0  0
 26 27  2  0  0  0  0
 26 55  1  0  0  0  0
 27 28  1  0  0  0  0
 27 56  1  0  0  0  0
 28 29  2  0  0  0  0
 28 57  1  0  0  0  0
 29 58  1  0  0  0  0
 30 31  1  0  0  0  0
 31 32  2  0  0  0  0
 31 59  1  0  0  0  0
 32 33  1  0  0  0  0
 34 35  1  0  0  0  0
 34 36  1  0  0  0  0
 34 60  1  0  0  0  0
 35 61  1  0  0  0  0
 36 37  1  0  0  0  0
 36 62  1  0  0  0  0
 38 43  1  0  0  0  0
 38 39  2  0  0  0  0
 39 40  1  0  0  0  0
 39 63  1  0  0  0  0
 40 41  2  0  0  0  0
 40 64  1  0  0  0  0
 41 42  1  0  0  0  0
 41 65  1  0  0  0  0
 42 43  2  0  0  0  0
 42 66  1  0  0  0  0
 43 67  1  0  0  0  0
M  END
> <s_m_source_file>
AV-unprocessed.smi

> <i_m_source_file_index>
33

> <i_lp_mmshare_version>
43012

> <i_f3d_flags>
0

> <s_epik_input>
W2NIXTFbY0hdW2NIXVtjSF1bY0hdYzFDKD1PKU9bQ0gyXVtDQEBIXTJPW0NASF0oW0NAQEhdKFtPSF0pW0NAQEhdMkYpbihbY0hdbjMpYyhjMzQpbltjSF1uYzROKEMoPU8pYzVbY0hdW2NIXVtjSF1bY0hdW2NIXTUpQyg9TyljNltjSF1bY0hdW2NIXVtjSF1bY0hdNg==

> <s_epik_cmdline>
J2VwaWtfcHl0aG9uJywgJy1waCcsICc3LjAnLCAnLXRuJywgJzgnLCAnLW1hJywgJzIwMCcsICctbWV0YWxfYmluZGluZycsICctaW1hZScsICc8aW5maWxlLm1hZT4nLCAnLW9tYWUnLCAnPG91dGZpbGUubWFlPic=

> <r_lp_tautomer_probability>
1

> <r_epik_Ionization_Penalty>
0.00067664

> <r_epik_Ionization_Penalty_Charging>
0

> <r_epik_Ionization_Penalty_Neutral>
0.00067664

> <r_epik_State_Penalty>
0.000428095

> <r_epik_Charging_Adjusted_Penalty>
0.000428095

> <i_epik_Tot_Q>
0

> <i_epik_Tot_abs_Q>
0

> <r_epik_Metal_State_Penalty>
-0

> <b_epik_Metal_Only>
0

> <s_epik_Chemistry_Notes>
This compound has an ester and may undergo hydrolysis at high or low pH. This compound contains an acetal/aminal-like group ( X-CH(R)-Y where X, Y are N, S, or O) that may be acid/base labile, releasing an aldehyde.

> <s_lp_Force_Field>
OPLS_2005

> <r_lp_Energy>
73.7321

> <b_lp_Chiralities_Consistent>
1

> <s_lp_Variant>
AV-unprocessed.smi:33-2

> <Gold.Version>
5.8.1

> <Gold.Id.Protein>
6NUR|6NUR_protein|mol2

> <Gold.PLP.Fitness>
68.7162

> <Gold.PLP.PLP>
-63.4437

> <Gold.PLP.part.hbond>
-2.8497

> <Gold.PLP.part.metal>
0.0000

> <Gold.PLP.part.buried>
-3.0304

> <Gold.PLP.part.nonpolar>
-56.6484

> <Gold.PLP.part.repulsive>
0.3123

> <Gold.PLP.ligand.clash>
0.0384

> <Gold.PLP.ligand.torsion>
2.0903

> <Gold.PLP.Chemscore.Hbond>
1.9160

> <Gold.PLP.Chemscore.CHOScore>
0.0000

> <Gold.PLP.Chemscore.Metal>
0.0000

> <Gold.Chemscore.Hbonds>
donor molecule, donor type, donor heavy atom, donor atom, acceptor molecule, acceptor atom, score
      P1  H  6896  6908       L1    15  0.01
      P1  H  7989  7998       L1     6  0.56
      P1  H 10752 10765       L1    10  0.99

> <Gold.PLP.Chemscore.Internal.Correction>
3.7436

> <Gold.Rescore>
     Score         DG    S(hbond)    S(metal)    S(lipo)     H(rot)  DE(clash)    DE(int)     intcor
     10.29     -19.62       0.94        0.00     149.10       2.52       0.51       8.81       ----

> <Gold.Chemscore.Fitness>
10.2923

> <Gold.Chemscore.DG>
-19.6155

> <Gold.Chemscore.ZeroCoef>
-5.4800

> <Gold.Chemscore.Hbond>
0.9443

> <Gold.Chemscore.Metal>
0.0000

> <Gold.Chemscore.Lipo>
149.1001

> <Gold.Chemscore.Internal_Hbond>
0.0000

> <Gold.Chemscore.DEClash>
0.5096

> <Gold.Chemscore.DEInternal>
8.8137

> <Gold.Chemscore.Rot>
2.5247

> <Gold.Chemscore.Internal.Correction>
   9.000000E+99

> <Gold.Chemscore.Hbonds>
donor molecule, donor type, donor heavy atom, donor atom, acceptor molecule, acceptor atom, score
      P1  H  6896  6908       L1    15  0.02
      P1  H  7989  7998       L1     6  0.07
      P1  H 10752 10765       L1    10  0.60

> <Gold.Chemscore.Hbond.Weighted>
-3.1540

> <Gold.Chemscore.Metal.Weighted>
-0.0000

> <Gold.Chemscore.Lipo.Weighted>
-17.4447

> <Gold.Chemscore.Internal_Hbond.Weighted>
0.0000

> <Gold.Chemscore.DEClash.Weighted>
0.5096

> <Gold.Chemscore.DEInternal.Weighted>
8.8137

> <Gold.Chemscore.Rot.Weighted>
6.4633

> <Gold.Chemscore.Internal.Correction.Weighted>
   9.000000E+99

> <Gold.Protein.RotatedTorsions>
[ 6907 6896 6895 6894 ] final  124.80 input  -60.11 | X-H torsion
[ 7974 7965 7964 7962 ] final -145.37 input  175.53 | X-H torsion
[ 8008 7997 7996 7995 ] final   80.09 input   59.86 | X-H torsion
[ 10167 10162 10161 10158 ] final  112.98 input  -65.29 | X-H torsion
[ 10718 10713 10712 10709 ] final  110.16 input   66.30 | X-H torsion
[ 10763 10752 10751 10750 ] final -172.26 input  -60.55 | X-H torsion
[ 11005 11000 10999 10996 ] final -109.40 input  -57.11 | X-H torsion

> <Gold.Protein.ActiveResidues>
 VAL166  LYS551  ARG553  GLY616  TRP617  ASP618  TYR619  PRO620  LYS621  CYS622 
 ASP623  PHE694  ASN695  SER759  ASP760  ASP761  ALA762  ILE779  LEU786  VAL792 
 PHE793  MET794  SER795  GLU796  ALA797  LYS798  CYS799  TRP800  GLU811  SER814 

> <Gold.Protein.RotatedAtoms>
  152.4047  133.6871  159.6346 H   0  0  0  0  0  0  0  0  0  0  0  0  # atno 6907 bound_to 6896
  150.7934  133.8729  159.3272 H   0  0  0  0  0  0  0  0  0  0  0  0  # atno 6908 bound_to 6896
  151.6487  135.1006  160.0207 H   0  0  0  0  0  0  0  0  0  0  0  0  # atno 6909 bound_to 6896
  144.8232  140.5592  143.5564 H   0  0  0  0  0  0  0  0  0  0  0  0  # atno 7974 bound_to 7965
  155.8788  140.3445  155.5873 H   0  0  0  0  0  0  0  0  0  0  0  0  # atno 8008 bound_to 7997
  155.7744  140.0850  157.2110 H   0  0  0  0  0  0  0  0  0  0  0  0  # atno 8009 bound_to 7997
  154.4023  140.1512  156.2966 H   0  0  0  0  0  0  0  0  0  0  0  0  # atno 8010 bound_to 7997
  139.6495  144.7128  151.2076 H   0  0  0  0  0  0  0  0  0  0  0  0  # atno 10167 bound_to 10162
  157.6508  131.0927  150.6560 H   0  0  0  0  0  0  0  0  0  0  0  0  # atno 10718 bound_to 10713
  154.6213  135.2875  155.0323 H   0  0  0  0  0  0  0  0  0  0  0  0  # atno 10763 bound_to 10752
  154.1517  135.6502  153.4969 H   0  0  0  0  0  0  0  0  0  0  0  0  # atno 10764 bound_to 10752
  153.0237  135.5357  154.7004 H   0  0  0  0  0  0  0  0  0  0  0  0  # atno 10765 bound_to 10752
  141.0849  133.9155  157.2206 H   0  0  0  0  0  0  0  0  0  0  0  0  # atno 11005 bound_to 11000
  145.5059  139.1481  143.3632 LP  0  0  0  0  0  0  0  0  0  0  0  0  # atno 17320 bound_to 7965
  146.2537  140.5199  142.8882 LP  0  0  0  0  0  0  0  0  0  0  0  0  # atno 17321 bound_to 7965
  140.7531  143.6174  150.8546 LP  0  0  0  0  0  0  0  0  0  0  0  0  # atno 17342 bound_to 10162
  139.9820  143.5940  152.2939 LP  0  0  0  0  0  0  0  0  0  0  0  0  # atno 17343 bound_to 10162
  156.6872  130.4584  149.5610 LP  0  0  0  0  0  0  0  0  0  0  0  0  # atno 17370 bound_to 10713
  156.1887  130.6546  151.1037 LP  0  0  0  0  0  0  0  0  0  0  0  0  # atno 17371 bound_to 10713
  139.9667  135.0140  156.9405 LP  0  0  0  0  0  0  0  0  0  0  0  0  # atno 17394 bound_to 11000
  140.5384  134.0744  155.7335 LP  0  0  0  0  0  0  0  0  0  0  0  0  # atno 17395 bound_to 11000

$$$$
