AV-unprocessed.smi:527|AV-procd|sdf|2827|dock8
  -GOLD-   2262023313D 1   1.00000     0.00000
 Structure written by MMmdl.
 43 44  0  0  0  0  0  0  0  0  2 V2000
  149.8357  140.5880  156.4286 C   0  0  0  0  0  0  0  0  0  0  0  0
  149.7569  140.6522  154.8894 C   0  0  2  0  0  0  0  0  0  0  0  0
  148.7299  141.7009  154.4155 C   0  0  0  0  0  0  0  0  0  0  0  0
  147.2814  141.2401  154.6414 C   0  0  0  0  0  0  0  0  0  0  0  0
  147.0187  139.8840  153.9722 C   0  0  0  0  0  0  0  0  0  0  0  0
  148.0260  138.8098  154.4331 C   0  0  1  0  0  0  0  0  0  0  0  0
  147.7777  137.5628  153.7118 N   0  0  0  0  0  0  0  0  0  0  0  0
  146.6577  136.8290  153.7907 C   0  0  0  0  0  0  0  0  0  0  0  0
  145.6430  137.2019  154.3834 O   0  0  0  0  0  0  0  0  0  0  0  0
  146.8031  135.6562  153.1440 N   0  0  0  0  0  0  0  0  0  0  0  0
  145.9440  134.6169  153.1233 C   0  0  0  0  0  0  0  0  0  0  0  0
  144.8595  134.5844  153.7110 O   0  0  0  0  0  0  0  0  0  0  0  0
  146.4103  133.4149  152.2920 C   0  0  0  0  0  0  0  0  0  0  0  0
  145.5128  133.1057  151.1716 N   0  0  0  0  0  0  0  0  0  0  0  0
  145.7617  132.2698  150.1126 C   0  0  0  0  0  0  0  0  0  0  0  0
  144.6434  132.3000  149.3198 C   0  0  0  0  0  0  0  0  0  0  0  0
  143.7605  133.1531  149.9264 N   0  3  0  0  0  0  0  0  0  0  0  0
  144.2909  133.6424  151.0520 C   0  0  0  0  0  0  0  0  0  0  0  0
  149.4858  139.2833  154.2095 C   0  0  2  0  0  0  0  0  0  0  0  0
  150.5313  138.2180  154.5955 C   0  0  0  0  0  0  0  0  0  0  0  0
  148.9196  140.2008  156.8733 H   0  0  0  0  0  0  0  0  0  0  0  0
  150.0100  141.5784  156.8495 H   0  0  0  0  0  0  0  0  0  0  0  0
  150.6577  139.9546  156.7614 H   0  0  0  0  0  0  0  0  0  0  0  0
  150.7347  140.9962  154.5496 H   0  0  0  0  0  0  0  0  0  0  0  0
  148.9004  142.6532  154.9188 H   0  0  0  0  0  0  0  0  0  0  0  0
  148.8787  141.8925  153.3519 H   0  0  0  0  0  0  0  0  0  0  0  0
  147.0724  141.1702  155.7092 H   0  0  0  0  0  0  0  0  0  0  0  0
  146.5922  141.9857  154.2444 H   0  0  0  0  0  0  0  0  0  0  0  0
  145.9991  139.5639  154.1905 H   0  0  0  0  0  0  0  0  0  0  0  0
  147.0775  140.0020  152.8893 H   0  0  0  0  0  0  0  0  0  0  0  0
  147.8832  138.6292  155.4998 H   0  0  0  0  0  0  0  0  0  0  0  0
  148.5225  137.2326  153.1158 H   0  0  0  0  0  0  0  0  0  0  0  0
  147.6548  135.5420  152.6147 H   0  0  0  0  0  0  0  0  0  0  0  0
  147.4025  133.6110  151.8829 H   0  0  0  0  0  0  0  0  0  0  0  0
  146.4858  132.5315  152.9276 H   0  0  0  0  0  0  0  0  0  0  0  0
  146.6922  131.7317  150.0033 H   0  0  0  0  0  0  0  0  0  0  0  0
  144.4164  131.7928  148.3934 H   0  0  0  0  0  0  0  0  0  0  0  0
  143.8254  134.3378  151.7278 H   0  0  0  0  0  0  0  0  0  0  0  0
  149.6059  139.4469  153.1371 H   0  0  0  0  0  0  0  0  0  0  0  0
  150.4078  137.8885  155.6271 H   0  0  0  0  0  0  0  0  0  0  0  0
  151.5448  138.6050  154.4857 H   0  0  0  0  0  0  0  0  0  0  0  0
  150.4559  137.3351  153.9604 H   0  0  0  0  0  0  0  0  0  0  0  0
  142.8400  133.3848  149.5742 H   0  0  0  0  0  0  0  0  0  0  0  0
  1  2  1  0  0  0  0
  1 21  1  0  0  0  0
  1 22  1  0  0  0  0
  1 23  1  0  0  0  0
  2 19  1  0  0  0  0
  2  3  1  0  0  0  0
  2 24  1  0  0  0  0
  3  4  1  0  0  0  0
  3 25  1  0  0  0  0
  3 26  1  0  0  0  0
  4  5  1  0  0  0  0
  4 27  1  0  0  0  0
  4 28  1  0  0  0  0
  5  6  1  0  0  0  0
  5 29  1  0  0  0  0
  5 30  1  0  0  0  0
  6  7  1  0  0  0  0
  6 19  1  0  0  0  0
  6 31  1  0  0  0  0
  7  8  1  0  0  0  0
  7 32  1  0  0  0  0
  8  9  2  0  0  0  0
  8 10  1  0  0  0  0
 10 11  1  0  0  0  0
 10 33  1  0  0  0  0
 11 12  2  0  0  0  0
 11 13  1  0  0  0  0
 13 14  1  0  0  0  0
 13 34  1  0  0  0  0
 13 35  1  0  0  0  0
 14 18  1  0  0  0  0
 14 15  1  0  0  0  0
 15 16  2  0  0  0  0
 15 36  1  0  0  0  0
 16 17  1  0  0  0  0
 16 37  1  0  0  0  0
 17 18  2  0  0  0  0
 17 43  1  0  0  0  0
 18 38  1  0  0  0  0
 19 20  1  0  0  0  0
 19 39  1  0  0  0  0
 20 40  1  0  0  0  0
 20 41  1  0  0  0  0
 20 42  1  0  0  0  0
M  CHG  1  17   1
M  END
> <s_m_source_file>
AV-unprocessed.smi

> <i_m_source_file_index>
527

> <i_lp_mmshare_version>
43012

> <i_f3d_flags>
0

> <s_epik_input>
W0NIM11bQ0BASF0xW0NIMl1bQ0gyXVtDSDJdW0NASF0oW0NASF0xW0NIM10pW05IXUMoPU8pW05IXUMoPU8pW0NIMl1uMltjSF1bY0hdbltjSF0y

> <s_epik_cmdline>
J2VwaWtfcHl0aG9uJywgJy1waCcsICc3LjAnLCAnLXRuJywgJzgnLCAnLW1hJywgJzIwMCcsICctbWV0YWxfYmluZGluZycsICctaW1hZScsICc8aW5maWxlLm1hZT4nLCAnLW9tYWUnLCAnPG91dGZpbGUubWFlPic=

> <r_lp_tautomer_probability>
1

> <r_epik_Ionization_Penalty>
0.816441

> <r_epik_Ionization_Penalty_Charging>
0

> <r_epik_Ionization_Penalty_Neutral>
0.816441

> <r_epik_State_Penalty>
0.849034

> <r_epik_Charging_Adjusted_Penalty>
0.849034

> <i_epik_Tot_Q>
1

> <i_epik_Tot_abs_Q>
1

> <r_epik_Metal_State_Penalty>
0.984327

> <b_epik_Metal_Only>
0

> <s_lp_Force_Field>
OPLS_2005

> <r_lp_Energy>
18.5197

> <b_lp_Chiralities_Consistent>
1

> <s_lp_Variant>
AV-unprocessed.smi:527-13

> <Gold.Version>
5.8.1

> <Gold.Id.Protein>
6NUR|6NUR_protein|mol2

> <Gold.PLP.Fitness>
46.9818

> <Gold.PLP.PLP>
-32.4921

> <Gold.PLP.part.hbond>
-3.0000

> <Gold.PLP.part.metal>
0.0000

> <Gold.PLP.part.buried>
-1.2872

> <Gold.PLP.part.nonpolar>
-27.5056

> <Gold.PLP.part.repulsive>
0.2366

> <Gold.PLP.ligand.clash>
0.0000

> <Gold.PLP.ligand.torsion>
0.1980

> <Gold.PLP.Chemscore.Hbond>
3.9600

> <Gold.PLP.Chemscore.CHOScore>
1.0000

> <Gold.PLP.Chemscore.Metal>
0.0000

> <Gold.Chemscore.Hbonds>
donor molecule, donor type, donor heavy atom, donor atom, acceptor molecule, acceptor atom, score
      L1  H     7    32       P1  7948  0.94
      L1  H    10    33       P1  7948  1.00
      L1  H    17    43       P1 10186  1.62
      L1  C    15    36       P1 10747  1.00

> <Gold.PLP.Chemscore.Internal.Correction>
0.0057

> <Gold.Rescore>
     Score         DG    S(hbond)    S(metal)    S(lipo)     H(rot)  DE(clash)    DE(int)     intcor
     16.80     -19.65       2.90        0.00      75.63       1.71       0.12       2.74       ----

> <Gold.Chemscore.Fitness>
16.7999

> <Gold.Chemscore.DG>
-19.6543

> <Gold.Chemscore.ZeroCoef>
-5.4800

> <Gold.Chemscore.Hbond>
2.9015

> <Gold.Chemscore.Metal>
0.0000

> <Gold.Chemscore.Lipo>
75.6298

> <Gold.Chemscore.Internal_Hbond>
0.0000

> <Gold.Chemscore.DEClash>
0.1156

> <Gold.Chemscore.DEInternal>
2.7388

> <Gold.Chemscore.Rot>
1.7052

> <Gold.Chemscore.Internal.Correction>
   9.000000E+99

> <Gold.Chemscore.Hbonds>
donor molecule, donor type, donor heavy atom, donor atom, acceptor molecule, acceptor atom, score
      L1  H     7    32       P1  7948  0.92
      L1  H    10    33       P1  7948  0.94
      L1  H    17    43       P1 10186  0.79

> <Gold.Chemscore.Hbond.Weighted>
-9.6909

> <Gold.Chemscore.Metal.Weighted>
-0.0000

> <Gold.Chemscore.Lipo.Weighted>
-8.8487

> <Gold.Chemscore.Internal_Hbond.Weighted>
0.0000

> <Gold.Chemscore.DEClash.Weighted>
0.1156

> <Gold.Chemscore.DEInternal.Weighted>
2.7388

> <Gold.Chemscore.Rot.Weighted>
4.3653

> <Gold.Chemscore.Internal.Correction.Weighted>
   9.000000E+99

> <Gold.Protein.RotatedTorsions>
[ 6907 6896 6895 6894 ] final -140.32 input  -60.11 | X-H torsion
[ 7974 7965 7964 7962 ] final -149.70 input  175.53 | X-H torsion
[ 8008 7997 7996 7995 ] final   18.54 input   59.86 | X-H torsion
[ 10167 10162 10161 10158 ] final  -73.19 input  -65.29 | X-H torsion
[ 10718 10713 10712 10709 ] final  -42.21 input   66.30 | X-H torsion
[ 10763 10752 10751 10750 ] final -165.02 input  -60.55 | X-H torsion
[ 11005 11000 10999 10996 ] final   88.18 input  -57.11 | X-H torsion

> <Gold.Protein.ActiveResidues>
 VAL166  LYS551  ARG553  GLY616  TRP617  ASP618  TYR619  PRO620  LYS621  CYS622 
 ASP623  PHE694  ASN695  SER759  ASP760  ASP761  ALA762  ILE779  LEU786  VAL792 
 PHE793  MET794  SER795  GLU796  ALA797  LYS798  CYS799  TRP800  GLU811  SER814 

> <Gold.Protein.RotatedAtoms>
  151.0591  133.5559  159.2635 H   0  0  0  0  0  0  0  0  0  0  0  0  # atno 6907 bound_to 6896
  151.2541  135.0631  159.9083 H   0  0  0  0  0  0  0  0  0  0  0  0  # atno 6908 bound_to 6896
  152.5395  134.0347  159.8094 H   0  0  0  0  0  0  0  0  0  0  0  0  # atno 6909 bound_to 6896
  144.7952  140.5030  143.5745 H   0  0  0  0  0  0  0  0  0  0  0  0  # atno 7974 bound_to 7965
  154.9074  140.3009  155.5284 H   0  0  0  0  0  0  0  0  0  0  0  0  # atno 8008 bound_to 7997
  156.3016  140.2395  156.4045 H   0  0  0  0  0  0  0  0  0  0  0  0  # atno 8009 bound_to 7997
  154.8459  140.0411  157.1561 H   0  0  0  0  0  0  0  0  0  0  0  0  # atno 8010 bound_to 7997
  140.5131  143.2342  151.7560 H   0  0  0  0  0  0  0  0  0  0  0  0  # atno 10167 bound_to 10162
  156.2620  130.4198  149.8531 H   0  0  0  0  0  0  0  0  0  0  0  0  # atno 10718 bound_to 10713
  154.6972  135.2981  154.9394 H   0  0  0  0  0  0  0  0  0  0  0  0  # atno 10763 bound_to 10752
  154.0338  135.6666  153.4787 H   0  0  0  0  0  0  0  0  0  0  0  0  # atno 10764 bound_to 10752
  153.0654  135.5091  154.8096 H   0  0  0  0  0  0  0  0  0  0  0  0  # atno 10765 bound_to 10752
  139.8902  134.8471  156.2965 H   0  0  0  0  0  0  0  0  0  0  0  0  # atno 11005 bound_to 11000
  145.5692  139.1482  143.3298 LP  0  0  0  0  0  0  0  0  0  0  0  0  # atno 17320 bound_to 7965
  146.2217  140.5826  142.9014 LP  0  0  0  0  0  0  0  0  0  0  0  0  # atno 17321 bound_to 7965
  139.4901  144.4363  151.9816 LP  0  0  0  0  0  0  0  0  0  0  0  0  # atno 17342 bound_to 10162
  140.3456  144.3151  150.5959 LP  0  0  0  0  0  0  0  0  0  0  0  0  # atno 17343 bound_to 10162
  156.6043  130.8560  151.3439 LP  0  0  0  0  0  0  0  0  0  0  0  0  # atno 17370 bound_to 10713
  157.7254  130.9615  150.1613 LP  0  0  0  0  0  0  0  0  0  0  0  0  # atno 17371 bound_to 10713
  140.9942  133.7190  156.0860 LP  0  0  0  0  0  0  0  0  0  0  0  0  # atno 17394 bound_to 11000
  140.7585  134.3966  157.5530 LP  0  0  0  0  0  0  0  0  0  0  0  0  # atno 17395 bound_to 11000

$$$$
