AV-unprocessed.smi:1497|AV-procd|sdf|6058|dock9
  -GOLD-   22720 6173D 1   1.00000     0.00000
 Structure written by MMmdl.
 33 34  0  0  0  0  0  0  0  0  1 V2000
  148.7201  138.4520  152.8791 N   0  0  0  0  0  0  0  0  0  0  0  0
  148.0070  139.0833  153.8161 C   0  0  0  0  0  0  0  0  0  0  0  0
  147.1465  138.5120  154.4819 O   0  0  0  0  0  0  0  0  0  0  0  0
  148.2951  140.5706  154.0323 C   0  0  0  0  0  0  0  0  0  0  0  0
  149.4792  140.7676  154.8497 N   0  0  0  0  0  0  0  0  0  0  0  0
  149.6885  141.7123  155.8355 C   0  0  0  0  0  0  0  0  0  0  0  0
  150.9494  141.4922  156.3015 C   0  0  0  0  0  0  0  0  0  0  0  0
  151.5724  142.2453  157.3281 N   0  0  0  0  0  0  0  0  0  0  0  0
  151.6642  141.9381  158.6359 C   0  0  0  0  0  0  0  0  0  0  0  0
  151.1620  140.9259  159.1258 O   0  0  0  0  0  0  0  0  0  0  0  0
  152.3372  142.8546  159.3790 N   0  0  0  0  0  0  0  0  0  0  0  0
  152.1999  143.0630  160.8308 C   0  0  0  0  0  0  0  0  0  0  0  0
  151.2146  144.2164  161.0825 C   0  0  0  0  0  0  0  0  0  0  0  0
  151.8457  145.7752  160.3856 S   0  0  0  0  0  0  0  0  0  0  0  0
  152.2711  145.2114  158.7077 C   0  0  0  0  0  0  0  0  0  0  0  0
  153.1189  143.9287  158.7536 C   0  0  0  0  0  0  0  0  0  0  0  0
  151.4542  140.3920  155.5523 C   0  0  0  0  0  0  0  0  0  0  0  0
  150.5568  139.9613  154.6784 N   0  0  0  0  0  0  0  0  0  0  0  0
  148.5612  137.4692  152.7094 H   0  0  0  0  0  0  0  0  0  0  0  0
  149.4154  138.9543  152.3470 H   0  0  0  0  0  0  0  0  0  0  0  0
  148.4419  141.0657  153.0714 H   0  0  0  0  0  0  0  0  0  0  0  0
  147.4414  141.0520  154.5125 H   0  0  0  0  0  0  0  0  0  0  0  0
  148.9397  142.4408  156.1098 H   0  0  0  0  0  0  0  0  0  0  0  0
  152.0076  143.1088  157.0382 H   0  0  0  0  0  0  0  0  0  0  0  0
  151.8730  142.1707  161.3649 H   0  0  0  0  0  0  0  0  0  0  0  0
  153.1716  143.3048  161.2637 H   0  0  0  0  0  0  0  0  0  0  0  0
  150.2438  143.9931  160.6382 H   0  0  0  0  0  0  0  0  0  0  0  0
  151.0534  144.3523  162.1519 H   0  0  0  0  0  0  0  0  0  0  0  0
  151.3523  145.0405  158.1456 H   0  0  0  0  0  0  0  0  0  0  0  0
  152.8135  146.0080  158.1982 H   0  0  0  0  0  0  0  0  0  0  0  0
  154.0369  144.1038  159.3161 H   0  0  0  0  0  0  0  0  0  0  0  0
  153.4460  143.6630  157.7473 H   0  0  0  0  0  0  0  0  0  0  0  0
  152.4121  139.8964  155.6031 H   0  0  0  0  0  0  0  0  0  0  0  0
  1  2  1  0  0  0  0
  1 19  1  0  0  0  0
  1 20  1  0  0  0  0
  2  3  2  0  0  0  0
  2  4  1  0  0  0  0
  4  5  1  0  0  0  0
  4 21  1  0  0  0  0
  4 22  1  0  0  0  0
  5 18  1  0  0  0  0
  5  6  1  0  0  0  0
  6  7  2  0  0  0  0
  6 23  1  0  0  0  0
  7  8  1  0  0  0  0
  7 17  1  0  0  0  0
  8  9  1  0  0  0  0
  8 24  1  0  0  0  0
  9 10  2  0  0  0  0
  9 11  1  0  0  0  0
 11 16  1  0  0  0  0
 11 12  1  0  0  0  0
 12 13  1  0  0  0  0
 12 25  1  0  0  0  0
 12 26  1  0  0  0  0
 13 14  1  0  0  0  0
 13 27  1  0  0  0  0
 13 28  1  0  0  0  0
 14 15  1  0  0  0  0
 15 16  1  0  0  0  0
 15 29  1  0  0  0  0
 15 30  1  0  0  0  0
 16 31  1  0  0  0  0
 16 32  1  0  0  0  0
 17 18  2  0  0  0  0
 17 33  1  0  0  0  0
M  END
> <s_m_source_file>
AV-unprocessed.smi

> <i_m_source_file_index>
1497

> <i_lp_mmshare_version>
43012

> <i_f3d_flags>
0

> <s_epik_input>
W05IMl1DKD1PKVtDSDJdbjFbY0hdYyhbY0hdbjEpW05IXUMoPU8pTjJbQ0gyXVtDSDJdU1tDSDJdW0NIMl0y

> <s_epik_cmdline>
J2VwaWtfcHl0aG9uJywgJy1waCcsICc3LjAnLCAnLXRuJywgJzgnLCAnLW1hJywgJzIwMCcsICctbWV0YWxfYmluZGluZycsICctaW1hZScsICc8aW5maWxlLm1hZT4nLCAnLW9tYWUnLCAnPG91dGZpbGUubWFlPic=

> <r_lp_tautomer_probability>
1

> <r_epik_Ionization_Penalty>
3.75542e-05

> <r_epik_Ionization_Penalty_Charging>
0

> <r_epik_Ionization_Penalty_Neutral>
3.75542e-05

> <r_epik_State_Penalty>
-0

> <r_epik_Charging_Adjusted_Penalty>
0

> <i_epik_Tot_Q>
0

> <i_epik_Tot_abs_Q>
0

> <r_epik_Metal_State_Penalty>
-0

> <b_epik_Metal_Only>
0

> <s_lp_Force_Field>
OPLS_2005

> <r_lp_Energy>
28.4964

> <b_lp_Chiralities_Consistent>
1

> <s_lp_Variant>
AV-unprocessed.smi:1497-1

> <Gold.Version>
5.8.1

> <Gold.Id.Protein>
6NUR|6NUR_protein|mol2

> <Gold.PLP.Fitness>
42.1789

> <Gold.PLP.PLP>
-38.5268

> <Gold.PLP.part.hbond>
-2.5658

> <Gold.PLP.part.metal>
0.0000

> <Gold.PLP.part.buried>
0.7919

> <Gold.PLP.part.nonpolar>
-35.8127

> <Gold.PLP.part.repulsive>
0.3383

> <Gold.PLP.ligand.clash>
2.0158

> <Gold.PLP.ligand.torsion>
1.4520

> <Gold.PLP.Chemscore.Hbond>
1.8460

> <Gold.PLP.Chemscore.CHOScore>
1.0000

> <Gold.PLP.Chemscore.Metal>
0.0000

> <Gold.Chemscore.Hbonds>
donor molecule, donor type, donor heavy atom, donor atom, acceptor molecule, acceptor atom, score
      L1  H     1    19       P1  7948  0.88
      L1  H     1    20       P1  7957  0.86
      P1  H  7989  7998       L1    18  0.15
      L1  C     6    23       P1  8028  0.99

> <Gold.PLP.Chemscore.Internal.Correction>
0.0339

> <Gold.Rescore>
     Score         DG    S(hbond)    S(metal)    S(lipo)     H(rot)  DE(clash)    DE(int)     intcor
     15.40     -17.72       1.63        0.00      91.78       1.54       0.89       1.42       ----

> <Gold.Chemscore.Fitness>
15.3989

> <Gold.Chemscore.DG>
-17.7152

> <Gold.Chemscore.ZeroCoef>
-5.4800

> <Gold.Chemscore.Hbond>
1.6275

> <Gold.Chemscore.Metal>
0.0000

> <Gold.Chemscore.Lipo>
91.7832

> <Gold.Chemscore.Internal_Hbond>
0.0000

> <Gold.Chemscore.DEClash>
0.8921

> <Gold.Chemscore.DEInternal>
1.4241

> <Gold.Chemscore.Rot>
1.5388

> <Gold.Chemscore.Internal.Correction>
   9.000000E+99

> <Gold.Chemscore.Hbonds>
donor molecule, donor type, donor heavy atom, donor atom, acceptor molecule, acceptor atom, score
      L1  H     1    19       P1  7948  0.81
      L1  H     1    20       P1  7957  0.73

> <Gold.Chemscore.Hbond.Weighted>
-5.4357

> <Gold.Chemscore.Metal.Weighted>
-0.0000

> <Gold.Chemscore.Lipo.Weighted>
-10.7386

> <Gold.Chemscore.Internal_Hbond.Weighted>
0.0000

> <Gold.Chemscore.DEClash.Weighted>
0.8921

> <Gold.Chemscore.DEInternal.Weighted>
1.4241

> <Gold.Chemscore.Rot.Weighted>
3.9392

> <Gold.Chemscore.Internal.Correction.Weighted>
   9.000000E+99

> <Gold.Protein.RotatedTorsions>
[ 6907 6896 6895 6894 ] final   61.01 input  -60.11 | X-H torsion
[ 7974 7965 7964 7962 ] final   18.50 input  175.53 | X-H torsion
[ 8008 7997 7996 7995 ] final -125.87 input   59.86 | X-H torsion
[ 10167 10162 10161 10158 ] final -109.72 input  -65.29 | X-H torsion
[ 10718 10713 10712 10709 ] final   56.31 input   66.30 | X-H torsion
[ 10763 10752 10751 10750 ] final  -35.86 input  -60.55 | X-H torsion
[ 11005 11000 10999 10996 ] final   47.65 input  -57.11 | X-H torsion

> <Gold.Protein.ActiveResidues>
 VAL166  LYS551  ARG553  GLY616  TRP617  ASP618  TYR619  PRO620  LYS621  CYS622 
 ASP623  PHE694  ASN695  SER759  ASP760  ASP761  ALA762  ILE779  LEU786  VAL792 
 PHE793  MET794  SER795  GLU796  ALA797  LYS798  CYS799  TRP800  GLU811  SER814 

> <Gold.Protein.RotatedAtoms>
  152.4052  134.6218  160.0052 H   0  0  0  0  0  0  0  0  0  0  0  0  # atno 6907 bound_to 6896
  151.6411  133.3320  159.3138 H   0  0  0  0  0  0  0  0  0  0  0  0  # atno 6908 bound_to 6896
  150.7948  134.7041  159.6611 H   0  0  0  0  0  0  0  0  0  0  0  0  # atno 6909 bound_to 6896
  146.2183  139.8449  142.8634 H   0  0  0  0  0  0  0  0  0  0  0  0  # atno 7974 bound_to 7965
  155.2204  140.0422  157.2947 H   0  0  0  0  0  0  0  0  0  0  0  0  # atno 8008 bound_to 7997
  154.5953  140.2438  155.7835 H   0  0  0  0  0  0  0  0  0  0  0  0  # atno 8009 bound_to 7997
  156.2286  140.2946  156.0139 H   0  0  0  0  0  0  0  0  0  0  0  0  # atno 8010 bound_to 7997
  140.1522  143.4189  152.1486 H   0  0  0  0  0  0  0  0  0  0  0  0  # atno 10167 bound_to 10162
  157.5420  130.8704  149.8835 H   0  0  0  0  0  0  0  0  0  0  0  0  # atno 10718 bound_to 10713
  153.8702  135.6831  153.4775 H   0  0  0  0  0  0  0  0  0  0  0  0  # atno 10763 bound_to 10752
  153.1292  135.4705  154.9319 H   0  0  0  0  0  0  0  0  0  0  0  0  # atno 10764 bound_to 10752
  154.7718  135.3241  154.8125 H   0  0  0  0  0  0  0  0  0  0  0  0  # atno 10765 bound_to 10752
  140.1260  134.4767  155.8559 H   0  0  0  0  0  0  0  0  0  0  0  0  # atno 11005 bound_to 11000
  145.2861  141.0153  143.3689 LP  0  0  0  0  0  0  0  0  0  0  0  0  # atno 17320 bound_to 7965
  144.9113  139.4526  143.6586 LP  0  0  0  0  0  0  0  0  0  0  0  0  # atno 17321 bound_to 7965
  139.5420  144.7265  151.4702 LP  0  0  0  0  0  0  0  0  0  0  0  0  # atno 17342 bound_to 10162
  140.6695  143.8324  150.6982 LP  0  0  0  0  0  0  0  0  0  0  0  0  # atno 17343 bound_to 10162
  156.0504  130.3719  150.1215 LP  0  0  0  0  0  0  0  0  0  0  0  0  # atno 17370 bound_to 10713
  156.9394  130.9739  151.3519 LP  0  0  0  0  0  0  0  0  0  0  0  0  # atno 17371 bound_to 10713
  141.2161  133.6778  156.6980 LP  0  0  0  0  0  0  0  0  0  0  0  0  # atno 17394 bound_to 11000
  140.2903  134.8246  157.4010 LP  0  0  0  0  0  0  0  0  0  0  0  0  # atno 17395 bound_to 11000

$$$$
