AV-unprocessed.smi:1793|AV-procd|sdf|7225|dock1
  -GOLD-   22720 8463D 1   1.00000     0.00000
 Structure written by MMmdl.
 46 48  0  0  0  0  0  0  0  0  1 V2000
  148.7048  138.4261  156.4944 C   0  0  0  0  0  0  0  0  0  0  0  0
  149.4206  138.4966  155.1378 C   0  0  1  0  0  0  0  0  0  0  0  0
  149.2249  137.2320  154.4309 N   0  0  0  0  0  0  0  0  0  0  0  0
  149.4983  136.0104  154.9108 C   0  0  0  0  0  0  0  0  0  0  0  0
  149.9578  135.8015  156.0334 O   0  0  0  0  0  0  0  0  0  0  0  0
  149.1913  135.0613  154.0113 N   0  0  0  0  0  0  0  0  0  0  0  0
  149.2550  133.6477  154.1674 C   0  0  0  0  0  0  0  0  0  0  0  0
  150.2554  133.0356  154.9616 C   0  0  0  0  0  0  0  0  0  0  0  0
  150.3207  131.6334  155.0303 C   0  0  0  0  0  0  0  0  0  0  0  0
  149.3911  130.8882  154.2867 C   0  0  0  0  0  0  0  0  0  0  0  0
  148.4425  131.4547  153.5150 N   0  0  0  0  0  0  0  0  0  0  0  0
  148.3559  132.8065  153.4497 C   0  0  0  0  0  0  0  0  0  0  0  0
  147.3305  133.3395  152.6339 N   0  0  0  0  0  0  0  0  0  0  0  0
  146.6393  132.4943  151.6660 C   0  0  0  0  0  0  0  0  0  0  0  0
  145.3924  133.2811  151.2722 C   0  0  0  0  0  0  0  0  0  0  0  0
  145.0189  133.9741  152.5789 C   0  0  0  0  0  0  0  0  0  0  0  0
  146.3726  134.2627  153.2362 C   0  0  0  0  0  0  0  0  0  0  0  0
  148.9088  139.6674  154.2763 C   0  0  2  0  0  0  0  0  0  0  0  0
  148.9953  141.0418  154.9419 C   0  0  0  0  0  0  0  0  0  0  0  0
  147.9357  141.8532  154.2144 C   0  0  0  0  0  0  0  0  0  0  0  0
  147.0504  140.7969  153.5458 C   0  0  0  0  0  0  0  0  0  0  0  0
  147.5153  139.5470  154.0376 O   0  0  0  0  0  0  0  0  0  0  0  0
  148.8509  139.3443  157.0642 H   0  0  0  0  0  0  0  0  0  0  0  0
  149.0882  137.6025  157.0979 H   0  0  0  0  0  0  0  0  0  0  0  0
  147.6313  138.2786  156.3717 H   0  0  0  0  0  0  0  0  0  0  0  0
  150.4822  138.6579  155.3329 H   0  0  0  0  0  0  0  0  0  0  0  0
  148.8490  137.2957  153.4962 H   0  0  0  0  0  0  0  0  0  0  0  0
  148.7455  135.3810  153.1639 H   0  0  0  0  0  0  0  0  0  0  0  0
  150.9883  133.6169  155.4998 H   0  0  0  0  0  0  0  0  0  0  0  0
  151.0738  131.1416  155.6279 H   0  0  0  0  0  0  0  0  0  0  0  0
  149.4131  129.8087  154.3059 H   0  0  0  0  0  0  0  0  0  0  0  0
  147.2708  132.2772  150.8043 H   0  0  0  0  0  0  0  0  0  0  0  0
  146.3414  131.5488  152.1212 H   0  0  0  0  0  0  0  0  0  0  0  0
  145.6425  134.0247  150.5141 H   0  0  0  0  0  0  0  0  0  0  0  0
  144.5965  132.6480  150.8793 H   0  0  0  0  0  0  0  0  0  0  0  0
  144.4208  134.8731  152.4290 H   0  0  0  0  0  0  0  0  0  0  0  0
  144.4456  133.2890  153.2049 H   0  0  0  0  0  0  0  0  0  0  0  0
  146.3207  134.1539  154.3204 H   0  0  0  0  0  0  0  0  0  0  0  0
  146.6815  135.2840  153.0120 H   0  0  0  0  0  0  0  0  0  0  0  0
  149.4296  139.6900  153.3167 H   0  0  0  0  0  0  0  0  0  0  0  0
  148.7344  140.9638  155.9984 H   0  0  0  0  0  0  0  0  0  0  0  0
  149.9896  141.4839  154.8733 H   0  0  0  0  0  0  0  0  0  0  0  0
  147.3727  142.4780  154.9085 H   0  0  0  0  0  0  0  0  0  0  0  0
  148.3835  142.5047  153.4633 H   0  0  0  0  0  0  0  0  0  0  0  0
  145.9929  140.9339  153.7724 H   0  0  0  0  0  0  0  0  0  0  0  0
  147.1723  140.8248  152.4623 H   0  0  0  0  0  0  0  0  0  0  0  0
  1  2  1  0  0  0  0
  1 23  1  0  0  0  0
  1 24  1  0  0  0  0
  1 25  1  0  0  0  0
  2  3  1  0  0  0  0
  2 18  1  0  0  0  0
  2 26  1  0  0  0  0
  3  4  1  0  0  0  0
  3 27  1  0  0  0  0
  4  5  2  0  0  0  0
  4  6  1  0  0  0  0
  6  7  1  0  0  0  0
  6 28  1  0  0  0  0
  7 12  1  0  0  0  0
  7  8  2  0  0  0  0
  8  9  1  0  0  0  0
  8 29  1  0  0  0  0
  9 10  2  0  0  0  0
  9 30  1  0  0  0  0
 10 11  1  0  0  0  0
 10 31  1  0  0  0  0
 11 12  2  0  0  0  0
 12 13  1  0  0  0  0
 13 17  1  0  0  0  0
 13 14  1  0  0  0  0
 14 15  1  0  0  0  0
 14 32  1  0  0  0  0
 14 33  1  0  0  0  0
 15 16  1  0  0  0  0
 15 34  1  0  0  0  0
 15 35  1  0  0  0  0
 16 17  1  0  0  0  0
 16 36  1  0  0  0  0
 16 37  1  0  0  0  0
 17 38  1  0  0  0  0
 17 39  1  0  0  0  0
 18 22  1  0  0  0  0
 18 19  1  0  0  0  0
 18 40  1  0  0  0  0
 19 20  1  0  0  0  0
 19 41  1  0  0  0  0
 19 42  1  0  0  0  0
 20 21  1  0  0  0  0
 20 43  1  0  0  0  0
 20 44  1  0  0  0  0
 21 22  1  0  0  0  0
 21 45  1  0  0  0  0
 21 46  1  0  0  0  0
M  END
> <s_m_source_file>
AV-unprocessed.smi

> <i_m_source_file_index>
1793

> <i_lp_mmshare_version>
43012

> <i_f3d_flags>
0

> <s_epik_input>
TzFbQ0gyXVtDSDJdW0NIMl1bQ0BIXTFbQ0BIXShbQ0gzXSlbTkhdQyg9TylbTkhdYzJbY0hdW2NIXVtjSF1uYzJOM1tDSDJdW0NIMl1bQ0gyXVtDSDJdMw==

> <s_epik_cmdline>
J2VwaWtfcHl0aG9uJywgJy1waCcsICc3LjAnLCAnLXRuJywgJzgnLCAnLW1hJywgJzIwMCcsICctbWV0YWxfYmluZGluZycsICctaW1hZScsICc8aW5maWxlLm1hZT4nLCAnLW9tYWUnLCAnPG91dGZpbGUubWFlPic=

> <r_lp_tautomer_probability>
1

> <r_epik_Ionization_Penalty>
0.0992086

> <r_epik_Ionization_Penalty_Charging>
0

> <r_epik_Ionization_Penalty_Neutral>
0.0992086

> <r_epik_State_Penalty>
0.0887141

> <r_epik_Charging_Adjusted_Penalty>
0.0887141

> <i_epik_Tot_Q>
0

> <i_epik_Tot_abs_Q>
0

> <r_epik_Metal_State_Penalty>
0.075945

> <b_epik_Metal_Only>
0

> <s_lp_Force_Field>
OPLS_2005

> <r_lp_Energy>
46.0011

> <b_lp_Chiralities_Consistent>
1

> <s_lp_Variant>
AV-unprocessed.smi:1793-2

> <Gold.Version>
5.8.1

> <Gold.Id.Protein>
6NUR|6NUR_protein|mol2

> <Gold.PLP.Fitness>
37.0004

> <Gold.PLP.PLP>
-32.0904

> <Gold.PLP.part.hbond>
-1.9326

> <Gold.PLP.part.metal>
0.0000

> <Gold.PLP.part.buried>
-1.1123

> <Gold.PLP.part.nonpolar>
-29.1071

> <Gold.PLP.part.repulsive>
0.4682

> <Gold.PLP.ligand.clash>
0.0000

> <Gold.PLP.ligand.torsion>
0.4522

> <Gold.PLP.Chemscore.Hbond>
1.8080

> <Gold.PLP.Chemscore.CHOScore>
0.0000

> <Gold.PLP.Chemscore.Metal>
0.0000

> <Gold.Chemscore.Hbonds>
donor molecule, donor type, donor heavy atom, donor atom, acceptor molecule, acceptor atom, score
      L1  H     3    27       P1  7948  0.72
      L1  H     6    28       P1  7948  0.86

> <Gold.PLP.Chemscore.Internal.Correction>
0.3904

> <Gold.Rescore>
     Score         DG    S(hbond)    S(metal)    S(lipo)     H(rot)  DE(clash)    DE(int)     intcor
     12.93     -15.84       1.59        0.00      72.99       1.36       0.14       2.78       ----

> <Gold.Chemscore.Fitness>
12.9264

> <Gold.Chemscore.DG>
-15.8447

> <Gold.Chemscore.ZeroCoef>
-5.4800

> <Gold.Chemscore.Hbond>
1.5873

> <Gold.Chemscore.Metal>
0.0000

> <Gold.Chemscore.Lipo>
72.9941

> <Gold.Chemscore.Internal_Hbond>
0.0000

> <Gold.Chemscore.DEClash>
0.1418

> <Gold.Chemscore.DEInternal>
2.7766

> <Gold.Chemscore.Rot>
1.3582

> <Gold.Chemscore.Internal.Correction>
   9.000000E+99

> <Gold.Chemscore.Hbonds>
donor molecule, donor type, donor heavy atom, donor atom, acceptor molecule, acceptor atom, score
      L1  H     3    27       P1  7948  0.71
      L1  H     6    28       P1  7948  0.66

> <Gold.Chemscore.Hbond.Weighted>
-5.3014

> <Gold.Chemscore.Metal.Weighted>
-0.0000

> <Gold.Chemscore.Lipo.Weighted>
-8.5403

> <Gold.Chemscore.Internal_Hbond.Weighted>
0.0000

> <Gold.Chemscore.DEClash.Weighted>
0.1418

> <Gold.Chemscore.DEInternal.Weighted>
2.7766

> <Gold.Chemscore.Rot.Weighted>
3.4771

> <Gold.Chemscore.Internal.Correction.Weighted>
   9.000000E+99

> <Gold.Protein.RotatedTorsions>
[ 6907 6896 6895 6894 ] final -156.55 input  -60.11 | X-H torsion
[ 7974 7965 7964 7962 ] final  -94.41 input  175.53 | X-H torsion
[ 8008 7997 7996 7995 ] final -102.97 input   59.86 | X-H torsion
[ 10167 10162 10161 10158 ] final  168.11 input  -65.29 | X-H torsion
[ 10718 10713 10712 10709 ] final  -80.34 input   66.30 | X-H torsion
[ 10763 10752 10751 10750 ] final  -38.50 input  -60.55 | X-H torsion
[ 11005 11000 10999 10996 ] final  -98.74 input  -57.11 | X-H torsion

> <Gold.Protein.ActiveResidues>
 VAL166  LYS551  ARG553  GLY616  TRP617  ASP618  TYR619  PRO620  LYS621  CYS622 
 ASP623  PHE694  ASN695  SER759  ASP760  ASP761  ALA762  ILE779  LEU786  VAL792 
 PHE793  MET794  SER795  GLU796  ALA797  LYS798  CYS799  TRP800  GLU811  SER814 

> <Gold.Protein.RotatedAtoms>
  151.2893  133.4173  159.2631 H   0  0  0  0  0  0  0  0  0  0  0  0  # atno 6907 bound_to 6896
  151.0292  134.9527  159.8112 H   0  0  0  0  0  0  0  0  0  0  0  0  # atno 6908 bound_to 6896
  152.5342  134.2854  159.9075 H   0  0  0  0  0  0  0  0  0  0  0  0  # atno 6909 bound_to 6896
  145.3736  140.9508  143.2433 H   0  0  0  0  0  0  0  0  0  0  0  0  # atno 7974 bound_to 7965
  154.8642  140.0425  157.1684 H   0  0  0  0  0  0  0  0  0  0  0  0  # atno 8008 bound_to 7997
  154.8808  140.2972  155.5406 H   0  0  0  0  0  0  0  0  0  0  0  0  # atno 8009 bound_to 7997
  156.2999  140.2411  156.3810 H   0  0  0  0  0  0  0  0  0  0  0  0  # atno 8010 bound_to 7997
  139.4960  144.3850  151.9581 H   0  0  0  0  0  0  0  0  0  0  0  0  # atno 10167 bound_to 10162
  156.0072  130.4571  150.3785 H   0  0  0  0  0  0  0  0  0  0  0  0  # atno 10718 bound_to 10713
  153.9138  135.6789  153.4750 H   0  0  0  0  0  0  0  0  0  0  0  0  # atno 10763 bound_to 10752
  153.1064  135.4803  154.8956 H   0  0  0  0  0  0  0  0  0  0  0  0  # atno 10764 bound_to 10752
  154.7513  135.3185  154.8507 H   0  0  0  0  0  0  0  0  0  0  0  0  # atno 10765 bound_to 10752
  141.1334  133.8268  157.0879 H   0  0  0  0  0  0  0  0  0  0  0  0  # atno 11005 bound_to 11000
  144.8558  139.5252  143.6835 LP  0  0  0  0  0  0  0  0  0  0  0  0  # atno 17320 bound_to 7965
  146.2874  139.7042  142.9186 LP  0  0  0  0  0  0  0  0  0  0  0  0  # atno 17321 bound_to 7965
  140.3286  144.3343  150.5992 LP  0  0  0  0  0  0  0  0  0  0  0  0  # atno 17342 bound_to 10162
  140.5663  143.2186  151.7677 LP  0  0  0  0  0  0  0  0  0  0  0  0  # atno 17343 bound_to 10162
  157.1866  131.0405  151.2721 LP  0  0  0  0  0  0  0  0  0  0  0  0  # atno 17370 bound_to 10713
  157.4099  130.7379  149.6831 LP  0  0  0  0  0  0  0  0  0  0  0  0  # atno 17371 bound_to 10713
  140.0411  134.9854  157.0962 LP  0  0  0  0  0  0  0  0  0  0  0  0  # atno 17394 bound_to 11000
  140.4135  134.1956  155.7163 LP  0  0  0  0  0  0  0  0  0  0  0  0  # atno 17395 bound_to 11000

$$$$
