AV-unprocessed.smi:1033|AV-procd|sdf|4493|dock6
  -GOLD-   22720 2483D 1   1.00000     0.00000
 Structure written by MMmdl.
 56 58  0  0  0  0  0  0  0  0  2 V2000
  152.7530  141.9250  159.2792 C   0  0  0  0  0  0  0  0  0  0  0  0
  151.7859  141.7484  158.1217 C   0  0  0  0  0  0  0  0  0  0  0  0
  151.9790  140.6752  157.2225 C   0  0  0  0  0  0  0  0  0  0  0  0
  151.1022  140.4758  156.1339 C   0  0  0  0  0  0  0  0  0  0  0  0
  151.1013  139.5077  155.1444 N   0  0  0  0  0  0  0  0  0  0  0  0
  150.0368  139.8565  154.4277 C   0  0  0  0  0  0  0  0  0  0  0  0
  149.3511  140.9431  154.8325 N   0  0  0  0  0  0  0  0  0  0  0  0
  148.1706  141.5195  154.2153 C   0  0  0  0  0  0  0  0  0  0  0  0
  147.0384  140.4883  154.0499 C   0  0  1  0  0  0  0  0  0  0  0  0
  145.7914  141.1408  154.1961 O   0  0  0  0  0  0  0  0  0  0  0  0
  147.0836  139.8043  152.6695 C   0  0  0  0  0  0  0  0  0  0  0  0
  146.0566  138.7415  152.5210 N   0  3  0  0  0  0  0  0  0  0  0  0
  145.6781  138.0885  153.8029 C   0  0  0  0  0  0  0  0  0  0  0  0
  144.5665  137.0475  153.5620 C   0  0  0  0  0  0  0  0  0  0  0  0
  144.9333  136.0228  152.5814 N   0  0  0  0  0  0  0  0  0  0  0  0
  145.9488  135.0678  153.0412 C   0  0  0  0  0  0  0  0  0  0  0  0
  145.9458  133.7000  152.3294 C   0  0  1  0  0  0  0  0  0  0  0  0
  147.1757  132.8439  152.6639 C   0  0  0  0  0  0  0  0  0  0  0  0
  144.7940  132.9951  152.7411 O   0  0  0  0  0  0  0  0  0  0  0  0
  145.3062  136.6881  151.3329 C   0  0  0  0  0  0  0  0  0  0  0  0
  146.4368  137.7234  151.5076 C   0  0  0  0  0  0  0  0  0  0  0  0
  150.0189  141.3874  155.9680 C   0  0  0  0  0  0  0  0  0  0  0  0
  149.8153  142.4583  156.8559 C   0  0  0  0  0  0  0  0  0  0  0  0
  150.7004  142.6425  157.9388 C   0  0  0  0  0  0  0  0  0  0  0  0
  150.4721  143.8009  158.8936 C   0  0  0  0  0  0  0  0  0  0  0  0
  153.5431  141.1737  159.2561 H   0  0  0  0  0  0  0  0  0  0  0  0
  152.2296  141.8315  160.2309 H   0  0  0  0  0  0  0  0  0  0  0  0
  153.2252  142.9066  159.2377 H   0  0  0  0  0  0  0  0  0  0  0  0
  152.8049  139.9932  157.3623 H   0  0  0  0  0  0  0  0  0  0  0  0
  149.7414  139.2934  153.5543 H   0  0  0  0  0  0  0  0  0  0  0  0
  147.8363  142.3666  154.8163 H   0  0  0  0  0  0  0  0  0  0  0  0
  148.4606  141.9211  153.2436 H   0  0  0  0  0  0  0  0  0  0  0  0
  147.1299  139.7474  154.8432 H   0  0  0  0  0  0  0  0  0  0  0  0
  145.3180  141.0710  153.3802 H   0  0  0  0  0  0  0  0  0  0  0  0
  146.9346  140.5657  151.9018 H   0  0  0  0  0  0  0  0  0  0  0  0
  148.0702  139.3766  152.4858 H   0  0  0  0  0  0  0  0  0  0  0  0
  146.5527  137.6259  154.2620 H   0  0  0  0  0  0  0  0  0  0  0  0
  145.3113  138.8298  154.5114 H   0  0  0  0  0  0  0  0  0  0  0  0
  144.2724  136.5890  154.5051 H   0  0  0  0  0  0  0  0  0  0  0  0
  143.6753  137.5677  153.2082 H   0  0  0  0  0  0  0  0  0  0  0  0
  146.9350  135.5133  152.9023 H   0  0  0  0  0  0  0  0  0  0  0  0
  145.8513  134.9063  154.1145 H   0  0  0  0  0  0  0  0  0  0  0  0
  145.8693  133.8270  151.2500 H   0  0  0  0  0  0  0  0  0  0  0  0
  148.0934  133.3247  152.3240 H   0  0  0  0  0  0  0  0  0  0  0  0
  147.1197  131.8688  152.1789 H   0  0  0  0  0  0  0  0  0  0  0  0
  147.2663  132.6782  153.7379 H   0  0  0  0  0  0  0  0  0  0  0  0
  145.0574  132.3024  153.3276 H   0  0  0  0  0  0  0  0  0  0  0  0
  145.5951  135.9451  150.5884 H   0  0  0  0  0  0  0  0  0  0  0  0
  144.4290  137.1911  150.9234 H   0  0  0  0  0  0  0  0  0  0  0  0
  146.6226  138.2132  150.5511 H   0  0  0  0  0  0  0  0  0  0  0  0
  147.3697  137.2385  151.7981 H   0  0  0  0  0  0  0  0  0  0  0  0
  148.9844  143.1315  156.7054 H   0  0  0  0  0  0  0  0  0  0  0  0
  149.5928  144.3816  158.6129 H   0  0  0  0  0  0  0  0  0  0  0  0
  151.3309  144.4724  158.8913 H   0  0  0  0  0  0  0  0  0  0  0  0
  150.3209  143.4346  159.9093 H   0  0  0  0  0  0  0  0  0  0  0  0
  145.2270  139.1953  152.1654 H   0  0  0  0  0  0  0  0  0  0  0  0
  1  2  1  0  0  0  0
  1 26  1  0  0  0  0
  1 27  1  0  0  0  0
  1 28  1  0  0  0  0
  2 24  1  0  0  0  0
  2  3  2  0  0  0  0
  3  4  1  0  0  0  0
  3 29  1  0  0  0  0
  4 22  2  0  0  0  0
  4  5  1  0  0  0  0
  5  6  2  0  0  0  0
  6  7  1  0  0  0  0
  6 30  1  0  0  0  0
  7  8  1  0  0  0  0
  7 22  1  0  0  0  0
  8  9  1  0  0  0  0
  8 31  1  0  0  0  0
  8 32  1  0  0  0  0
  9 10  1  0  0  0  0
  9 11  1  0  0  0  0
  9 33  1  0  0  0  0
 10 34  1  0  0  0  0
 11 12  1  0  0  0  0
 11 35  1  0  0  0  0
 11 36  1  0  0  0  0
 12 21  1  0  0  0  0
 12 13  1  0  0  0  0
 12 56  1  0  0  0  0
 13 14  1  0  0  0  0
 13 37  1  0  0  0  0
 13 38  1  0  0  0  0
 14 15  1  0  0  0  0
 14 39  1  0  0  0  0
 14 40  1  0  0  0  0
 15 16  1  0  0  0  0
 15 20  1  0  0  0  0
 16 17  1  0  0  0  0
 16 41  1  0  0  0  0
 16 42  1  0  0  0  0
 17 18  1  0  0  0  0
 17 19  1  0  0  0  0
 17 43  1  0  0  0  0
 18 44  1  0  0  0  0
 18 45  1  0  0  0  0
 18 46  1  0  0  0  0
 19 47  1  0  0  0  0
 20 21  1  0  0  0  0
 20 48  1  0  0  0  0
 20 49  1  0  0  0  0
 21 50  1  0  0  0  0
 21 51  1  0  0  0  0
 22 23  1  0  0  0  0
 23 24  2  0  0  0  0
 23 52  1  0  0  0  0
 24 25  1  0  0  0  0
 25 53  1  0  0  0  0
 25 54  1  0  0  0  0
 25 55  1  0  0  0  0
M  CHG  1  12   1
M  END
> <s_m_source_file>
AV-unprocessed.smi

> <i_m_source_file_index>
1033

> <i_lp_mmshare_version>
43012

> <i_f3d_flags>
0

> <s_epik_input>
W0NIM11jKFtjSF0xKWMoW0NIM10pW2NIXWMoYzEyKW4oW2NIXW4yKVtDSDJdW0NASF0oW09IXSlbQ0gyXU4zW0NIMl1bQ0gyXU4oW0NIMl1bQ0gyXTMpW0NIMl1bQ0BIXShbQ0gzXSlbT0hd

> <s_epik_cmdline>
J2VwaWtfcHl0aG9uJywgJy1waCcsICc3LjAnLCAnLXRuJywgJzgnLCAnLW1hJywgJzIwMCcsICctbWV0YWxfYmluZGluZycsICctaW1hZScsICc8aW5maWxlLm1hZT4nLCAnLW9tYWUnLCAnPG91dGZpbGUubWFlPic=

> <r_epik_Ionization_Penalty>
0.131893

> <r_epik_Ionization_Penalty_Charging>
0.00208556

> <r_epik_Ionization_Penalty_Neutral>
0.129808

> <r_epik_State_Penalty>
0.452125

> <r_epik_Charging_Adjusted_Penalty>
0.454211

> <i_epik_Tot_Q>
1

> <i_epik_Tot_abs_Q>
1

> <r_epik_Metal_State_Penalty>
0.376389

> <b_epik_Metal_Only>
0

> <s_lp_Force_Field>
OPLS_2005

> <r_lp_Energy>
31.8043

> <b_lp_Chiralities_Consistent>
1

> <s_lp_Variant>
AV-unprocessed.smi:1033-4

> <Gold.Version>
5.8.1

> <Gold.Id.Protein>
6NUR|6NUR_protein|mol2

> <Gold.PLP.Fitness>
48.6514

> <Gold.PLP.PLP>
-38.7825

> <Gold.PLP.part.hbond>
-2.6330

> <Gold.PLP.part.metal>
0.0000

> <Gold.PLP.part.buried>
4.5400

> <Gold.PLP.part.nonpolar>
-40.4270

> <Gold.PLP.part.repulsive>
0.1893

> <Gold.PLP.ligand.clash>
0.0000

> <Gold.PLP.ligand.torsion>
1.0768

> <Gold.PLP.Chemscore.Hbond>
2.9833

> <Gold.PLP.Chemscore.CHOScore>
0.9827

> <Gold.PLP.Chemscore.Metal>
0.0000

> <Gold.Chemscore.Hbonds>
donor molecule, donor type, donor heavy atom, donor atom, acceptor molecule, acceptor atom, score
      L1  H    10    34       P1 10175  0.94
      L1  H    12    56       P1 10175  1.98
      L1  C     6    30       P1  7957  0.99

> <Gold.PLP.Chemscore.Internal.Correction>
0.1243

> <Gold.Rescore>
     Score         DG    S(hbond)    S(metal)    S(lipo)     H(rot)  DE(clash)    DE(int)     intcor
     13.70     -17.15       1.90        0.00     112.53       3.07       2.25       1.21       ----

> <Gold.Chemscore.Fitness>
13.6953

> <Gold.Chemscore.DG>
-17.1526

> <Gold.Chemscore.ZeroCoef>
-5.4800

> <Gold.Chemscore.Hbond>
1.9020

> <Gold.Chemscore.Metal>
0.0000

> <Gold.Chemscore.Lipo>
112.5329

> <Gold.Chemscore.Internal_Hbond>
0.0000

> <Gold.Chemscore.DEClash>
2.2494

> <Gold.Chemscore.DEInternal>
1.2079

> <Gold.Chemscore.Rot>
3.0650

> <Gold.Chemscore.Internal.Correction>
   9.000000E+99

> <Gold.Chemscore.Hbonds>
donor molecule, donor type, donor heavy atom, donor atom, acceptor molecule, acceptor atom, score
      L1  H    10    34       P1 10175  0.45
      L1  H    12    56       P1 10175  0.89

> <Gold.Chemscore.Hbond.Weighted>
-6.3527

> <Gold.Chemscore.Metal.Weighted>
-0.0000

> <Gold.Chemscore.Lipo.Weighted>
-13.1664

> <Gold.Chemscore.Internal_Hbond.Weighted>
0.0000

> <Gold.Chemscore.DEClash.Weighted>
2.2494

> <Gold.Chemscore.DEInternal.Weighted>
1.2079

> <Gold.Chemscore.Rot.Weighted>
7.8465

> <Gold.Chemscore.Internal.Correction.Weighted>
   9.000000E+99

> <Gold.Protein.RotatedTorsions>
[ 6907 6896 6895 6894 ] final  103.43 input  -60.11 | X-H torsion
[ 7974 7965 7964 7962 ] final  -20.97 input  175.53 | X-H torsion
[ 8008 7997 7996 7995 ] final  -92.28 input   59.86 | X-H torsion
[ 10167 10162 10161 10158 ] final  171.14 input  -65.29 | X-H torsion
[ 10718 10713 10712 10709 ] final   11.86 input   66.30 | X-H torsion
[ 10763 10752 10751 10750 ] final  100.82 input  -60.55 | X-H torsion
[ 11005 11000 10999 10996 ] final  113.51 input  -57.11 | X-H torsion

> <Gold.Protein.ActiveResidues>
 VAL166  LYS551  ARG553  GLY616  TRP617  ASP618  TYR619  PRO620  LYS621  CYS622 
 ASP623  PHE694  ASN695  SER759  ASP760  ASP761  ALA762  ILE779  LEU786  VAL792 
 PHE793  MET794  SER795  GLU796  ALA797  LYS798  CYS799  TRP800  GLU811  SER814 

> <Gold.Protein.RotatedAtoms>
  152.5295  133.9827  159.7813 H   0  0  0  0  0  0  0  0  0  0  0  0  # atno 6907 bound_to 6896
  151.0078  133.5986  159.2693 H   0  0  0  0  0  0  0  0  0  0  0  0  # atno 6908 bound_to 6896
  151.3072  135.0791  159.9313 H   0  0  0  0  0  0  0  0  0  0  0  0  # atno 6909 bound_to 6896
  146.1759  140.4276  142.8514 H   0  0  0  0  0  0  0  0  0  0  0  0  # atno 7974 bound_to 7965
  154.7211  140.0510  157.0640 H   0  0  0  0  0  0  0  0  0  0  0  0  # atno 8008 bound_to 7997
  155.0426  140.3170  155.4700 H   0  0  0  0  0  0  0  0  0  0  0  0  # atno 8009 bound_to 7997
  156.2816  140.2130  156.5550 H   0  0  0  0  0  0  0  0  0  0  0  0  # atno 8010 bound_to 7997
  139.5038  144.3519  151.9914 H   0  0  0  0  0  0  0  0  0  0  0  0  # atno 10167 bound_to 10162
  157.0018  130.6082  149.5697 H   0  0  0  0  0  0  0  0  0  0  0  0  # atno 10718 bound_to 10713
  153.3188  135.4066  155.1399 H   0  0  0  0  0  0  0  0  0  0  0  0  # atno 10763 bound_to 10752
  154.8595  135.3582  154.5624 H   0  0  0  0  0  0  0  0  0  0  0  0  # atno 10764 bound_to 10752
  153.6057  135.7069  153.5425 H   0  0  0  0  0  0  0  0  0  0  0  0  # atno 10765 bound_to 10752
  139.8955  134.9551  156.6750 H   0  0  0  0  0  0  0  0  0  0  0  0  # atno 11005 bound_to 11000
  144.8235  140.6590  143.6337 LP  0  0  0  0  0  0  0  0  0  0  0  0  # atno 17320 bound_to 7965
  145.4213  139.1563  143.4072 LP  0  0  0  0  0  0  0  0  0  0  0  0  # atno 17321 bound_to 7965
  140.2956  144.3705  150.6075 LP  0  0  0  0  0  0  0  0  0  0  0  0  # atno 17342 bound_to 10162
  140.5913  143.2168  151.7247 LP  0  0  0  0  0  0  0  0  0  0  0  0  # atno 17343 bound_to 10162
  156.0168  130.5262  150.8159 LP  0  0  0  0  0  0  0  0  0  0  0  0  # atno 17370 bound_to 10713
  157.5385  131.0940  150.9860 LP  0  0  0  0  0  0  0  0  0  0  0  0  # atno 17371 bound_to 10713
  140.7343  133.9032  155.8233 LP  0  0  0  0  0  0  0  0  0  0  0  0  # atno 17394 bound_to 11000
  141.0128  134.0997  157.4203 LP  0  0  0  0  0  0  0  0  0  0  0  0  # atno 17395 bound_to 11000

$$$$
