AV-unprocessed.smi:3292|AV-procd|sdf|12627|dock4
  -GOLD-   2272018563D 1   1.00000     0.00000
 Structure written by MMmdl.
 38 39  0  0  0  0  0  0  0  0  1 V2000
  144.1143  134.5217  153.0082 C   0  0  0  0  0  0  0  0  0  0  0  0
  145.0982  134.8696  151.8834 C   0  0  2  0  0  0  0  0  0  0  0  0
  145.7678  133.6004  151.3118 C   0  0  0  0  0  0  0  0  0  0  0  0
  145.1402  133.1364  150.0872 N   0  0  0  0  0  0  0  0  0  0  0  0
  143.9373  133.5693  149.5451 C   0  0  0  0  0  0  0  0  0  0  0  0
  143.7583  132.8662  148.3751 C   0  0  0  0  0  0  0  0  0  0  0  0
  144.8275  131.9939  148.1830 N   0  0  0  0  0  0  0  0  0  0  0  0
  145.6015  132.2065  149.2391 C   0  0  0  0  0  0  0  0  0  0  0  0
  146.1028  135.7989  152.3996 N   0  0  0  0  0  0  0  0  0  0  0  0
  145.8525  136.8538  153.1889 C   0  0  0  0  0  0  0  0  0  0  0  0
  144.7434  137.1283  153.6477 O   0  0  0  0  0  0  0  0  0  0  0  0
  146.9464  137.6032  153.3765 N   0  0  0  0  0  0  0  0  0  0  0  0
  146.9624  138.8941  154.0556 C   0  0  0  0  0  0  0  0  0  0  0  0
  148.2729  139.6648  153.7950 C   0  0  1  0  0  0  0  0  0  0  0  0
  148.2709  141.0933  154.3294 C   0  0  0  0  0  0  0  0  0  0  0  0
  149.6616  141.2722  154.9474 C   0  0  0  0  0  0  0  0  0  0  0  0
  150.4100  140.1471  154.5122 O   0  0  0  0  0  0  0  0  0  0  0  0
  149.5122  139.0531  154.4489 C   0  0  0  0  0  0  0  0  0  0  0  0
  143.3327  133.8507  152.6510 H   0  0  0  0  0  0  0  0  0  0  0  0
  143.6265  135.4172  153.3946 H   0  0  0  0  0  0  0  0  0  0  0  0
  144.6189  134.0303  153.8411 H   0  0  0  0  0  0  0  0  0  0  0  0
  144.5237  135.3507  151.0895 H   0  0  0  0  0  0  0  0  0  0  0  0
  146.8268  133.7794  151.1191 H   0  0  0  0  0  0  0  0  0  0  0  0
  145.7166  132.7898  152.0396 H   0  0  0  0  0  0  0  0  0  0  0  0
  143.3314  134.3279  150.0182 H   0  0  0  0  0  0  0  0  0  0  0  0
  142.9490  132.9210  147.6623 H   0  0  0  0  0  0  0  0  0  0  0  0
  146.5334  131.6823  149.3927 H   0  0  0  0  0  0  0  0  0  0  0  0
  147.0508  135.6625  152.0805 H   0  0  0  0  0  0  0  0  0  0  0  0
  147.8145  137.2934  152.9646 H   0  0  0  0  0  0  0  0  0  0  0  0
  146.1029  139.4893  153.7424 H   0  0  0  0  0  0  0  0  0  0  0  0
  146.8406  138.7136  155.1240 H   0  0  0  0  0  0  0  0  0  0  0  0
  148.4563  139.7151  152.7203 H   0  0  0  0  0  0  0  0  0  0  0  0
  148.0989  141.8045  153.5208 H   0  0  0  0  0  0  0  0  0  0  0  0
  147.4980  141.2539  155.0820 H   0  0  0  0  0  0  0  0  0  0  0  0
  150.1385  142.2047  154.6451 H   0  0  0  0  0  0  0  0  0  0  0  0
  149.6002  141.2597  156.0367 H   0  0  0  0  0  0  0  0  0  0  0  0
  149.2969  138.6968  155.4580 H   0  0  0  0  0  0  0  0  0  0  0  0
  149.9286  138.2268  153.8724 H   0  0  0  0  0  0  0  0  0  0  0  0
  1  2  1  0  0  0  0
  1 19  1  0  0  0  0
  1 20  1  0  0  0  0
  1 21  1  0  0  0  0
  2  3  1  0  0  0  0
  2  9  1  0  0  0  0
  2 22  1  0  0  0  0
  3  4  1  0  0  0  0
  3 23  1  0  0  0  0
  3 24  1  0  0  0  0
  4  8  1  0  0  0  0
  4  5  1  0  0  0  0
  5  6  2  0  0  0  0
  5 25  1  0  0  0  0
  6  7  1  0  0  0  0
  6 26  1  0  0  0  0
  7  8  2  0  0  0  0
  8 27  1  0  0  0  0
  9 10  1  0  0  0  0
  9 28  1  0  0  0  0
 10 11  2  0  0  0  0
 10 12  1  0  0  0  0
 12 13  1  0  0  0  0
 12 29  1  0  0  0  0
 13 14  1  0  0  0  0
 13 30  1  0  0  0  0
 13 31  1  0  0  0  0
 14 18  1  0  0  0  0
 14 15  1  0  0  0  0
 14 32  1  0  0  0  0
 15 16  1  0  0  0  0
 15 33  1  0  0  0  0
 15 34  1  0  0  0  0
 16 17  1  0  0  0  0
 16 35  1  0  0  0  0
 16 36  1  0  0  0  0
 17 18  1  0  0  0  0
 18 37  1  0  0  0  0
 18 38  1  0  0  0  0
M  END
> <s_m_source_file>
AV-unprocessed.smi

> <i_m_source_file_index>
3292

> <i_lp_mmshare_version>
43012

> <i_f3d_flags>
0

> <s_epik_input>
W2NIXTFuW2NIXVtjSF1uMVtDSDJdW0NAQEhdKFtDSDNdKVtOSF1DKD1PKVtOSF1bQ0gyXVtDQEBIXTJbQ0gyXVtDSDJdT1tDSDJdMg==

> <s_epik_cmdline>
J2VwaWtfcHl0aG9uJywgJy1waCcsICc3LjAnLCAnLXRuJywgJzgnLCAnLW1hJywgJzIwMCcsICctbWV0YWxfYmluZGluZycsICctaW1hZScsICc8aW5maWxlLm1hZT4nLCAnLW9tYWUnLCAnPG91dGZpbGUubWFlPic=

> <r_lp_tautomer_probability>
1

> <r_epik_Ionization_Penalty>
0.621291

> <r_epik_Ionization_Penalty_Charging>
0.621234

> <r_epik_Ionization_Penalty_Neutral>
5.72199e-05

> <r_epik_State_Penalty>
0.637278

> <r_epik_Charging_Adjusted_Penalty>
1.25851

> <i_epik_Tot_Q>
0

> <i_epik_Tot_abs_Q>
0

> <r_epik_Metal_State_Penalty>
0.306757

> <b_epik_Metal_Only>
0

> <s_lp_Force_Field>
OPLS_2005

> <r_lp_Energy>
18.0695

> <b_lp_Chiralities_Consistent>
1

> <s_lp_Variant>
AV-unprocessed.smi:3292-7

> <Gold.Version>
5.8.1

> <Gold.Id.Protein>
6NUR|6NUR_protein|mol2

> <Gold.PLP.Fitness>
47.4482

> <Gold.PLP.PLP>
-31.9379

> <Gold.PLP.part.hbond>
-5.0000

> <Gold.PLP.part.metal>
0.0000

> <Gold.PLP.part.buried>
1.9180

> <Gold.PLP.part.nonpolar>
-27.9922

> <Gold.PLP.part.repulsive>
0.5041

> <Gold.PLP.ligand.clash>
0.0000

> <Gold.PLP.ligand.torsion>
0.9889

> <Gold.PLP.Chemscore.Hbond>
3.0000

> <Gold.PLP.Chemscore.CHOScore>
2.8138

> <Gold.PLP.Chemscore.Metal>
0.0000

> <Gold.Chemscore.Hbonds>
donor molecule, donor type, donor heavy atom, donor atom, acceptor molecule, acceptor atom, score
      L1  H     9    28       P1  7948  1.00
      L1  H    12    29       P1  7948  1.00
      P1  H  7989  7998       L1    17  1.00
      L1  C     5    25       P1 10186  0.80
      L1  C     6    26       P1 10195  1.00
      L1  C     8    27       P1 10747  0.57

> <Gold.PLP.Chemscore.Internal.Correction>
0.0466

> <Gold.Rescore>
     Score         DG    S(hbond)    S(metal)    S(lipo)     H(rot)  DE(clash)    DE(int)     intcor
     14.46     -17.07       2.77        0.00      67.28       2.16       0.31       2.30       ----

> <Gold.Chemscore.Fitness>
14.4600

> <Gold.Chemscore.DG>
-17.0735

> <Gold.Chemscore.ZeroCoef>
-5.4800

> <Gold.Chemscore.Hbond>
2.7681

> <Gold.Chemscore.Metal>
0.0000

> <Gold.Chemscore.Lipo>
67.2785

> <Gold.Chemscore.Internal_Hbond>
0.0000

> <Gold.Chemscore.DEClash>
0.3139

> <Gold.Chemscore.DEInternal>
2.2996

> <Gold.Chemscore.Rot>
2.1577

> <Gold.Chemscore.Internal.Correction>
   9.000000E+99

> <Gold.Chemscore.Hbonds>
donor molecule, donor type, donor heavy atom, donor atom, acceptor molecule, acceptor atom, score
      L1  H     9    28       P1  7948  0.96
      L1  H    12    29       P1  7948  0.99
      P1  H  7989  7998       L1    17  0.34

> <Gold.Chemscore.Hbond.Weighted>
-9.2456

> <Gold.Chemscore.Metal.Weighted>
-0.0000

> <Gold.Chemscore.Lipo.Weighted>
-7.8716

> <Gold.Chemscore.Internal_Hbond.Weighted>
0.0000

> <Gold.Chemscore.DEClash.Weighted>
0.3139

> <Gold.Chemscore.DEInternal.Weighted>
2.2996

> <Gold.Chemscore.Rot.Weighted>
5.5237

> <Gold.Chemscore.Internal.Correction.Weighted>
   9.000000E+99

> <Gold.Protein.RotatedTorsions>
[ 6907 6896 6895 6894 ] final  -87.29 input  -60.11 | X-H torsion
[ 7974 7965 7964 7962 ] final   84.00 input  175.53 | X-H torsion
[ 8008 7997 7996 7995 ] final   80.75 input   59.86 | X-H torsion
[ 10167 10162 10161 10158 ] final -118.28 input  -65.29 | X-H torsion
[ 10718 10713 10712 10709 ] final -126.65 input   66.30 | X-H torsion
[ 10763 10752 10751 10750 ] final    3.41 input  -60.55 | X-H torsion
[ 11005 11000 10999 10996 ] final  107.83 input  -57.11 | X-H torsion

> <Gold.Protein.ActiveResidues>
 VAL166  LYS551  ARG553  GLY616  TRP617  ASP618  TYR619  PRO620  LYS621  CYS622 
 ASP623  PHE694  ASN695  SER759  ASP760  ASP761  ALA762  ILE779  LEU786  VAL792 
 PHE793  MET794  SER795  GLU796  ALA797  LYS798  CYS799  TRP800  GLU811  SER814 

> <Gold.Protein.RotatedAtoms>
  150.6866  134.2919  159.4669 H   0  0  0  0  0  0  0  0  0  0  0  0  # atno 6907 bound_to 6896
  152.0823  134.9460  160.0582 H   0  0  0  0  0  0  0  0  0  0  0  0  # atno 6908 bound_to 6896
  152.0808  133.4117  159.4537 H   0  0  0  0  0  0  0  0  0  0  0  0  # atno 6909 bound_to 6896
  145.6045  139.2358  143.2227 H   0  0  0  0  0  0  0  0  0  0  0  0  # atno 7974 bound_to 7965
  155.8877  140.3440  155.5934 H   0  0  0  0  0  0  0  0  0  0  0  0  # atno 8008 bound_to 7997
  155.7646  140.0837  157.2157 H   0  0  0  0  0  0  0  0  0  0  0  0  # atno 8009 bound_to 7997
  154.4030  140.1529  156.2859 H   0  0  0  0  0  0  0  0  0  0  0  0  # atno 8010 bound_to 7997
  140.0592  143.4985  152.2041 H   0  0  0  0  0  0  0  0  0  0  0  0  # atno 10167 bound_to 10162
  156.1784  130.6715  151.0273 H   0  0  0  0  0  0  0  0  0  0  0  0  # atno 10718 bound_to 10713
  153.2837  135.6943  153.7360 H   0  0  0  0  0  0  0  0  0  0  0  0  # atno 10763 bound_to 10752
  153.6338  135.3405  155.3051 H   0  0  0  0  0  0  0  0  0  0  0  0  # atno 10764 bound_to 10752
  154.8503  135.4415  154.1898 H   0  0  0  0  0  0  0  0  0  0  0  0  # atno 10765 bound_to 10752
  139.8834  134.9412  156.5879 H   0  0  0  0  0  0  0  0  0  0  0  0  # atno 11005 bound_to 11000
  146.1551  140.6870  142.9304 LP  0  0  0  0  0  0  0  0  0  0  0  0  # atno 17320 bound_to 7965
  144.7295  140.4630  143.6948 LP  0  0  0  0  0  0  0  0  0  0  0  0  # atno 17321 bound_to 7965
  139.5904  144.7548  151.3414 LP  0  0  0  0  0  0  0  0  0  0  0  0  # atno 17342 bound_to 10162
  140.7180  143.7213  150.7693 LP  0  0  0  0  0  0  0  0  0  0  0  0  # atno 17343 bound_to 10162
  157.6852  131.0827  150.7263 LP  0  0  0  0  0  0  0  0  0  0  0  0  # atno 17370 bound_to 10713
  156.7320  130.4712  149.5497 LP  0  0  0  0  0  0  0  0  0  0  0  0  # atno 17371 bound_to 10713
  140.7978  133.8530  155.8700 LP  0  0  0  0  0  0  0  0  0  0  0  0  # atno 17394 bound_to 11000
  140.9620  134.1643  157.4646 LP  0  0  0  0  0  0  0  0  0  0  0  0  # atno 17395 bound_to 11000

$$$$
