AV-unprocessed.smi:261|AV-procd|sdf|1986|dock6
  -GOLD-   2262021163D 1   1.00000     0.00000
 Structure written by MMmdl.
 51 54  0  0  0  0  0  0  0  0  1 V2000
  150.6214  130.4224  155.1756 C   0  0  0  0  0  0  0  0  0  0  0  0
  150.9577  131.8005  155.2014 O   0  0  0  0  0  0  0  0  0  0  0  0
  150.9265  132.3780  156.5011 C   0  0  2  0  0  0  0  0  0  0  0  0
  149.5190  132.8497  156.8908 C   0  0  0  0  0  0  0  0  0  0  0  0
  149.3781  134.2451  156.2619 C   0  0  2  0  0  0  0  0  0  0  0  0
  148.7560  134.1752  154.8501 C   0  0  0  0  0  0  0  0  0  0  0  0
  148.6239  135.3034  154.1439 N   0  0  0  0  0  0  0  0  0  0  0  0
  148.3849  133.0923  154.4029 O   0  0  0  0  0  0  0  0  0  0  0  0
  150.7502  134.7534  156.2929 N   0  0  0  0  0  0  0  0  0  0  0  0
  151.1086  136.0660  156.2275 C   0  0  0  0  0  0  0  0  0  0  0  0
  151.3132  136.6048  154.9959 N   0  0  0  0  0  0  0  0  0  0  0  0
  151.6583  137.8871  154.8576 C   0  0  0  0  0  0  0  0  0  0  0  0
  151.8496  138.8042  155.8049 N   0  0  0  0  0  0  0  0  0  0  0  0
  151.6479  138.2783  157.0462 C   0  0  0  0  0  0  0  0  0  0  0  0
  151.2814  136.9341  157.3493 C   0  0  0  0  0  0  0  0  0  0  0  0
  151.1714  136.7899  158.7289 N   0  0  0  0  0  0  0  0  0  0  0  0
  151.4414  137.9724  159.2075 C   0  0  0  0  0  0  0  0  0  0  0  0
  151.7316  138.9293  158.2645 N   0  0  0  0  0  0  0  0  0  0  0  0
  152.0507  140.3261  158.5078 C   0  0  0  0  0  0  0  0  0  0  0  0
  150.9454  141.3096  158.0609 C   0  0  2  0  0  0  0  0  0  0  0  0
  150.8964  141.4010  156.6499 O   0  0  0  0  0  0  0  0  0  0  0  0
  151.0239  142.7190  158.6930 C   0  0  2  0  0  0  0  0  0  0  0  0
  152.1286  143.6332  158.1642 C   0  0  0  0  0  0  0  0  0  0  0  0
  152.2847  144.6601  159.2762 C   0  0  0  0  0  0  0  0  0  0  0  0
  151.6019  144.0171  160.4894 C   0  0  0  0  0  0  0  0  0  0  0  0
  151.2796  142.6932  160.0884 O   0  0  0  0  0  0  0  0  0  0  0  0
  151.7287  133.6832  156.4628 C   0  0  0  0  0  0  0  0  0  0  0  0
  151.3488  131.6862  157.2319 H   0  0  0  0  0  0  0  0  0  0  0  0
  148.7275  134.8425  156.9000 H   0  0  0  0  0  0  0  0  0  0  0  0
  150.6844  130.0537  154.1519 H   0  0  0  0  0  0  0  0  0  0  0  0
  149.6063  130.2440  155.5299 H   0  0  0  0  0  0  0  0  0  0  0  0
  151.3121  129.8372  155.7840 H   0  0  0  0  0  0  0  0  0  0  0  0
  148.7282  132.1566  156.6032 H   0  0  0  0  0  0  0  0  0  0  0  0
  149.4682  132.9465  157.9763 H   0  0  0  0  0  0  0  0  0  0  0  0
  148.2148  135.2740  153.2211 H   0  0  0  0  0  0  0  0  0  0  0  0
  148.9300  136.1806  154.5389 H   0  0  0  0  0  0  0  0  0  0  0  0
  151.7992  138.2266  153.8421 H   0  0  0  0  0  0  0  0  0  0  0  0
  151.4272  138.1820  160.2670 H   0  0  0  0  0  0  0  0  0  0  0  0
  152.2596  140.4498  159.5712 H   0  0  0  0  0  0  0  0  0  0  0  0
  152.9801  140.5608  157.9876 H   0  0  0  0  0  0  0  0  0  0  0  0
  149.9924  140.8734  158.3619 H   0  0  0  0  0  0  0  0  0  0  0  0
  150.4995  142.2258  156.4159 H   0  0  0  0  0  0  0  0  0  0  0  0
  150.0628  143.2163  158.5458 H   0  0  0  0  0  0  0  0  0  0  0  0
  153.0644  143.0860  158.0453 H   0  0  0  0  0  0  0  0  0  0  0  0
  151.8780  144.0827  157.2031 H   0  0  0  0  0  0  0  0  0  0  0  0
  153.3369  144.8733  159.4679 H   0  0  0  0  0  0  0  0  0  0  0  0
  151.7943  145.5991  159.0177 H   0  0  0  0  0  0  0  0  0  0  0  0
  152.2397  144.0095  161.3733 H   0  0  0  0  0  0  0  0  0  0  0  0
  150.6822  144.5480  160.7390 H   0  0  0  0  0  0  0  0  0  0  0  0
  152.2487  133.8302  157.4107 H   0  0  0  0  0  0  0  0  0  0  0  0
  152.4734  133.6791  155.6654 H   0  0  0  0  0  0  0  0  0  0  0  0
  1  2  1  0  0  0  0
  1 30  1  0  0  0  0
  1 31  1  0  0  0  0
  1 32  1  0  0  0  0
  2  3  1  0  0  0  0
  3 28  1  0  0  0  0
  3 27  1  0  0  0  0
  3  4  1  0  0  0  0
  4  5  1  0  0  0  0
  4 33  1  0  0  0  0
  4 34  1  0  0  0  0
  5 29  1  0  0  0  0
  5  6  1  0  0  0  0
  5  9  1  0  0  0  0
  6  7  1  0  0  0  0
  6  8  2  0  0  0  0
  7 35  1  0  0  0  0
  7 36  1  0  0  0  0
  9 10  1  0  0  0  0
  9 27  1  0  0  0  0
 10 15  1  0  0  0  0
 10 11  2  0  0  0  0
 11 12  1  0  0  0  0
 12 13  2  0  0  0  0
 12 37  1  0  0  0  0
 13 14  1  0  0  0  0
 14 18  1  0  0  0  0
 14 15  2  0  0  0  0
 15 16  1  0  0  0  0
 16 17  2  0  0  0  0
 17 18  1  0  0  0  0
 17 38  1  0  0  0  0
 18 19  1  0  0  0  0
 19 20  1  0  0  0  0
 19 39  1  0  0  0  0
 19 40  1  0  0  0  0
 20 21  1  0  0  0  0
 20 22  1  0  0  0  0
 20 41  1  0  0  0  0
 21 42  1  0  0  0  0
 22 26  1  0  0  0  0
 22 23  1  0  0  0  0
 22 43  1  0  0  0  0
 23 24  1  0  0  0  0
 23 44  1  0  0  0  0
 23 45  1  0  0  0  0
 24 25  1  0  0  0  0
 24 46  1  0  0  0  0
 24 47  1  0  0  0  0
 25 26  1  0  0  0  0
 25 48  1  0  0  0  0
 25 49  1  0  0  0  0
 27 50  1  0  0  0  0
 27 51  1  0  0  0  0
M  END
> <s_m_source_file>
AV-unprocessed.smi

> <i_m_source_file_index>
261

> <i_lp_mmshare_version>
43012

> <i_f3d_flags>
0

> <s_epik_input>
W0NIM11PW0NASF0xW0NIMl1bQ0BASF0oQyg9TylbTkgyXSlOKFtDSDJdMSljKG5bY0hdbjIpYyhjMjMpbltjSF1uM1tDSDJdW0NASF0oW09IXSlbQ0BASF00W0NIMl1bQ0gyXVtDSDJdTzQ=

> <s_epik_cmdline>
J2VwaWtfcHl0aG9uJywgJy1waCcsICc3LjAnLCAnLXRuJywgJzgnLCAnLW1hJywgJzIwMCcsICctbWV0YWxfYmluZGluZycsICctaW1hZScsICc8aW5maWxlLm1hZT4nLCAnLW9tYWUnLCAnPG91dGZpbGUubWFlPic=

> <r_lp_tautomer_probability>
1

> <r_epik_Ionization_Penalty>
0.000713824

> <r_epik_Ionization_Penalty_Charging>
0

> <r_epik_Ionization_Penalty_Neutral>
0.000713824

> <r_epik_State_Penalty>
0.000402132

> <r_epik_Charging_Adjusted_Penalty>
0.000402132

> <i_epik_Tot_Q>
0

> <i_epik_Tot_abs_Q>
0

> <r_epik_Metal_State_Penalty>
-0

> <b_epik_Metal_Only>
0

> <s_lp_Force_Field>
OPLS_2005

> <r_lp_Energy>
46.7805

> <b_lp_Chiralities_Consistent>
1

> <s_lp_Variant>
AV-unprocessed.smi:261-4

> <Gold.Version>
5.8.1

> <Gold.Id.Protein>
6NUR|6NUR_protein|mol2

> <Gold.PLP.Fitness>
42.6278

> <Gold.PLP.PLP>
-39.5688

> <Gold.PLP.part.hbond>
-3.6131

> <Gold.PLP.part.metal>
0.0000

> <Gold.PLP.part.buried>
-6.6967

> <Gold.PLP.part.nonpolar>
-28.7791

> <Gold.PLP.part.repulsive>
0.2228

> <Gold.PLP.ligand.clash>
0.0000

> <Gold.PLP.ligand.torsion>
2.0888

> <Gold.PLP.Chemscore.Hbond>
2.3836

> <Gold.PLP.Chemscore.CHOScore>
0.0000

> <Gold.PLP.Chemscore.Metal>
0.0000

> <Gold.Chemscore.Hbonds>
donor molecule, donor type, donor heavy atom, donor atom, acceptor molecule, acceptor atom, score
      L1  H     7    35       P1  7948  0.42
      P1  H  6896  6907       L1    16  0.93
      P1  H 10752 10765       L1    11  0.90

> <Gold.PLP.Chemscore.Internal.Correction>
0.0858

> <Gold.Rescore>
     Score         DG    S(hbond)    S(metal)    S(lipo)     H(rot)  DE(clash)    DE(int)     intcor
     11.91     -15.27       2.44        0.00      83.65       3.18       0.12       3.24       ----

> <Gold.Chemscore.Fitness>
11.9063

> <Gold.Chemscore.DG>
-15.2748

> <Gold.Chemscore.ZeroCoef>
-5.4800

> <Gold.Chemscore.Hbond>
2.4422

> <Gold.Chemscore.Metal>
0.0000

> <Gold.Chemscore.Lipo>
83.6463

> <Gold.Chemscore.Internal_Hbond>
0.0000

> <Gold.Chemscore.DEClash>
0.1246

> <Gold.Chemscore.DEInternal>
3.2440

> <Gold.Chemscore.Rot>
3.1831

> <Gold.Chemscore.Internal.Correction>
   9.000000E+99

> <Gold.Chemscore.Hbonds>
donor molecule, donor type, donor heavy atom, donor atom, acceptor molecule, acceptor atom, score
      L1  H     7    35       P1  7948  0.40
      P1  H  6896  6907       L1    16  0.83
      P1  H 10752 10765       L1    11  0.08

> <Gold.Chemscore.Hbond.Weighted>
-8.1568

> <Gold.Chemscore.Metal.Weighted>
-0.0000

> <Gold.Chemscore.Lipo.Weighted>
-9.7866

> <Gold.Chemscore.Internal_Hbond.Weighted>
0.0000

> <Gold.Chemscore.DEClash.Weighted>
0.1246

> <Gold.Chemscore.DEInternal.Weighted>
3.2440

> <Gold.Chemscore.Rot.Weighted>
8.1486

> <Gold.Chemscore.Internal.Correction.Weighted>
   9.000000E+99

> <Gold.Protein.RotatedTorsions>
[ 6907 6896 6895 6894 ] final  -22.93 input  -60.11 | X-H torsion
[ 7974 7965 7964 7962 ] final    6.87 input  175.53 | X-H torsion
[ 8008 7997 7996 7995 ] final  -97.14 input   59.86 | X-H torsion
[ 10167 10162 10161 10158 ] final  -20.60 input  -65.29 | X-H torsion
[ 10718 10713 10712 10709 ] final   99.74 input   66.30 | X-H torsion
[ 10763 10752 10751 10750 ] final  175.43 input  -60.55 | X-H torsion
[ 11005 11000 10999 10996 ] final  -19.09 input  -57.11 | X-H torsion

> <Gold.Protein.ActiveResidues>
 VAL166  LYS551  ARG553  GLY616  TRP617  ASP618  TYR619  PRO620  LYS621  CYS622 
 ASP623  PHE694  ASN695  SER759  ASP760  ASP761  ALA762  ILE779  LEU786  VAL792 
 PHE793  MET794  SER795  GLU796  ALA797  LYS798  CYS799  TRP800  GLU811  SER814 

> <Gold.Protein.RotatedAtoms>
  151.2114  135.0482  159.8912 H   0  0  0  0  0  0  0  0  0  0  0  0  # atno 6907 bound_to 6896
  152.5424  134.0741  159.8217 H   0  0  0  0  0  0  0  0  0  0  0  0  # atno 6908 bound_to 6896
  151.0895  133.5279  159.2647 H   0  0  0  0  0  0  0  0  0  0  0  0  # atno 6909 bound_to 6896
  146.2431  140.0169  142.8401 H   0  0  0  0  0  0  0  0  0  0  0  0  # atno 7974 bound_to 7965
  154.7838  140.0465  157.1148 H   0  0  0  0  0  0  0  0  0  0  0  0  # atno 8008 bound_to 7997
  154.9673  140.3085  155.4984 H   0  0  0  0  0  0  0  0  0  0  0  0  # atno 8009 bound_to 7997
  156.2940  140.2260  156.4763 H   0  0  0  0  0  0  0  0  0  0  0  0  # atno 8010 bound_to 7997
  140.7277  143.4707  151.0251 H   0  0  0  0  0  0  0  0  0  0  0  0  # atno 10167 bound_to 10162
  157.6869  131.0678  150.4994 H   0  0  0  0  0  0  0  0  0  0  0  0  # atno 10718 bound_to 10713
  154.4675  135.2770  155.1667 H   0  0  0  0  0  0  0  0  0  0  0  0  # atno 10763 bound_to 10752
  154.3429  135.6166  153.5609 H   0  0  0  0  0  0  0  0  0  0  0  0  # atno 10764 bound_to 10752
  152.9861  135.5793  154.5050 H   0  0  0  0  0  0  0  0  0  0  0  0  # atno 10765 bound_to 10752
  140.8333  133.7981  155.9781 H   0  0  0  0  0  0  0  0  0  0  0  0  # atno 11005 bound_to 11000
  145.1277  140.9499  143.4563 LP  0  0  0  0  0  0  0  0  0  0  0  0  # atno 17320 bound_to 7965
  145.0419  139.3253  143.5972 LP  0  0  0  0  0  0  0  0  0  0  0  0  # atno 17321 bound_to 7965
  139.8398  143.7578  152.3180 LP  0  0  0  0  0  0  0  0  0  0  0  0  # atno 17342 bound_to 10162
  139.7723  144.7472  151.0206 LP  0  0  0  0  0  0  0  0  0  0  0  0  # atno 17343 bound_to 10162
  156.5316  130.4186  149.6198 LP  0  0  0  0  0  0  0  0  0  0  0  0  # atno 17370 bound_to 10713
  156.3064  130.7205  151.2088 LP  0  0  0  0  0  0  0  0  0  0  0  0  # atno 17371 bound_to 10713
  140.8975  134.2420  157.5060 LP  0  0  0  0  0  0  0  0  0  0  0  0  # atno 17394 bound_to 11000
  139.8704  134.9691  156.4653 LP  0  0  0  0  0  0  0  0  0  0  0  0  # atno 17395 bound_to 11000

$$$$
