#       Name:                AV-unprocessed.smi:2173
#       Creating user name   scv26
#       Creation time:       Fri Mar 27 12:03:28 2020


#       File generated by GOLD software.
#

@<TRIPOS>MOLECULE
AV-unprocessed.smi:2173
    38    39     1
SMALL
NO_CHARGES


@<TRIPOS>ATOM
      1 ****         0.6545   2.2567  -0.3973 O.2            1 S1                 0.0000
      2 ****         0.2255   1.2021  -0.8656 C.2            1 S1                 0.0000
      3 ****         1.0224   0.2211  -1.3160 N.am           1 S1                 0.0000
      4 ****         2.4823   0.2439  -1.2968 C.3            1 S1                 0.0000
      5 ****         3.0849   0.1155   0.1191 C.3            1 S1                 0.0000
      6 ****         2.5093  -1.0305   0.9347 C.ar           1 S1                 0.0000
      7 ****         3.0554  -2.3314   0.8899 C.ar           1 S1                 0.0000
      8 ****         2.4604  -3.3548   1.6571 C.ar           1 S1                 0.0000
      9 ****         1.3327  -3.0573   2.4503 C.ar           1 S1                 0.0000
     10 ****         0.8289  -1.7408   2.4585 C.ar           1 S1                 0.0000
     11 ****         1.4276  -0.7883   1.7110 N.pl3          1 S1                 1.0000
     12 ****        -1.2844   0.9403  -0.9320 C.3            1 S1                 0.0000
     13 ****        -1.8809   0.7879   0.4862 C.3            1 S1                 0.0000
     14 ****        -3.3991   0.7782   0.4707 C.2            1 S1                 0.0000
     15 ****        -4.1298   1.1934  -0.5781 C.2            1 S1                 0.0000
     16 ****        -3.5205   1.7238  -1.8640 C.3            1 S1                 0.0000
     17 ****        -2.0219   2.0474  -1.7116 C.3            1 S1                 0.0000
     18 ****         0.5849  -0.6081  -1.6916 H              1 S1                 0.0000
     19 ****         2.8222  -0.5937  -1.9063 H              1 S1                 0.0000
     20 ****         2.8496   1.1476  -1.7852 H              1 S1                 0.0000
     21 ****         4.1658  -0.0092   0.0450 H              1 S1                 0.0000
     22 ****         2.9311   1.0449   0.6692 H              1 S1                 0.0000
     23 ****         3.9163  -2.5449   0.2730 H              1 S1                 0.0000
     24 ****         2.8629  -4.3570   1.6352 H              1 S1                 0.0000
     25 ****         0.8609  -3.8276   3.0429 H              1 S1                 0.0000
     26 ****        -0.0290  -1.4234   3.0330 H              1 S1                 0.0000
     27 ****        -1.4430   0.0021  -1.4676 H              1 S1                 0.0000
     28 ****        -1.5337  -0.1437   0.9343 H              1 S1                 0.0000
     29 ****        -1.5568   1.5967   1.1428 H              1 S1                 0.0000
     30 ****        -3.8938   0.4264   1.3643 H              1 S1                 0.0000
     31 ****        -5.2081   1.1485  -0.5325 H              1 S1                 0.0000
     32 ****        -3.6668   0.9730  -2.6409 H              1 S1                 0.0000
     33 ****        -4.0629   2.6160  -2.1780 H              1 S1                 0.0000
     34 ****        -1.9153   2.9973  -1.1851 H              1 S1                 0.0000
     35 ****        -1.5764   2.1907  -2.6971 H              1 S1                 0.0000
     36 ****         1.0443   0.1573   1.7281 H              1 S1                 0.0000
     37 ****         1.6404   2.4135  -0.3391 LP             1 S1                 0.0000
     38 ****         0.0171   2.9566  -0.0751 LP             1 S1                 0.0000
@<TRIPOS>BOND
    1    1    2 2     
    2    2    3 am    
    3    2   12 1     
    4    3    4 1     
    5    3   18 1     
    6    4    5 1     
    7    4   19 1     
    8    4   20 1     
    9    5    6 1     
   10    5   21 1     
   11    5   22 1     
   12    6   11 ar    
   13    6    7 ar    
   14    7    8 ar    
   15    7   23 1     
   16    8    9 ar    
   17    8   24 1     
   18    9   10 ar    
   19    9   25 1     
   20   10   11 ar    
   21   10   26 1     
   22   11   36 1     
   23   12   17 1     
   24   12   13 1     
   25   12   27 1     
   26   13   14 1     
   27   13   28 1     
   28   13   29 1     
   29   14   15 2     
   30   14   30 1     
   31   15   16 1     
   32   15   31 1     
   33   16   17 1     
   34   16   32 1     
   35   16   33 1     
   36   17   34 1     
   37   17   35 1     
   38    1   37 1     
   39    1   38 1     
@<TRIPOS>SUBSTRUCTURE
      1 S1             1
@<TRIPOS>SET
LONE_PAIRS      STATIC     ATOMS    <user>   **** ""
2 37 38
DONOR_HYDROGENS      STATIC     ATOMS    <user>   **** ""
2 18 36
ATOM$BLUE        STATIC     ATOMS    COLORGROUP SYSTEM
2 37 38
ATOM$RED        STATIC     ATOMS    COLORGROUP SYSTEM
2 18 36
