AV-unprocessed.smi:1830|AV-procd|sdf|7448|dock8
  -GOLD-   22720 9133D 1   1.00000     0.00000
 Structure written by MMmdl.
 54 57  0  0  0  0  0  0  0  0  3 V2000
  150.2140  137.7051  158.9085 O   0  0  0  0  0  0  0  0  0  0  0  0
  149.1780  138.0143  158.3214 C   0  0  0  0  0  0  0  0  0  0  0  0
  148.1645  137.1629  158.1204 N   0  0  0  0  0  0  0  0  0  0  0  0
  148.1617  135.7729  158.5619 C   0  0  0  0  0  0  0  0  0  0  0  0
  148.1040  135.6547  160.0945 C   0  0  2  0  0  0  0  0  0  0  0  0
  147.5552  134.3038  160.5897 C   0  0  0  0  0  0  0  0  0  0  0  0
  147.5113  134.2496  162.0729 N   0  3  2  0  0  0  0  0  0  0  0  0
  146.7205  133.1019  162.5690 C   0  0  0  0  0  0  0  0  0  0  0  0
  145.3096  133.6385  162.8741 C   0  0  0  0  0  0  0  0  0  0  0  0
  145.3853  135.1546  162.6577 C   0  0  0  0  0  0  0  0  0  0  0  0
  146.8859  135.4463  162.6778 C   0  0  2  0  0  0  0  0  0  0  0  0
  147.3271  136.7687  162.0175 C   0  0  0  0  0  0  0  0  0  0  0  0
  147.2657  136.6858  160.6004 O   0  0  0  0  0  0  0  0  0  0  0  0
  148.9021  139.2285  157.8167 N   0  0  0  0  0  0  0  0  0  0  0  0
  149.7015  140.4074  157.8558 C   0  0  0  0  0  0  0  0  0  0  0  0
  150.9328  140.4811  158.5573 C   0  0  0  0  0  0  0  0  0  0  0  0
  151.6768  141.6777  158.5400 C   0  0  0  0  0  0  0  0  0  0  0  0
  151.1864  142.7791  157.8151 C   0  0  0  0  0  0  0  0  0  0  0  0
  150.0208  142.6721  157.1437 N   0  3  0  0  0  0  0  0  0  0  0  0
  149.2671  141.5451  157.1286 C   0  0  0  0  0  0  0  0  0  0  0  0
  148.0719  141.5361  156.3887 N   0  0  0  0  0  0  0  0  0  0  0  0
  147.0338  142.4390  156.8573 C   0  0  0  0  0  0  0  0  0  0  0  0
  146.0282  142.5313  155.7072 C   0  0  0  0  0  0  0  0  0  0  0  0
  146.8227  142.1349  154.4566 C   0  0  0  0  0  0  0  0  0  0  0  0
  148.2272  141.8029  154.9684 C   0  0  0  0  0  0  0  0  0  0  0  0
  147.3398  137.4954  157.6424 H   0  0  0  0  0  0  0  0  0  0  0  0
  147.3051  135.2578  158.1243 H   0  0  0  0  0  0  0  0  0  0  0  0
  149.0567  135.2753  158.1856 H   0  0  0  0  0  0  0  0  0  0  0  0
  149.1170  135.7966  160.4756 H   0  0  0  0  0  0  0  0  0  0  0  0
  146.5514  134.1431  160.1933 H   0  0  0  0  0  0  0  0  0  0  0  0
  148.1741  133.4850  160.2210 H   0  0  0  0  0  0  0  0  0  0  0  0
  146.7087  132.2658  161.8678 H   0  0  0  0  0  0  0  0  0  0  0  0
  147.1814  132.7432  163.4900 H   0  0  0  0  0  0  0  0  0  0  0  0
  144.5591  133.1904  162.2222 H   0  0  0  0  0  0  0  0  0  0  0  0
  145.0320  133.4059  163.9030 H   0  0  0  0  0  0  0  0  0  0  0  0
  144.9629  135.4116  161.6852 H   0  0  0  0  0  0  0  0  0  0  0  0
  144.8388  135.7159  163.4164 H   0  0  0  0  0  0  0  0  0  0  0  0
  147.1958  135.4730  163.7241 H   0  0  0  0  0  0  0  0  0  0  0  0
  146.6953  137.5899  162.3567 H   0  0  0  0  0  0  0  0  0  0  0  0
  148.3459  137.0180  162.3187 H   0  0  0  0  0  0  0  0  0  0  0  0
  147.9753  139.3481  157.4346 H   0  0  0  0  0  0  0  0  0  0  0  0
  151.3312  139.6377  159.0992 H   0  0  0  0  0  0  0  0  0  0  0  0
  152.6142  141.7467  159.0726 H   0  0  0  0  0  0  0  0  0  0  0  0
  151.6904  143.7323  157.7459 H   0  0  0  0  0  0  0  0  0  0  0  0
  146.5676  142.0628  157.7685 H   0  0  0  0  0  0  0  0  0  0  0  0
  147.4476  143.4251  157.0724 H   0  0  0  0  0  0  0  0  0  0  0  0
  145.2088  141.8284  155.8636 H   0  0  0  0  0  0  0  0  0  0  0  0
  145.5979  143.5300  155.6277 H   0  0  0  0  0  0  0  0  0  0  0  0
  146.3696  141.2595  153.9898 H   0  0  0  0  0  0  0  0  0  0  0  0
  146.8481  142.9317  153.7127 H   0  0  0  0  0  0  0  0  0  0  0  0
  148.8941  142.6514  154.8090 H   0  0  0  0  0  0  0  0  0  0  0  0
  148.6496  140.9407  154.4514 H   0  0  0  0  0  0  0  0  0  0  0  0
  148.4634  134.1741  162.4027 H   0  0  0  0  0  0  0  0  0  0  0  0
  149.6909  143.4824  156.6192 H   0  0  0  0  0  0  0  0  0  0  0  0
  1  2  2  0  0  0  0
  2  3  1  0  0  0  0
  2 14  1  0  0  0  0
  3  4  1  0  0  0  0
  3 26  1  0  0  0  0
  4  5  1  0  0  0  0
  4 27  1  0  0  0  0
  4 28  1  0  0  0  0
  5 13  1  0  0  0  0
  5  6  1  0  0  0  0
  5 29  1  0  0  0  0
  6  7  1  0  0  0  0
  6 30  1  0  0  0  0
  6 31  1  0  0  0  0
  7 11  1  0  0  0  0
  7  8  1  0  0  0  0
  7 53  1  0  0  0  0
  8  9  1  0  0  0  0
  8 32  1  0  0  0  0
  8 33  1  0  0  0  0
  9 10  1  0  0  0  0
  9 34  1  0  0  0  0
  9 35  1  0  0  0  0
 10 11  1  0  0  0  0
 10 36  1  0  0  0  0
 10 37  1  0  0  0  0
 11 12  1  0  0  0  0
 11 38  1  0  0  0  0
 12 13  1  0  0  0  0
 12 39  1  0  0  0  0
 12 40  1  0  0  0  0
 14 15  1  0  0  0  0
 14 41  1  0  0  0  0
 15 20  1  0  0  0  0
 15 16  2  0  0  0  0
 16 17  1  0  0  0  0
 16 42  1  0  0  0  0
 17 18  2  0  0  0  0
 17 43  1  0  0  0  0
 18 19  1  0  0  0  0
 18 44  1  0  0  0  0
 19 20  2  0  0  0  0
 19 54  1  0  0  0  0
 20 21  1  0  0  0  0
 21 25  1  0  0  0  0
 21 22  1  0  0  0  0
 22 23  1  0  0  0  0
 22 45  1  0  0  0  0
 22 46  1  0  0  0  0
 23 24  1  0  0  0  0
 23 47  1  0  0  0  0
 23 48  1  0  0  0  0
 24 25  1  0  0  0  0
 24 49  1  0  0  0  0
 24 50  1  0  0  0  0
 25 51  1  0  0  0  0
 25 52  1  0  0  0  0
M  CHG  1   7   1
M  CHG  1  19   1
M  END
> <s_m_source_file>
AV-unprocessed.smi

> <i_m_source_file_index>
1830

> <i_lp_mmshare_version>
43012

> <i_f3d_flags>
0

> <s_epik_input>
W0NIMl0xW0NIMl1bQ0gyXVtDQEhdKE4xMilbQ0gyXU9bQ0BASF0oW0NIMl0yKVtDSDJdW05IXUMoPU8pW05IXWMzW2NIXVtjSF1bY0hdbmMzTjRbQ0gyXVtDSDJdW0NIMl1bQ0gyXTQ=

> <s_epik_cmdline>
J2VwaWtfcHl0aG9uJywgJy1waCcsICc3LjAnLCAnLXRuJywgJzgnLCAnLW1hJywgJzIwMCcsICctbWV0YWxfYmluZGluZycsICctaW1hZScsICc8aW5maWxlLm1hZT4nLCAnLW9tYWUnLCAnPG91dGZpbGUubWFlPic=

> <r_lp_tautomer_probability>
0.999994

> <r_epik_Ionization_Penalty>
1.29113

> <r_epik_Ionization_Penalty_Charging>
1.29111

> <r_epik_Ionization_Penalty_Neutral>
1.88144e-05

> <r_epik_State_Penalty>
1.32676

> <r_epik_Charging_Adjusted_Penalty>
2.61787

> <i_epik_Tot_Q>
2

> <i_epik_Tot_abs_Q>
2

> <r_epik_Metal_State_Penalty>
1.40425

> <b_epik_Metal_Only>
0

> <s_lp_Force_Field>
OPLS_2005

> <r_lp_Energy>
77.5794

> <b_lp_Chiralities_Consistent>
1

> <s_lp_Variant>
AV-unprocessed.smi:1830-17

> <Gold.Version>
5.8.1

> <Gold.Id.Protein>
6NUR|6NUR_protein|mol2

> <Gold.PLP.Fitness>
44.3252

> <Gold.PLP.PLP>
-38.9080

> <Gold.PLP.part.hbond>
-1.2116

> <Gold.PLP.part.metal>
0.0000

> <Gold.PLP.part.buried>
-5.1064

> <Gold.PLP.part.nonpolar>
-32.2595

> <Gold.PLP.part.repulsive>
0.4029

> <Gold.PLP.ligand.clash>
0.0000

> <Gold.PLP.ligand.torsion>
0.3074

> <Gold.PLP.Chemscore.Hbond>
2.0000

> <Gold.PLP.Chemscore.CHOScore>
0.0000

> <Gold.PLP.Chemscore.Metal>
0.0000

> <Gold.Chemscore.Hbonds>
donor molecule, donor type, donor heavy atom, donor atom, acceptor molecule, acceptor atom, score
      L1  H    19    54       P1  8028  2.00

> <Gold.PLP.Chemscore.Internal.Correction>
0.0320

> <Gold.Rescore>
     Score         DG    S(hbond)    S(metal)    S(lipo)     H(rot)  DE(clash)    DE(int)     intcor
     15.34     -16.90       1.00        0.00     100.39       1.43       0.01       1.56       ----

> <Gold.Chemscore.Fitness>
15.3355

> <Gold.Chemscore.DG>
-16.9037

> <Gold.Chemscore.ZeroCoef>
-5.4800

> <Gold.Chemscore.Hbond>
0.9978

> <Gold.Chemscore.Metal>
0.0000

> <Gold.Chemscore.Lipo>
100.3934

> <Gold.Chemscore.Internal_Hbond>
0.0000

> <Gold.Chemscore.DEClash>
0.0066

> <Gold.Chemscore.DEInternal>
1.5616

> <Gold.Chemscore.Rot>
1.4278

> <Gold.Chemscore.Internal.Correction>
   9.000000E+99

> <Gold.Chemscore.Hbonds>
donor molecule, donor type, donor heavy atom, donor atom, acceptor molecule, acceptor atom, score
      L1  H    19    54       P1  8028  1.00

> <Gold.Chemscore.Hbond.Weighted>
-3.3327

> <Gold.Chemscore.Metal.Weighted>
-0.0000

> <Gold.Chemscore.Lipo.Weighted>
-11.7460

> <Gold.Chemscore.Internal_Hbond.Weighted>
0.0000

> <Gold.Chemscore.DEClash.Weighted>
0.0066

> <Gold.Chemscore.DEInternal.Weighted>
1.5616

> <Gold.Chemscore.Rot.Weighted>
3.6551

> <Gold.Chemscore.Internal.Correction.Weighted>
   9.000000E+99

> <Gold.Protein.RotatedTorsions>
[ 6907 6896 6895 6894 ] final   70.01 input  -60.11 | X-H torsion
[ 7974 7965 7964 7962 ] final    7.31 input  175.53 | X-H torsion
[ 8008 7997 7996 7995 ] final -163.95 input   59.86 | X-H torsion
[ 10167 10162 10161 10158 ] final -120.20 input  -65.29 | X-H torsion
[ 10718 10713 10712 10709 ] final  -49.83 input   66.30 | X-H torsion
[ 10763 10752 10751 10750 ] final  129.06 input  -60.55 | X-H torsion
[ 11005 11000 10999 10996 ] final  129.49 input  -57.11 | X-H torsion

> <Gold.Protein.ActiveResidues>
 VAL166  LYS551  ARG553  GLY616  TRP617  ASP618  TYR619  PRO620  LYS621  CYS622 
 ASP623  PHE694  ASN695  SER759  ASP760  ASP761  ALA762  ILE779  LEU786  VAL792 
 PHE793  MET794  SER795  GLU796  ALA797  LYS798  CYS799  TRP800  GLU811  SER814 

> <Gold.Protein.RotatedAtoms>
  152.4722  134.4932  159.9701 H   0  0  0  0  0  0  0  0  0  0  0  0  # atno 6907 bound_to 6896
  151.4956  133.3509  159.2868 H   0  0  0  0  0  0  0  0  0  0  0  0  # atno 6908 bound_to 6896
  150.8739  134.8145  159.7237 H   0  0  0  0  0  0  0  0  0  0  0  0  # atno 6909 bound_to 6896
  146.2428  140.0103  142.8407 H   0  0  0  0  0  0  0  0  0  0  0  0  # atno 7974 bound_to 7965
  155.8286  140.0930  157.1806 H   0  0  0  0  0  0  0  0  0  0  0  0  # atno 8008 bound_to 7997
  154.3979  140.1423  156.3647 H   0  0  0  0  0  0  0  0  0  0  0  0  # atno 8009 bound_to 7997
  155.8190  140.3447  155.5505 H   0  0  0  0  0  0  0  0  0  0  0  0  # atno 8010 bound_to 7997
  140.0384  143.5178  152.2142 H   0  0  0  0  0  0  0  0  0  0  0  0  # atno 10167 bound_to 10162
  156.1857  130.4151  149.9443 H   0  0  0  0  0  0  0  0  0  0  0  0  # atno 10718 bound_to 10713
  153.7356  135.3232  155.3294 H   0  0  0  0  0  0  0  0  0  0  0  0  # atno 10763 bound_to 10752
  154.8312  135.4532  154.1078 H   0  0  0  0  0  0  0  0  0  0  0  0  # atno 10764 bound_to 10752
  153.2238  135.6951  153.8051 H   0  0  0  0  0  0  0  0  0  0  0  0  # atno 10765 bound_to 10752
  139.9618  134.9600  156.9156 H   0  0  0  0  0  0  0  0  0  0  0  0  # atno 11005 bound_to 11000
  145.1334  140.9531  143.4531 LP  0  0  0  0  0  0  0  0  0  0  0  0  # atno 17320 bound_to 7965
  145.0365  139.3296  143.5998 LP  0  0  0  0  0  0  0  0  0  0  0  0  # atno 17321 bound_to 7965
  139.6030  144.7588  151.3127 LP  0  0  0  0  0  0  0  0  0  0  0  0  # atno 17342 bound_to 10162
  140.7271  143.6972  150.7874 LP  0  0  0  0  0  0  0  0  0  0  0  0  # atno 17343 bound_to 10162
  156.7199  130.9003  151.3617 LP  0  0  0  0  0  0  0  0  0  0  0  0  # atno 17370 bound_to 10713
  157.6897  130.9221  150.0481 LP  0  0  0  0  0  0  0  0  0  0  0  0  # atno 17371 bound_to 10713
  140.5483  134.0652  155.7361 LP  0  0  0  0  0  0  0  0  0  0  0  0  # atno 17394 bound_to 11000
  141.1296  133.9325  157.2563 LP  0  0  0  0  0  0  0  0  0  0  0  0  # atno 17395 bound_to 11000

$$$$
