AV-unprocessed.smi:235|AV-procd|sdf|1801|dock6
  -GOLD-   2262020373D 1   1.00000     0.00000
 Structure written by MMmdl.
 54 58  0  0  0  0  0  0  0  0  1 V2000
  150.4033  139.6474  154.1203 O   0  0  0  0  0  0  0  0  0  0  0  0
  149.6416  140.3881  154.7433 C   0  0  0  0  0  0  0  0  0  0  0  0
  149.9764  140.9972  155.8897 N   0  0  0  0  0  0  0  0  0  0  0  0
  151.2395  140.8973  156.5455 C   0  0  0  0  0  0  0  0  0  0  0  0
  151.2787  140.2048  157.8907 C   0  0  0  0  0  0  0  0  0  0  0  0
  151.4355  141.6986  157.8145 C   0  0  0  0  0  0  0  0  0  0  0  0
  148.2165  140.6514  154.2357 C   0  0  2  0  0  0  0  0  0  0  0  0
  147.9178  142.1504  154.1086 C   0  0  0  0  0  0  0  0  0  0  0  0
  146.3971  142.2010  154.1894 C   0  0  0  0  0  0  0  0  0  0  0  0
  146.0662  141.0943  155.1909 C   0  0  0  0  0  0  0  0  0  0  0  0
  147.1931  140.1662  155.1644 N   0  0  0  0  0  0  0  0  0  0  0  0
  146.8694  138.8589  155.0535 C   0  0  0  0  0  0  0  0  0  0  0  0
  146.9390  138.1049  156.1774 N   0  0  0  0  0  0  0  0  0  0  0  0
  146.6334  136.8046  156.1283 C   0  0  0  0  0  0  0  0  0  0  0  0
  146.2437  136.0765  155.0789 N   0  0  0  0  0  0  0  0  0  0  0  0
  146.1729  136.8359  153.9482 C   0  0  0  0  0  0  0  0  0  0  0  0
  146.4639  138.2245  153.8458 C   0  0  0  0  0  0  0  0  0  0  0  0
  146.2770  138.6548  152.5372 N   0  0  0  0  0  0  0  0  0  0  0  0
  145.9002  137.5792  151.9008 C   0  0  0  0  0  0  0  0  0  0  0  0
  145.8088  136.4432  152.6735 N   0  0  0  0  0  0  0  0  0  0  0  0
  145.4099  135.1191  152.2328 C   0  0  0  0  0  0  0  0  0  0  0  0
  145.2417  135.0293  150.7028 C   0  0  2  0  0  0  0  0  0  0  0  0
  144.0709  135.7254  150.3248 O   0  0  0  0  0  0  0  0  0  0  0  0
  145.2180  133.5881  150.1449 C   0  0  2  0  0  0  0  0  0  0  0  0
  143.8794  132.8387  150.2630 C   0  0  0  0  0  0  0  0  0  0  0  0
  144.2322  131.5968  151.0623 C   0  0  0  0  0  0  0  0  0  0  0  0
  145.7244  131.4414  150.7996 C   0  0  0  0  0  0  0  0  0  0  0  0
  146.1885  132.7807  150.8054 O   0  0  0  0  0  0  0  0  0  0  0  0
  149.2814  141.5807  156.3322 H   0  0  0  0  0  0  0  0  0  0  0  0
  152.1210  140.7722  155.9180 H   0  0  0  0  0  0  0  0  0  0  0  0
  150.3440  139.8185  158.2927 H   0  0  0  0  0  0  0  0  0  0  0  0
  152.1643  139.6184  158.1273 H   0  0  0  0  0  0  0  0  0  0  0  0
  152.4258  142.1102  157.9987 H   0  0  0  0  0  0  0  0  0  0  0  0
  150.6054  142.3098  158.1643 H   0  0  0  0  0  0  0  0  0  0  0  0
  148.0896  140.1813  153.2587 H   0  0  0  0  0  0  0  0  0  0  0  0
  148.3489  142.7100  154.9409 H   0  0  0  0  0  0  0  0  0  0  0  0
  148.2998  142.5780  153.1811 H   0  0  0  0  0  0  0  0  0  0  0  0
  146.0157  143.1768  154.4913 H   0  0  0  0  0  0  0  0  0  0  0  0
  145.9701  141.9571  153.2156 H   0  0  0  0  0  0  0  0  0  0  0  0
  145.9985  141.5069  156.1980 H   0  0  0  0  0  0  0  0  0  0  0  0
  145.1056  140.6277  154.9658 H   0  0  0  0  0  0  0  0  0  0  0  0
  146.7127  136.2710  157.0640 H   0  0  0  0  0  0  0  0  0  0  0  0
  145.6694  137.5861  150.8453 H   0  0  0  0  0  0  0  0  0  0  0  0
  146.1577  134.4029  152.5764 H   0  0  0  0  0  0  0  0  0  0  0  0
  144.4765  134.8576  152.7329 H   0  0  0  0  0  0  0  0  0  0  0  0
  146.0752  135.5542  150.2346 H   0  0  0  0  0  0  0  0  0  0  0  0
  144.3050  136.6217  150.1381 H   0  0  0  0  0  0  0  0  0  0  0  0
  145.4924  133.6116  149.0890 H   0  0  0  0  0  0  0  0  0  0  0  0
  143.0898  133.4189  150.7410 H   0  0  0  0  0  0  0  0  0  0  0  0
  143.5231  132.5603  149.2705 H   0  0  0  0  0  0  0  0  0  0  0  0
  144.0627  131.7790  152.1243 H   0  0  0  0  0  0  0  0  0  0  0  0
  143.6536  130.7201  150.7705 H   0  0  0  0  0  0  0  0  0  0  0  0
  146.2268  130.8376  151.5555 H   0  0  0  0  0  0  0  0  0  0  0  0
  145.9050  130.9948  149.8207 H   0  0  0  0  0  0  0  0  0  0  0  0
  1  2  2  0  0  0  0
  2  3  1  0  0  0  0
  2  7  1  0  0  0  0
  3  4  1  0  0  0  0
  3 29  1  0  0  0  0
  4  6  1  0  0  0  0
  4  5  1  0  0  0  0
  4 30  1  0  0  0  0
  5  6  1  0  0  0  0
  5 31  1  0  0  0  0
  5 32  1  0  0  0  0
  6 33  1  0  0  0  0
  6 34  1  0  0  0  0
  7 11  1  0  0  0  0
  7  8  1  0  0  0  0
  7 35  1  0  0  0  0
  8  9  1  0  0  0  0
  8 36  1  0  0  0  0
  8 37  1  0  0  0  0
  9 10  1  0  0  0  0
  9 38  1  0  0  0  0
  9 39  1  0  0  0  0
 10 11  1  0  0  0  0
 10 40  1  0  0  0  0
 10 41  1  0  0  0  0
 11 12  1  0  0  0  0
 12 17  1  0  0  0  0
 12 13  2  0  0  0  0
 13 14  1  0  0  0  0
 14 15  2  0  0  0  0
 14 42  1  0  0  0  0
 15 16  1  0  0  0  0
 16 20  1  0  0  0  0
 16 17  2  0  0  0  0
 17 18  1  0  0  0  0
 18 19  2  0  0  0  0
 19 20  1  0  0  0  0
 19 43  1  0  0  0  0
 20 21  1  0  0  0  0
 21 22  1  0  0  0  0
 21 44  1  0  0  0  0
 21 45  1  0  0  0  0
 22 23  1  0  0  0  0
 22 24  1  0  0  0  0
 22 46  1  0  0  0  0
 23 47  1  0  0  0  0
 24 28  1  0  0  0  0
 24 25  1  0  0  0  0
 24 48  1  0  0  0  0
 25 26  1  0  0  0  0
 25 49  1  0  0  0  0
 25 50  1  0  0  0  0
 26 27  1  0  0  0  0
 26 51  1  0  0  0  0
 26 52  1  0  0  0  0
 27 28  1  0  0  0  0
 27 53  1  0  0  0  0
 27 54  1  0  0  0  0
M  END
> <s_m_source_file>
AV-unprocessed.smi

> <i_m_source_file_index>
235

> <i_lp_mmshare_version>
43012

> <i_f3d_flags>
0

> <s_epik_input>
W0NIMl0xW0NIMl1bQ0hdMVtOSF1DKD1PKVtDQEBIXTJbQ0gyXVtDSDJdW0NIMl1OMmMobltjSF1uMyljKGMzNCluW2NIXW40W0NIMl1bQ0BIXShbT0hdKVtDQEBIXTVbQ0gyXVtDSDJdW0NIMl1PNQ==

> <s_epik_cmdline>
J2VwaWtfcHl0aG9uJywgJy1waCcsICc3LjAnLCAnLXRuJywgJzgnLCAnLW1hJywgJzIwMCcsICctbWV0YWxfYmluZGluZycsICctaW1hZScsICc8aW5maWxlLm1hZT4nLCAnLW9tYWUnLCAnPG91dGZpbGUubWFlPic=

> <r_lp_tautomer_probability>
1

> <r_epik_Ionization_Penalty>
0.000526714

> <r_epik_Ionization_Penalty_Charging>
0

> <r_epik_Ionization_Penalty_Neutral>
0.000526714

> <r_epik_State_Penalty>
0.000272704

> <r_epik_Charging_Adjusted_Penalty>
0.000272704

> <i_epik_Tot_Q>
0

> <i_epik_Tot_abs_Q>
0

> <r_epik_Metal_State_Penalty>
-0

> <b_epik_Metal_Only>
0

> <s_lp_Force_Field>
OPLS_2005

> <r_lp_Energy>
63.4887

> <b_lp_Chiralities_Consistent>
1

> <s_lp_Variant>
AV-unprocessed.smi:235-1

> <Gold.Version>
5.8.1

> <Gold.Id.Protein>
6NUR|6NUR_protein|mol2

> <Gold.PLP.Fitness>
46.0440

> <Gold.PLP.PLP>
-38.6773

> <Gold.PLP.part.hbond>
-2.0000

> <Gold.PLP.part.metal>
0.0000

> <Gold.PLP.part.buried>
-1.8187

> <Gold.PLP.part.nonpolar>
-35.1942

> <Gold.PLP.part.repulsive>
1.1354

> <Gold.PLP.ligand.clash>
0.0000

> <Gold.PLP.ligand.torsion>
0.8010

> <Gold.PLP.Chemscore.Hbond>
1.9425

> <Gold.PLP.Chemscore.CHOScore>
0.9643

> <Gold.PLP.Chemscore.Metal>
0.0000

> <Gold.Chemscore.Hbonds>
donor molecule, donor type, donor heavy atom, donor atom, acceptor molecule, acceptor atom, score
      L1  H    23    47       P1 10171  1.00
      P1  H  7989  7998       L1     1  1.00
      L1  C    19    43       P1 10171  0.96

> <Gold.PLP.Chemscore.Internal.Correction>
0.2484

> <Gold.Rescore>
     Score         DG    S(hbond)    S(metal)    S(lipo)     H(rot)  DE(clash)    DE(int)     intcor
     12.09     -13.90       1.77        0.00      86.98       3.00       0.80       1.01       ----

> <Gold.Chemscore.Fitness>
12.0922

> <Gold.Chemscore.DG>
-13.9028

> <Gold.Chemscore.ZeroCoef>
-5.4800

> <Gold.Chemscore.Hbond>
1.7735

> <Gold.Chemscore.Metal>
0.0000

> <Gold.Chemscore.Lipo>
86.9775

> <Gold.Chemscore.Internal_Hbond>
0.0000

> <Gold.Chemscore.DEClash>
0.8033

> <Gold.Chemscore.DEInternal>
1.0073

> <Gold.Chemscore.Rot>
2.9989

> <Gold.Chemscore.Internal.Correction>
   9.000000E+99

> <Gold.Chemscore.Hbonds>
donor molecule, donor type, donor heavy atom, donor atom, acceptor molecule, acceptor atom, score
      L1  H    23    47       P1 10171  0.92
      P1  H  7989  7998       L1     1  0.30

> <Gold.Chemscore.Hbond.Weighted>
-5.9236

> <Gold.Chemscore.Metal.Weighted>
-0.0000

> <Gold.Chemscore.Lipo.Weighted>
-10.1764

> <Gold.Chemscore.Internal_Hbond.Weighted>
0.0000

> <Gold.Chemscore.DEClash.Weighted>
0.8033

> <Gold.Chemscore.DEInternal.Weighted>
1.0073

> <Gold.Chemscore.Rot.Weighted>
7.6772

> <Gold.Chemscore.Internal.Correction.Weighted>
   9.000000E+99

> <Gold.Protein.RotatedTorsions>
[ 6907 6896 6895 6894 ] final  -85.67 input  -60.11 | X-H torsion
[ 7974 7965 7964 7962 ] final   39.32 input  175.53 | X-H torsion
[ 8008 7997 7996 7995 ] final   99.45 input   59.86 | X-H torsion
[ 10167 10162 10161 10158 ] final   55.30 input  -65.29 | X-H torsion
[ 10718 10713 10712 10709 ] final  164.82 input   66.30 | X-H torsion
[ 10763 10752 10751 10750 ] final  127.43 input  -60.55 | X-H torsion
[ 11005 11000 10999 10996 ] final   40.45 input  -57.11 | X-H torsion

> <Gold.Protein.ActiveResidues>
 VAL166  LYS551  ARG553  GLY616  TRP617  ASP618  TYR619  PRO620  LYS621  CYS622 
 ASP623  PHE694  ASN695  SER759  ASP760  ASP761  ALA762  ILE779  LEU786  VAL792 
 PHE793  MET794  SER795  GLU796  ALA797  LYS798  CYS799  TRP800  GLU811  SER814 

> <Gold.Protein.RotatedAtoms>
  150.6869  134.3168  159.4769 H   0  0  0  0  0  0  0  0  0  0  0  0  # atno 6907 bound_to 6896
  152.1048  134.9313  160.0577 H   0  0  0  0  0  0  0  0  0  0  0  0  # atno 6908 bound_to 6896
  152.0579  133.4014  159.4442 H   0  0  0  0  0  0  0  0  0  0  0  0  # atno 6909 bound_to 6896
  146.0994  139.5666  142.9424 H   0  0  0  0  0  0  0  0  0  0  0  0  # atno 7974 bound_to 7965
  156.1106  140.3228  155.8068 H   0  0  0  0  0  0  0  0  0  0  0  0  # atno 8008 bound_to 7997
  155.4678  140.0544  157.3000 H   0  0  0  0  0  0  0  0  0  0  0  0  # atno 8009 bound_to 7997
  154.4758  140.2031  155.9897 H   0  0  0  0  0  0  0  0  0  0  0  0  # atno 8010 bound_to 7997
  140.2209  144.3790  150.6451 H   0  0  0  0  0  0  0  0  0  0  0  0  # atno 10167 bound_to 10162
  157.0890  131.0412  151.2545 H   0  0  0  0  0  0  0  0  0  0  0  0  # atno 10718 bound_to 10713
  153.7093  135.3271  155.3242 H   0  0  0  0  0  0  0  0  0  0  0  0  # atno 10763 bound_to 10752
  154.8390  135.4473  154.1331 H   0  0  0  0  0  0  0  0  0  0  0  0  # atno 10764 bound_to 10752
  153.2420  135.6972  153.7852 H   0  0  0  0  0  0  0  0  0  0  0  0  # atno 10765 bound_to 10752
  140.1929  134.3964  155.8137 H   0  0  0  0  0  0  0  0  0  0  0  0  # atno 11005 bound_to 11000
  145.5885  141.0373  143.2083 LP  0  0  0  0  0  0  0  0  0  0  0  0  # atno 17320 bound_to 7965
  144.7420  139.7422  143.7307 LP  0  0  0  0  0  0  0  0  0  0  0  0  # atno 17321 bound_to 7965
  140.6256  143.2181  151.6604 LP  0  0  0  0  0  0  0  0  0  0  0  0  # atno 17342 bound_to 10162
  139.5145  144.3410  152.0740 LP  0  0  0  0  0  0  0  0  0  0  0  0  # atno 17343 bound_to 10162
  157.4737  130.7724  149.7348 LP  0  0  0  0  0  0  0  0  0  0  0  0  # atno 17370 bound_to 10713
  155.9903  130.3945  150.3034 LP  0  0  0  0  0  0  0  0  0  0  0  0  # atno 17371 bound_to 10713
  141.2226  133.7055  156.8126 LP  0  0  0  0  0  0  0  0  0  0  0  0  # atno 17394 bound_to 11000
  140.2139  134.8807  157.3305 LP  0  0  0  0  0  0  0  0  0  0  0  0  # atno 17395 bound_to 11000

$$$$
