AV-unprocessed.smi:3251|AV-procd|sdf|12435|dock3
  -GOLD-   2272018323D 1   1.00000     0.00000
 Structure written by MMmdl.
 41 42  0  0  0  0  0  0  0  0  2 V2000
  147.9628  140.2835  153.2082 C   0  0  0  0  0  0  0  0  0  0  0  0
  149.0746  140.4497  154.2037 C   0  0  0  0  0  0  0  0  0  0  0  0
  150.4106  140.8779  153.9599 C   0  0  0  0  0  0  0  0  0  0  0  0
  151.1481  140.9115  155.0580 N   0  0  0  0  0  0  0  0  0  0  0  0
  150.3115  140.5094  156.0382 N   0  0  0  0  0  0  0  0  0  0  0  0
  150.7961  140.4013  157.4025 C   0  0  0  0  0  0  0  0  0  0  0  0
  150.3538  141.5984  158.2575 C   0  0  0  0  0  0  0  0  0  0  0  0
  150.8440  142.8739  157.6901 N   0  3  0  0  0  0  0  0  0  0  0  0
  151.4812  143.7938  158.6588 C   0  0  2  0  0  0  0  0  0  0  0  0
  151.7907  145.1286  157.9623 C   0  0  0  0  0  0  0  0  0  0  0  0
  152.7771  143.1877  159.2356 C   0  0  0  0  0  0  0  0  0  0  0  0
  153.5930  142.6834  158.4618 O   0  0  0  0  0  0  0  0  0  0  0  0
  152.9930  143.2327  160.5680 N   0  0  0  0  0  0  0  0  0  0  0  0
  152.1012  143.8113  161.5733 C   0  0  0  0  0  0  0  0  0  0  0  0
  152.9077  143.8462  162.8714 C   0  0  0  0  0  0  0  0  0  0  0  0
  153.9279  142.7293  162.7062 C   0  0  0  0  0  0  0  0  0  0  0  0
  154.1926  142.6866  161.2013 C   0  0  0  0  0  0  0  0  0  0  0  0
  149.0536  140.2249  155.5510 C   0  0  0  0  0  0  0  0  0  0  0  0
  148.1565  140.8358  152.2883 H   0  0  0  0  0  0  0  0  0  0  0  0
  147.0114  140.6411  153.6023 H   0  0  0  0  0  0  0  0  0  0  0  0
  147.8246  139.2378  152.9327 H   0  0  0  0  0  0  0  0  0  0  0  0
  150.8639  141.1619  153.0214 H   0  0  0  0  0  0  0  0  0  0  0  0
  150.4487  139.4616  157.8353 H   0  0  0  0  0  0  0  0  0  0  0  0
  151.8850  140.3486  157.3728 H   0  0  0  0  0  0  0  0  0  0  0  0
  149.2656  141.6365  158.3150 H   0  0  0  0  0  0  0  0  0  0  0  0
  150.7200  141.4688  159.2769 H   0  0  0  0  0  0  0  0  0  0  0  0
  151.5216  142.6654  156.9693 H   0  0  0  0  0  0  0  0  0  0  0  0
  150.7573  143.9775  159.4530 H   0  0  0  0  0  0  0  0  0  0  0  0
  152.2464  145.8446  158.6466 H   0  0  0  0  0  0  0  0  0  0  0  0
  150.8804  145.5862  157.5738 H   0  0  0  0  0  0  0  0  0  0  0  0
  152.4754  144.9932  157.1237 H   0  0  0  0  0  0  0  0  0  0  0  0
  151.7556  144.8098  161.3048 H   0  0  0  0  0  0  0  0  0  0  0  0
  151.2285  143.1666  161.6876 H   0  0  0  0  0  0  0  0  0  0  0  0
  153.4259  144.8027  162.9540 H   0  0  0  0  0  0  0  0  0  0  0  0
  152.2868  143.7252  163.7597 H   0  0  0  0  0  0  0  0  0  0  0  0
  154.8340  142.8932  163.2905 H   0  0  0  0  0  0  0  0  0  0  0  0
  153.4895  141.7837  163.0280 H   0  0  0  0  0  0  0  0  0  0  0  0
  154.4077  141.6704  160.8670 H   0  0  0  0  0  0  0  0  0  0  0  0
  155.0469  143.3155  160.9455 H   0  0  0  0  0  0  0  0  0  0  0  0
  148.2564  139.8842  156.1955 H   0  0  0  0  0  0  0  0  0  0  0  0
  150.0590  143.3451  157.2644 H   0  0  0  0  0  0  0  0  0  0  0  0
  1  2  1  0  0  0  0
  1 19  1  0  0  0  0
  1 20  1  0  0  0  0
  1 21  1  0  0  0  0
  2 18  2  0  0  0  0
  2  3  1  0  0  0  0
  3  4  2  0  0  0  0
  3 22  1  0  0  0  0
  4  5  1  0  0  0  0
  5  6  1  0  0  0  0
  5 18  1  0  0  0  0
  6  7  1  0  0  0  0
  6 23  1  0  0  0  0
  6 24  1  0  0  0  0
  7  8  1  0  0  0  0
  7 25  1  0  0  0  0
  7 26  1  0  0  0  0
  8  9  1  0  0  0  0
  8 27  1  0  0  0  0
  8 41  1  0  0  0  0
  9 10  1  0  0  0  0
  9 11  1  0  0  0  0
  9 28  1  0  0  0  0
 10 29  1  0  0  0  0
 10 30  1  0  0  0  0
 10 31  1  0  0  0  0
 11 12  2  0  0  0  0
 11 13  1  0  0  0  0
 13 17  1  0  0  0  0
 13 14  1  0  0  0  0
 14 15  1  0  0  0  0
 14 32  1  0  0  0  0
 14 33  1  0  0  0  0
 15 16  1  0  0  0  0
 15 34  1  0  0  0  0
 15 35  1  0  0  0  0
 16 17  1  0  0  0  0
 16 36  1  0  0  0  0
 16 37  1  0  0  0  0
 17 38  1  0  0  0  0
 17 39  1  0  0  0  0
 18 40  1  0  0  0  0
M  CHG  1   8   1
M  END
> <s_m_source_file>
AV-unprocessed.smi

> <i_m_source_file_index>
3251

> <i_lp_mmshare_version>
43012

> <i_f3d_flags>
0

> <s_epik_input>
W0NIM11jMVtjSF1ubihbY0hdMSlbQ0gyXVtDSDJdW05IXVtDQEhdKFtDSDNdKUMoPU8pTjJbQ0gyXVtDSDJdW0NIMl1bQ0gyXTI=

> <s_epik_cmdline>
J2VwaWtfcHl0aG9uJywgJy1waCcsICc3LjAnLCAnLXRuJywgJzgnLCAnLW1hJywgJzIwMCcsICctbWV0YWxfYmluZGluZycsICctaW1hZScsICc8aW5maWxlLm1hZT4nLCAnLW9tYWUnLCAnPG91dGZpbGUubWFlPic=

> <r_lp_tautomer_probability>
1

> <r_epik_Ionization_Penalty>
0.203173

> <r_epik_Ionization_Penalty_Charging>
0.203168

> <r_epik_Ionization_Penalty_Neutral>
5.06494e-06

> <r_epik_State_Penalty>
0.193072

> <r_epik_Charging_Adjusted_Penalty>
0.39624

> <i_epik_Tot_Q>
1

> <i_epik_Tot_abs_Q>
1

> <r_epik_Metal_State_Penalty>
0.193587

> <b_epik_Metal_Only>
0

> <s_lp_Force_Field>
OPLS_2005

> <r_lp_Energy>
29.5605

> <b_lp_Chiralities_Consistent>
1

> <s_lp_Variant>
AV-unprocessed.smi:3251-1

> <Gold.Version>
5.8.1

> <Gold.Id.Protein>
6NUR|6NUR_protein|mol2

> <Gold.PLP.Fitness>
50.3345

> <Gold.PLP.PLP>
-43.1765

> <Gold.PLP.part.hbond>
-1.0000

> <Gold.PLP.part.metal>
0.0000

> <Gold.PLP.part.buried>
-4.7228

> <Gold.PLP.part.nonpolar>
-37.7473

> <Gold.PLP.part.repulsive>
0.1188

> <Gold.PLP.ligand.clash>
0.0000

> <Gold.PLP.ligand.torsion>
0.9342

> <Gold.PLP.Chemscore.Hbond>
2.0000

> <Gold.PLP.Chemscore.CHOScore>
0.9989

> <Gold.PLP.Chemscore.Metal>
0.0000

> <Gold.Chemscore.Hbonds>
donor molecule, donor type, donor heavy atom, donor atom, acceptor molecule, acceptor atom, score
      L1  H     8    41       P1  8028  0.13
      L1  C     3    22       P1  7957  0.59

> <Gold.PLP.Chemscore.Internal.Correction>
0.0296

> <Gold.Rescore>
     Score         DG    S(hbond)    S(metal)    S(lipo)     H(rot)  DE(clash)    DE(int)     intcor
     14.52     -15.73       0.88        0.00     101.07       1.76       0.56       0.65       ----

> <Gold.Chemscore.Fitness>
14.5194

> <Gold.Chemscore.DG>
-15.7321

> <Gold.Chemscore.ZeroCoef>
-5.4800

> <Gold.Chemscore.Hbond>
0.8780

> <Gold.Chemscore.Metal>
0.0000

> <Gold.Chemscore.Lipo>
101.0676

> <Gold.Chemscore.Internal_Hbond>
0.0000

> <Gold.Chemscore.DEClash>
0.5644

> <Gold.Chemscore.DEInternal>
0.6482

> <Gold.Chemscore.Rot>
1.7599

> <Gold.Chemscore.Internal.Correction>
   9.000000E+99

> <Gold.Chemscore.Hbonds>
donor molecule, donor type, donor heavy atom, donor atom, acceptor molecule, acceptor atom, score
      L1  H     8    41       P1  8028  0.10

> <Gold.Chemscore.Hbond.Weighted>
-2.9324

> <Gold.Chemscore.Metal.Weighted>
-0.0000

> <Gold.Chemscore.Lipo.Weighted>
-11.8249

> <Gold.Chemscore.Internal_Hbond.Weighted>
0.0000

> <Gold.Chemscore.DEClash.Weighted>
0.5644

> <Gold.Chemscore.DEInternal.Weighted>
0.6482

> <Gold.Chemscore.Rot.Weighted>
4.5053

> <Gold.Chemscore.Internal.Correction.Weighted>
   9.000000E+99

> <Gold.Protein.RotatedTorsions>
[ 6907 6896 6895 6894 ] final -145.21 input  -60.11 | X-H torsion
[ 7974 7965 7964 7962 ] final -150.73 input  175.53 | X-H torsion
[ 8008 7997 7996 7995 ] final   67.15 input   59.86 | X-H torsion
[ 10167 10162 10161 10158 ] final   73.80 input  -65.29 | X-H torsion
[ 10718 10713 10712 10709 ] final  136.54 input   66.30 | X-H torsion
[ 10763 10752 10751 10750 ] final -109.81 input  -60.55 | X-H torsion
[ 11005 11000 10999 10996 ] final  150.37 input  -57.11 | X-H torsion

> <Gold.Protein.ActiveResidues>
 VAL166  LYS551  ARG553  GLY616  TRP617  ASP618  TYR619  PRO620  LYS621  CYS622 
 ASP623  PHE694  ASN695  SER759  ASP760  ASP761  ALA762  ILE779  LEU786  VAL792 
 PHE793  MET794  SER795  GLU796  ALA797  LYS798  CYS799  TRP800  GLU811  SER814 

> <Gold.Protein.RotatedAtoms>
  151.1246  133.5079  159.2600 H   0  0  0  0  0  0  0  0  0  0  0  0  # atno 6907 bound_to 6896
  151.1824  135.0366  159.8808 H   0  0  0  0  0  0  0  0  0  0  0  0  # atno 6908 bound_to 6896
  152.5457  134.1097  159.8406 H   0  0  0  0  0  0  0  0  0  0  0  0  # atno 6909 bound_to 6896
  144.7890  140.4892  143.5786 H   0  0  0  0  0  0  0  0  0  0  0  0  # atno 7974 bound_to 7965
  155.6884  140.3496  155.4883 H   0  0  0  0  0  0  0  0  0  0  0  0  # atno 8008 bound_to 7997
  155.9545  140.1125  157.0971 H   0  0  0  0  0  0  0  0  0  0  0  0  # atno 8009 bound_to 7997
  154.4129  140.1187  156.5083 H   0  0  0  0  0  0  0  0  0  0  0  0  # atno 8010 bound_to 7997
  140.0205  144.5544  150.7585 H   0  0  0  0  0  0  0  0  0  0  0  0  # atno 10167 bound_to 10162
  157.4455  131.1061  151.0094 H   0  0  0  0  0  0  0  0  0  0  0  0  # atno 10718 bound_to 10713
  154.8214  135.4587  154.0790 H   0  0  0  0  0  0  0  0  0  0  0  0  # atno 10763 bound_to 10752
  153.2140  135.6885  153.8085 H   0  0  0  0  0  0  0  0  0  0  0  0  # atno 10764 bound_to 10752
  153.7526  135.3296  155.3300 H   0  0  0  0  0  0  0  0  0  0  0  0  # atno 10765 bound_to 10752
  140.1126  134.8915  157.1958 H   0  0  0  0  0  0  0  0  0  0  0  0  # atno 11005 bound_to 11000
  145.5844  139.1491  143.3217 LP  0  0  0  0  0  0  0  0  0  0  0  0  # atno 17320 bound_to 7965
  146.2134  140.5973  142.9049 LP  0  0  0  0  0  0  0  0  0  0  0  0  # atno 17321 bound_to 7965
  140.7344  143.2728  151.3833 LP  0  0  0  0  0  0  0  0  0  0  0  0  # atno 17342 bound_to 10162
  139.6143  144.1035  152.2330 LP  0  0  0  0  0  0  0  0  0  0  0  0  # atno 17343 bound_to 10162
  157.0942  130.5955  149.5446 LP  0  0  0  0  0  0  0  0  0  0  0  0  # atno 17370 bound_to 10713
  155.9966  130.5035  150.7502 LP  0  0  0  0  0  0  0  0  0  0  0  0  # atno 17371 bound_to 10713
  140.3071  134.3066  155.7275 LP  0  0  0  0  0  0  0  0  0  0  0  0  # atno 17394 bound_to 11000
  141.2134  133.7627  156.9724 LP  0  0  0  0  0  0  0  0  0  0  0  0  # atno 17395 bound_to 11000

$$$$
