#       Name:                AV-unprocessed.smi:3252
#       Creating user name   scv26
#       Creation time:       Fri Mar 27 18:33:10 2020


#       File generated by GOLD software.
#

@<TRIPOS>MOLECULE
AV-unprocessed.smi:3252
    41    42     1
SMALL
NO_CHARGES


@<TRIPOS>ATOM
      1 ****        -2.3050  -2.3416   2.9150 C.3            1 S1                 0.0000
      2 ****        -2.5092  -0.8233   3.0163 C.3            1 S1                 0.0000
      3 ****        -1.9441  -0.0916   1.8550 N.4            1 S1                 1.0000
      4 ****        -2.4995   1.2766   1.7286 C.3            1 S1                 0.0000
      5 ****        -1.9212   1.9810   0.4906 C.3            1 S1                 0.0000
      6 ****        -0.5019   1.9963   0.5737 O.3            1 S1                 0.0000
      7 ****         0.0515   0.6843   0.5889 C.3            1 S1                 0.0000
      8 ****         1.5850   0.8072   0.5936 C.3            1 S1                 0.0000
      9 ****         2.1095   1.3312  -0.6619 N.pl3          1 S1                 0.0000
     10 ****         2.2407   0.5258  -1.8027 C.ar           1 S1                 0.0000
     11 ****         2.7316   1.1126  -2.9881 C.ar           1 S1                 0.0000
     12 ****         2.8660   0.3118  -4.1393 C.ar           1 S1                 0.0000
     13 ****         2.5035  -1.0475  -4.0653 C.ar           1 S1                 0.0000
     14 ****         2.6207  -1.9144  -5.2253 C.1            1 S1                 0.0000
     15 ****         2.7140  -2.6046  -6.1491 N.1            1 S1                 0.0000
     16 ****         2.0233  -1.5450  -2.8370 C.ar           1 S1                 0.0000
     17 ****         1.8931  -0.7817  -1.7301 N.ar           1 S1                 0.0000
     18 ****        -0.4607  -0.0481   1.8442 C.3            1 S1                 0.0000
     19 ****        -2.8154  -2.8506   3.7326 H              1 S1                 0.0000
     20 ****        -1.2527  -2.6186   2.9721 H              1 S1                 0.0000
     21 ****        -2.7075  -2.7329   1.9804 H              1 S1                 0.0000
     22 ****        -3.5823  -0.6335   3.0664 H              1 S1                 0.0000
     23 ****        -2.0838  -0.4397   3.9447 H              1 S1                 0.0000
     24 ****        -3.5864   1.2315   1.6501 H              1 S1                 0.0000
     25 ****        -2.2656   1.8503   2.6270 H              1 S1                 0.0000
     26 ****        -2.2407   1.4852  -0.4276 H              1 S1                 0.0000
     27 ****        -2.2827   3.0082   0.4399 H              1 S1                 0.0000
     28 ****        -0.2727   0.1394  -0.2995 H              1 S1                 0.0000
     29 ****         1.9014   1.4672   1.4018 H              1 S1                 0.0000
     30 ****         2.0422  -0.1619   0.7972 H              1 S1                 0.0000
     31 ****         2.3656   2.3071  -0.7091 H              1 S1                 0.0000
     32 ****         3.0023   2.1580  -3.0198 H              1 S1                 0.0000
     33 ****         3.2397   0.7392  -5.0588 H              1 S1                 0.0000
     34 ****         1.7323  -2.5804  -2.7339 H              1 S1                 0.0000
     35 ****        -0.1034   0.4535   2.7452 H              1 S1                 0.0000
     36 ****        -0.0539  -1.0588   1.8585 H              1 S1                 0.0000
     37 ****        -2.2320  -0.5934   1.0269 H              1 S1                 0.0000
     38 ****        -0.2338   2.4684   1.4134 LP             1 S1                 0.0000
     39 ****        -0.1386   2.4897  -0.2166 LP             1 S1                 0.0000
     40 ****         2.7946  -3.2011  -6.9476 LP             1 S1                 0.0000
     41 ****         1.5481  -1.1726  -0.8768 LP             1 S1                 0.0000
@<TRIPOS>BOND
    1    1    2 1     
    2    1   19 1     
    3    1   20 1     
    4    1   21 1     
    5    2    3 1     
    6    2   22 1     
    7    2   23 1     
    8    3   18 1     
    9    3    4 1     
   10    3   37 1     
   11    4    5 1     
   12    4   24 1     
   13    4   25 1     
   14    5    6 1     
   15    5   26 1     
   16    5   27 1     
   17    6    7 1     
   18    7    8 1     
   19    7   18 1     
   20    7   28 1     
   21    8    9 1     
   22    8   29 1     
   23    8   30 1     
   24    9   10 1     
   25    9   31 1     
   26   10   17 ar    
   27   10   11 ar    
   28   11   12 ar    
   29   11   32 1     
   30   12   13 ar    
   31   12   33 1     
   32   13   14 1     
   33   13   16 ar    
   34   14   15 3     
   35   16   17 ar    
   36   16   34 1     
   37   18   35 1     
   38   18   36 1     
   39    6   38 1     
   40    6   39 1     
   41   15   40 1     
   42   17   41 1     
@<TRIPOS>SUBSTRUCTURE
      1 S1             1
@<TRIPOS>SET
LONE_PAIRS      STATIC     ATOMS    <user>   **** ""
4 38 39 40 41
DONOR_HYDROGENS      STATIC     ATOMS    <user>   **** ""
2 37 31
ATOM$BLUE        STATIC     ATOMS    COLORGROUP SYSTEM
4 38 39 40 41
ATOM$RED        STATIC     ATOMS    COLORGROUP SYSTEM
2 37 31
