AV-unprocessed.smi:36|AV-procd|sdf|288|dock7
  -GOLD-   2262016 73D 1   1.00000     0.00000
 Structure written by MMmdl.
 64 67  0  0  0  0  0  0  0  0  1 V2000
  145.1458  136.3056  151.8857 C   0  0  0  0  0  0  0  0  0  0  0  0
  144.2225  135.9310  153.0568 C   0  0  0  0  0  0  0  0  0  0  0  0
  143.1995  137.0537  153.2968 C   0  0  0  0  0  0  0  0  0  0  0  0
  143.4856  134.6179  152.7434 C   0  0  0  0  0  0  0  0  0  0  0  0
  145.2684  135.6913  154.6372 Si  0  0  0  0  0  0  0  0  0  0  0  0
  144.1673  135.2495  156.1227 C   0  0  0  0  0  0  0  0  0  0  0  0
  146.5861  134.3445  154.3944 C   0  0  0  0  0  0  0  0  0  0  0  0
  146.0597  137.1510  154.9610 O   0  0  0  0  0  0  0  0  0  0  0  0
  146.9543  137.7660  154.0589 C   0  0  0  0  0  0  0  0  0  0  0  0
  146.1844  138.8019  153.2155 C   0  0  1  0  0  0  0  0  0  0  0  0
  146.1373  140.0419  153.9193 O   0  0  0  0  0  0  0  0  0  0  0  0
  147.1975  140.8747  153.5404 C   0  0  1  0  0  0  0  0  0  0  0  0
  148.1252  141.0351  154.7055 N   0  0  0  0  0  0  0  0  0  0  0  0
  148.0596  141.9480  155.6951 C   0  0  0  0  0  0  0  0  0  0  0  0
  149.0310  141.8799  156.6016 N   0  0  0  0  0  0  0  0  0  0  0  0
  149.8082  140.8260  156.1339 C   0  0  0  0  0  0  0  0  0  0  0  0
  151.0511  140.2390  156.6792 C   0  0  0  0  0  0  0  0  0  0  0  0
  151.5295  140.7488  157.7737 N   0  0  0  0  0  0  0  0  0  0  0  0
  152.6980  140.2414  158.3268 C   0  0  0  0  0  0  0  0  0  0  0  0
  153.4397  139.3562  157.8918 O   0  0  0  0  0  0  0  0  0  0  0  0
  153.0516  140.8696  159.6352 C   0  0  0  0  0  0  0  0  0  0  0  0
  152.4079  142.0553  160.0484 C   0  0  0  0  0  0  0  0  0  0  0  0
  152.7358  142.6425  161.2862 C   0  0  0  0  0  0  0  0  0  0  0  0
  153.7058  142.0455  162.1146 C   0  0  0  0  0  0  0  0  0  0  0  0
  154.3482  140.8607  161.7057 C   0  0  0  0  0  0  0  0  0  0  0  0
  154.0213  140.2721  160.4682 C   0  0  0  0  0  0  0  0  0  0  0  0
  151.4842  139.1930  155.8540 N   0  0  0  0  0  0  0  0  0  0  0  0
  150.8520  138.7542  154.6804 C   0  0  0  0  0  0  0  0  0  0  0  0
  149.7554  139.2642  154.1870 N   0  0  0  0  0  0  0  0  0  0  0  0
  149.2795  140.3047  154.9726 C   0  0  0  0  0  0  0  0  0  0  0  0
  147.9139  140.1908  152.3683 C   0  0  0  0  0  0  0  0  0  0  0  0
  146.8641  139.2034  151.9016 C   0  0  1  0  0  0  0  0  0  0  0  0
  147.4284  138.1223  151.1874 O   0  0  0  0  0  0  0  0  0  0  0  0
  144.5789  136.4514  150.9657 H   0  0  0  0  0  0  0  0  0  0  0  0
  145.8832  135.5253  151.6961 H   0  0  0  0  0  0  0  0  0  0  0  0
  145.6882  137.2298  152.0872 H   0  0  0  0  0  0  0  0  0  0  0  0
  143.6922  138.0017  153.5138 H   0  0  0  0  0  0  0  0  0  0  0  0
  142.5474  136.8214  154.1395 H   0  0  0  0  0  0  0  0  0  0  0  0
  142.5660  137.2062  152.4224 H   0  0  0  0  0  0  0  0  0  0  0  0
  142.8686  134.7125  151.8492 H   0  0  0  0  0  0  0  0  0  0  0  0
  142.8306  134.3261  153.5650 H   0  0  0  0  0  0  0  0  0  0  0  0
  144.1848  133.7986  152.5741 H   0  0  0  0  0  0  0  0  0  0  0  0
  143.6314  134.3151  155.9593 H   0  0  0  0  0  0  0  0  0  0  0  0
  143.4218  136.0200  156.3148 H   0  0  0  0  0  0  0  0  0  0  0  0
  144.7521  135.1305  157.0343 H   0  0  0  0  0  0  0  0  0  0  0  0
  146.1355  133.3800  154.1617 H   0  0  0  0  0  0  0  0  0  0  0  0
  147.1902  134.2120  155.2916 H   0  0  0  0  0  0  0  0  0  0  0  0
  147.2664  134.5912  153.5796 H   0  0  0  0  0  0  0  0  0  0  0  0
  147.7757  138.2240  154.6086 H   0  0  0  0  0  0  0  0  0  0  0  0
  147.3841  136.9944  153.4199 H   0  0  0  0  0  0  0  0  0  0  0  0
  145.1727  138.4386  153.0319 H   0  0  0  0  0  0  0  0  0  0  0  0
  146.8426  141.8823  153.3209 H   0  0  0  0  0  0  0  0  0  0  0  0
  147.2745  142.6864  155.7599 H   0  0  0  0  0  0  0  0  0  0  0  0
  151.6615  142.5179  159.4188 H   0  0  0  0  0  0  0  0  0  0  0  0
  152.2429  143.5506  161.6002 H   0  0  0  0  0  0  0  0  0  0  0  0
  153.9566  142.4959  163.0636 H   0  0  0  0  0  0  0  0  0  0  0  0
  155.0916  140.4025  162.3413 H   0  0  0  0  0  0  0  0  0  0  0  0
  154.5174  139.3623  160.1619 H   0  0  0  0  0  0  0  0  0  0  0  0
  151.3595  137.9237  154.1877 H   0  0  0  0  0  0  0  0  0  0  0  0
  148.2025  140.9145  151.6056 H   0  0  0  0  0  0  0  0  0  0  0  0
  148.8084  139.6755  152.7232 H   0  0  0  0  0  0  0  0  0  0  0  0
  146.1439  139.7155  151.2620 H   0  0  0  0  0  0  0  0  0  0  0  0
  147.9440  137.6039  151.7862 H   0  0  0  0  0  0  0  0  0  0  0  0
  152.3284  138.7126  156.1297 H   0  0  0  0  0  0  0  0  0  0  0  0
  1  2  1  0  0  0  0
  1 34  1  0  0  0  0
  1 35  1  0  0  0  0
  1 36  1  0  0  0  0
  2  3  1  0  0  0  0
  2  4  1  0  0  0  0
  2  5  1  0  0  0  0
  3 37  1  0  0  0  0
  3 38  1  0  0  0  0
  3 39  1  0  0  0  0
  4 40  1  0  0  0  0
  4 41  1  0  0  0  0
  4 42  1  0  0  0  0
  5  6  1  0  0  0  0
  5  7  1  0  0  0  0
  5  8  1  0  0  0  0
  6 43  1  0  0  0  0
  6 44  1  0  0  0  0
  6 45  1  0  0  0  0
  7 46  1  0  0  0  0
  7 47  1  0  0  0  0
  7 48  1  0  0  0  0
  8  9  1  0  0  0  0
  9 10  1  0  0  0  0
  9 49  1  0  0  0  0
  9 50  1  0  0  0  0
 10 32  1  0  0  0  0
 10 11  1  0  0  0  0
 10 51  1  0  0  0  0
 11 12  1  0  0  0  0
 12 13  1  0  0  0  0
 12 31  1  0  0  0  0
 12 52  1  0  0  0  0
 13 30  1  0  0  0  0
 13 14  1  0  0  0  0
 14 15  2  0  0  0  0
 14 53  1  0  0  0  0
 15 16  1  0  0  0  0
 16 30  2  0  0  0  0
 16 17  1  0  0  0  0
 17 18  2  0  0  0  0
 17 27  1  0  0  0  0
 18 19  1  0  0  0  0
 19 20  2  0  0  0  0
 19 21  1  0  0  0  0
 21 26  1  0  0  0  0
 21 22  2  0  0  0  0
 22 23  1  0  0  0  0
 22 54  1  0  0  0  0
 23 24  2  0  0  0  0
 23 55  1  0  0  0  0
 24 25  1  0  0  0  0
 24 56  1  0  0  0  0
 25 26  2  0  0  0  0
 25 57  1  0  0  0  0
 26 58  1  0  0  0  0
 27 28  1  0  0  0  0
 27 64  1  0  0  0  0
 28 29  2  0  0  0  0
 28 59  1  0  0  0  0
 29 30  1  0  0  0  0
 31 32  1  0  0  0  0
 31 60  1  0  0  0  0
 31 61  1  0  0  0  0
 32 33  1  0  0  0  0
 32 62  1  0  0  0  0
 33 63  1  0  0  0  0
M  END
> <s_m_source_file>
AV-unprocessed.smi

> <i_m_source_file_index>
36

> <i_lp_mmshare_version>
43012

> <i_f3d_flags>
0

> <s_epik_input>
W0NIM11DKFtDSDNdKShbQ0gzXSlbU2ldKFtDSDNdKShbQ0gzXSlPW0NIMl1bQ0BASF0xT1tDQEhdKFtDSDJdW0NASF0xW09IXSluKFtjSF1uMiljKGMyMyluW2NIXW5jM1tOSF1DKD1PKWM0W2NIXVtjSF1bY0hdW2NIXVtjSF00

> <s_epik_cmdline>
J2VwaWtfcHl0aG9uJywgJy1waCcsICc3LjAnLCAnLXRuJywgJzgnLCAnLW1hJywgJzIwMCcsICctbWV0YWxfYmluZGluZycsICctaW1hZScsICc8aW5maWxlLm1hZT4nLCAnLW9tYWUnLCAnPG91dGZpbGUubWFlPic=

> <r_epik_Ionization_Penalty>
0.0850405

> <r_epik_Ionization_Penalty_Charging>
0.0850403

> <r_epik_Ionization_Penalty_Neutral>
1.47497e-07

> <r_epik_State_Penalty>
2.6133

> <r_epik_Charging_Adjusted_Penalty>
2.69834

> <i_epik_Tot_Q>
0

> <i_epik_Tot_abs_Q>
0

> <r_epik_Metal_State_Penalty>
2.92945

> <b_epik_Metal_Only>
0

> <s_epik_Chemistry_Notes>
This compound contains an acetal/aminal-like group ( X-CH(R)-Y where X, Y are N, S, or O) that may be acid/base labile, releasing an aldehyde.

> <s_lp_Force_Field>
OPLS_2005

> <r_lp_Energy>
49.0467

> <b_lp_Chiralities_Consistent>
1

> <s_lp_Variant>
AV-unprocessed.smi:36-10

> <Gold.Version>
5.8.1

> <Gold.Id.Protein>
6NUR|6NUR_protein|mol2

> <Gold.PLP.Fitness>
52.5402

> <Gold.PLP.PLP>
-45.2577

> <Gold.PLP.part.hbond>
-3.7827

> <Gold.PLP.part.metal>
0.0000

> <Gold.PLP.part.buried>
3.7793

> <Gold.PLP.part.nonpolar>
-47.2847

> <Gold.PLP.part.repulsive>
3.1191

> <Gold.PLP.ligand.clash>
0.0440

> <Gold.PLP.ligand.torsion>
1.2559

> <Gold.PLP.Chemscore.Hbond>
2.8000

> <Gold.PLP.Chemscore.CHOScore>
0.3128

> <Gold.PLP.Chemscore.Metal>
0.0000

> <Gold.Chemscore.Hbonds>
donor molecule, donor type, donor heavy atom, donor atom, acceptor molecule, acceptor atom, score
      L1  H    33    63       P1  7948  0.82
      P1  H  7954  7966       L1    33  0.94
      P1  H  7997  8009       L1    20  1.00
      L1  C    14    53       P1  8028  0.28

> <Gold.PLP.Chemscore.Internal.Correction>
0.4999

> <Gold.Rescore>
     Score         DG    S(hbond)    S(metal)    S(lipo)     H(rot)  DE(clash)    DE(int)     intcor
     14.09     -19.12       2.38        0.00     107.77       2.70       2.37       2.66       ----

> <Gold.Chemscore.Fitness>
14.0880

> <Gold.Chemscore.DG>
-19.1218

> <Gold.Chemscore.ZeroCoef>
-5.4800

> <Gold.Chemscore.Hbond>
2.3817

> <Gold.Chemscore.Metal>
0.0000

> <Gold.Chemscore.Lipo>
107.7731

> <Gold.Chemscore.Internal_Hbond>
0.0000

> <Gold.Chemscore.DEClash>
2.3744

> <Gold.Chemscore.DEInternal>
2.6594

> <Gold.Chemscore.Rot>
2.7041

> <Gold.Chemscore.Internal.Correction>
   9.000000E+99

> <Gold.Chemscore.Hbonds>
donor molecule, donor type, donor heavy atom, donor atom, acceptor molecule, acceptor atom, score
      L1  H    33    63       P1  7948  0.81
      P1  H  7954  7966       L1    33  0.23
      P1  H  7997  8009       L1    20  0.76

> <Gold.Chemscore.Hbond.Weighted>
-7.9548

> <Gold.Chemscore.Metal.Weighted>
-0.0000

> <Gold.Chemscore.Lipo.Weighted>
-12.6095

> <Gold.Chemscore.Internal_Hbond.Weighted>
0.0000

> <Gold.Chemscore.DEClash.Weighted>
2.3744

> <Gold.Chemscore.DEInternal.Weighted>
2.6594

> <Gold.Chemscore.Rot.Weighted>
6.9225

> <Gold.Chemscore.Internal.Correction.Weighted>
   9.000000E+99

> <Gold.Protein.RotatedTorsions>
[ 6907 6896 6895 6894 ] final   97.65 input  -60.11 | X-H torsion
[ 7974 7965 7964 7962 ] final  178.08 input  175.53 | X-H torsion
[ 8008 7997 7996 7995 ] final  138.71 input   59.86 | X-H torsion
[ 10167 10162 10161 10158 ] final  -14.74 input  -65.29 | X-H torsion
[ 10718 10713 10712 10709 ] final   70.74 input   66.30 | X-H torsion
[ 10763 10752 10751 10750 ] final  141.12 input  -60.55 | X-H torsion
[ 11005 11000 10999 10996 ] final -141.87 input  -57.11 | X-H torsion

> <Gold.Protein.ActiveResidues>
 VAL166  LYS551  ARG553  GLY616  TRP617  ASP618  TYR619  PRO620  LYS621  CYS622 
 ASP623  PHE694  ASN695  SER759  ASP760  ASP761  ALA762  ILE779  LEU786  VAL792 
 PHE793  MET794  SER795  GLU796  ALA797  LYS798  CYS799  TRP800  GLU811  SER814 

> <Gold.Protein.RotatedAtoms>
  152.5420  134.0700  159.8189 H   0  0  0  0  0  0  0  0  0  0  0  0  # atno 6907 bound_to 6896
  151.0816  133.5378  159.2627 H   0  0  0  0  0  0  0  0  0  0  0  0  # atno 6908 bound_to 6896
  151.2203  135.0524  159.9001 H   0  0  0  0  0  0  0  0  0  0  0  0  # atno 6909 bound_to 6896
  144.7160  140.0344  143.6438 H   0  0  0  0  0  0  0  0  0  0  0  0  # atno 7974 bound_to 7965
  156.2995  140.2386  156.4117 H   0  0  0  0  0  0  0  0  0  0  0  0  # atno 8008 bound_to 7997
  154.8435  140.0427  157.1577 H   0  0  0  0  0  0  0  0  0  0  0  0  # atno 8009 bound_to 7997
  154.9077  140.2986  155.5287 H   0  0  0  0  0  0  0  0  0  0  0  0  # atno 8010 bound_to 7997
  140.7206  143.5290  150.9542 H   0  0  0  0  0  0  0  0  0  0  0  0  # atno 10167 bound_to 10162
  157.6416  130.9492  150.0692 H   0  0  0  0  0  0  0  0  0  0  0  0  # atno 10718 bound_to 10713
  153.9339  135.2987  155.3445 H   0  0  0  0  0  0  0  0  0  0  0  0  # atno 10763 bound_to 10752
  154.7512  135.4979  153.9296 H   0  0  0  0  0  0  0  0  0  0  0  0  # atno 10764 bound_to 10752
  153.1077  135.6751  153.9662 H   0  0  0  0  0  0  0  0  0  0  0  0  # atno 10765 bound_to 10752
  140.8282  134.2549  157.4869 H   0  0  0  0  0  0  0  0  0  0  0  0  # atno 11005 bound_to 11000
  146.0075  139.3142  143.0890 LP  0  0  0  0  0  0  0  0  0  0  0  0  # atno 17320 bound_to 7965
  145.8720  140.9414  143.0645 LP  0  0  0  0  0  0  0  0  0  0  0  0  # atno 17321 bound_to 7965
  139.9010  143.6836  152.3131 LP  0  0  0  0  0  0  0  0  0  0  0  0  # atno 17342 bound_to 10162
  139.7185  144.7607  151.0994 LP  0  0  0  0  0  0  0  0  0  0  0  0  # atno 17343 bound_to 10162
  156.1701  130.3646  149.9176 LP  0  0  0  0  0  0  0  0  0  0  0  0  # atno 17370 bound_to 10713
  156.7154  130.8986  151.3613 LP  0  0  0  0  0  0  0  0  0  0  0  0  # atno 17371 bound_to 10713
  139.8706  134.9572  156.4260 LP  0  0  0  0  0  0  0  0  0  0  0  0  # atno 17394 bound_to 11000
  140.9027  133.7768  155.9698 LP  0  0  0  0  0  0  0  0  0  0  0  0  # atno 17395 bound_to 11000

$$$$
