AV-unprocessed.smi:1053|AV-procd|sdf|4621|dock5
  -GOLD-   22720 3123D 1   1.00000     0.00000
 Structure written by MMmdl.
 37 38  0  0  0  0  0  0  0  0  1 V2000
  145.9248  143.0752  154.7062 C   0  0  0  0  0  0  0  0  0  0  0  0
  146.6017  142.0387  153.7976 C   0  0  0  0  0  0  0  0  0  0  0  0
  147.5876  141.1876  154.4616 N   0  0  0  0  0  0  0  0  0  0  0  0
  148.0917  140.1291  153.5904 C   0  0  0  0  0  0  0  0  0  0  0  0
  149.1524  139.2665  154.2946 C   0  0  0  0  0  0  0  0  0  0  0  0
  150.2112  140.0983  154.7565 O   0  0  0  0  0  0  0  0  0  0  0  0
  149.7716  141.1097  155.6602 C   0  0  1  0  0  0  0  0  0  0  0  0
  150.9880  141.9411  156.0882 C   0  0  0  0  0  0  0  0  0  0  0  0
  150.6017  143.0859  156.8993 N   0  0  0  0  0  0  0  0  0  0  0  0
  151.1524  143.3839  158.1312 C   0  0  0  0  0  0  0  0  0  0  0  0
  150.8801  144.5757  158.6753 N   0  0  0  0  0  0  0  0  0  0  0  0
  151.4284  144.8400  159.8805 C   0  0  0  0  0  0  0  0  0  0  0  0
  152.2508  143.9074  160.5425 C   0  0  0  0  0  0  0  0  0  0  0  0
  152.4694  142.6812  159.8753 C   0  0  0  0  0  0  0  0  0  0  0  0
  153.3371  141.5813  160.4685 C   0  0  0  0  0  0  0  0  0  0  0  0
  152.7881  140.3781  160.2964 F   0  0  0  0  0  0  0  0  0  0  0  0
  154.5347  141.5864  159.8826 F   0  0  0  0  0  0  0  0  0  0  0  0
  153.4959  141.7909  161.7753 F   0  0  0  0  0  0  0  0  0  0  0  0
  151.9157  142.4286  158.6662 N   0  0  0  0  0  0  0  0  0  0  0  0
  148.7146  141.9769  154.9471 C   0  0  0  0  0  0  0  0  0  0  0  0
  145.2885  143.7394  154.1212 H   0  0  0  0  0  0  0  0  0  0  0  0
  146.6643  143.6920  155.2177 H   0  0  0  0  0  0  0  0  0  0  0  0
  145.2941  142.6062  155.4609 H   0  0  0  0  0  0  0  0  0  0  0  0
  145.8402  141.4215  153.3187 H   0  0  0  0  0  0  0  0  0  0  0  0
  147.0948  142.5843  152.9921 H   0  0  0  0  0  0  0  0  0  0  0  0
  147.2758  139.4839  153.2662 H   0  0  0  0  0  0  0  0  0  0  0  0
  148.5240  140.5657  152.6888 H   0  0  0  0  0  0  0  0  0  0  0  0
  148.7146  138.7221  155.1326 H   0  0  0  0  0  0  0  0  0  0  0  0
  149.5562  138.5244  153.6058 H   0  0  0  0  0  0  0  0  0  0  0  0
  149.3222  140.6437  156.5395 H   0  0  0  0  0  0  0  0  0  0  0  0
  151.6949  141.3219  156.6418 H   0  0  0  0  0  0  0  0  0  0  0  0
  151.5080  142.3091  155.2029 H   0  0  0  0  0  0  0  0  0  0  0  0
  149.8549  143.6789  156.5675 H   0  0  0  0  0  0  0  0  0  0  0  0
  151.2097  145.8018  160.3197 H   0  0  0  0  0  0  0  0  0  0  0  0
  152.6856  144.1278  161.5060 H   0  0  0  0  0  0  0  0  0  0  0  0
  149.1812  142.5042  154.1133 H   0  0  0  0  0  0  0  0  0  0  0  0
  148.3557  142.7428  155.6358 H   0  0  0  0  0  0  0  0  0  0  0  0
  1  2  1  0  0  0  0
  1 21  1  0  0  0  0
  1 22  1  0  0  0  0
  1 23  1  0  0  0  0
  2  3  1  0  0  0  0
  2 24  1  0  0  0  0
  2 25  1  0  0  0  0
  3 20  1  0  0  0  0
  3  4  1  0  0  0  0
  4  5  1  0  0  0  0
  4 26  1  0  0  0  0
  4 27  1  0  0  0  0
  5  6  1  0  0  0  0
  5 28  1  0  0  0  0
  5 29  1  0  0  0  0
  6  7  1  0  0  0  0
  7  8  1  0  0  0  0
  7 20  1  0  0  0  0
  7 30  1  0  0  0  0
  8  9  1  0  0  0  0
  8 31  1  0  0  0  0
  8 32  1  0  0  0  0
  9 10  1  0  0  0  0
  9 33  1  0  0  0  0
 10 19  1  0  0  0  0
 10 11  2  0  0  0  0
 11 12  1  0  0  0  0
 12 13  2  0  0  0  0
 12 34  1  0  0  0  0
 13 14  1  0  0  0  0
 13 35  1  0  0  0  0
 14 15  1  0  0  0  0
 14 19  2  0  0  0  0
 15 16  1  0  0  0  0
 15 17  1  0  0  0  0
 15 18  1  0  0  0  0
 20 36  1  0  0  0  0
 20 37  1  0  0  0  0
M  END
> <s_m_source_file>
AV-unprocessed.smi

> <i_m_source_file_index>
1053

> <i_lp_mmshare_version>
43012

> <i_f3d_flags>
0

> <s_epik_input>
W0NIM11bQ0gyXU4xW0NIMl1bQ0gyXU9bQ0BIXShbQ0gyXTEpW0NIMl1bTkhdYzJuW2NIXVtjSF1jKG4yKUMoRikoRilG

> <s_epik_cmdline>
J2VwaWtfcHl0aG9uJywgJy1waCcsICc3LjAnLCAnLXRuJywgJzgnLCAnLW1hJywgJzIwMCcsICctbWV0YWxfYmluZGluZycsICctaW1hZScsICc8aW5maWxlLm1hZT4nLCAnLW9tYWUnLCAnPG91dGZpbGUubWFlPic=

> <r_lp_tautomer_probability>
1

> <r_epik_Ionization_Penalty>
0.797829

> <r_epik_Ionization_Penalty_Charging>
0

> <r_epik_Ionization_Penalty_Neutral>
0.797829

> <r_epik_State_Penalty>
0.828842

> <r_epik_Charging_Adjusted_Penalty>
0.828842

> <i_epik_Tot_Q>
0

> <i_epik_Tot_abs_Q>
0

> <r_epik_Metal_State_Penalty>
0.828842

> <b_epik_Metal_Only>
0

> <s_lp_Force_Field>
OPLS_2005

> <r_lp_Energy>
17.4925

> <b_lp_Chiralities_Consistent>
1

> <s_lp_Variant>
AV-unprocessed.smi:1053-5

> <Gold.Version>
5.8.1

> <Gold.Id.Protein>
6NUR|6NUR_protein|mol2

> <Gold.PLP.Fitness>
47.0124

> <Gold.PLP.PLP>
-42.6876

> <Gold.PLP.part.hbond>
-2.0000

> <Gold.PLP.part.metal>
0.0000

> <Gold.PLP.part.buried>
-3.3030

> <Gold.PLP.part.nonpolar>
-37.0799

> <Gold.PLP.part.repulsive>
0.4089

> <Gold.PLP.ligand.clash>
0.0867

> <Gold.PLP.ligand.torsion>
0.8147

> <Gold.PLP.Chemscore.Hbond>
2.0000

> <Gold.PLP.Chemscore.CHOScore>
0.0000

> <Gold.PLP.Chemscore.Metal>
0.0000

> <Gold.Chemscore.Hbonds>
donor molecule, donor type, donor heavy atom, donor atom, acceptor molecule, acceptor atom, score
      L1  H     9    33       P1  8028  1.00
      P1  H  7989  7998       L1     6  0.96

> <Gold.PLP.Chemscore.Internal.Correction>
0.0409

> <Gold.Rescore>
     Score         DG    S(hbond)    S(metal)    S(lipo)     H(rot)  DE(clash)    DE(int)     intcor
     15.87     -18.36       1.88        0.00      89.57       1.52       1.65       0.83       ----

> <Gold.Chemscore.Fitness>
15.8723

> <Gold.Chemscore.DG>
-18.3553

> <Gold.Chemscore.ZeroCoef>
-5.4800

> <Gold.Chemscore.Hbond>
1.8830

> <Gold.Chemscore.Metal>
0.0000

> <Gold.Chemscore.Lipo>
89.5672

> <Gold.Chemscore.Internal_Hbond>
0.0000

> <Gold.Chemscore.DEClash>
1.6500

> <Gold.Chemscore.DEInternal>
0.8330

> <Gold.Chemscore.Rot>
1.5208

> <Gold.Chemscore.Internal.Correction>
   9.000000E+99

> <Gold.Chemscore.Hbonds>
donor molecule, donor type, donor heavy atom, donor atom, acceptor molecule, acceptor atom, score
      L1  H     9    33       P1  8028  1.00
      P1  H  7989  7998       L1     6  0.66

> <Gold.Chemscore.Hbond.Weighted>
-6.2891

> <Gold.Chemscore.Metal.Weighted>
-0.0000

> <Gold.Chemscore.Lipo.Weighted>
-10.4794

> <Gold.Chemscore.Internal_Hbond.Weighted>
0.0000

> <Gold.Chemscore.DEClash.Weighted>
1.6500

> <Gold.Chemscore.DEInternal.Weighted>
0.8330

> <Gold.Chemscore.Rot.Weighted>
3.8932

> <Gold.Chemscore.Internal.Correction.Weighted>
   9.000000E+99

> <Gold.Protein.RotatedTorsions>
[ 6907 6896 6895 6894 ] final -124.01 input  -60.11 | X-H torsion
[ 7974 7965 7964 7962 ] final -152.87 input  175.53 | X-H torsion
[ 8008 7997 7996 7995 ] final   95.36 input   59.86 | X-H torsion
[ 10167 10162 10161 10158 ] final -164.98 input  -65.29 | X-H torsion
[ 10718 10713 10712 10709 ] final  172.11 input   66.30 | X-H torsion
[ 10763 10752 10751 10750 ] final  115.59 input  -60.55 | X-H torsion
[ 11005 11000 10999 10996 ] final  116.83 input  -57.11 | X-H torsion

> <Gold.Protein.ActiveResidues>
 VAL166  LYS551  ARG553  GLY616  TRP617  ASP618  TYR619  PRO620  LYS621  CYS622 
 ASP623  PHE694  ASN695  SER759  ASP760  ASP761  ALA762  ILE779  LEU786  VAL792 
 PHE793  MET794  SER795  GLU796  ALA797  LYS798  CYS799  TRP800  GLU811  SER814 

> <Gold.Protein.RotatedAtoms>
  150.8726  133.7484  159.2956 H   0  0  0  0  0  0  0  0  0  0  0  0  # atno 6907 bound_to 6896
  151.5091  135.1063  159.9859 H   0  0  0  0  0  0  0  0  0  0  0  0  # atno 6908 bound_to 6896
  152.4705  133.7975  159.6991 H   0  0  0  0  0  0  0  0  0  0  0  0  # atno 6909 bound_to 6896
  144.7770  140.4602  143.5866 H   0  0  0  0  0  0  0  0  0  0  0  0  # atno 7974 bound_to 7965
  156.0680  140.3287  155.7541 H   0  0  0  0  0  0  0  0  0  0  0  0  # atno 8008 bound_to 7997
  155.5350  140.0596  157.2899 H   0  0  0  0  0  0  0  0  0  0  0  0  # atno 8009 bound_to 7997
  154.4515  140.1920  156.0522 H   0  0  0  0  0  0  0  0  0  0  0  0  # atno 8010 bound_to 7997
  139.6213  144.0618  152.1935 H   0  0  0  0  0  0  0  0  0  0  0  0  # atno 10167 bound_to 10162
  156.9838  131.0127  151.2875 H   0  0  0  0  0  0  0  0  0  0  0  0  # atno 10718 bound_to 10713
  153.5245  135.3591  155.2647 H   0  0  0  0  0  0  0  0  0  0  0  0  # atno 10763 bound_to 10752
  154.8732  135.4053  154.3221 H   0  0  0  0  0  0  0  0  0  0  0  0  # atno 10764 bound_to 10752
  153.3898  135.7071  153.6570 H   0  0  0  0  0  0  0  0  0  0  0  0  # atno 10765 bound_to 10752
  139.9054  134.9603  156.7258 H   0  0  0  0  0  0  0  0  0  0  0  0  # atno 11005 bound_to 11000
  145.6156  139.1518  143.3051 LP  0  0  0  0  0  0  0  0  0  0  0  0  # atno 17320 bound_to 7965
  146.1956  140.6270  142.9125 LP  0  0  0  0  0  0  0  0  0  0  0  0  # atno 17321 bound_to 7965
  140.0261  144.6116  150.7526 LP  0  0  0  0  0  0  0  0  0  0  0  0  # atno 17342 bound_to 10162
  140.7384  143.2777  151.3691 LP  0  0  0  0  0  0  0  0  0  0  0  0  # atno 17343 bound_to 10162
  157.5507  130.8180  149.8142 LP  0  0  0  0  0  0  0  0  0  0  0  0  # atno 17370 bound_to 10713
  156.0234  130.3788  150.1895 LP  0  0  0  0  0  0  0  0  0  0  0  0  # atno 17371 bound_to 10713
  140.6965  133.9344  155.7998 LP  0  0  0  0  0  0  0  0  0  0  0  0  # atno 17394 bound_to 11000
  141.0403  134.0630  157.3909 LP  0  0  0  0  0  0  0  0  0  0  0  0  # atno 17395 bound_to 11000

$$$$
