AV-unprocessed.smi:15|AV-procd|sdf|84|dock2
  -GOLD-   2262015213D 1   1.00000     0.00000
 Structure written by MMmdl.
 53 56  0  0  0  0  0  0  0  0  1 V2000
  146.9662  136.6257  154.5659 C   0  0  0  0  0  0  0  0  0  0  0  0
  148.0141  137.7112  154.8436 C   0  0  0  0  0  0  0  0  0  0  0  0
  149.3382  137.1564  155.1230 N   0  0  0  0  0  0  0  0  0  0  0  0
  149.4629  135.8916  155.8507 C   0  0  0  0  0  0  0  0  0  0  0  0
  149.7076  134.6796  154.9295 C   0  0  1  0  0  0  0  0  0  0  0  0
  150.1287  133.4163  155.6772 C   0  0  0  0  0  0  0  0  0  0  0  0
  149.6816  132.2870  154.7598 C   0  0  0  0  0  0  0  0  0  0  0  0
  148.7379  132.9660  153.7639 C   0  0  0  0  0  0  0  0  0  0  0  0
  148.5029  134.2543  154.3101 O   0  0  0  0  0  0  0  0  0  0  0  0
  150.3322  138.0384  155.3854 C   0  0  0  0  0  0  0  0  0  0  0  0
  151.6003  137.5565  155.4283 N   0  0  0  0  0  0  0  0  0  0  0  0
  152.6176  138.3682  155.7296 C   0  0  0  0  0  0  0  0  0  0  0  0
  152.5873  139.6671  156.0334 N   0  0  0  0  0  0  0  0  0  0  0  0
  151.3132  140.1529  156.0047 C   0  0  0  0  0  0  0  0  0  0  0  0
  150.1375  139.4192  155.6801 C   0  0  0  0  0  0  0  0  0  0  0  0
  149.0262  140.2508  155.7635 N   0  0  0  0  0  0  0  0  0  0  0  0
  149.5170  141.4071  156.1150 C   0  0  0  0  0  0  0  0  0  0  0  0
  150.8796  141.4317  156.3077 N   0  0  0  0  0  0  0  0  0  0  0  0
  151.6819  142.5703  156.7258 C   0  0  0  0  0  0  0  0  0  0  0  0
  151.8021  142.7531  158.2618 C   0  0  1  0  0  0  0  0  0  0  0  0
  150.5164  142.4781  158.7916 O   0  0  0  0  0  0  0  0  0  0  0  0
  152.8116  141.8400  158.9436 C   0  0  0  0  0  0  0  0  0  0  0  0
  153.0472  142.5393  160.2785 C   0  0  0  0  0  0  0  0  0  0  0  0
  152.9159  143.9302  160.0079 O   0  0  0  0  0  0  0  0  0  0  0  0
  152.2935  144.1377  158.7410 C   0  0  2  0  0  0  0  0  0  0  0  0
  151.2384  145.2518  158.8160 C   0  0  0  0  0  0  0  0  0  0  0  0
  146.0128  137.0761  154.2900 H   0  0  0  0  0  0  0  0  0  0  0  0
  146.7887  135.9997  155.4399 H   0  0  0  0  0  0  0  0  0  0  0  0
  147.2775  135.9801  153.7443 H   0  0  0  0  0  0  0  0  0  0  0  0
  148.0690  138.3645  153.9715 H   0  0  0  0  0  0  0  0  0  0  0  0
  147.6889  138.3315  155.6786 H   0  0  0  0  0  0  0  0  0  0  0  0
  150.2920  135.9789  156.5516 H   0  0  0  0  0  0  0  0  0  0  0  0
  148.5784  135.7212  156.4661 H   0  0  0  0  0  0  0  0  0  0  0  0
  150.4483  134.9105  154.1622 H   0  0  0  0  0  0  0  0  0  0  0  0
  151.1978  133.3920  155.8896 H   0  0  0  0  0  0  0  0  0  0  0  0
  149.5962  133.3460  156.6267 H   0  0  0  0  0  0  0  0  0  0  0  0
  150.5256  131.8310  154.2416 H   0  0  0  0  0  0  0  0  0  0  0  0
  149.1736  131.5064  155.3271 H   0  0  0  0  0  0  0  0  0  0  0  0
  149.2170  133.0724  152.7896 H   0  0  0  0  0  0  0  0  0  0  0  0
  147.8042  132.4201  153.6273 H   0  0  0  0  0  0  0  0  0  0  0  0
  153.5951  137.9092  155.7366 H   0  0  0  0  0  0  0  0  0  0  0  0
  148.8917  142.2757  156.2625 H   0  0  0  0  0  0  0  0  0  0  0  0
  152.6745  142.4604  156.2866 H   0  0  0  0  0  0  0  0  0  0  0  0
  151.2516  143.4668  156.2769 H   0  0  0  0  0  0  0  0  0  0  0  0
  150.0747  141.8821  158.2062 H   0  0  0  0  0  0  0  0  0  0  0  0
  152.4681  140.8107  159.0534 H   0  0  0  0  0  0  0  0  0  0  0  0
  153.7532  141.8204  158.3961 H   0  0  0  0  0  0  0  0  0  0  0  0
  152.2835  142.2508  161.0017 H   0  0  0  0  0  0  0  0  0  0  0  0
  154.0226  142.3067  160.7062 H   0  0  0  0  0  0  0  0  0  0  0  0
  153.1016  144.4771  158.0945 H   0  0  0  0  0  0  0  0  0  0  0  0
  150.7581  145.4016  157.8490 H   0  0  0  0  0  0  0  0  0  0  0  0
  151.6974  146.1966  159.1075 H   0  0  0  0  0  0  0  0  0  0  0  0
  150.4625  145.0259  159.5476 H   0  0  0  0  0  0  0  0  0  0  0  0
  1  2  1  0  0  0  0
  1 27  1  0  0  0  0
  1 28  1  0  0  0  0
  1 29  1  0  0  0  0
  2  3  1  0  0  0  0
  2 30  1  0  0  0  0
  2 31  1  0  0  0  0
  3  4  1  0  0  0  0
  3 10  1  0  0  0  0
  4  5  1  0  0  0  0
  4 32  1  0  0  0  0
  4 33  1  0  0  0  0
  5  9  1  0  0  0  0
  5  6  1  0  0  0  0
  5 34  1  0  0  0  0
  6  7  1  0  0  0  0
  6 35  1  0  0  0  0
  6 36  1  0  0  0  0
  7  8  1  0  0  0  0
  7 37  1  0  0  0  0
  7 38  1  0  0  0  0
  8  9  1  0  0  0  0
  8 39  1  0  0  0  0
  8 40  1  0  0  0  0
 10 15  1  0  0  0  0
 10 11  2  0  0  0  0
 11 12  1  0  0  0  0
 12 13  2  0  0  0  0
 12 41  1  0  0  0  0
 13 14  1  0  0  0  0
 14 18  1  0  0  0  0
 14 15  2  0  0  0  0
 15 16  1  0  0  0  0
 16 17  2  0  0  0  0
 17 18  1  0  0  0  0
 17 42  1  0  0  0  0
 18 19  1  0  0  0  0
 19 20  1  0  0  0  0
 19 43  1  0  0  0  0
 19 44  1  0  0  0  0
 20 25  1  0  0  0  0
 20 21  1  0  0  0  0
 20 22  1  0  0  0  0
 21 45  1  0  0  0  0
 22 23  1  0  0  0  0
 22 46  1  0  0  0  0
 22 47  1  0  0  0  0
 23 24  1  0  0  0  0
 23 48  1  0  0  0  0
 23 49  1  0  0  0  0
 24 25  1  0  0  0  0
 25 26  1  0  0  0  0
 25 50  1  0  0  0  0
 26 51  1  0  0  0  0
 26 52  1  0  0  0  0
 26 53  1  0  0  0  0
M  END
> <s_m_source_file>
AV-unprocessed.smi

> <i_m_source_file_index>
15

> <i_lp_mmshare_version>
43012

> <i_f3d_flags>
0

> <s_epik_input>
TzFbQ0gyXVtDSDJdW0NIMl1bQ0BIXTFbQ0gyXU4oW0NIMl1bQ0gzXSljKG5bY0hdbjIpYyhjMjMpbltjSF1uM1tDSDJdW0NAQF00KFtPSF0pW0NIMl1bQ0gyXU9bQ0BIXTRbQ0gzXQ==

> <s_epik_cmdline>
J2VwaWtfcHl0aG9uJywgJy1waCcsICc3LjAnLCAnLXRuJywgJzgnLCAnLW1hJywgJzIwMCcsICctbWV0YWxfYmluZGluZycsICctaW1hZScsICc8aW5maWxlLm1hZT4nLCAnLW9tYWUnLCAnPG91dGZpbGUubWFlPic=

> <r_lp_tautomer_probability>
1

> <r_epik_Ionization_Penalty>
0.00360814

> <r_epik_Ionization_Penalty_Charging>
0

> <r_epik_Ionization_Penalty_Neutral>
0.00360814

> <r_epik_State_Penalty>
0.00237482

> <r_epik_Charging_Adjusted_Penalty>
0.00237482

> <i_epik_Tot_Q>
0

> <i_epik_Tot_abs_Q>
0

> <r_epik_Metal_State_Penalty>
-0

> <b_epik_Metal_Only>
0

> <s_lp_Force_Field>
OPLS_2005

> <r_lp_Energy>
47.1955

> <b_lp_Chiralities_Consistent>
1

> <s_lp_Variant>
AV-unprocessed.smi:15-6

> <Gold.Version>
5.8.1

> <Gold.Id.Protein>
6NUR|6NUR_protein|mol2

> <Gold.PLP.Fitness>
47.9671

> <Gold.PLP.PLP>
-43.8010

> <Gold.PLP.part.hbond>
-1.0206

> <Gold.PLP.part.metal>
0.0000

> <Gold.PLP.part.buried>
-6.5491

> <Gold.PLP.part.nonpolar>
-36.8841

> <Gold.PLP.part.repulsive>
1.3073

> <Gold.PLP.ligand.clash>
0.0000

> <Gold.PLP.ligand.torsion>
1.4683

> <Gold.PLP.Chemscore.Hbond>
1.0000

> <Gold.PLP.Chemscore.CHOScore>
1.0000

> <Gold.PLP.Chemscore.Metal>
0.0000

> <Gold.Chemscore.Hbonds>
donor molecule, donor type, donor heavy atom, donor atom, acceptor molecule, acceptor atom, score
      P1  H  7997  8010       L1    13  1.00
      L1  C    17    42       P1  8028  1.00

> <Gold.PLP.Chemscore.Internal.Correction>
1.1027

> <Gold.Rescore>
     Score         DG    S(hbond)    S(metal)    S(lipo)     H(rot)  DE(clash)    DE(int)     intcor
      9.47     -13.06       0.92        0.00      91.94       2.44       0.61       2.98       ----

> <Gold.Chemscore.Fitness>
9.4720

> <Gold.Chemscore.DG>
-13.0622

> <Gold.Chemscore.ZeroCoef>
-5.4800

> <Gold.Chemscore.Hbond>
0.9220

> <Gold.Chemscore.Metal>
0.0000

> <Gold.Chemscore.Lipo>
91.9418

> <Gold.Chemscore.Internal_Hbond>
0.0000

> <Gold.Chemscore.DEClash>
0.6117

> <Gold.Chemscore.DEInternal>
2.9785

> <Gold.Chemscore.Rot>
2.4431

> <Gold.Chemscore.Internal.Correction>
   9.000000E+99

> <Gold.Chemscore.Hbonds>
donor molecule, donor type, donor heavy atom, donor atom, acceptor molecule, acceptor atom, score
      P1  H  7997  8010       L1    13  0.50

> <Gold.Chemscore.Hbond.Weighted>
-3.0795

> <Gold.Chemscore.Metal.Weighted>
-0.0000

> <Gold.Chemscore.Lipo.Weighted>
-10.7572

> <Gold.Chemscore.Internal_Hbond.Weighted>
0.0000

> <Gold.Chemscore.DEClash.Weighted>
0.6117

> <Gold.Chemscore.DEInternal.Weighted>
2.9785

> <Gold.Chemscore.Rot.Weighted>
6.2544

> <Gold.Chemscore.Internal.Correction.Weighted>
   9.000000E+99

> <Gold.Protein.RotatedTorsions>
[ 6907 6896 6895 6894 ] final  -27.76 input  -60.11 | X-H torsion
[ 7974 7965 7964 7962 ] final  152.16 input  175.53 | X-H torsion
[ 8008 7997 7996 7995 ] final   75.60 input   59.86 | X-H torsion
[ 10167 10162 10161 10158 ] final -100.90 input  -65.29 | X-H torsion
[ 10718 10713 10712 10709 ] final   75.24 input   66.30 | X-H torsion
[ 10763 10752 10751 10750 ] final  -32.12 input  -60.55 | X-H torsion
[ 11005 11000 10999 10996 ] final  -10.29 input  -57.11 | X-H torsion

> <Gold.Protein.ActiveResidues>
 VAL166  LYS551  ARG553  GLY616  TRP617  ASP618  TYR619  PRO620  LYS621  CYS622 
 ASP623  PHE694  ASN695  SER759  ASP760  ASP761  ALA762  ILE779  LEU786  VAL792 
 PHE793  MET794  SER795  GLU796  ALA797  LYS798  CYS799  TRP800  GLU811  SER814 

> <Gold.Protein.RotatedAtoms>
  151.1424  135.0186  159.8631 H   0  0  0  0  0  0  0  0  0  0  0  0  # atno 6907 bound_to 6896
  152.5452  134.1484  159.8518 H   0  0  0  0  0  0  0  0  0  0  0  0  # atno 6908 bound_to 6896
  151.1561  133.4830  159.2627 H   0  0  0  0  0  0  0  0  0  0  0  0  # atno 6909 bound_to 6896
  144.8242  139.6632  143.6087 H   0  0  0  0  0  0  0  0  0  0  0  0  # atno 7974 bound_to 7965
  155.8153  140.3472  155.5482 H   0  0  0  0  0  0  0  0  0  0  0  0  # atno 8008 bound_to 7997
  155.8398  140.0940  157.1761 H   0  0  0  0  0  0  0  0  0  0  0  0  # atno 8009 bound_to 7997
  154.4005  140.1396  156.3702 H   0  0  0  0  0  0  0  0  0  0  0  0  # atno 8010 bound_to 7997
  140.2470  143.3499  152.0750 H   0  0  0  0  0  0  0  0  0  0  0  0  # atno 10167 bound_to 10162
  157.6626  130.9717  150.1325 H   0  0  0  0  0  0  0  0  0  0  0  0  # atno 10718 bound_to 10713
  153.8086  135.6884  153.4844 H   0  0  0  0  0  0  0  0  0  0  0  0  # atno 10763 bound_to 10752
  153.1643  135.4567  154.9814 H   0  0  0  0  0  0  0  0  0  0  0  0  # atno 10764 bound_to 10752
  154.7977  135.3325  154.7568 H   0  0  0  0  0  0  0  0  0  0  0  0  # atno 10765 bound_to 10752
  140.7431  133.8653  155.8984 H   0  0  0  0  0  0  0  0  0  0  0  0  # atno 11005 bound_to 11000
  146.2547  139.6276  142.9403 LP  0  0  0  0  0  0  0  0  0  0  0  0  # atno 17320 bound_to 7965
  145.5038  141.0437  143.2526 LP  0  0  0  0  0  0  0  0  0  0  0  0  # atno 17321 bound_to 7965
  139.5058  144.6803  151.6026 LP  0  0  0  0  0  0  0  0  0  0  0  0  # atno 17342 bound_to 10162
  140.6070  143.9506  150.6426 LP  0  0  0  0  0  0  0  0  0  0  0  0  # atno 17343 bound_to 10162
  156.2168  130.3671  149.8603 LP  0  0  0  0  0  0  0  0  0  0  0  0  # atno 17370 bound_to 10713
  156.6467  130.8727  151.3524 LP  0  0  0  0  0  0  0  0  0  0  0  0  # atno 17371 bound_to 10713
  140.9818  134.1395  157.4487 LP  0  0  0  0  0  0  0  0  0  0  0  0  # atno 17394 bound_to 11000
  139.8802  135.0013  156.6059 LP  0  0  0  0  0  0  0  0  0  0  0  0  # atno 17395 bound_to 11000

$$$$
