AV-unprocessed.smi:2603|AV-procd|sdf|10185|dock7
  -GOLD-   2272014203D 1   1.00000     0.00000
 Structure written by MMmdl.
 35 36  0  0  0  0  0  0  0  0  1 V2000
  153.1984  142.7382  162.9149 C   0  0  0  0  0  0  0  0  0  0  0  0
  152.3527  143.7264  162.1083 C   0  0  0  0  0  0  0  0  0  0  0  0
  151.5770  143.0070  161.1661 O   0  0  0  0  0  0  0  0  0  0  0  0
  152.1160  143.0899  159.8596 C   0  0  2  0  0  0  0  0  0  0  0  0
  151.8860  144.4127  159.1845 C   0  0  0  0  0  0  0  0  0  0  0  0
  151.0428  143.2088  158.8029 C   0  0  1  0  0  0  0  0  0  0  0  0
  151.2956  142.5976  157.5394 N   0  0  0  0  0  0  0  0  0  0  0  0
  150.4964  141.7123  156.9260 C   0  0  0  0  0  0  0  0  0  0  0  0
  149.4307  141.3129  157.3951 O   0  0  0  0  0  0  0  0  0  0  0  0
  150.9698  141.2023  155.5652 C   0  0  0  0  0  0  0  0  0  0  0  0
  149.9633  140.2264  155.0124 C   0  0  0  0  0  0  0  0  0  0  0  0
  148.5951  140.4572  154.6872 C   0  0  0  0  0  0  0  0  0  0  0  0
  147.8008  141.7253  154.8159 C   0  0  0  0  0  0  0  0  0  0  0  0
  148.0057  139.3660  154.2282 N   0  0  0  0  0  0  0  0  0  0  0  0
  148.9854  138.3685  154.2366 O   0  0  0  0  0  0  0  0  0  0  0  0
  150.1397  138.9047  154.7083 C   0  0  0  0  0  0  0  0  0  0  0  0
  151.3150  137.9920  154.8042 C   0  0  0  0  0  0  0  0  0  0  0  0
  153.8139  143.2598  163.6478 H   0  0  0  0  0  0  0  0  0  0  0  0
  153.8627  142.1690  162.2642 H   0  0  0  0  0  0  0  0  0  0  0  0
  152.5663  142.0305  163.4518 H   0  0  0  0  0  0  0  0  0  0  0  0
  151.7025  144.2934  162.7764 H   0  0  0  0  0  0  0  0  0  0  0  0
  153.0002  144.4383  161.5942 H   0  0  0  0  0  0  0  0  0  0  0  0
  153.0097  142.4997  159.6617 H   0  0  0  0  0  0  0  0  0  0  0  0
  151.4058  145.1994  159.7634 H   0  0  0  0  0  0  0  0  0  0  0  0
  152.6387  144.7513  158.4752 H   0  0  0  0  0  0  0  0  0  0  0  0
  150.0131  143.2143  159.1583 H   0  0  0  0  0  0  0  0  0  0  0  0
  152.1499  142.8625  157.0712 H   0  0  0  0  0  0  0  0  0  0  0  0
  151.1210  142.0462  154.8908 H   0  0  0  0  0  0  0  0  0  0  0  0
  151.9488  140.7373  155.6861 H   0  0  0  0  0  0  0  0  0  0  0  0
  147.3673  141.8122  155.8124 H   0  0  0  0  0  0  0  0  0  0  0  0
  146.9851  141.7626  154.0930 H   0  0  0  0  0  0  0  0  0  0  0  0
  148.4269  142.6016  154.6486 H   0  0  0  0  0  0  0  0  0  0  0  0
  151.5832  137.8197  155.8465 H   0  0  0  0  0  0  0  0  0  0  0  0
  152.1801  138.4221  154.2993 H   0  0  0  0  0  0  0  0  0  0  0  0
  151.1025  137.0258  154.3455 H   0  0  0  0  0  0  0  0  0  0  0  0
  1  2  1  0  0  0  0
  1 18  1  0  0  0  0
  1 19  1  0  0  0  0
  1 20  1  0  0  0  0
  2  3  1  0  0  0  0
  2 21  1  0  0  0  0
  2 22  1  0  0  0  0
  3  4  1  0  0  0  0
  4  6  1  0  0  0  0
  4  5  1  0  0  0  0
  4 23  1  0  0  0  0
  5  6  1  0  0  0  0
  5 24  1  0  0  0  0
  5 25  1  0  0  0  0
  6  7  1  0  0  0  0
  6 26  1  0  0  0  0
  7  8  1  0  0  0  0
  7 27  1  0  0  0  0
  8  9  2  0  0  0  0
  8 10  1  0  0  0  0
 10 11  1  0  0  0  0
 10 28  1  0  0  0  0
 10 29  1  0  0  0  0
 11 16  2  0  0  0  0
 11 12  1  0  0  0  0
 12 13  1  0  0  0  0
 12 14  2  0  0  0  0
 13 30  1  0  0  0  0
 13 31  1  0  0  0  0
 13 32  1  0  0  0  0
 14 15  1  0  0  0  0
 15 16  1  0  0  0  0
 16 17  1  0  0  0  0
 17 33  1  0  0  0  0
 17 34  1  0  0  0  0
 17 35  1  0  0  0  0
M  END
> <s_m_source_file>
AV-unprocessed.smi

> <i_m_source_file_index>
2603

> <i_lp_mmshare_version>
43012

> <i_f3d_flags>
0

> <s_epik_input>
W0NIM11bQ0gyXU9bQ0BASF0xW0NIMl1bQ0BIXTFbTkhdQyg9TylbQ0gyXWMyYyhbQ0gzXSlub2MyW0NIM10=

> <s_epik_cmdline>
J2VwaWtfcHl0aG9uJywgJy1waCcsICc3LjAnLCAnLXRuJywgJzgnLCAnLW1hJywgJzIwMCcsICctbWV0YWxfYmluZGluZycsICctaW1hZScsICc8aW5maWxlLm1hZT4nLCAnLW9tYWUnLCAnPG91dGZpbGUubWFlPic=

> <r_lp_tautomer_probability>
1

> <r_epik_Ionization_Penalty>
2.37325e-08

> <r_epik_Ionization_Penalty_Charging>
0

> <r_epik_Ionization_Penalty_Neutral>
2.37325e-08

> <r_epik_State_Penalty>
-0

> <r_epik_Charging_Adjusted_Penalty>
0

> <i_epik_Tot_Q>
0

> <i_epik_Tot_abs_Q>
0

> <r_epik_Metal_State_Penalty>
-0

> <b_epik_Metal_Only>
0

> <s_lp_Force_Field>
OPLS_2005

> <r_lp_Energy>
10.4269

> <b_lp_Chiralities_Consistent>
1

> <s_lp_Variant>
AV-unprocessed.smi:2603-1

> <Gold.Version>
5.8.1

> <Gold.Id.Protein>
6NUR|6NUR_protein|mol2

> <Gold.PLP.Fitness>
35.4915

> <Gold.PLP.PLP>
-35.7718

> <Gold.PLP.part.hbond>
-1.0000

> <Gold.PLP.part.metal>
0.0000

> <Gold.PLP.part.buried>
-3.6982

> <Gold.PLP.part.nonpolar>
-31.8603

> <Gold.PLP.part.repulsive>
0.5460

> <Gold.PLP.ligand.clash>
0.0000

> <Gold.PLP.ligand.torsion>
0.7288

> <Gold.PLP.Chemscore.Hbond>
0.1685

> <Gold.PLP.Chemscore.CHOScore>
0.0000

> <Gold.PLP.Chemscore.Metal>
0.0000

> <Gold.Chemscore.Hbonds>
donor molecule, donor type, donor heavy atom, donor atom, acceptor molecule, acceptor atom, score
      P1  H  6933  6945       L1     3  0.20

> <Gold.PLP.Chemscore.Internal.Correction>
0.6718

> <Gold.Rescore>
     Score         DG    S(hbond)    S(metal)    S(lipo)     H(rot)  DE(clash)    DE(int)     intcor
     11.83     -12.84       0.26        0.00      92.58       1.69       0.17       0.84       ----

> <Gold.Chemscore.Fitness>
11.8278

> <Gold.Chemscore.DG>
-12.8384

> <Gold.Chemscore.ZeroCoef>
-5.4800

> <Gold.Chemscore.Hbond>
0.2580

> <Gold.Chemscore.Metal>
0.0000

> <Gold.Chemscore.Lipo>
92.5767

> <Gold.Chemscore.Internal_Hbond>
0.0000

> <Gold.Chemscore.DEClash>
0.1663

> <Gold.Chemscore.DEInternal>
0.8443

> <Gold.Chemscore.Rot>
1.6933

> <Gold.Chemscore.Internal.Correction>
   9.000000E+99

> <Gold.Chemscore.Hbonds>
donor molecule, donor type, donor heavy atom, donor atom, acceptor molecule, acceptor atom, score
      P1  H  6933  6945       L1     3  0.14

> <Gold.Chemscore.Hbond.Weighted>
-0.8617

> <Gold.Chemscore.Metal.Weighted>
-0.0000

> <Gold.Chemscore.Lipo.Weighted>
-10.8315

> <Gold.Chemscore.Internal_Hbond.Weighted>
0.0000

> <Gold.Chemscore.DEClash.Weighted>
0.1663

> <Gold.Chemscore.DEInternal.Weighted>
0.8443

> <Gold.Chemscore.Rot.Weighted>
4.3348

> <Gold.Chemscore.Internal.Correction.Weighted>
   9.000000E+99

> <Gold.Protein.RotatedTorsions>
[ 6907 6896 6895 6894 ] final  -57.95 input  -60.11 | X-H torsion
[ 7974 7965 7964 7962 ] final   36.15 input  175.53 | X-H torsion
[ 8008 7997 7996 7995 ] final  -94.53 input   59.86 | X-H torsion
[ 10167 10162 10161 10158 ] final   24.33 input  -65.29 | X-H torsion
[ 10718 10713 10712 10709 ] final  -58.86 input   66.30 | X-H torsion
[ 10763 10752 10751 10750 ] final  -56.75 input  -60.55 | X-H torsion
[ 11005 11000 10999 10996 ] final   44.32 input  -57.11 | X-H torsion

> <Gold.Protein.ActiveResidues>
 VAL166  LYS551  ARG553  GLY616  TRP617  ASP618  TYR619  PRO620  LYS621  CYS622 
 ASP623  PHE694  ASN695  SER759  ASP760  ASP761  ALA762  ILE779  LEU786  VAL792 
 PHE793  MET794  SER795  GLU796  ALA797  LYS798  CYS799  TRP800  GLU811  SER814 

> <Gold.Protein.RotatedAtoms>
  150.8045  134.7162  159.6631 H   0  0  0  0  0  0  0  0  0  0  0  0  # atno 6907 bound_to 6896
  152.4164  134.6030  160.0015 H   0  0  0  0  0  0  0  0  0  0  0  0  # atno 6908 bound_to 6896
  151.6258  133.3298  159.3134 H   0  0  0  0  0  0  0  0  0  0  0  0  # atno 6909 bound_to 6896
  146.1232  139.6053  142.9276 H   0  0  0  0  0  0  0  0  0  0  0  0  # atno 7974 bound_to 7965
  154.7496  140.0488  157.0882 H   0  0  0  0  0  0  0  0  0  0  0  0  # atno 8008 bound_to 7997
  155.0074  140.3132  155.4824 H   0  0  0  0  0  0  0  0  0  0  0  0  # atno 8009 bound_to 7997
  156.2882  140.2190  156.5186 H   0  0  0  0  0  0  0  0  0  0  0  0  # atno 8010 bound_to 7997
  140.5197  144.0023  150.6411 H   0  0  0  0  0  0  0  0  0  0  0  0  # atno 10167 bound_to 10162
  156.1104  130.4176  150.0635 H   0  0  0  0  0  0  0  0  0  0  0  0  # atno 10718 bound_to 10713
  154.2116  135.6393  153.5117 H   0  0  0  0  0  0  0  0  0  0  0  0  # atno 10763 bound_to 10752
  152.9988  135.5475  154.6209 H   0  0  0  0  0  0  0  0  0  0  0  0  # atno 10764 bound_to 10752
  154.5647  135.2912  155.0859 H   0  0  0  0  0  0  0  0  0  0  0  0  # atno 10765 bound_to 10752
  140.1563  134.4398  155.8347 H   0  0  0  0  0  0  0  0  0  0  0  0  # atno 11005 bound_to 11000
  145.5422  141.0420  143.2324 LP  0  0  0  0  0  0  0  0  0  0  0  0  # atno 17320 bound_to 7965
  144.7617  139.6942  143.7232 LP  0  0  0  0  0  0  0  0  0  0  0  0  # atno 17321 bound_to 7965
  140.3369  143.3043  152.0629 LP  0  0  0  0  0  0  0  0  0  0  0  0  # atno 17342 bound_to 10162
  139.4919  144.6470  151.6757 LP  0  0  0  0  0  0  0  0  0  0  0  0  # atno 17343 bound_to 10162
  156.8600  130.9488  151.3618 LP  0  0  0  0  0  0  0  0  0  0  0  0  # atno 17370 bound_to 10713
  157.6284  130.8710  149.9231 LP  0  0  0  0  0  0  0  0  0  0  0  0  # atno 17371 bound_to 10713
  141.2205  133.6894  156.7513 LP  0  0  0  0  0  0  0  0  0  0  0  0  # atno 17394 bound_to 11000
  140.2544  134.8516  157.3698 LP  0  0  0  0  0  0  0  0  0  0  0  0  # atno 17395 bound_to 11000

$$$$
