#       Name:                AV-unprocessed.smi:1073
#       Creating user name   scv26
#       Creation time:       Fri Mar 27 03:21:01 2020


#       File generated by GOLD software.
#

@<TRIPOS>MOLECULE
AV-unprocessed.smi:1073
    50    50     1
SMALL
NO_CHARGES


@<TRIPOS>ATOM
      1 ****         0.7403  -4.7613  -1.5794 C.3            1 S1                 0.0000
      2 ****         0.5970  -3.7344  -0.5591 N.am           1 S1                 0.0000
      3 ****         1.2688  -2.5742  -0.5556 C.2            1 S1                 0.0000
      4 ****         2.0886  -2.2691  -1.4234 O.2            1 S1                 0.0000
      5 ****         0.9794  -1.6242   0.6194 C.3            1 S1                 0.0000
      6 ****         2.1319  -1.7676   1.6422 C.3            1 S1                 0.0000
      7 ****         2.0056  -0.8915   2.9103 C.3            1 S1                 0.0000
      8 ****         3.2754  -1.0012   3.7680 C.3            1 S1                 0.0000
      9 ****         0.7627  -1.2380   3.7468 C.3            1 S1                 0.0000
     10 ****         0.9346  -0.2392   0.1499 N.am           1 S1                 0.0000
     11 ****        -0.1296   0.3549  -0.4118 C.2            1 S1                 0.0000
     12 ****        -1.1981  -0.2255  -0.6091 O.2            1 S1                 0.0000
     13 ****         0.0605   1.8231  -0.8188 C.3            1 S1                 0.0000
     14 ****        -1.2058   2.5263  -1.0852 N.am           1 S1                 0.0000
     15 ****        -1.6063   2.6378  -2.4313 C.2            1 S1                 0.0000
     16 ****        -2.7375   3.2633  -2.8100 C.2            1 S1                 0.0000
     17 ****        -3.1761   3.3181  -4.2652 C.3            1 S1                 0.0000
     18 ****        -4.5056   3.3188  -4.3644 F              1 S1                 0.0000
     19 ****        -2.7181   4.4326  -4.8338 F              1 S1                 0.0000
     20 ****        -2.7054   2.2769  -4.9528 F              1 S1                 0.0000
     21 ****        -3.5638   3.8011  -1.7472 C.2            1 S1                 0.0000
     22 ****        -3.2016   3.6927  -0.4540 C.2            1 S1                 0.0000
     23 ****        -1.9574   3.0279  -0.0596 C.2            1 S1                 0.0000
     24 ****        -1.6133   2.9265   1.1183 O.2            1 S1                 0.0000
     25 ****         0.0627  -5.5891  -1.3712 H              1 S1                 0.0000
     26 ****         1.7589  -5.1506  -1.5971 H              1 S1                 0.0000
     27 ****         0.5008  -4.3649  -2.5669 H              1 S1                 0.0000
     28 ****        -0.0587  -3.9121   0.1880 H              1 S1                 0.0000
     29 ****         0.0280  -1.8961   1.0796 H              1 S1                 0.0000
     30 ****         2.2147  -2.8118   1.9493 H              1 S1                 0.0000
     31 ****         3.0769  -1.5297   1.1497 H              1 S1                 0.0000
     32 ****         1.9201   0.1522   2.6065 H              1 S1                 0.0000
     33 ****         3.4308  -2.0222   4.1181 H              1 S1                 0.0000
     34 ****         3.2166  -0.3547   4.6442 H              1 S1                 0.0000
     35 ****         4.1596  -0.7053   3.2026 H              1 S1                 0.0000
     36 ****         0.7627  -2.2877   4.0421 H              1 S1                 0.0000
     37 ****        -0.1586  -1.0430   3.1984 H              1 S1                 0.0000
     38 ****         0.7243  -0.6376   4.6562 H              1 S1                 0.0000
     39 ****         1.7779   0.3046   0.2616 H              1 S1                 0.0000
     40 ****         0.6193   2.3424  -0.0380 H              1 S1                 0.0000
     41 ****         0.7067   1.8511  -1.6971 H              1 S1                 0.0000
     42 ****        -0.9362   2.1718  -3.1391 H              1 S1                 0.0000
     43 ****        -4.4889   4.3018  -1.9923 H              1 S1                 0.0000
     44 ****        -3.8425   4.1056   0.3112 H              1 S1                 0.0000
     45 ****         2.2787  -2.9000  -2.1756 LP             1 S1                 0.0000
     46 ****         2.5638  -1.3905  -1.3755 LP             1 S1                 0.0000
     47 ****        -1.3018  -1.1849  -0.3469 LP             1 S1                 0.0000
     48 ****        -1.9618   0.2628  -1.0315 LP             1 S1                 0.0000
     49 ****        -0.7576   2.4645   1.3512 LP             1 S1                 0.0000
     50 ****        -2.1896   3.3062   1.8420 LP             1 S1                 0.0000
@<TRIPOS>BOND
    1    1    2 1     
    2    1   25 1     
    3    1   26 1     
    4    1   27 1     
    5    2    3 am    
    6    2   28 1     
    7    3    4 2     
    8    3    5 1     
    9    5    6 1     
   10    5   10 1     
   11    5   29 1     
   12    6    7 1     
   13    6   30 1     
   14    6   31 1     
   15    7    8 1     
   16    7    9 1     
   17    7   32 1     
   18    8   33 1     
   19    8   34 1     
   20    8   35 1     
   21    9   36 1     
   22    9   37 1     
   23    9   38 1     
   24   10   11 am    
   25   10   39 1     
   26   11   12 2     
   27   11   13 1     
   28   13   14 1     
   29   13   40 1     
   30   13   41 1     
   31   14   23 am    
   32   14   15 1     
   33   15   16 2     
   34   15   42 1     
   35   16   17 1     
   36   16   21 1     
   37   17   18 1     
   38   17   19 1     
   39   17   20 1     
   40   21   22 2     
   41   21   43 1     
   42   22   23 1     
   43   22   44 1     
   44   23   24 2     
   45    4   45 1     
   46    4   46 1     
   47   12   47 1     
   48   12   48 1     
   49   24   49 1     
   50   24   50 1     
@<TRIPOS>SUBSTRUCTURE
      1 S1             1
@<TRIPOS>SET
LONE_PAIRS      STATIC     ATOMS    <user>   **** ""
6 45 46 47 48 49 50
DONOR_HYDROGENS      STATIC     ATOMS    <user>   **** ""
2 28 39
ATOM$BLUE        STATIC     ATOMS    COLORGROUP SYSTEM
6 45 46 47 48 49 50
ATOM$RED        STATIC     ATOMS    COLORGROUP SYSTEM
2 28 39
