AV-unprocessed.smi:3163|AV-procd|sdf|12071|dock2
  -GOLD-   2272017503D 1   1.00000     0.00000
 Structure written by MMmdl.
 36 37  0  0  0  0  0  0  0  0  2 V2000
  146.0721  132.4583  150.4277 C   0  0  0  0  0  0  0  0  0  0  0  0
  145.6518  133.8596  150.2190 N   0  3  1  0  0  0  0  0  0  0  0  0
  144.1847  134.0606  150.1666 C   0  0  0  0  0  0  0  0  0  0  0  0
  143.8696  135.2406  151.0930 C   0  0  0  0  0  0  0  0  0  0  0  0
  145.2056  135.9701  151.2448 C   0  0  1  0  0  0  0  0  0  0  0  0
  145.3349  136.8551  152.4990 C   0  0  0  0  0  0  0  0  0  0  0  0
  146.7227  137.2172  152.7708 N   0  0  0  0  0  0  0  0  0  0  0  0
  147.1238  138.2784  153.4859 C   0  0  0  0  0  0  0  0  0  0  0  0
  146.3458  139.0867  153.9923 O   0  0  0  0  0  0  0  0  0  0  0  0
  148.4653  138.3429  153.5466 N   0  0  0  0  0  0  0  0  0  0  0  0
  149.2829  139.2997  154.2079 C   0  0  0  0  0  0  0  0  0  0  0  0
  150.5366  138.8686  154.6888 C   0  0  0  0  0  0  0  0  0  0  0  0
  151.3606  139.7922  155.3625 C   0  0  0  0  0  0  0  0  0  0  0  0
  151.0088  141.0762  155.5834 N   0  0  0  0  0  0  0  0  0  0  0  0
  149.8028  141.4838  155.1351 C   0  0  0  0  0  0  0  0  0  0  0  0
  148.9039  140.6425  154.4490 C   0  0  0  0  0  0  0  0  0  0  0  0
  146.2024  134.8120  151.2055 C   0  0  0  0  0  0  0  0  0  0  0  0
  145.7078  132.0757  151.3820 H   0  0  0  0  0  0  0  0  0  0  0  0
  147.1598  132.3820  150.4197 H   0  0  0  0  0  0  0  0  0  0  0  0
  145.6836  131.8222  149.6319 H   0  0  0  0  0  0  0  0  0  0  0  0
  143.9056  134.2912  149.1381 H   0  0  0  0  0  0  0  0  0  0  0  0
  143.6298  133.1706  150.4672 H   0  0  0  0  0  0  0  0  0  0  0  0
  143.0790  135.8812  150.7014 H   0  0  0  0  0  0  0  0  0  0  0  0
  143.5408  134.8616  152.0618 H   0  0  0  0  0  0  0  0  0  0  0  0
  145.3638  136.5854  150.3573 H   0  0  0  0  0  0  0  0  0  0  0  0
  144.7112  137.7462  152.4085 H   0  0  0  0  0  0  0  0  0  0  0  0
  144.9609  136.3112  153.3669 H   0  0  0  0  0  0  0  0  0  0  0  0
  147.4326  136.6092  152.3885 H   0  0  0  0  0  0  0  0  0  0  0  0
  148.9656  137.6476  153.0128 H   0  0  0  0  0  0  0  0  0  0  0  0
  150.8684  137.8509  154.5431 H   0  0  0  0  0  0  0  0  0  0  0  0
  152.3276  139.4896  155.7363 H   0  0  0  0  0  0  0  0  0  0  0  0
  149.5423  142.5128  155.3348 H   0  0  0  0  0  0  0  0  0  0  0  0
  147.9498  141.0387  154.1382 H   0  0  0  0  0  0  0  0  0  0  0  0
  146.2567  134.3360  152.1866 H   0  0  0  0  0  0  0  0  0  0  0  0
  147.2078  135.1334  150.9319 H   0  0  0  0  0  0  0  0  0  0  0  0
  146.0052  134.1475  149.3176 H   0  0  0  0  0  0  0  0  0  0  0  0
  1  2  1  0  0  0  0
  1 18  1  0  0  0  0
  1 19  1  0  0  0  0
  1 20  1  0  0  0  0
  2 17  1  0  0  0  0
  2  3  1  0  0  0  0
  2 36  1  0  0  0  0
  3  4  1  0  0  0  0
  3 21  1  0  0  0  0
  3 22  1  0  0  0  0
  4  5  1  0  0  0  0
  4 23  1  0  0  0  0
  4 24  1  0  0  0  0
  5  6  1  0  0  0  0
  5 17  1  0  0  0  0
  5 25  1  0  0  0  0
  6  7  1  0  0  0  0
  6 26  1  0  0  0  0
  6 27  1  0  0  0  0
  7  8  1  0  0  0  0
  7 28  1  0  0  0  0
  8  9  2  0  0  0  0
  8 10  1  0  0  0  0
 10 11  1  0  0  0  0
 10 29  1  0  0  0  0
 11 16  1  0  0  0  0
 11 12  2  0  0  0  0
 12 13  1  0  0  0  0
 12 30  1  0  0  0  0
 13 14  2  0  0  0  0
 13 31  1  0  0  0  0
 14 15  1  0  0  0  0
 15 16  2  0  0  0  0
 15 32  1  0  0  0  0
 16 33  1  0  0  0  0
 17 34  1  0  0  0  0
 17 35  1  0  0  0  0
M  CHG  1   2   1
M  END
> <s_m_source_file>
AV-unprocessed.smi

> <i_m_source_file_index>
3163

> <i_lp_mmshare_version>
43012

> <i_f3d_flags>
0

> <s_epik_input>
W0NIM11OMVtDSDJdW0NIMl1bQ0BIXShbQ0gyXTEpW0NIMl1bTkhdQyg9TylbTkhdYzJbY0hdW2NIXW5bY0hdW2NIXTI=

> <s_epik_cmdline>
J2VwaWtfcHl0aG9uJywgJy1waCcsICc3LjAnLCAnLXRuJywgJzgnLCAnLW1hJywgJzIwMCcsICctbWV0YWxfYmluZGluZycsICctaW1hZScsICc8aW5maWxlLm1hZT4nLCAnLW9tYWUnLCAnPG91dGZpbGUubWFlPic=

> <r_epik_Ionization_Penalty>
0.103936

> <r_epik_Ionization_Penalty_Charging>
0.0012301

> <r_epik_Ionization_Penalty_Neutral>
0.102706

> <r_epik_State_Penalty>
0.0926275

> <r_epik_Charging_Adjusted_Penalty>
0.0938576

> <i_epik_Tot_Q>
1

> <i_epik_Tot_abs_Q>
1

> <r_epik_Metal_State_Penalty>
0.0788376

> <b_epik_Metal_Only>
0

> <s_lp_Force_Field>
OPLS_2005

> <r_lp_Energy>
32.4174

> <b_lp_Chiralities_Consistent>
1

> <s_lp_Variant>
AV-unprocessed.smi:3163-1

> <Gold.Version>
5.8.1

> <Gold.Id.Protein>
6NUR|6NUR_protein|mol2

> <Gold.PLP.Fitness>
41.5295

> <Gold.PLP.PLP>
-30.4050

> <Gold.PLP.part.hbond>
-4.6162

> <Gold.PLP.part.metal>
0.0000

> <Gold.PLP.part.buried>
0.2632

> <Gold.PLP.part.nonpolar>
-26.3389

> <Gold.PLP.part.repulsive>
0.3556

> <Gold.PLP.ligand.clash>
0.0000

> <Gold.PLP.ligand.torsion>
0.4397

> <Gold.PLP.Chemscore.Hbond>
3.0000

> <Gold.PLP.Chemscore.CHOScore>
1.0000

> <Gold.PLP.Chemscore.Metal>
0.0000

> <Gold.Chemscore.Hbonds>
donor molecule, donor type, donor heavy atom, donor atom, acceptor molecule, acceptor atom, score
      L1  H     2    36       P1  7921  1.00
      L1  H     7    28       P1  7948  1.00
      L1  H    10    29       P1  7948  1.00
      L1  C    15    32       P1  8028  1.00

> <Gold.PLP.Chemscore.Internal.Correction>
0.0039

> <Gold.Rescore>
     Score         DG    S(hbond)    S(metal)    S(lipo)     H(rot)  DE(clash)    DE(int)     intcor
     19.83     -20.64       2.89        0.00      74.51       1.26       0.24       0.58       ----

> <Gold.Chemscore.Fitness>
19.8279

> <Gold.Chemscore.DG>
-20.6413

> <Gold.Chemscore.ZeroCoef>
-5.4800

> <Gold.Chemscore.Hbond>
2.8918

> <Gold.Chemscore.Metal>
0.0000

> <Gold.Chemscore.Lipo>
74.5120

> <Gold.Chemscore.Internal_Hbond>
0.0000

> <Gold.Chemscore.DEClash>
0.2374

> <Gold.Chemscore.DEInternal>
0.5760

> <Gold.Chemscore.Rot>
1.2559

> <Gold.Chemscore.Internal.Correction>
   9.000000E+99

> <Gold.Chemscore.Hbonds>
donor molecule, donor type, donor heavy atom, donor atom, acceptor molecule, acceptor atom, score
      L1  H     2    36       P1  7921  0.26
      L1  H     7    28       P1  7948  0.98
      L1  H    10    29       P1  7948  0.95

> <Gold.Chemscore.Hbond.Weighted>
-9.6585

> <Gold.Chemscore.Metal.Weighted>
-0.0000

> <Gold.Chemscore.Lipo.Weighted>
-8.7179

> <Gold.Chemscore.Internal_Hbond.Weighted>
0.0000

> <Gold.Chemscore.DEClash.Weighted>
0.2374

> <Gold.Chemscore.DEInternal.Weighted>
0.5760

> <Gold.Chemscore.Rot.Weighted>
3.2151

> <Gold.Chemscore.Internal.Correction.Weighted>
   9.000000E+99

> <Gold.Protein.RotatedTorsions>
[ 6907 6896 6895 6894 ] final   37.14 input  -60.11 | X-H torsion
[ 7974 7965 7964 7962 ] final  -73.20 input  175.53 | X-H torsion
[ 8008 7997 7996 7995 ] final -111.42 input   59.86 | X-H torsion
[ 10167 10162 10161 10158 ] final  163.93 input  -65.29 | X-H torsion
[ 10718 10713 10712 10709 ] final  119.78 input   66.30 | X-H torsion
[ 10763 10752 10751 10750 ] final   22.21 input  -60.55 | X-H torsion
[ 11005 11000 10999 10996 ] final   -4.29 input  -57.11 | X-H torsion

> <Gold.Protein.ActiveResidues>
 VAL166  LYS551  ARG553  GLY616  TRP617  ASP618  TYR619  PRO620  LYS621  CYS622 
 ASP623  PHE694  ASN695  SER759  ASP760  ASP761  ALA762  ILE779  LEU786  VAL792 
 PHE793  MET794  SER795  GLU796  ALA797  LYS798  CYS799  TRP800  GLU811  SER814 

> <Gold.Protein.RotatedAtoms>
  152.1392  134.9075  160.0554 H   0  0  0  0  0  0  0  0  0  0  0  0  # atno 6907 bound_to 6896
  152.0150  133.3871  159.4243 H   0  0  0  0  0  0  0  0  0  0  0  0  # atno 6908 bound_to 6896
  150.6863  134.3610  159.4994 H   0  0  0  0  0  0  0  0  0  0  0  0  # atno 6909 bound_to 6896
  145.6553  140.9270  143.0963 H   0  0  0  0  0  0  0  0  0  0  0  0  # atno 7974 bound_to 7965
  154.9895  140.0395  157.2313 H   0  0  0  0  0  0  0  0  0  0  0  0  # atno 8008 bound_to 7997
  154.7641  140.2790  155.6168 H   0  0  0  0  0  0  0  0  0  0  0  0  # atno 8009 bound_to 7997
  156.2909  140.2623  156.2427 H   0  0  0  0  0  0  0  0  0  0  0  0  # atno 8010 bound_to 7997
  139.4881  144.4287  151.9097 H   0  0  0  0  0  0  0  0  0  0  0  0  # atno 10167 bound_to 10162
  157.5937  131.1061  150.7944 H   0  0  0  0  0  0  0  0  0  0  0  0  # atno 10718 bound_to 10713
  153.0934  135.6653  153.9811 H   0  0  0  0  0  0  0  0  0  0  0  0  # atno 10763 bound_to 10752
  153.9401  135.2995  155.3444 H   0  0  0  0  0  0  0  0  0  0  0  0  # atno 10764 bound_to 10752
  154.7350  135.5105  153.9100 H   0  0  0  0  0  0  0  0  0  0  0  0  # atno 10765 bound_to 10752
  140.6786  133.9173  155.8540 H   0  0  0  0  0  0  0  0  0  0  0  0  # atno 11005 bound_to 11000
  144.7108  139.8378  143.7415 LP  0  0  0  0  0  0  0  0  0  0  0  0  # atno 17320 bound_to 7965
  146.1170  139.4183  143.0252 LP  0  0  0  0  0  0  0  0  0  0  0  0  # atno 17321 bound_to 7965
  140.3734  144.2827  150.5917 LP  0  0  0  0  0  0  0  0  0  0  0  0  # atno 17342 bound_to 10162
  140.5298  143.2246  151.8256 LP  0  0  0  0  0  0  0  0  0  0  0  0  # atno 17343 bound_to 10162
  156.8359  130.5031  149.5326 LP  0  0  0  0  0  0  0  0  0  0  0  0  # atno 17370 bound_to 10713
  156.0996  130.5959  150.9872 LP  0  0  0  0  0  0  0  0  0  0  0  0  # atno 17371 bound_to 10713
  141.0335  134.0722  157.3986 LP  0  0  0  0  0  0  0  0  0  0  0  0  # atno 17394 bound_to 11000
  139.8959  135.0143  156.7023 LP  0  0  0  0  0  0  0  0  0  0  0  0  # atno 17395 bound_to 11000

$$$$
