#       Name:                AV-unprocessed.smi:2946
#       Creating user name   scv26
#       Creation time:       Fri Mar 27 16:17:19 2020


#       File generated by GOLD software.
#

@<TRIPOS>MOLECULE
AV-unprocessed.smi:2946
    42    43     1
SMALL
NO_CHARGES


@<TRIPOS>ATOM
      1 ****        -0.3267   1.9981   0.7677 C.3            1 S1                 0.0000
      2 ****        -1.2219   0.8930   0.4901 N.am           1 S1                 0.0000
      3 ****        -0.8888  -0.4560   0.6423 C.2            1 S1                 0.0000
      4 ****         0.3967  -0.7591   1.0782 N.pl3          1 S1                 0.0000
      5 ****         1.4492   0.1940   1.3980 C.3            1 S1                 0.0000
      6 ****         1.8701   0.1101   2.8733 C.3            1 S1                 0.0000
      7 ****         0.7822   0.4679   3.8894 C.3            1 S1                 0.0000
      8 ****         1.2420  -0.3026   5.1062 C.3            1 S1                 0.0000
      9 ****         1.7809  -1.5842   4.4773 C.3            1 S1                 0.0000
     10 ****         2.3124  -1.2026   3.2113 O.3            1 S1                 0.0000
     11 ****        -1.7991  -1.4347   0.3784 C.2            1 S1                 0.0000
     12 ****        -1.5355  -2.8259   0.5734 C.1            1 S1                 0.0000
     13 ****        -1.3381  -3.9544   0.7426 N.1            1 S1                 0.0000
     14 ****        -3.1480  -1.1313  -0.0943 C.2            1 S1                 0.0000
     15 ****        -4.0023  -1.9892  -0.3295 O.2            1 S1                 0.0000
     16 ****        -3.4192   0.2415  -0.2646 N.am           1 S1                 0.0000
     17 ****        -4.7484   0.5839  -0.7316 C.3            1 S1                 0.0000
     18 ****        -2.5011   1.2751   0.0164 C.2            1 S1                 0.0000
     19 ****        -2.7953   2.4643  -0.1377 O.2            1 S1                 0.0000
     20 ****         0.5929   1.6412   1.2256 H              1 S1                 0.0000
     21 ****        -0.8311   2.6713   1.4636 H              1 S1                 0.0000
     22 ****        -0.1101   2.4859  -0.1844 H              1 S1                 0.0000
     23 ****         0.4589  -1.5926   1.6457 H              1 S1                 0.0000
     24 ****         2.3050  -0.0064   0.7529 H              1 S1                 0.0000
     25 ****         1.1197   1.2107   1.1854 H              1 S1                 0.0000
     26 ****         2.7180   0.7774   3.0345 H              1 S1                 0.0000
     27 ****         0.7030   1.5406   4.0668 H              1 S1                 0.0000
     28 ****        -0.1956   0.1041   3.5735 H              1 S1                 0.0000
     29 ****         2.0456   0.2366   5.6098 H              1 S1                 0.0000
     30 ****         0.4447  -0.4836   5.8276 H              1 S1                 0.0000
     31 ****         2.5352  -2.0690   5.0973 H              1 S1                 0.0000
     32 ****         0.9706  -2.2952   4.3129 H              1 S1                 0.0000
     33 ****        -4.8158   1.6369  -1.0033 H              1 S1                 0.0000
     34 ****        -5.4404   0.3525   0.0797 H              1 S1                 0.0000
     35 ****        -4.9565  -0.0195  -1.6174 H              1 S1                 0.0000
     36 ****         3.3114  -1.2149   3.2541 LP             1 S1                 0.0000
     37 ****         2.0007  -1.8472   2.5132 LP             1 S1                 0.0000
     38 ****        -1.1677  -4.9289   0.8887 LP             1 S1                 0.0000
     39 ****        -3.7883  -2.9572  -0.1983 LP             1 S1                 0.0000
     40 ****        -4.9091  -1.7169  -0.6514 LP             1 S1                 0.0000
     41 ****        -2.1256   3.1764   0.0729 LP             1 S1                 0.0000
     42 ****        -3.7034   2.7153  -0.4731 LP             1 S1                 0.0000
@<TRIPOS>BOND
    1    1    2 1     
    2    1   20 1     
    3    1   21 1     
    4    1   22 1     
    5    2   18 am    
    6    2    3 1     
    7    3    4 1     
    8    3   11 2     
    9    4    5 1     
   10    4   23 1     
   11    5    6 1     
   12    5   24 1     
   13    5   25 1     
   14    6   10 1     
   15    6    7 1     
   16    6   26 1     
   17    7    8 1     
   18    7   27 1     
   19    7   28 1     
   20    8    9 1     
   21    8   29 1     
   22    8   30 1     
   23    9   10 1     
   24    9   31 1     
   25    9   32 1     
   26   11   12 1     
   27   11   14 1     
   28   12   13 3     
   29   14   15 2     
   30   14   16 am    
   31   16   17 1     
   32   16   18 am    
   33   17   33 1     
   34   17   34 1     
   35   17   35 1     
   36   18   19 2     
   37   10   36 1     
   38   10   37 1     
   39   13   38 1     
   40   15   39 1     
   41   15   40 1     
   42   19   41 1     
   43   19   42 1     
@<TRIPOS>SUBSTRUCTURE
      1 S1             1
@<TRIPOS>SET
LONE_PAIRS      STATIC     ATOMS    <user>   **** ""
7 36 37 38 39 40 41 42
DONOR_HYDROGENS      STATIC     ATOMS    <user>   **** ""
1 23
ATOM$BLUE        STATIC     ATOMS    COLORGROUP SYSTEM
7 36 37 38 39 40 41 42
ATOM$RED        STATIC     ATOMS    COLORGROUP SYSTEM
1 23
