AV-unprocessed.smi:175|AV-procd|sdf|1430|dock9
  -GOLD-   2262019213D 1   1.00000     0.00000
 Structure written by MMmdl.
 47 50  0  0  0  0  0  0  0  0  1 V2000
  152.9398  142.9255  162.4491 C   0  0  0  0  0  0  0  0  0  0  0  0
  152.1868  142.9583  161.1094 C   0  0  1  0  0  0  0  0  0  0  0  0
  152.0013  144.2971  160.6734 O   0  0  0  0  0  0  0  0  0  0  0  0
  151.6744  144.2419  159.2970 C   0  0  0  0  0  0  0  0  0  0  0  0
  152.6717  143.2245  158.7563 C   0  0  0  0  0  0  0  0  0  0  0  0
  152.8476  142.2302  159.9083 C   0  0  1  0  0  0  0  0  0  0  0  0
  154.2376  142.0337  160.1116 O   0  0  0  0  0  0  0  0  0  0  0  0
  152.2043  140.8564  159.5958 C   0  0  0  0  0  0  0  0  0  0  0  0
  151.4012  140.8536  158.3819 N   0  0  0  0  0  0  0  0  0  0  0  0
  150.2388  141.5587  158.1606 C   0  0  0  0  0  0  0  0  0  0  0  0
  149.7041  141.3963  156.9816 N   0  0  0  0  0  0  0  0  0  0  0  0
  150.5576  140.5045  156.3444 C   0  0  0  0  0  0  0  0  0  0  0  0
  150.5813  139.9013  155.0550 C   0  0  0  0  0  0  0  0  0  0  0  0
  149.6585  140.1144  154.0907 N   0  0  0  0  0  0  0  0  0  0  0  0
  148.9634  141.3986  154.1963 C   0  0  0  0  0  0  0  0  0  0  0  0
  147.5025  140.9961  154.2299 C   0  0  0  0  0  0  0  0  0  0  0  0
  146.5818  141.8016  154.3569 O   0  0  0  0  0  0  0  0  0  0  0  0
  147.3924  139.6723  154.1127 N   0  0  0  0  0  0  0  0  0  0  0  0
  146.1576  138.8920  154.1148 C   0  0  0  0  0  0  0  0  0  0  0  0
  146.1112  137.8705  152.9643 C   0  0  0  0  0  0  0  0  0  0  0  0
  144.8446  137.5179  152.7491 F   0  0  0  0  0  0  0  0  0  0  0  0
  146.5973  138.4092  151.8459 F   0  0  0  0  0  0  0  0  0  0  0  0
  146.8101  136.7754  153.2623 F   0  0  0  0  0  0  0  0  0  0  0  0
  148.6849  139.0311  153.9400 C   0  0  0  0  0  0  0  0  0  0  0  0
  151.5960  139.0510  154.7671 N   0  0  0  0  0  0  0  0  0  0  0  0
  152.5353  138.8006  155.6847 C   0  0  0  0  0  0  0  0  0  0  0  0
  152.6443  139.2864  156.9236 N   0  0  0  0  0  0  0  0  0  0  0  0
  151.6251  140.1458  157.2132 C   0  0  0  0  0  0  0  0  0  0  0  0
  153.1037  141.9010  162.7836 H   0  0  0  0  0  0  0  0  0  0  0  0
  152.3693  143.4382  163.2234 H   0  0  0  0  0  0  0  0  0  0  0  0
  153.9095  143.4181  162.3762 H   0  0  0  0  0  0  0  0  0  0  0  0
  151.1852  142.5572  161.2677 H   0  0  0  0  0  0  0  0  0  0  0  0
  150.6485  143.8904  159.1747 H   0  0  0  0  0  0  0  0  0  0  0  0
  151.7657  145.2178  158.8201 H   0  0  0  0  0  0  0  0  0  0  0  0
  152.3289  142.7623  157.8300 H   0  0  0  0  0  0  0  0  0  0  0  0
  153.6090  143.7380  158.5350 H   0  0  0  0  0  0  0  0  0  0  0  0
  154.5134  141.2882  159.6007 H   0  0  0  0  0  0  0  0  0  0  0  0
  152.9794  140.0956  159.4947 H   0  0  0  0  0  0  0  0  0  0  0  0
  151.5713  140.5350  160.4243 H   0  0  0  0  0  0  0  0  0  0  0  0
  149.8002  142.2087  158.9037 H   0  0  0  0  0  0  0  0  0  0  0  0
  149.2250  141.9727  155.0873 H   0  0  0  0  0  0  0  0  0  0  0  0
  149.1669  142.0100  153.3169 H   0  0  0  0  0  0  0  0  0  0  0  0
  146.0521  138.3807  155.0727 H   0  0  0  0  0  0  0  0  0  0  0  0
  145.3077  139.5715  154.0378 H   0  0  0  0  0  0  0  0  0  0  0  0
  148.7630  138.6046  152.9394 H   0  0  0  0  0  0  0  0  0  0  0  0
  148.8141  138.2233  154.6627 H   0  0  0  0  0  0  0  0  0  0  0  0
  153.3117  138.1131  155.3826 H   0  0  0  0  0  0  0  0  0  0  0  0
  1  2  1  0  0  0  0
  1 29  1  0  0  0  0
  1 30  1  0  0  0  0
  1 31  1  0  0  0  0
  2  6  1  0  0  0  0
  2  3  1  0  0  0  0
  2 32  1  0  0  0  0
  3  4  1  0  0  0  0
  4  5  1  0  0  0  0
  4 33  1  0  0  0  0
  4 34  1  0  0  0  0
  5  6  1  0  0  0  0
  5 35  1  0  0  0  0
  5 36  1  0  0  0  0
  6  7  1  0  0  0  0
  6  8  1  0  0  0  0
  7 37  1  0  0  0  0
  8  9  1  0  0  0  0
  8 38  1  0  0  0  0
  8 39  1  0  0  0  0
  9 28  1  0  0  0  0
  9 10  1  0  0  0  0
 10 11  2  0  0  0  0
 10 40  1  0  0  0  0
 11 12  1  0  0  0  0
 12 28  2  0  0  0  0
 12 13  1  0  0  0  0
 13 14  1  0  0  0  0
 13 25  2  0  0  0  0
 14 24  1  0  0  0  0
 14 15  1  0  0  0  0
 15 16  1  0  0  0  0
 15 41  1  0  0  0  0
 15 42  1  0  0  0  0
 16 17  2  0  0  0  0
 16 18  1  0  0  0  0
 18 19  1  0  0  0  0
 18 24  1  0  0  0  0
 19 20  1  0  0  0  0
 19 43  1  0  0  0  0
 19 44  1  0  0  0  0
 20 21  1  0  0  0  0
 20 22  1  0  0  0  0
 20 23  1  0  0  0  0
 24 45  1  0  0  0  0
 24 46  1  0  0  0  0
 25 26  1  0  0  0  0
 26 27  2  0  0  0  0
 26 47  1  0  0  0  0
 27 28  1  0  0  0  0
M  END
> <s_m_source_file>
AV-unprocessed.smi

> <i_m_source_file_index>
175

> <i_lp_mmshare_version>
43012

> <i_f3d_flags>
0

> <s_epik_input>
W0NIMl0xW0NIMl1PW0NAQEhdKFtDSDNdKVtDQEBdMShbT0hdKVtDSDJdbihbY0hdbjIpYyhjMjMpbltjSF1uYzNONFtDSDJdQyg9TylOKFtDSDJdNClbQ0gyXUMoRikoRilG

> <s_epik_cmdline>
J2VwaWtfcHl0aG9uJywgJy1waCcsICc3LjAnLCAnLXRuJywgJzgnLCAnLW1hJywgJzIwMCcsICctbWV0YWxfYmluZGluZycsICctaW1hZScsICc8aW5maWxlLm1hZT4nLCAnLW9tYWUnLCAnPG91dGZpbGUubWFlPic=

> <r_lp_tautomer_probability>
1

> <r_epik_Ionization_Penalty>
0.000307802

> <r_epik_Ionization_Penalty_Charging>
0

> <r_epik_Ionization_Penalty_Neutral>
0.000307802

> <r_epik_State_Penalty>
-0

> <r_epik_Charging_Adjusted_Penalty>
0

> <i_epik_Tot_Q>
0

> <i_epik_Tot_abs_Q>
0

> <r_epik_Metal_State_Penalty>
-0

> <b_epik_Metal_Only>
0

> <s_epik_Chemistry_Notes>
This compound contains an acetal/aminal-like group ( X-CH(R)-Y where X, Y are N, S, or O) that may be acid/base labile, releasing an aldehyde.

> <s_lp_Force_Field>
OPLS_2005

> <r_lp_Energy>
36.8699

> <b_lp_Chiralities_Consistent>
1

> <s_lp_Variant>
AV-unprocessed.smi:175-2

> <Gold.Version>
5.8.1

> <Gold.Id.Protein>
6NUR|6NUR_protein|mol2

> <Gold.PLP.Fitness>
47.9221

> <Gold.PLP.PLP>
-48.9205

> <Gold.PLP.part.hbond>
-2.2808

> <Gold.PLP.part.metal>
0.0000

> <Gold.PLP.part.buried>
-1.1402

> <Gold.PLP.part.nonpolar>
-46.6146

> <Gold.PLP.part.repulsive>
1.3949

> <Gold.PLP.ligand.clash>
0.0000

> <Gold.PLP.ligand.torsion>
2.0941

> <Gold.PLP.Chemscore.Hbond>
1.0000

> <Gold.PLP.Chemscore.CHOScore>
0.0000

> <Gold.PLP.Chemscore.Metal>
0.0000

> <Gold.Chemscore.Hbonds>
donor molecule, donor type, donor heavy atom, donor atom, acceptor molecule, acceptor atom, score
      P1  H  7997  8010       L1    27  0.90

> <Gold.PLP.Chemscore.Internal.Correction>
0.1897

> <Gold.Rescore>
     Score         DG    S(hbond)    S(metal)    S(lipo)     H(rot)  DE(clash)    DE(int)     intcor
      3.80      -9.04       0.21        0.00      91.22       3.05       2.22       3.02       ----

> <Gold.Chemscore.Fitness>
3.7999

> <Gold.Chemscore.DG>
-9.0356

> <Gold.Chemscore.ZeroCoef>
-5.4800

> <Gold.Chemscore.Hbond>
0.2060

> <Gold.Chemscore.Metal>
0.0000

> <Gold.Chemscore.Lipo>
91.2150

> <Gold.Chemscore.Internal_Hbond>
0.0000

> <Gold.Chemscore.DEClash>
2.2176

> <Gold.Chemscore.DEInternal>
3.0181

> <Gold.Chemscore.Rot>
3.0487

> <Gold.Chemscore.Internal.Correction>
   9.000000E+99

> <Gold.Chemscore.Hbonds>
donor molecule, donor type, donor heavy atom, donor atom, acceptor molecule, acceptor atom, score
      P1  H  7997  8010       L1    27  0.17

> <Gold.Chemscore.Hbond.Weighted>
-0.6880

> <Gold.Chemscore.Metal.Weighted>
-0.0000

> <Gold.Chemscore.Lipo.Weighted>
-10.6722

> <Gold.Chemscore.Internal_Hbond.Weighted>
0.0000

> <Gold.Chemscore.DEClash.Weighted>
2.2176

> <Gold.Chemscore.DEInternal.Weighted>
3.0181

> <Gold.Chemscore.Rot.Weighted>
7.8046

> <Gold.Chemscore.Internal.Correction.Weighted>
   9.000000E+99

> <Gold.Protein.RotatedTorsions>
[ 6907 6896 6895 6894 ] final   31.43 input  -60.11 | X-H torsion
[ 7974 7965 7964 7962 ] final  -59.95 input  175.53 | X-H torsion
[ 8008 7997 7996 7995 ] final   51.09 input   59.86 | X-H torsion
[ 10167 10162 10161 10158 ] final  -66.42 input  -65.29 | X-H torsion
[ 10718 10713 10712 10709 ] final -130.03 input   66.30 | X-H torsion
[ 10763 10752 10751 10750 ] final   30.56 input  -60.55 | X-H torsion
[ 11005 11000 10999 10996 ] final  -53.76 input  -57.11 | X-H torsion

> <Gold.Protein.ActiveResidues>
 VAL166  LYS551  ARG553  GLY616  TRP617  ASP618  TYR619  PRO620  LYS621  CYS622 
 ASP623  PHE694  ASN695  SER759  ASP760  ASP761  ALA762  ILE779  LEU786  VAL792 
 PHE793  MET794  SER795  GLU796  ALA797  LYS798  CYS799  TRP800  GLU811  SER814 

> <Gold.Protein.RotatedAtoms>
  152.0602  134.9599  160.0574 H   0  0  0  0  0  0  0  0  0  0  0  0  # atno 6907 bound_to 6896
  152.0965  133.4223  159.4576 H   0  0  0  0  0  0  0  0  0  0  0  0  # atno 6908 bound_to 6896
  150.6838  134.2729  159.4639 H   0  0  0  0  0  0  0  0  0  0  0  0  # atno 6909 bound_to 6896
  145.8213  140.8538  143.0131 H   0  0  0  0  0  0  0  0  0  0  0  0  # atno 7974 bound_to 7965
  155.4295  140.3450  155.4279 H   0  0  0  0  0  0  0  0  0  0  0  0  # atno 8008 bound_to 7997
  156.1345  140.1524  156.9046 H   0  0  0  0  0  0  0  0  0  0  0  0  # atno 8009 bound_to 7997
  154.4921  140.0838  156.7596 H   0  0  0  0  0  0  0  0  0  0  0  0  # atno 8010 bound_to 7997
  140.5658  143.2315  151.6637 H   0  0  0  0  0  0  0  0  0  0  0  0  # atno 10167 bound_to 10162
  156.2105  130.6915  151.0644 H   0  0  0  0  0  0  0  0  0  0  0  0  # atno 10718 bound_to 10713
  153.0365  135.6461  154.1063 H   0  0  0  0  0  0  0  0  0  0  0  0  # atno 10763 bound_to 10752
  154.0777  135.2875  155.3298 H   0  0  0  0  0  0  0  0  0  0  0  0  # atno 10764 bound_to 10752
  154.6551  135.5412  153.8013 H   0  0  0  0  0  0  0  0  0  0  0  0  # atno 10765 bound_to 10752
  141.0992  133.6620  156.4220 H   0  0  0  0  0  0  0  0  0  0  0  0  # atno 11005 bound_to 11000
  144.6747  140.0538  143.7478 LP  0  0  0  0  0  0  0  0  0  0  0  0  # atno 17320 bound_to 7965
  145.9671  139.2843  143.1121 LP  0  0  0  0  0  0  0  0  0  0  0  0  # atno 17321 bound_to 7965
  139.5092  144.3584  152.0586 LP  0  0  0  0  0  0  0  0  0  0  0  0  # atno 17342 bound_to 10162
  140.2715  144.3959  150.6149 LP  0  0  0  0  0  0  0  0  0  0  0  0  # atno 17343 bound_to 10162
  157.7036  131.0766  150.6742 LP  0  0  0  0  0  0  0  0  0  0  0  0  # atno 17370 bound_to 10713
  156.6801  130.4565  149.5630 LP  0  0  0  0  0  0  0  0  0  0  0  0  # atno 17371 bound_to 10713
  140.5064  134.6437  157.5268 LP  0  0  0  0  0  0  0  0  0  0  0  0  # atno 17394 bound_to 11000
  139.9838  134.7094  155.9811 LP  0  0  0  0  0  0  0  0  0  0  0  0  # atno 17395 bound_to 11000

$$$$
