AV-unprocessed.smi:1464|AV-procd|sdf|5946|dock2
  -GOLD-   22720 6 23D 1   1.00000     0.00000
 Structure written by MMmdl.
 41 42  0  0  0  0  0  0  0  0  1 V2000
  152.2175  143.5794  161.5578 C   0  0  0  0  0  0  0  0  0  0  0  0
  153.1681  143.3473  160.3654 C   0  0  1  0  0  0  0  0  0  0  0  0
  153.8704  141.9771  160.4572 C   0  0  0  0  0  0  0  0  0  0  0  0
  152.9151  140.8140  160.1478 C   0  0  0  0  0  0  0  0  0  0  0  0
  152.2581  140.9887  158.7720 C   0  0  0  0  0  0  0  0  0  0  0  0
  151.5400  142.3487  158.6440 C   0  0  2  0  0  0  0  0  0  0  0  0
  151.0067  142.4942  157.2909 N   0  0  0  0  0  0  0  0  0  0  0  0
  150.2272  141.6021  156.6611 C   0  0  0  0  0  0  0  0  0  0  0  0
  149.8861  140.5300  157.1632 O   0  0  0  0  0  0  0  0  0  0  0  0
  149.7898  141.9812  155.2387 C   0  0  0  0  0  0  0  0  0  0  0  0
  148.9163  140.9800  154.6098 N   0  0  0  0  0  0  0  0  0  0  0  0
  149.4343  139.6937  154.6140 N   0  0  0  0  0  0  0  0  0  0  0  0
  148.7534  138.7227  154.1058 C   0  0  0  0  0  0  0  0  0  0  0  0
  149.3017  137.4638  154.1348 O   0  0  0  0  0  0  0  0  0  0  0  0
  147.4497  138.9483  153.5208 C   0  0  0  0  0  0  0  0  0  0  0  0
  146.9562  140.2061  153.5160 C   0  0  0  0  0  0  0  0  0  0  0  0
  147.7018  141.3303  154.0850 C   0  0  0  0  0  0  0  0  0  0  0  0
  147.2770  142.4857  154.0932 O   0  0  0  0  0  0  0  0  0  0  0  0
  152.4991  143.5217  158.9752 C   0  0  1  0  0  0  0  0  0  0  0  0
  151.8359  144.9041  158.8122 C   0  0  0  0  0  0  0  0  0  0  0  0
  149.3952  137.2088  153.2301 H   0  0  0  0  0  0  0  0  0  0  0  0
  151.3591  142.9086  161.5383 H   0  0  0  0  0  0  0  0  0  0  0  0
  151.8380  144.6009  161.5748 H   0  0  0  0  0  0  0  0  0  0  0  0
  152.7359  143.4195  162.5036 H   0  0  0  0  0  0  0  0  0  0  0  0
  153.9489  144.1049  160.4477 H   0  0  0  0  0  0  0  0  0  0  0  0
  154.7005  141.9514  159.7499 H   0  0  0  0  0  0  0  0  0  0  0  0
  154.3134  141.8433  161.4447 H   0  0  0  0  0  0  0  0  0  0  0  0
  153.4604  139.8703  160.1778 H   0  0  0  0  0  0  0  0  0  0  0  0
  152.1459  140.7455  160.9173 H   0  0  0  0  0  0  0  0  0  0  0  0
  153.0217  140.9021  157.9974 H   0  0  0  0  0  0  0  0  0  0  0  0
  151.5541  140.1732  158.6009 H   0  0  0  0  0  0  0  0  0  0  0  0
  150.7093  142.3753  159.3511 H   0  0  0  0  0  0  0  0  0  0  0  0
  151.2418  143.3449  156.8004 H   0  0  0  0  0  0  0  0  0  0  0  0
  149.2894  142.9515  155.2567 H   0  0  0  0  0  0  0  0  0  0  0  0
  150.6894  142.1272  154.6382 H   0  0  0  0  0  0  0  0  0  0  0  0
  146.8912  138.1256  153.0993 H   0  0  0  0  0  0  0  0  0  0  0  0
  145.9841  140.3892  153.0821 H   0  0  0  0  0  0  0  0  0  0  0  0
  153.3072  143.4871  158.2423 H   0  0  0  0  0  0  0  0  0  0  0  0
  150.9350  144.9914  159.4198 H   0  0  0  0  0  0  0  0  0  0  0  0
  151.5495  145.0913  157.7771 H   0  0  0  0  0  0  0  0  0  0  0  0
  152.5170  145.7032  159.1058 H   0  0  0  0  0  0  0  0  0  0  0  0
  1  2  1  0  0  0  0
  1 22  1  0  0  0  0
  1 23  1  0  0  0  0
  1 24  1  0  0  0  0
  2 19  1  0  0  0  0
  2  3  1  0  0  0  0
  2 25  1  0  0  0  0
  3  4  1  0  0  0  0
  3 26  1  0  0  0  0
  3 27  1  0  0  0  0
  4  5  1  0  0  0  0
  4 28  1  0  0  0  0
  4 29  1  0  0  0  0
  5  6  1  0  0  0  0
  5 30  1  0  0  0  0
  5 31  1  0  0  0  0
  6  7  1  0  0  0  0
  6 19  1  0  0  0  0
  6 32  1  0  0  0  0
  7  8  1  0  0  0  0
  7 33  1  0  0  0  0
  8  9  2  0  0  0  0
  8 10  1  0  0  0  0
 10 34  1  0  0  0  0
 10 35  1  0  0  0  0
 10 11  1  0  0  0  0
 11 12  1  0  0  0  0
 11 17  1  0  0  0  0
 12 13  2  0  0  0  0
 13 14  1  0  0  0  0
 13 15  1  0  0  0  0
 14 21  1  0  0  0  0
 15 36  1  0  0  0  0
 15 16  2  0  0  0  0
 16 37  1  0  0  0  0
 16 17  1  0  0  0  0
 17 18  2  0  0  0  0
 19 20  1  0  0  0  0
 19 38  1  0  0  0  0
 20 39  1  0  0  0  0
 20 40  1  0  0  0  0
 20 41  1  0  0  0  0
M  END
> <s_m_source_file>
AV-unprocessed.smi

> <i_m_source_file_index>
1464

> <i_lp_mmshare_version>
43012

> <i_f3d_flags>
0

> <s_epik_input>
W0NIM11bQ0BASF0xW0NIMl1bQ0gyXVtDSDJdW0NASF0oW0NASF0xW0NIM10pW05IXUMoPU8pW0NIMl1uMltuSF1jKD1PKVtjSF1bY0hdYzI9Tw==

> <s_epik_cmdline>
J2VwaWtfcHl0aG9uJywgJy1waCcsICc3LjAnLCAnLXRuJywgJzgnLCAnLW1hJywgJzIwMCcsICctbWV0YWxfYmluZGluZycsICctaW1hZScsICc8aW5maWxlLm1hZT4nLCAnLW9tYWUnLCAnPG91dGZpbGUubWFlPic=

> <r_lp_tautomer_probability>
0.9996

> <r_epik_Ionization_Penalty>
2.10335

> <r_epik_Ionization_Penalty_Charging>
3.98079e-08

> <r_epik_Ionization_Penalty_Neutral>
2.10335

> <r_epik_State_Penalty>
1.67957

> <r_epik_Charging_Adjusted_Penalty>
1.67957

> <i_epik_Tot_Q>
0

> <i_epik_Tot_abs_Q>
0

> <r_epik_Metal_State_Penalty>
1.67957

> <b_epik_Metal_Only>
0

> <s_lp_Force_Field>
OPLS_2005

> <r_lp_Energy>
23.4663

> <b_lp_Chiralities_Consistent>
1

> <s_lp_Variant>
AV-unprocessed.smi:1464-12

> <Gold.Version>
5.8.1

> <Gold.Id.Protein>
6NUR|6NUR_protein|mol2

> <Gold.PLP.Fitness>
44.5323

> <Gold.PLP.PLP>
-41.6976

> <Gold.PLP.part.hbond>
-1.0000

> <Gold.PLP.part.metal>
0.0000

> <Gold.PLP.part.buried>
-4.6153

> <Gold.PLP.part.nonpolar>
-37.1683

> <Gold.PLP.part.repulsive>
0.3277

> <Gold.PLP.ligand.clash>
0.0000

> <Gold.PLP.ligand.torsion>
0.0870

> <Gold.PLP.Chemscore.Hbond>
1.0000

> <Gold.PLP.Chemscore.CHOScore>
0.0000

> <Gold.PLP.Chemscore.Metal>
0.0000

> <Gold.Chemscore.Hbonds>
donor molecule, donor type, donor heavy atom, donor atom, acceptor molecule, acceptor atom, score
      L1  H    14    21       P1  7948  1.00

> <Gold.PLP.Chemscore.Internal.Correction>
0.0087

> <Gold.Rescore>
     Score         DG    S(hbond)    S(metal)    S(lipo)     H(rot)  DE(clash)    DE(int)     intcor
     12.98     -15.89       1.00        0.00     109.13       2.22       0.25       2.65       ----

> <Gold.Chemscore.Fitness>
12.9823

> <Gold.Chemscore.DG>
-15.8894

> <Gold.Chemscore.ZeroCoef>
-5.4800

> <Gold.Chemscore.Hbond>
0.9972

> <Gold.Chemscore.Metal>
0.0000

> <Gold.Chemscore.Lipo>
109.1284

> <Gold.Chemscore.Internal_Hbond>
0.0000

> <Gold.Chemscore.DEClash>
0.2530

> <Gold.Chemscore.DEInternal>
2.6542

> <Gold.Chemscore.Rot>
2.2224

> <Gold.Chemscore.Internal.Correction>
   9.000000E+99

> <Gold.Chemscore.Hbonds>
donor molecule, donor type, donor heavy atom, donor atom, acceptor molecule, acceptor atom, score
      L1  H    14    21       P1  7948  0.90

> <Gold.Chemscore.Hbond.Weighted>
-3.3307

> <Gold.Chemscore.Metal.Weighted>
-0.0000

> <Gold.Chemscore.Lipo.Weighted>
-12.7680

> <Gold.Chemscore.Internal_Hbond.Weighted>
0.0000

> <Gold.Chemscore.DEClash.Weighted>
0.2530

> <Gold.Chemscore.DEInternal.Weighted>
2.6542

> <Gold.Chemscore.Rot.Weighted>
5.6893

> <Gold.Chemscore.Internal.Correction.Weighted>
   9.000000E+99

> <Gold.Protein.RotatedTorsions>
[ 6907 6896 6895 6894 ] final   77.55 input  -60.11 | X-H torsion
[ 7974 7965 7964 7962 ] final -129.28 input  175.53 | X-H torsion
[ 8008 7997 7996 7995 ] final -127.79 input   59.86 | X-H torsion
[ 10167 10162 10161 10158 ] final  158.59 input  -65.29 | X-H torsion
[ 10718 10713 10712 10709 ] final -110.49 input   66.30 | X-H torsion
[ 10763 10752 10751 10750 ] final  -70.03 input  -60.55 | X-H torsion
[ 11005 11000 10999 10996 ] final  -33.12 input  -57.11 | X-H torsion

> <Gold.Protein.ActiveResidues>
 VAL166  LYS551  ARG553  GLY616  TRP617  ASP618  TYR619  PRO620  LYS621  CYS622 
 ASP623  PHE694  ASN695  SER759  ASP760  ASP761  ALA762  ILE779  LEU786  VAL792 
 PHE793  MET794  SER795  GLU796  ALA797  LYS798  CYS799  TRP800  GLU811  SER814 

> <Gold.Protein.RotatedAtoms>
  152.5122  134.3799  159.9347 H   0  0  0  0  0  0  0  0  0  0  0  0  # atno 6907 bound_to 6896
  151.3756  133.3833  159.2712 H   0  0  0  0  0  0  0  0  0  0  0  0  # atno 6908 bound_to 6896
  150.9544  134.8960  159.7751 H   0  0  0  0  0  0  0  0  0  0  0  0  # atno 6909 bound_to 6896
  144.9588  140.7424  143.4742 H   0  0  0  0  0  0  0  0  0  0  0  0  # atno 7974 bound_to 7965
  155.2521  140.0432  157.2988 H   0  0  0  0  0  0  0  0  0  0  0  0  # atno 8008 bound_to 7997
  154.5763  140.2388  155.8088 H   0  0  0  0  0  0  0  0  0  0  0  0  # atno 8009 bound_to 7997
  156.2160  140.2984  155.9849 H   0  0  0  0  0  0  0  0  0  0  0  0  # atno 8010 bound_to 7997
  139.4827  144.4810  151.8445 H   0  0  0  0  0  0  0  0  0  0  0  0  # atno 10167 bound_to 10162
  156.0594  130.5818  150.8244 H   0  0  0  0  0  0  0  0  0  0  0  0  # atno 10718 bound_to 10713
  154.4119  135.6007  153.5958 H   0  0  0  0  0  0  0  0  0  0  0  0  # atno 10763 bound_to 10752
  152.9790  135.5931  154.4059 H   0  0  0  0  0  0  0  0  0  0  0  0  # atno 10764 bound_to 10752
  154.3873  135.2841  155.2154 H   0  0  0  0  0  0  0  0  0  0  0  0  # atno 10765 bound_to 10752
  140.9608  133.7165  156.1367 H   0  0  0  0  0  0  0  0  0  0  0  0  # atno 11005 bound_to 11000
  145.2732  139.1946  143.4830 LP  0  0  0  0  0  0  0  0  0  0  0  0  # atno 17320 bound_to 7965
  146.3346  140.2681  142.8604 LP  0  0  0  0  0  0  0  0  0  0  0  0  # atno 17321 bound_to 7965
  140.4286  144.2147  150.5887 LP  0  0  0  0  0  0  0  0  0  0  0  0  # atno 17342 bound_to 10162
  140.4802  143.2381  151.8965 LP  0  0  0  0  0  0  0  0  0  0  0  0  # atno 17343 bound_to 10162
  157.5590  131.0945  150.9587 LP  0  0  0  0  0  0  0  0  0  0  0  0  # atno 17370 bound_to 10713
  156.9829  130.5534  149.5297 LP  0  0  0  0  0  0  0  0  0  0  0  0  # atno 17371 bound_to 10713
  140.7470  134.4087  157.5547 LP  0  0  0  0  0  0  0  0  0  0  0  0  # atno 17394 bound_to 11000
  139.8877  134.8874  156.2511 LP  0  0  0  0  0  0  0  0  0  0  0  0  # atno 17395 bound_to 11000

$$$$
