AV-unprocessed.smi:276|AV-procd|sdf|2084|dock9
  -GOLD-   2262021353D 1   1.00000     0.00000
 Structure written by MMmdl.
 57 61  0  0  0  0  0  0  0  0  1 V2000
  151.0889  141.4749  157.6011 C   0  0  0  0  0  0  0  0  0  0  0  0
  149.7288  141.2461  157.9252 O   0  0  0  0  0  0  0  0  0  0  0  0
  148.8504  141.5872  156.8646 C   0  0  2  0  0  0  0  0  0  0  0  0
  147.3615  141.4597  157.2074 C   0  0  0  0  0  0  0  0  0  0  0  0
  147.1638  140.9332  155.7796 C   0  0  2  0  0  0  0  0  0  0  0  0
  146.1386  139.8910  155.6852 N   0  0  0  0  0  0  0  0  0  0  0  0
  144.7961  140.2717  156.1060 C   0  0  0  0  0  0  0  0  0  0  0  0
  146.0833  139.2150  154.5150 C   0  0  0  0  0  0  0  0  0  0  0  0
  146.9405  139.6068  153.5390 N   0  0  0  0  0  0  0  0  0  0  0  0
  146.9332  138.9908  152.3533 C   0  0  0  0  0  0  0  0  0  0  0  0
  146.1710  137.9742  151.9448 N   0  0  0  0  0  0  0  0  0  0  0  0
  145.3245  137.5629  152.9320 C   0  0  0  0  0  0  0  0  0  0  0  0
  145.2181  138.1168  154.2391 C   0  0  0  0  0  0  0  0  0  0  0  0
  144.2593  137.4215  154.9676 N   0  0  0  0  0  0  0  0  0  0  0  0
  143.8147  136.5202  154.1351 C   0  0  0  0  0  0  0  0  0  0  0  0
  144.3996  136.5360  152.8899 N   0  0  0  0  0  0  0  0  0  0  0  0
  144.1026  135.6527  151.7768 C   0  0  0  0  0  0  0  0  0  0  0  0
  143.9413  134.1855  152.2177 C   0  0  1  0  0  0  0  0  0  0  0  0
  142.6384  133.7175  151.9224 O   0  0  0  0  0  0  0  0  0  0  0  0
  145.0126  133.2611  151.6036 C   0  0  1  0  0  0  0  0  0  0  0  0
  145.0488  131.8146  152.1065 C   0  0  0  0  0  0  0  0  0  0  0  0
  145.6488  131.0458  150.9359 C   0  0  0  0  0  0  0  0  0  0  0  0
  145.7186  132.0677  149.7964 C   0  0  0  0  0  0  0  0  0  0  0  0
  144.8662  133.1294  150.1988 O   0  0  0  0  0  0  0  0  0  0  0  0
  148.6396  140.4553  155.8404 C   0  0  0  0  0  0  0  0  0  0  0  0
  149.5167  140.3683  154.5846 C   0  0  0  0  0  0  0  0  0  0  0  0
  149.5401  138.8435  154.7341 C   0  0  0  0  0  0  0  0  0  0  0  0
  149.0427  139.0043  156.1745 C   0  0  0  0  0  0  0  0  0  0  0  0
  151.7190  141.1862  158.4423 H   0  0  0  0  0  0  0  0  0  0  0  0
  151.2749  142.5283  157.3881 H   0  0  0  0  0  0  0  0  0  0  0  0
  151.3918  140.8841  156.7355 H   0  0  0  0  0  0  0  0  0  0  0  0
  149.0971  142.5349  156.3801 H   0  0  0  0  0  0  0  0  0  0  0  0
  147.1670  140.7127  157.9799 H   0  0  0  0  0  0  0  0  0  0  0  0
  146.8604  142.4041  157.4210 H   0  0  0  0  0  0  0  0  0  0  0  0
  147.0270  141.7612  155.0825 H   0  0  0  0  0  0  0  0  0  0  0  0
  144.3853  141.0340  155.4427 H   0  0  0  0  0  0  0  0  0  0  0  0
  144.8073  140.6734  157.1192 H   0  0  0  0  0  0  0  0  0  0  0  0
  144.1233  139.4127  156.1009 H   0  0  0  0  0  0  0  0  0  0  0  0
  147.6383  139.3679  151.6272 H   0  0  0  0  0  0  0  0  0  0  0  0
  143.0472  135.8111  154.4095 H   0  0  0  0  0  0  0  0  0  0  0  0
  143.1964  136.0075  151.2838 H   0  0  0  0  0  0  0  0  0  0  0  0
  144.9091  135.7408  151.0479 H   0  0  0  0  0  0  0  0  0  0  0  0
  144.0474  134.1383  153.3024 H   0  0  0  0  0  0  0  0  0  0  0  0
  142.3818  134.0577  151.0790 H   0  0  0  0  0  0  0  0  0  0  0  0
  145.9922  133.7100  151.7802 H   0  0  0  0  0  0  0  0  0  0  0  0
  145.6335  131.7133  153.0211 H   0  0  0  0  0  0  0  0  0  0  0  0
  144.0479  131.4329  152.3086 H   0  0  0  0  0  0  0  0  0  0  0  0
  146.6382  130.6514  151.1694 H   0  0  0  0  0  0  0  0  0  0  0  0
  145.0091  130.2042  150.6677 H   0  0  0  0  0  0  0  0  0  0  0  0
  146.7349  132.4490  149.6863 H   0  0  0  0  0  0  0  0  0  0  0  0
  145.4074  131.6505  148.8386 H   0  0  0  0  0  0  0  0  0  0  0  0
  149.0437  140.7246  153.6697 H   0  0  0  0  0  0  0  0  0  0  0  0
  150.5002  140.8175  154.7289 H   0  0  0  0  0  0  0  0  0  0  0  0
  148.8216  138.3420  154.0861 H   0  0  0  0  0  0  0  0  0  0  0  0
  150.5316  138.3986  154.6484 H   0  0  0  0  0  0  0  0  0  0  0  0
  149.8597  138.9370  156.8936 H   0  0  0  0  0  0  0  0  0  0  0  0
  148.2254  138.3384  156.4498 H   0  0  0  0  0  0  0  0  0  0  0  0
  1  2  1  0  0  0  0
  1 29  1  0  0  0  0
  1 30  1  0  0  0  0
  1 31  1  0  0  0  0
  2  3  1  0  0  0  0
  3 25  1  0  0  0  0
  3  4  1  0  0  0  0
  3 32  1  0  0  0  0
  4  5  1  0  0  0  0
  4 33  1  0  0  0  0
  4 34  1  0  0  0  0
  5  6  1  0  0  0  0
  5 25  1  0  0  0  0
  5 35  1  0  0  0  0
  6  7  1  0  0  0  0
  6  8  1  0  0  0  0
  7 36  1  0  0  0  0
  7 37  1  0  0  0  0
  7 38  1  0  0  0  0
  8 13  1  0  0  0  0
  8  9  2  0  0  0  0
  9 10  1  0  0  0  0
 10 11  2  0  0  0  0
 10 39  1  0  0  0  0
 11 12  1  0  0  0  0
 12 16  1  0  0  0  0
 12 13  2  0  0  0  0
 13 14  1  0  0  0  0
 14 15  2  0  0  0  0
 15 16  1  0  0  0  0
 15 40  1  0  0  0  0
 16 17  1  0  0  0  0
 17 18  1  0  0  0  0
 17 41  1  0  0  0  0
 17 42  1  0  0  0  0
 18 19  1  0  0  0  0
 18 20  1  0  0  0  0
 18 43  1  0  0  0  0
 19 44  1  0  0  0  0
 20 24  1  0  0  0  0
 20 21  1  0  0  0  0
 20 45  1  0  0  0  0
 21 22  1  0  0  0  0
 21 46  1  0  0  0  0
 21 47  1  0  0  0  0
 22 23  1  0  0  0  0
 22 48  1  0  0  0  0
 22 49  1  0  0  0  0
 23 24  1  0  0  0  0
 23 50  1  0  0  0  0
 23 51  1  0  0  0  0
 25 28  1  0  0  0  0
 25 26  1  0  0  0  0
 26 27  1  0  0  0  0
 26 52  1  0  0  0  0
 26 53  1  0  0  0  0
 27 28  1  0  0  0  0
 27 54  1  0  0  0  0
 27 55  1  0  0  0  0
 28 56  1  0  0  0  0
 28 57  1  0  0  0  0
M  END
> <s_m_source_file>
AV-unprocessed.smi

> <i_m_source_file_index>
276

> <i_lp_mmshare_version>
43012

> <i_f3d_flags>
0

> <s_epik_input>
W0NIMl0xW0NIMl1bQ0gyXUMxMltDQEhdKE9bQ0gzXSlbQ0gyXVtDQEhdMk4oW0NIM10pYyhuW2NIXW4zKWMoYzM0KW5bY0hdbjRbQ0gyXVtDQEhdKFtPSF0pW0NAQEhdNVtDSDJdW0NIMl1bQ0gyXU81

> <s_epik_cmdline>
J2VwaWtfcHl0aG9uJywgJy1waCcsICc3LjAnLCAnLXRuJywgJzgnLCAnLW1hJywgJzIwMCcsICctbWV0YWxfYmluZGluZycsICctaW1hZScsICc8aW5maWxlLm1hZT4nLCAnLW9tYWUnLCAnPG91dGZpbGUubWFlPic=

> <r_lp_tautomer_probability>
1

> <r_epik_Ionization_Penalty>
0.00204117

> <r_epik_Ionization_Penalty_Charging>
0

> <r_epik_Ionization_Penalty_Neutral>
0.00204117

> <r_epik_State_Penalty>
0.00127401

> <r_epik_Charging_Adjusted_Penalty>
0.00127401

> <i_epik_Tot_Q>
0

> <i_epik_Tot_abs_Q>
0

> <r_epik_Metal_State_Penalty>
-0

> <b_epik_Metal_Only>
0

> <s_lp_Force_Field>
OPLS_2005

> <r_lp_Energy>
58.0628

> <b_lp_Chiralities_Consistent>
1

> <s_lp_Variant>
AV-unprocessed.smi:276-15

> <Gold.Version>
5.8.1

> <Gold.Id.Protein>
6NUR|6NUR_protein|mol2

> <Gold.PLP.Fitness>
38.1089

> <Gold.PLP.PLP>
-34.3098

> <Gold.PLP.part.hbond>
-1.0000

> <Gold.PLP.part.metal>
0.0000

> <Gold.PLP.part.buried>
-7.1526

> <Gold.PLP.part.nonpolar>
-28.0524

> <Gold.PLP.part.repulsive>
1.2489

> <Gold.PLP.ligand.clash>
0.0000

> <Gold.PLP.ligand.torsion>
1.4515

> <Gold.PLP.Chemscore.Hbond>
1.0000

> <Gold.PLP.Chemscore.CHOScore>
1.0000

> <Gold.PLP.Chemscore.Metal>
0.0000

> <Gold.Chemscore.Hbonds>
donor molecule, donor type, donor heavy atom, donor atom, acceptor molecule, acceptor atom, score
      L1  H    19    44       P1 10186  0.89
      L1  C    10    39       P1  7957  1.00

> <Gold.PLP.Chemscore.Internal.Correction>
0.7021

> <Gold.Rescore>
     Score         DG    S(hbond)    S(metal)    S(lipo)     H(rot)  DE(clash)    DE(int)     intcor
      8.05      -9.80       0.66        0.00      77.41       2.72       0.12       1.63       ----

> <Gold.Chemscore.Fitness>
8.0484

> <Gold.Chemscore.DG>
-9.7994

> <Gold.Chemscore.ZeroCoef>
-5.4800

> <Gold.Chemscore.Hbond>
0.6641

> <Gold.Chemscore.Metal>
0.0000

> <Gold.Chemscore.Lipo>
77.4126

> <Gold.Chemscore.Internal_Hbond>
0.0000

> <Gold.Chemscore.DEClash>
0.1207

> <Gold.Chemscore.DEInternal>
1.6303

> <Gold.Chemscore.Rot>
2.7172

> <Gold.Chemscore.Internal.Correction>
   9.000000E+99

> <Gold.Chemscore.Hbonds>
donor molecule, donor type, donor heavy atom, donor atom, acceptor molecule, acceptor atom, score
      L1  H    19    44       P1 10186  0.21

> <Gold.Chemscore.Hbond.Weighted>
-2.2181

> <Gold.Chemscore.Metal.Weighted>
-0.0000

> <Gold.Chemscore.Lipo.Weighted>
-9.0573

> <Gold.Chemscore.Internal_Hbond.Weighted>
0.0000

> <Gold.Chemscore.DEClash.Weighted>
0.1207

> <Gold.Chemscore.DEInternal.Weighted>
1.6303

> <Gold.Chemscore.Rot.Weighted>
6.9560

> <Gold.Chemscore.Internal.Correction.Weighted>
   9.000000E+99

> <Gold.Protein.RotatedTorsions>
[ 6907 6896 6895 6894 ] final -106.78 input  -60.11 | X-H torsion
[ 7974 7965 7964 7962 ] final  130.90 input  175.53 | X-H torsion
[ 8008 7997 7996 7995 ] final  170.97 input   59.86 | X-H torsion
[ 10167 10162 10161 10158 ] final   11.09 input  -65.29 | X-H torsion
[ 10718 10713 10712 10709 ] final   -5.69 input   66.30 | X-H torsion
[ 10763 10752 10751 10750 ] final   92.24 input  -60.55 | X-H torsion
[ 11005 11000 10999 10996 ] final -149.35 input  -57.11 | X-H torsion

> <Gold.Protein.ActiveResidues>
 VAL166  LYS551  ARG553  GLY616  TRP617  ASP618  TYR619  PRO620  LYS621  CYS622 
 ASP623  PHE694  ASN695  SER759  ASP760  ASP761  ALA762  ILE779  LEU786  VAL792 
 PHE793  MET794  SER795  GLU796  ALA797  LYS798  CYS799  TRP800  GLU811  SER814 

> <Gold.Protein.RotatedAtoms>
  150.7407  133.9925  159.3611 H   0  0  0  0  0  0  0  0  0  0  0  0  # atno 6907 bound_to 6896
  151.7874  135.0743  160.0392 H   0  0  0  0  0  0  0  0  0  0  0  0  # atno 6908 bound_to 6896
  152.3231  133.5839  159.5794 H   0  0  0  0  0  0  0  0  0  0  0  0  # atno 6909 bound_to 6896
  145.0130  139.4203  143.5235 H   0  0  0  0  0  0  0  0  0  0  0  0  # atno 7974 bound_to 7965
  156.1316  140.1524  156.9057 H   0  0  0  0  0  0  0  0  0  0  0  0  # atno 8008 bound_to 7997
  154.4913  140.0850  156.7641 H   0  0  0  0  0  0  0  0  0  0  0  0  # atno 8009 bound_to 7997
  155.4246  140.3424  155.4276 H   0  0  0  0  0  0  0  0  0  0  0  0  # atno 8010 bound_to 7997
  140.6153  143.8320  150.7112 H   0  0  0  0  0  0  0  0  0  0  0  0  # atno 10167 bound_to 10162
  156.7429  130.5215  149.5820 H   0  0  0  0  0  0  0  0  0  0  0  0  # atno 10718 bound_to 10713
  153.2170  135.4368  155.0445 H   0  0  0  0  0  0  0  0  0  0  0  0  # atno 10763 bound_to 10752
  154.8230  135.3347  154.6984 H   0  0  0  0  0  0  0  0  0  0  0  0  # atno 10764 bound_to 10752
  153.7418  135.7004  153.5021 H   0  0  0  0  0  0  0  0  0  0  0  0  # atno 10765 bound_to 10752
  140.7517  134.3399  157.5124 H   0  0  0  0  0  0  0  0  0  0  0  0  # atno 11005 bound_to 11000
  146.3473  139.9584  142.8720 LP  0  0  0  0  0  0  0  0  0  0  0  0  # atno 17320 bound_to 7965
  145.1998  140.9849  143.4162 LP  0  0  0  0  0  0  0  0  0  0  0  0  # atno 17321 bound_to 7965
  140.1898  143.4045  152.1871 LP  0  0  0  0  0  0  0  0  0  0  0  0  # atno 17342 bound_to 10162
  139.5394  144.7241  151.4785 LP  0  0  0  0  0  0  0  0  0  0  0  0  # atno 17343 bound_to 10162
  156.1452  130.6272  151.0522 LP  0  0  0  0  0  0  0  0  0  0  0  0  # atno 17370 bound_to 10713
  157.6810  131.0838  150.7368 LP  0  0  0  0  0  0  0  0  0  0  0  0  # atno 17371 bound_to 10713
  139.8786  134.9146  156.3111 LP  0  0  0  0  0  0  0  0  0  0  0  0  # atno 17394 bound_to 11000
  140.9744  133.7306  156.0581 LP  0  0  0  0  0  0  0  0  0  0  0  0  # atno 17395 bound_to 11000

$$$$
