AV-unprocessed.smi:1722|AV-procd|sdf|6944|dock3
  -GOLD-   22720 8153D 1   1.00000     0.00000
 Structure written by MMmdl.
 38 39  0  0  0  0  0  0  0  0  2 V2000
  151.9147  136.8815  159.6791 O   0  0  0  0  0  0  0  0  0  0  0  0
  151.3739  137.8570  159.1595 C   0  0  0  0  0  0  0  0  0  0  0  0
  152.2167  139.0884  158.8320 C   0  0  0  0  0  0  0  0  0  0  0  0
  151.3470  140.1687  158.5194 O   0  0  0  0  0  0  0  0  0  0  0  0
  151.9828  141.4366  158.4380 C   0  0  0  0  0  0  0  0  0  0  0  0
  152.5818  141.7352  159.8239 C   0  0  0  0  0  0  0  0  0  0  0  0
  153.2241  143.1308  159.8724 C   0  0  0  0  0  0  0  0  0  0  0  0
  152.2174  144.2194  159.4682 C   0  0  0  0  0  0  0  0  0  0  0  0
  151.6140  143.9295  158.0848 C   0  0  0  0  0  0  0  0  0  0  0  0
  150.9735  142.5326  158.0361 C   0  0  0  0  0  0  0  0  0  0  0  0
  150.0622  137.9593  158.8677 N   0  0  0  0  0  0  0  0  0  0  0  0
  149.0403  137.0040  158.9991 C   0  0  0  0  0  0  0  0  0  0  0  0
  148.3852  136.7238  160.1596 C   0  0  0  0  0  0  0  0  0  0  0  0
  147.3459  135.7053  160.2428 C   0  0  0  0  0  0  0  0  0  0  0  0
  146.6522  135.3121  161.5351 C   0  0  0  0  0  0  0  0  0  0  0  0
  147.0817  136.0823  162.5336 F   0  0  0  0  0  0  0  0  0  0  0  0
  145.3311  135.4604  161.4346 F   0  0  0  0  0  0  0  0  0  0  0  0
  146.9098  134.0424  161.8493 F   0  0  0  0  0  0  0  0  0  0  0  0
  147.1445  135.0628  159.0366 C   0  0  0  0  0  0  0  0  0  0  0  0
  147.7413  135.2839  157.8446 N   0  5  0  0  0  0  0  0  0  0  0  0
  148.7060  136.2444  157.7766 C   0  0  0  0  0  0  0  0  0  0  0  0
  149.2978  136.4898  156.7248 O   0  0  0  0  0  0  0  0  0  0  0  0
  152.8372  139.3339  159.6950 H   0  0  0  0  0  0  0  0  0  0  0  0
  152.8797  138.8634  157.9963 H   0  0  0  0  0  0  0  0  0  0  0  0
  152.7980  141.3985  157.7127 H   0  0  0  0  0  0  0  0  0  0  0  0
  151.8011  141.6689  160.5831 H   0  0  0  0  0  0  0  0  0  0  0  0
  153.3239  140.9776  160.0784 H   0  0  0  0  0  0  0  0  0  0  0  0
  153.6047  143.3304  160.8747 H   0  0  0  0  0  0  0  0  0  0  0  0
  154.0846  143.1609  159.2029 H   0  0  0  0  0  0  0  0  0  0  0  0
  151.4199  144.2734  160.2105 H   0  0  0  0  0  0  0  0  0  0  0  0
  152.7041  145.1949  159.4658 H   0  0  0  0  0  0  0  0  0  0  0  0
  150.8710  144.6878  157.8372 H   0  0  0  0  0  0  0  0  0  0  0  0
  152.3929  144.0001  157.3245 H   0  0  0  0  0  0  0  0  0  0  0  0
  150.5859  142.3512  157.0341 H   0  0  0  0  0  0  0  0  0  0  0  0
  150.1153  142.5033  158.7089 H   0  0  0  0  0  0  0  0  0  0  0  0
  149.7517  138.8555  158.5211 H   0  0  0  0  0  0  0  0  0  0  0  0
  148.6329  137.2409  161.0720 H   0  0  0  0  0  0  0  0  0  0  0  0
  146.3942  134.2437  159.0295 H   0  0  0  0  0  0  0  0  0  0  0  0
  1  2  2  0  0  0  0
  2  3  1  0  0  0  0
  2 11  1  0  0  0  0
  3  4  1  0  0  0  0
  3 23  1  0  0  0  0
  3 24  1  0  0  0  0
  4  5  1  0  0  0  0
  5 10  1  0  0  0  0
  5  6  1  0  0  0  0
  5 25  1  0  0  0  0
  6  7  1  0  0  0  0
  6 26  1  0  0  0  0
  6 27  1  0  0  0  0
  7  8  1  0  0  0  0
  7 28  1  0  0  0  0
  7 29  1  0  0  0  0
  8  9  1  0  0  0  0
  8 30  1  0  0  0  0
  8 31  1  0  0  0  0
  9 10  1  0  0  0  0
  9 32  1  0  0  0  0
  9 33  1  0  0  0  0
 10 34  1  0  0  0  0
 10 35  1  0  0  0  0
 11 12  1  0  0  0  0
 11 36  1  0  0  0  0
 12 21  1  0  0  0  0
 12 13  2  0  0  0  0
 13 14  1  0  0  0  0
 13 37  1  0  0  0  0
 14 15  1  0  0  0  0
 14 19  2  0  0  0  0
 15 16  1  0  0  0  0
 15 17  1  0  0  0  0
 15 18  1  0  0  0  0
 19 20  1  0  0  0  0
 19 38  1  0  0  0  0
 20 21  1  0  0  0  0
 21 22  2  0  0  0  0
M  CHG  1  20  -1
M  END
> <s_m_source_file>
AV-unprocessed.smi

> <i_m_source_file_index>
1722

> <i_lp_mmshare_version>
43012

> <i_f3d_flags>
0

> <s_epik_input>
Tz1jMVtuSF1bY0hdYyhDKEYpKEYpRilbY0hdYzFbTkhdQyg9TylbQ0gyXU9bQ0hdMltDSDJdW0NIMl1bQ0gyXVtDSDJdW0NIMl0y

> <s_epik_cmdline>
J2VwaWtfcHl0aG9uJywgJy1waCcsICc3LjAnLCAnLXRuJywgJzgnLCAnLW1hJywgJzIwMCcsICctbWV0YWxfYmluZGluZycsICctaW1hZScsICc8aW5maWxlLm1hZT4nLCAnLW9tYWUnLCAnPG91dGZpbGUubWFlPic=

> <r_epik_Ionization_Penalty>
2.55378

> <r_epik_Ionization_Penalty_Charging>
0.0617094

> <r_epik_Ionization_Penalty_Neutral>
2.49207

> <r_epik_State_Penalty>
2.65647

> <r_epik_Charging_Adjusted_Penalty>
2.71818

> <i_epik_Tot_Q>
-1

> <i_epik_Tot_abs_Q>
1

> <r_epik_Metal_State_Penalty>
0.516461

> <b_epik_Metal_Only>
0

> <s_lp_Force_Field>
OPLS_2005

> <r_lp_Energy>
27.5399

> <b_lp_Chiralities_Consistent>
1

> <s_lp_Variant>
AV-unprocessed.smi:1722-2

> <Gold.Version>
5.8.1

> <Gold.Id.Protein>
6NUR|6NUR_protein|mol2

> <Gold.PLP.Fitness>
46.4490

> <Gold.PLP.PLP>
-45.1716

> <Gold.PLP.part.hbond>
-1.0000

> <Gold.PLP.part.metal>
0.0000

> <Gold.PLP.part.buried>
-4.1936

> <Gold.PLP.part.nonpolar>
-40.9148

> <Gold.PLP.part.repulsive>
0.2084

> <Gold.PLP.ligand.clash>
0.0000

> <Gold.PLP.ligand.torsion>
0.9222

> <Gold.PLP.Chemscore.Hbond>
1.0000

> <Gold.PLP.Chemscore.CHOScore>
0.0000

> <Gold.PLP.Chemscore.Metal>
0.0000

> <Gold.Chemscore.Hbonds>
donor molecule, donor type, donor heavy atom, donor atom, acceptor molecule, acceptor atom, score
      P1  H  6896  6907       L1     1  1.00

> <Gold.PLP.Chemscore.Internal.Correction>
0.1217

> <Gold.Rescore>
     Score         DG    S(hbond)    S(metal)    S(lipo)     H(rot)  DE(clash)    DE(int)     intcor
     15.18     -16.08       1.00        0.00      96.55       1.57       0.08       0.82       ----

> <Gold.Chemscore.Fitness>
15.1775

> <Gold.Chemscore.DG>
-16.0834

> <Gold.Chemscore.ZeroCoef>
-5.4800

> <Gold.Chemscore.Hbond>
0.9974

> <Gold.Chemscore.Metal>
0.0000

> <Gold.Chemscore.Lipo>
96.5453

> <Gold.Chemscore.Internal_Hbond>
0.0000

> <Gold.Chemscore.DEClash>
0.0816

> <Gold.Chemscore.DEInternal>
0.8243

> <Gold.Chemscore.Rot>
1.5717

> <Gold.Chemscore.Internal.Correction>
   9.000000E+99

> <Gold.Chemscore.Hbonds>
donor molecule, donor type, donor heavy atom, donor atom, acceptor molecule, acceptor atom, score
      P1  H  6896  6907       L1     1  1.00

> <Gold.Chemscore.Hbond.Weighted>
-3.3313

> <Gold.Chemscore.Metal.Weighted>
-0.0000

> <Gold.Chemscore.Lipo.Weighted>
-11.2958

> <Gold.Chemscore.Internal_Hbond.Weighted>
0.0000

> <Gold.Chemscore.DEClash.Weighted>
0.0816

> <Gold.Chemscore.DEInternal.Weighted>
0.8243

> <Gold.Chemscore.Rot.Weighted>
4.0237

> <Gold.Chemscore.Internal.Correction.Weighted>
   9.000000E+99

> <Gold.Protein.RotatedTorsions>
[ 6907 6896 6895 6894 ] final   10.29 input  -60.11 | X-H torsion
[ 7974 7965 7964 7962 ] final  -68.51 input  175.53 | X-H torsion
[ 8008 7997 7996 7995 ] final   37.88 input   59.86 | X-H torsion
[ 10167 10162 10161 10158 ] final -130.58 input  -65.29 | X-H torsion
[ 10718 10713 10712 10709 ] final -112.42 input   66.30 | X-H torsion
[ 10763 10752 10751 10750 ] final  169.83 input  -60.55 | X-H torsion
[ 11005 11000 10999 10996 ] final  -74.87 input  -57.11 | X-H torsion

> <Gold.Protein.ActiveResidues>
 VAL166  LYS551  ARG553  GLY616  TRP617  ASP618  TYR619  PRO620  LYS621  CYS622 
 ASP623  PHE694  ASN695  SER759  ASP760  ASP761  ALA762  ILE779  LEU786  VAL792 
 PHE793  MET794  SER795  GLU796  ALA797  LYS798  CYS799  TRP800  GLU811  SER814 

> <Gold.Protein.RotatedAtoms>
  151.7358  135.0865  160.0307 H   0  0  0  0  0  0  0  0  0  0  0  0  # atno 6907 bound_to 6896
  152.3511  133.6177  159.5954 H   0  0  0  0  0  0  0  0  0  0  0  0  # atno 6908 bound_to 6896
  150.7541  133.9488  159.3521 H   0  0  0  0  0  0  0  0  0  0  0  0  # atno 6909 bound_to 6896
  145.7156  140.9060  143.0657 H   0  0  0  0  0  0  0  0  0  0  0  0  # atno 7974 bound_to 7965
  155.2110  140.3323  155.4329 H   0  0  0  0  0  0  0  0  0  0  0  0  # atno 8008 bound_to 7997
  156.2370  140.1877  156.7140 H   0  0  0  0  0  0  0  0  0  0  0  0  # atno 8009 bound_to 7997
  154.6078  140.0613  156.9440 H   0  0  0  0  0  0  0  0  0  0  0  0  # atno 8010 bound_to 7997
  139.9279  143.6306  152.2537 H   0  0  0  0  0  0  0  0  0  0  0  0  # atno 10167 bound_to 10162
  156.0704  130.5919  150.8506 H   0  0  0  0  0  0  0  0  0  0  0  0  # atno 10718 bound_to 10713
  154.3888  135.2754  155.2167 H   0  0  0  0  0  0  0  0  0  0  0  0  # atno 10763 bound_to 10752
  154.4242  135.5993  153.6032 H   0  0  0  0  0  0  0  0  0  0  0  0  # atno 10764 bound_to 10752
  152.9832  135.5980  154.4140 H   0  0  0  0  0  0  0  0  0  0  0  0  # atno 10765 bound_to 10752
  141.1640  133.6926  156.7430 H   0  0  0  0  0  0  0  0  0  0  0  0  # atno 11005 bound_to 11000
  144.6930  139.9133  143.7464 LP  0  0  0  0  0  0  0  0  0  0  0  0  # atno 17320 bound_to 7965
  146.0673  139.3663  143.0545 LP  0  0  0  0  0  0  0  0  0  0  0  0  # atno 17321 bound_to 7965
  139.6807  144.7655  151.1614 LP  0  0  0  0  0  0  0  0  0  0  0  0  # atno 17342 bound_to 10162
  140.7645  143.5729  150.8976 LP  0  0  0  0  0  0  0  0  0  0  0  0  # atno 17343 bound_to 10162
  157.5772  131.0946  150.9327 LP  0  0  0  0  0  0  0  0  0  0  0  0  # atno 17370 bound_to 10713
  156.9530  130.5427  149.5283 LP  0  0  0  0  0  0  0  0  0  0  0  0  # atno 17371 bound_to 10713
  140.2660  134.8429  157.3803 LP  0  0  0  0  0  0  0  0  0  0  0  0  # atno 17394 bound_to 11000
  140.1566  134.4782  155.7923 LP  0  0  0  0  0  0  0  0  0  0  0  0  # atno 17395 bound_to 11000

$$$$
