AV-unprocessed.smi:279|AV-procd|sdf|2095|dock2
  -GOLD-   2262021373D 1   1.00000     0.00000
 Structure written by MMmdl.
 50 54  0  0  0  0  0  0  0  0  1 V2000
  149.8785  144.6518  160.1703 O   0  0  0  0  0  0  0  0  0  0  0  0
  151.3275  144.8584  160.0235 S   0  0  0  0  0  0  0  0  0  0  0  0
  151.8788  146.2064  159.8175 O   0  0  0  0  0  0  0  0  0  0  0  0
  152.1926  144.0678  161.4291 C   0  0  0  0  0  0  0  0  0  0  0  0
  152.5066  142.6453  160.9577 C   0  0  0  0  0  0  0  0  0  0  0  0
  152.8899  142.6951  159.4636 C   0  0  1  0  0  0  0  0  0  0  0  0
  152.6661  141.3660  158.7224 C   0  0  0  0  0  0  0  0  0  0  0  0
  151.6122  141.6086  157.7457 N   0  0  0  0  0  0  0  0  0  0  0  0
  150.9280  140.5660  157.2027 C   0  0  0  0  0  0  0  0  0  0  0  0
  150.9553  139.3652  157.8408 N   0  0  0  0  0  0  0  0  0  0  0  0
  150.3014  138.3130  157.3422 C   0  0  0  0  0  0  0  0  0  0  0  0
  149.5592  138.2410  156.2371 N   0  0  0  0  0  0  0  0  0  0  0  0
  149.5098  139.4434  155.5964 C   0  0  0  0  0  0  0  0  0  0  0  0
  150.1607  140.6451  156.0017 C   0  0  0  0  0  0  0  0  0  0  0  0
  149.8788  141.6555  155.0878 N   0  0  0  0  0  0  0  0  0  0  0  0
  149.1219  141.0828  154.1926 C   0  0  0  0  0  0  0  0  0  0  0  0
  148.8268  139.7614  154.4356 N   0  0  0  0  0  0  0  0  0  0  0  0
  148.0561  138.8856  153.6025 C   0  0  0  0  0  0  0  0  0  0  0  0
  146.6908  139.3059  153.0532 C   0  0  0  0  0  0  0  0  0  0  0  0
  146.2203  137.8351  153.1233 C   0  0  0  0  0  0  0  0  0  0  0  0
  144.7847  137.6221  153.6320 C   0  0  0  0  0  0  0  0  0  0  0  0
  144.3746  138.6821  154.4721 O   0  0  0  0  0  0  0  0  0  0  0  0
  146.4277  137.0146  151.8340 C   0  0  0  0  0  0  0  0  0  0  0  0
  146.4716  137.8476  150.6936 O   0  0  0  0  0  0  0  0  0  0  0  0
  147.3273  137.6740  154.1883 C   0  0  0  0  0  0  0  0  0  0  0  0
  150.9284  142.8516  158.0691 C   0  0  0  0  0  0  0  0  0  0  0  0
  151.9950  143.7133  158.7457 C   0  0  1  0  0  0  0  0  0  0  0  0
  153.9311  143.0094  159.3804 H   0  0  0  0  0  0  0  0  0  0  0  0
  152.5641  144.2775  158.0060 H   0  0  0  0  0  0  0  0  0  0  0  0
  153.1115  144.6235  161.6180 H   0  0  0  0  0  0  0  0  0  0  0  0
  151.5706  144.0997  162.3235 H   0  0  0  0  0  0  0  0  0  0  0  0
  153.2881  142.1827  161.5611 H   0  0  0  0  0  0  0  0  0  0  0  0
  151.6084  142.0384  161.0810 H   0  0  0  0  0  0  0  0  0  0  0  0
  153.5777  141.0681  158.2035 H   0  0  0  0  0  0  0  0  0  0  0  0
  152.3905  140.5633  159.4079 H   0  0  0  0  0  0  0  0  0  0  0  0
  150.3840  137.3985  157.9109 H   0  0  0  0  0  0  0  0  0  0  0  0
  148.7514  141.6158  153.3291 H   0  0  0  0  0  0  0  0  0  0  0  0
  148.7209  138.5818  152.7921 H   0  0  0  0  0  0  0  0  0  0  0  0
  146.1476  139.9589  153.7392 H   0  0  0  0  0  0  0  0  0  0  0  0
  146.7220  139.7360  152.0516 H   0  0  0  0  0  0  0  0  0  0  0  0
  144.0830  137.5691  152.7991 H   0  0  0  0  0  0  0  0  0  0  0  0
  144.6859  136.6813  154.1739 H   0  0  0  0  0  0  0  0  0  0  0  0
  144.3056  139.4680  153.9515 H   0  0  0  0  0  0  0  0  0  0  0  0
  147.3609  136.4525  151.8697 H   0  0  0  0  0  0  0  0  0  0  0  0
  145.6375  136.2758  151.6990 H   0  0  0  0  0  0  0  0  0  0  0  0
  145.6716  138.3496  150.6585 H   0  0  0  0  0  0  0  0  0  0  0  0
  147.8864  136.7395  154.1314 H   0  0  0  0  0  0  0  0  0  0  0  0
  146.9714  137.8537  155.2048 H   0  0  0  0  0  0  0  0  0  0  0  0
  150.5248  143.3394  157.1811 H   0  0  0  0  0  0  0  0  0  0  0  0
  150.1043  142.6278  158.7470 H   0  0  0  0  0  0  0  0  0  0  0  0
  1  2  2  0  0  0  0
  2 27  1  0  0  0  0
  2  3  2  0  0  0  0
  2  4  1  0  0  0  0
  4  5  1  0  0  0  0
  4 30  1  0  0  0  0
  4 31  1  0  0  0  0
  5  6  1  0  0  0  0
  5 32  1  0  0  0  0
  5 33  1  0  0  0  0
  6 28  1  0  0  0  0
  6 27  1  0  0  0  0
  6  7  1  0  0  0  0
  7  8  1  0  0  0  0
  7 34  1  0  0  0  0
  7 35  1  0  0  0  0
  8  9  1  0  0  0  0
  8 26  1  0  0  0  0
  9 14  1  0  0  0  0
  9 10  2  0  0  0  0
 10 11  1  0  0  0  0
 11 12  2  0  0  0  0
 11 36  1  0  0  0  0
 12 13  1  0  0  0  0
 13 17  1  0  0  0  0
 13 14  2  0  0  0  0
 14 15  1  0  0  0  0
 15 16  2  0  0  0  0
 16 17  1  0  0  0  0
 16 37  1  0  0  0  0
 17 18  1  0  0  0  0
 18 25  1  0  0  0  0
 18 19  1  0  0  0  0
 18 38  1  0  0  0  0
 19 20  1  0  0  0  0
 19 39  1  0  0  0  0
 19 40  1  0  0  0  0
 20 21  1  0  0  0  0
 20 23  1  0  0  0  0
 20 25  1  0  0  0  0
 21 22  1  0  0  0  0
 21 41  1  0  0  0  0
 21 42  1  0  0  0  0
 22 43  1  0  0  0  0
 23 24  1  0  0  0  0
 23 44  1  0  0  0  0
 23 45  1  0  0  0  0
 24 46  1  0  0  0  0
 25 47  1  0  0  0  0
 25 48  1  0  0  0  0
 26 27  1  0  0  0  0
 26 49  1  0  0  0  0
 26 50  1  0  0  0  0
 27 29  1  0  0  0  0
M  END
> <s_m_source_file>
AV-unprocessed.smi

> <i_m_source_file_index>
279

> <i_lp_mmshare_version>
43012

> <i_f3d_flags>
0

> <s_epik_input>
W0NIMl0xW0NIMl1TKD1PKSg9TylbQ0BASF0oW0NAQEhdMTIpW0NIMl1OKFtDSDJdMiljKG5bY0hdbjMpYyhjMzQpbltjSF1uNFtDSF0oW0NIMl01KVtDSDJdQzUoW0NIMl1bT0hdKVtDSDJdW09IXQ==

> <s_epik_cmdline>
J2VwaWtfcHl0aG9uJywgJy1waCcsICc3LjAnLCAnLXRuJywgJzgnLCAnLW1hJywgJzIwMCcsICctbWV0YWxfYmluZGluZycsICctaW1hZScsICc8aW5maWxlLm1hZT4nLCAnLW9tYWUnLCAnPG91dGZpbGUubWFlPic=

> <r_lp_tautomer_probability>
1

> <r_epik_Ionization_Penalty>
0.000990948

> <r_epik_Ionization_Penalty_Charging>
0

> <r_epik_Ionization_Penalty_Neutral>
0.000990948

> <r_epik_State_Penalty>
0.000515994

> <r_epik_Charging_Adjusted_Penalty>
0.000515994

> <i_epik_Tot_Q>
0

> <i_epik_Tot_abs_Q>
0

> <r_epik_Metal_State_Penalty>
-0

> <b_epik_Metal_Only>
0

> <s_lp_Force_Field>
OPLS_2005

> <r_lp_Energy>
54.435

> <b_lp_Chiralities_Consistent>
1

> <s_lp_Variant>
AV-unprocessed.smi:279-1

> <Gold.Version>
5.8.1

> <Gold.Id.Protein>
6NUR|6NUR_protein|mol2

> <Gold.PLP.Fitness>
51.3711

> <Gold.PLP.PLP>
-45.9646

> <Gold.PLP.part.hbond>
-5.9003

> <Gold.PLP.part.metal>
0.0000

> <Gold.PLP.part.buried>
0.9901

> <Gold.PLP.part.nonpolar>
-40.6118

> <Gold.PLP.part.repulsive>
0.5468

> <Gold.PLP.ligand.clash>
0.0000

> <Gold.PLP.ligand.torsion>
2.4233

> <Gold.PLP.Chemscore.Hbond>
2.9600

> <Gold.PLP.Chemscore.CHOScore>
0.1901

> <Gold.PLP.Chemscore.Metal>
0.0000

> <Gold.Chemscore.Hbonds>
donor molecule, donor type, donor heavy atom, donor atom, acceptor molecule, acceptor atom, score
      L1  H    22    43       P1 10175  1.00
      L1  H    24    46       P1 10171  0.94
      P1  H  7954  7966       L1    24  1.00
      L1  C    16    37       P1  7957  0.16

> <Gold.PLP.Chemscore.Internal.Correction>
0.8027

> <Gold.Rescore>
     Score         DG    S(hbond)    S(metal)    S(lipo)     H(rot)  DE(clash)    DE(int)     intcor
     14.27     -18.59       2.83        0.00      95.67       2.94       1.30       3.03       ----

> <Gold.Chemscore.Fitness>
14.2663

> <Gold.Chemscore.DG>
-18.5937

> <Gold.Chemscore.ZeroCoef>
-5.4800

> <Gold.Chemscore.Hbond>
2.8253

> <Gold.Chemscore.Metal>
0.0000

> <Gold.Chemscore.Lipo>
95.6699

> <Gold.Chemscore.Internal_Hbond>
0.0000

> <Gold.Chemscore.DEClash>
1.2965

> <Gold.Chemscore.DEInternal>
3.0309

> <Gold.Chemscore.Rot>
2.9360

> <Gold.Chemscore.Internal.Correction>
   9.000000E+99

> <Gold.Chemscore.Hbonds>
donor molecule, donor type, donor heavy atom, donor atom, acceptor molecule, acceptor atom, score
      L1  H    22    43       P1 10175  0.97
      L1  H    24    46       P1 10171  0.88
      P1  H  7954  7966       L1    24  0.82

> <Gold.Chemscore.Hbond.Weighted>
-9.4364

> <Gold.Chemscore.Metal.Weighted>
-0.0000

> <Gold.Chemscore.Lipo.Weighted>
-11.1934

> <Gold.Chemscore.Internal_Hbond.Weighted>
0.0000

> <Gold.Chemscore.DEClash.Weighted>
1.2965

> <Gold.Chemscore.DEInternal.Weighted>
3.0309

> <Gold.Chemscore.Rot.Weighted>
7.5161

> <Gold.Chemscore.Internal.Correction.Weighted>
   9.000000E+99

> <Gold.Protein.RotatedTorsions>
[ 6907 6896 6895 6894 ] final   -5.62 input  -60.11 | X-H torsion
[ 7974 7965 7964 7962 ] final  -14.41 input  175.53 | X-H torsion
[ 8008 7997 7996 7995 ] final  152.77 input   59.86 | X-H torsion
[ 10167 10162 10161 10158 ] final -121.32 input  -65.29 | X-H torsion
[ 10718 10713 10712 10709 ] final -125.13 input   66.30 | X-H torsion
[ 10763 10752 10751 10750 ] final   39.32 input  -60.55 | X-H torsion
[ 11005 11000 10999 10996 ] final  -30.84 input  -57.11 | X-H torsion

> <Gold.Protein.ActiveResidues>
 VAL166  LYS551  ARG553  GLY616  TRP617  ASP618  TYR619  PRO620  LYS621  CYS622 
 ASP623  PHE694  ASN695  SER759  ASP760  ASP761  ALA762  ILE779  LEU786  VAL792 
 PHE793  MET794  SER795  GLU796  ALA797  LYS798  CYS799  TRP800  GLU811  SER814 

> <Gold.Protein.RotatedAtoms>
  151.4786  135.1050  159.9771 H   0  0  0  0  0  0  0  0  0  0  0  0  # atno 6907 bound_to 6896
  152.4788  133.8200  159.7059 H   0  0  0  0  0  0  0  0  0  0  0  0  # atno 6908 bound_to 6896
  150.8845  133.7265  159.2949 H   0  0  0  0  0  0  0  0  0  0  0  0  # atno 6909 bound_to 6896
  146.2075  140.3344  142.8402 H   0  0  0  0  0  0  0  0  0  0  0  0  # atno 7974 bound_to 7965
  156.2613  140.2012  156.6385 H   0  0  0  0  0  0  0  0  0  0  0  0  # atno 8008 bound_to 7997
  154.6628  140.0559  157.0105 H   0  0  0  0  0  0  0  0  0  0  0  0  # atno 8009 bound_to 7997
  155.1251  140.3228  155.4490 H   0  0  0  0  0  0  0  0  0  0  0  0  # atno 8010 bound_to 7997
  140.0263  143.5293  152.2197 H   0  0  0  0  0  0  0  0  0  0  0  0  # atno 10167 bound_to 10162
  156.1648  130.6627  151.0100 H   0  0  0  0  0  0  0  0  0  0  0  0  # atno 10718 bound_to 10713
  152.9971  135.6224  154.2447 H   0  0  0  0  0  0  0  0  0  0  0  0  # atno 10763 bound_to 10752
  154.2187  135.2797  155.2934 H   0  0  0  0  0  0  0  0  0  0  0  0  # atno 10764 bound_to 10752
  154.5547  135.5723  153.7011 H   0  0  0  0  0  0  0  0  0  0  0  0  # atno 10765 bound_to 10752
  140.9417  133.7275  156.1086 H   0  0  0  0  0  0  0  0  0  0  0  0  # atno 11005 bound_to 11000
  144.8830  140.7425  143.5975 LP  0  0  0  0  0  0  0  0  0  0  0  0  # atno 17320 bound_to 7965
  145.3264  139.1772  143.4560 LP  0  0  0  0  0  0  0  0  0  0  0  0  # atno 17321 bound_to 7965
  139.6106  144.7607  151.2962 LP  0  0  0  0  0  0  0  0  0  0  0  0  # atno 17342 bound_to 10162
  140.7321  143.6833  150.7983 LP  0  0  0  0  0  0  0  0  0  0  0  0  # atno 17343 bound_to 10162
  157.6760  131.0850  150.7493 LP  0  0  0  0  0  0  0  0  0  0  0  0  # atno 17370 bound_to 10713
  156.7555  130.4782  149.5448 LP  0  0  0  0  0  0  0  0  0  0  0  0  # atno 17371 bound_to 10713
  140.7725  134.3816  157.5504 LP  0  0  0  0  0  0  0  0  0  0  0  0  # atno 17394 bound_to 11000
  139.8822  134.9031  156.2847 LP  0  0  0  0  0  0  0  0  0  0  0  0  # atno 17395 bound_to 11000

$$$$
