#       Name:                AV-unprocessed.smi:338
#       Creating user name   scv26
#       Creation time:       Thu Mar 26 22:29:39 2020


#       File generated by GOLD software.
#

@<TRIPOS>MOLECULE
AV-unprocessed.smi:338
    48    50     1
SMALL
NO_CHARGES


@<TRIPOS>ATOM
      1 ****        -1.0243   7.0591  -0.3518 C.3            1 S1                 0.0000
      2 ****        -0.2617   5.7356  -0.3882 C.2            1 S1                 0.0000
      3 ****         0.9650   5.7645  -0.4827 O.2            1 S1                 0.0000
      4 ****        -1.0523   4.4736  -0.3062 C.ar           1 S1                 0.0000
      5 ****        -2.4629   4.4879  -0.2040 C.ar           1 S1                 0.0000
      6 ****        -3.1818   3.2810  -0.1302 C.ar           1 S1                 0.0000
      7 ****        -2.5011   2.0506  -0.1565 C.ar           1 S1                 0.0000
      8 ****        -1.0968   2.0085  -0.2562 C.ar           1 S1                 0.0000
      9 ****        -0.5113   0.7606  -0.2745 O.3            1 S1                 0.0000
     10 ****         0.9063   0.6800  -0.3466 C.3            1 S1                 0.0000
     11 ****         1.3237  -0.7976  -0.3246 C.3            1 S1                 0.0000
     12 ****         2.7092  -0.8773  -0.5965 O.3            1 S1                 0.0000
     13 ****         1.0174  -1.4759   1.0251 C.3            1 S1                 0.0000
     14 ****         1.4176  -2.8714   1.0502 N.pl3          1 S1                 0.0000
     15 ****         2.4960  -3.3976   1.6624 C.2            1 S1                 0.0000
     16 ****         2.6748  -4.7114   1.5589 N.2            1 S1                 0.0000
     17 ****         1.5824  -5.0826   0.7938 C.ar           1 S1                 0.0000
     18 ****         1.1799  -6.3537   0.3250 C.ar           1 S1                 0.0000
     19 ****         0.0102  -6.4914  -0.4511 C.ar           1 S1                 0.0000
     20 ****        -0.7736  -5.3634  -0.7700 C.ar           1 S1                 0.0000
     21 ****        -0.3932  -4.0867  -0.3137 C.ar           1 S1                 0.0000
     22 ****         0.7748  -3.9536   0.4599 C.ar           1 S1                 0.0000
     23 ****        -0.3791   3.2293  -0.3317 C.ar           1 S1                 0.0000
     24 ****        -1.7229   7.1216  -1.1866 H              1 S1                 0.0000
     25 ****        -0.3334   7.8997  -0.4224 H              1 S1                 0.0000
     26 ****        -1.5810   7.1534   0.5808 H              1 S1                 0.0000
     27 ****        -3.0168   5.4144  -0.1814 H              1 S1                 0.0000
     28 ****        -4.2590   3.2991  -0.0535 H              1 S1                 0.0000
     29 ****        -3.0625   1.1296  -0.0988 H              1 S1                 0.0000
     30 ****         1.2476   1.1432  -1.2741 H              1 S1                 0.0000
     31 ****         1.3677   1.2113   0.4878 H              1 S1                 0.0000
     32 ****         0.8032  -1.3237  -1.1259 H              1 S1                 0.0000
     33 ****         2.9537  -1.7893  -0.6383 H              1 S1                 0.0000
     34 ****         1.5228  -0.9523   1.8381 H              1 S1                 0.0000
     35 ****        -0.0506  -1.4269   1.2405 H              1 S1                 0.0000
     36 ****         3.1909  -2.7802   2.2130 H              1 S1                 0.0000
     37 ****         1.7721  -7.2246   0.5638 H              1 S1                 0.0000
     38 ****        -0.2875  -7.4682  -0.8031 H              1 S1                 0.0000
     39 ****        -1.6680  -5.4791  -1.3645 H              1 S1                 0.0000
     40 ****        -0.9911  -3.2204  -0.5553 H              1 S1                 0.0000
     41 ****         0.6976   3.2248  -0.4108 H              1 S1                 0.0000
     42 ****         1.4420   6.6419  -0.5339 LP             1 S1                 0.0000
     43 ****         1.4847   4.9106  -0.5083 LP             1 S1                 0.0000
     44 ****        -0.8759   0.2746  -1.0688 LP             1 S1                 0.0000
     45 ****        -0.7921   0.2900   0.5620 LP             1 S1                 0.0000
     46 ****         3.2227  -0.4232   0.1315 LP             1 S1                 0.0000
     47 ****         2.9076  -0.4342  -1.4707 LP             1 S1                 0.0000
     48 ****         3.4057  -5.2810   1.9347 LP             1 S1                 0.0000
@<TRIPOS>BOND
    1    1    2 1     
    2    1   24 1     
    3    1   25 1     
    4    1   26 1     
    5    2    3 2     
    6    2    4 1     
    7    4   23 ar    
    8    4    5 ar    
    9    5    6 ar    
   10    5   27 1     
   11    6    7 ar    
   12    6   28 1     
   13    7    8 ar    
   14    7   29 1     
   15    8    9 1     
   16    8   23 ar    
   17    9   10 1     
   18   10   11 1     
   19   10   30 1     
   20   10   31 1     
   21   11   12 1     
   22   11   13 1     
   23   11   32 1     
   24   12   33 1     
   25   13   14 1     
   26   13   34 1     
   27   13   35 1     
   28   14   22 1     
   29   14   15 1     
   30   15   16 2     
   31   15   36 1     
   32   16   17 1     
   33   17   22 ar    
   34   17   18 ar    
   35   18   19 ar    
   36   18   37 1     
   37   19   20 ar    
   38   19   38 1     
   39   20   21 ar    
   40   20   39 1     
   41   21   22 ar    
   42   21   40 1     
   43   23   41 1     
   44    3   42 1     
   45    3   43 1     
   46    9   44 1     
   47    9   45 1     
   48   12   46 1     
   49   12   47 1     
   50   16   48 1     
@<TRIPOS>SUBSTRUCTURE
      1 S1             1
@<TRIPOS>SET
LONE_PAIRS      STATIC     ATOMS    <user>   **** ""
7 42 43 44 45 46 47 48
DONOR_HYDROGENS      STATIC     ATOMS    <user>   **** ""
1 33
ATOM$BLUE        STATIC     ATOMS    COLORGROUP SYSTEM
7 42 43 44 45 46 47 48
ATOM$RED        STATIC     ATOMS    COLORGROUP SYSTEM
1 33
