AV-unprocessed.smi:1042|AV-procd|sdf|4539|dock2
  -GOLD-   22720 2563D 1   1.00000     0.00000
 Structure written by MMmdl.
 40 42  0  0  0  0  0  0  0  0  2 V2000
  144.5888  136.8343  152.1722 O   0  0  0  0  0  0  0  0  0  0  0  0
  145.7924  136.5927  152.0749 C   0  0  0  0  0  0  0  0  0  0  0  0
  146.7481  137.4460  152.4706 N   0  0  0  0  0  0  0  0  0  0  0  0
  146.5047  138.7578  153.0616 C   0  0  0  0  0  0  0  0  0  0  0  0
  147.8001  139.5796  153.2085 C   0  0  1  0  0  0  0  0  0  0  0  0
  147.6231  140.9512  153.8604 C   0  0  0  0  0  0  0  0  0  0  0  0
  149.0146  141.2920  154.4088 C   0  0  0  0  0  0  0  0  0  0  0  0
  149.7766  140.0223  154.4635 N   0  3  1  0  0  0  0  0  0  0  0  0
  150.5071  139.8053  155.7303 C   0  0  0  0  0  0  0  0  0  0  0  0
  151.2496  141.0277  156.2143 C   0  0  0  0  0  0  0  0  0  0  0  0
  152.0079  139.8803  155.5829 C   0  0  0  0  0  0  0  0  0  0  0  0
  148.8486  138.9297  154.1090 C   0  0  0  0  0  0  0  0  0  0  0  0
  146.3229  135.4634  151.5734 N   0  0  0  0  0  0  0  0  0  0  0  0
  145.6425  134.3187  151.0792 C   0  0  0  0  0  0  0  0  0  0  0  0
  146.4773  133.3024  150.5622 C   0  0  0  0  0  0  0  0  0  0  0  0
  145.8994  132.1248  150.0498 C   0  0  0  0  0  0  0  0  0  0  0  0
  144.4994  131.9934  150.0680 C   0  0  0  0  0  0  0  0  0  0  0  0
  143.7410  133.0521  150.6008 C   0  0  0  0  0  0  0  0  0  0  0  0
  144.2930  134.1814  151.0929 N   0  0  0  0  0  0  0  0  0  0  0  0
  147.7123  137.1712  152.3505 H   0  0  0  0  0  0  0  0  0  0  0  0
  145.7936  139.2871  152.4266 H   0  0  0  0  0  0  0  0  0  0  0  0
  146.0207  138.6388  154.0326 H   0  0  0  0  0  0  0  0  0  0  0  0
  148.2499  139.7246  152.2246 H   0  0  0  0  0  0  0  0  0  0  0  0
  147.2513  141.7034  153.1637 H   0  0  0  0  0  0  0  0  0  0  0  0
  146.9129  140.8831  154.6859 H   0  0  0  0  0  0  0  0  0  0  0  0
  149.5377  141.9801  153.7442 H   0  0  0  0  0  0  0  0  0  0  0  0
  148.9392  141.7705  155.3866 H   0  0  0  0  0  0  0  0  0  0  0  0
  150.0553  139.1145  156.4400 H   0  0  0  0  0  0  0  0  0  0  0  0
  151.1582  141.9474  155.6391 H   0  0  0  0  0  0  0  0  0  0  0  0
  151.3520  141.1604  157.2895 H   0  0  0  0  0  0  0  0  0  0  0  0
  152.6088  139.2577  156.2426 H   0  0  0  0  0  0  0  0  0  0  0  0
  152.4210  140.0375  154.5882 H   0  0  0  0  0  0  0  0  0  0  0  0
  148.3765  138.5409  155.0133 H   0  0  0  0  0  0  0  0  0  0  0  0
  149.3694  138.1063  153.6193 H   0  0  0  0  0  0  0  0  0  0  0  0
  147.3304  135.4121  151.5484 H   0  0  0  0  0  0  0  0  0  0  0  0
  147.5514  133.4195  150.5556 H   0  0  0  0  0  0  0  0  0  0  0  0
  146.5203  131.3365  149.6502 H   0  0  0  0  0  0  0  0  0  0  0  0
  144.0193  131.1053  149.6844 H   0  0  0  0  0  0  0  0  0  0  0  0
  142.6635  132.9911  150.6340 H   0  0  0  0  0  0  0  0  0  0  0  0
  150.4594  140.0706  153.7208 H   0  0  0  0  0  0  0  0  0  0  0  0
  1  2  2  0  0  0  0
  2  3  1  0  0  0  0
  2 13  1  0  0  0  0
  3  4  1  0  0  0  0
  3 20  1  0  0  0  0
  4  5  1  0  0  0  0
  4 21  1  0  0  0  0
  4 22  1  0  0  0  0
  5 12  1  0  0  0  0
  5  6  1  0  0  0  0
  5 23  1  0  0  0  0
  6  7  1  0  0  0  0
  6 24  1  0  0  0  0
  6 25  1  0  0  0  0
  7  8  1  0  0  0  0
  7 26  1  0  0  0  0
  7 27  1  0  0  0  0
  8  9  1  0  0  0  0
  8 12  1  0  0  0  0
  8 40  1  0  0  0  0
  9 11  1  0  0  0  0
  9 10  1  0  0  0  0
  9 28  1  0  0  0  0
 10 11  1  0  0  0  0
 10 29  1  0  0  0  0
 10 30  1  0  0  0  0
 11 31  1  0  0  0  0
 11 32  1  0  0  0  0
 12 33  1  0  0  0  0
 12 34  1  0  0  0  0
 13 14  1  0  0  0  0
 13 35  1  0  0  0  0
 14 19  1  0  0  0  0
 14 15  2  0  0  0  0
 15 16  1  0  0  0  0
 15 36  1  0  0  0  0
 16 17  2  0  0  0  0
 16 37  1  0  0  0  0
 17 18  1  0  0  0  0
 17 38  1  0  0  0  0
 18 19  2  0  0  0  0
 18 39  1  0  0  0  0
M  CHG  1   8   1
M  END
> <s_m_source_file>
AV-unprocessed.smi

> <i_m_source_file_index>
1042

> <i_lp_mmshare_version>
43012

> <i_f3d_flags>
0

> <s_epik_input>
bjFbY0hdW2NIXVtjSF1bY0hdYzFbTkhdQyg9TylbTkhdW0NIMl1bQ0BASF0yW0NIMl1bQ0gyXU4oW0NIMl0yKVtDSF0zW0NIMl1bQ0gyXTM=

> <s_epik_cmdline>
J2VwaWtfcHl0aG9uJywgJy1waCcsICc3LjAnLCAnLXRuJywgJzgnLCAnLW1hJywgJzIwMCcsICctbWV0YWxfYmluZGluZycsICctaW1hZScsICc8aW5maWxlLm1hZT4nLCAnLW9tYWUnLCAnPG91dGZpbGUubWFlPic=

> <r_lp_tautomer_probability>
1

> <r_epik_Ionization_Penalty>
0.000244736

> <r_epik_Ionization_Penalty_Charging>
0.000203384

> <r_epik_Ionization_Penalty_Neutral>
4.13519e-05

> <r_epik_State_Penalty>
-0

> <r_epik_Charging_Adjusted_Penalty>
0.000203384

> <i_epik_Tot_Q>
1

> <i_epik_Tot_abs_Q>
1

> <r_epik_Metal_State_Penalty>
-0

> <b_epik_Metal_Only>
0

> <s_lp_Force_Field>
OPLS_2005

> <r_lp_Energy>
38.0464

> <b_lp_Chiralities_Consistent>
1

> <s_lp_Variant>
AV-unprocessed.smi:1042-4

> <Gold.Version>
5.8.1

> <Gold.Id.Protein>
6NUR|6NUR_protein|mol2

> <Gold.PLP.Fitness>
45.0472

> <Gold.PLP.PLP>
-36.5496

> <Gold.PLP.part.hbond>
-2.1119

> <Gold.PLP.part.metal>
0.0000

> <Gold.PLP.part.buried>
-1.3619

> <Gold.PLP.part.nonpolar>
-33.8702

> <Gold.PLP.part.repulsive>
1.2251

> <Gold.PLP.ligand.clash>
0.0000

> <Gold.PLP.ligand.torsion>
0.8494

> <Gold.PLP.Chemscore.Hbond>
1.9920

> <Gold.PLP.Chemscore.CHOScore>
0.9837

> <Gold.PLP.Chemscore.Metal>
0.0000

> <Gold.Chemscore.Hbonds>
donor molecule, donor type, donor heavy atom, donor atom, acceptor molecule, acceptor atom, score
      L1  H     3    20       P1  7948  1.00
      L1  H    13    35       P1  7948  0.99
      L1  C    18    39       P1 10186  0.99

> <Gold.PLP.Chemscore.Internal.Correction>
1.2694

> <Gold.Rescore>
     Score         DG    S(hbond)    S(metal)    S(lipo)     H(rot)  DE(clash)    DE(int)     intcor
     16.08     -18.24       1.95        0.00      85.45       1.47       0.03       2.12       ----

> <Gold.Chemscore.Fitness>
16.0797

> <Gold.Chemscore.DG>
-18.2363

> <Gold.Chemscore.ZeroCoef>
-5.4800

> <Gold.Chemscore.Hbond>
1.9531

> <Gold.Chemscore.Metal>
0.0000

> <Gold.Chemscore.Lipo>
85.4529

> <Gold.Chemscore.Internal_Hbond>
0.0000

> <Gold.Chemscore.DEClash>
0.0338

> <Gold.Chemscore.DEInternal>
2.1229

> <Gold.Chemscore.Rot>
1.4707

> <Gold.Chemscore.Internal.Correction>
   9.000000E+99

> <Gold.Chemscore.Hbonds>
donor molecule, donor type, donor heavy atom, donor atom, acceptor molecule, acceptor atom, score
      L1  H     3    20       P1  7948  0.98
      L1  H    13    35       P1  7948  0.89

> <Gold.Chemscore.Hbond.Weighted>
-6.5233

> <Gold.Chemscore.Metal.Weighted>
-0.0000

> <Gold.Chemscore.Lipo.Weighted>
-9.9980

> <Gold.Chemscore.Internal_Hbond.Weighted>
0.0000

> <Gold.Chemscore.DEClash.Weighted>
0.0338

> <Gold.Chemscore.DEInternal.Weighted>
2.1229

> <Gold.Chemscore.Rot.Weighted>
3.7650

> <Gold.Chemscore.Internal.Correction.Weighted>
   9.000000E+99

> <Gold.Protein.RotatedTorsions>
[ 6907 6896 6895 6894 ] final  168.87 input  -60.11 | X-H torsion
[ 7974 7965 7964 7962 ] final -175.91 input  175.53 | X-H torsion
[ 8008 7997 7996 7995 ] final  130.18 input   59.86 | X-H torsion
[ 10167 10162 10161 10158 ] final  166.43 input  -65.29 | X-H torsion
[ 10718 10713 10712 10709 ] final   66.05 input   66.30 | X-H torsion
[ 10763 10752 10751 10750 ] final   15.10 input  -60.55 | X-H torsion
[ 11005 11000 10999 10996 ] final   27.75 input  -57.11 | X-H torsion

> <Gold.Protein.ActiveResidues>
 VAL166  LYS551  ARG553  GLY616  TRP617  ASP618  TYR619  PRO620  LYS621  CYS622 
 ASP623  PHE694  ASN695  SER759  ASP760  ASP761  ALA762  ILE779  LEU786  VAL792 
 PHE793  MET794  SER795  GLU796  ALA797  LYS798  CYS799  TRP800  GLU811  SER814 

> <Gold.Protein.RotatedAtoms>
  151.8408  133.3423  159.3642 H   0  0  0  0  0  0  0  0  0  0  0  0  # atno 6907 bound_to 6896
  150.7235  134.5393  159.5748 H   0  0  0  0  0  0  0  0  0  0  0  0  # atno 6908 bound_to 6896
  152.2866  134.7770  160.0437 H   0  0  0  0  0  0  0  0  0  0  0  0  # atno 6909 bound_to 6896
  144.7127  140.1250  143.6402 H   0  0  0  0  0  0  0  0  0  0  0  0  # atno 7974 bound_to 7965
  156.2950  140.2602  156.2720 H   0  0  0  0  0  0  0  0  0  0  0  0  # atno 8008 bound_to 7997
  154.9686  140.0391  157.2242 H   0  0  0  0  0  0  0  0  0  0  0  0  # atno 8009 bound_to 7997
  154.7880  140.2807  155.6018 H   0  0  0  0  0  0  0  0  0  0  0  0  # atno 8010 bound_to 7997
  139.4924  144.4028  151.9390 H   0  0  0  0  0  0  0  0  0  0  0  0  # atno 10167 bound_to 10162
  157.6144  130.9247  150.0057 H   0  0  0  0  0  0  0  0  0  0  0  0  # atno 10718 bound_to 10713
  153.1558  135.6787  153.8815 H   0  0  0  0  0  0  0  0  0  0  0  0  # atno 10763 bound_to 10752
  153.8226  135.3128  155.3413 H   0  0  0  0  0  0  0  0  0  0  0  0  # atno 10764 bound_to 10752
  154.7896  135.4842  154.0111 H   0  0  0  0  0  0  0  0  0  0  0  0  # atno 10765 bound_to 10752
  140.3229  134.2523  155.7714 H   0  0  0  0  0  0  0  0  0  0  0  0  # atno 11005 bound_to 11000
  145.9338  139.2623  143.1309 LP  0  0  0  0  0  0  0  0  0  0  0  0  # atno 17320 bound_to 7965
  145.9495  140.8919  143.0266 LP  0  0  0  0  0  0  0  0  0  0  0  0  # atno 17321 bound_to 7965
  140.3467  144.3138  150.5957 LP  0  0  0  0  0  0  0  0  0  0  0  0  # atno 17342 bound_to 10162
  140.5520  143.2205  151.7911 LP  0  0  0  0  0  0  0  0  0  0  0  0  # atno 17343 bound_to 10162
  156.1260  130.3644  149.9809 LP  0  0  0  0  0  0  0  0  0  0  0  0  # atno 17370 bound_to 10713
  156.7879  130.9245  151.3646 LP  0  0  0  0  0  0  0  0  0  0  0  0  # atno 17371 bound_to 10713
  141.2082  133.7784  157.0072 LP  0  0  0  0  0  0  0  0  0  0  0  0  # atno 17394 bound_to 11000
  140.0926  134.9583  157.1800 LP  0  0  0  0  0  0  0  0  0  0  0  0  # atno 17395 bound_to 11000

$$$$
