#       Name:                AV-unprocessed.smi:3019
#       Creating user name   scv26
#       Creation time:       Fri Mar 27 16:42:59 2020


#       File generated by GOLD software.
#

@<TRIPOS>MOLECULE
AV-unprocessed.smi:3019
    35    36     1
SMALL
NO_CHARGES


@<TRIPOS>ATOM
      1 ****        -3.4644   0.9109   1.4830 C.3            1 S1                 0.0000
      2 ****        -2.9425   1.3415   0.1042 C.3            1 S1                 0.0000
      3 ****        -3.5441   0.4970  -1.0286 C.3            1 S1                 0.0000
      4 ****        -1.4453   1.3430   0.0551 C.2            1 S1                 0.0000
      5 ****        -0.7397   2.4509  -0.1835 N.pl3          1 S1                 0.0000
      6 ****         0.5768   2.1532  -0.1826 N.2            1 S1                 0.0000
      7 ****         0.5668   0.8470   0.0811 C.2            1 S1                 0.0000
      8 ****         1.8415   0.0637   0.1356 C.3            1 S1                 0.0000
      9 ****         2.2005  -0.5533  -1.2307 C.3            1 S1                 0.0000
     10 ****         3.3907  -1.3940  -1.1103 N.3            1 S1                 0.0000
     11 ****         3.2135  -2.4118  -0.0755 C.3            1 S1                 0.0000
     12 ****         2.8278  -1.7545   1.2622 C.3            1 S1                 0.0000
     13 ****         1.6473  -0.9781   1.0900 O.3            1 S1                 0.0000
     14 ****        -0.6693   0.2768   0.2222 N.2            1 S1                 0.0000
     15 ****        -3.0778   1.5603   2.2692 H              1 S1                 0.0000
     16 ****        -3.1654  -0.1111   1.7190 H              1 S1                 0.0000
     17 ****        -4.5530   0.9558   1.5230 H              1 S1                 0.0000
     18 ****        -3.2727   2.3693  -0.0543 H              1 S1                 0.0000
     19 ****        -3.2098   0.8537  -2.0033 H              1 S1                 0.0000
     20 ****        -4.6333   0.5417  -1.0162 H              1 S1                 0.0000
     21 ****        -3.2534  -0.5505  -0.9399 H              1 S1                 0.0000
     22 ****         2.6440   0.7216   0.4759 H              1 S1                 0.0000
     23 ****         1.3641  -1.1504  -1.5965 H              1 S1                 0.0000
     24 ****         2.3700   0.2332  -1.9665 H              1 S1                 0.0000
     25 ****         2.4350  -3.1142  -0.3757 H              1 S1                 0.0000
     26 ****         4.1298  -2.9904   0.0414 H              1 S1                 0.0000
     27 ****         2.6388  -2.5195   2.0153 H              1 S1                 0.0000
     28 ****         3.6392  -1.1300   1.6397 H              1 S1                 0.0000
     29 ****         3.5805  -1.8438  -2.0002 H              1 S1                 0.0000
     30 ****        -1.0948   3.3811  -0.3528 H              1 S1                 0.0000
     31 ****         1.3582   2.7572  -0.3394 LP             1 S1                 0.0000
     32 ****         4.1618  -0.8124  -0.8512 LP             1 S1                 0.0000
     33 ****         0.9093  -1.5745   0.7744 LP             1 S1                 0.0000
     34 ****         1.3948  -0.5715   1.9680 LP             1 S1                 0.0000
     35 ****        -0.9188  -0.6749   0.4009 LP             1 S1                 0.0000
@<TRIPOS>BOND
    1    1    2 1     
    2    1   15 1     
    3    1   16 1     
    4    1   17 1     
    5    2    3 1     
    6    2    4 1     
    7    2   18 1     
    8    3   19 1     
    9    3   20 1     
   10    3   21 1     
   11    4   14 2     
   12    4    5 1     
   13    5    6 1     
   14    5   30 1     
   15    6    7 2     
   16    7    8 1     
   17    7   14 1     
   18    8   13 1     
   19    8    9 1     
   20    8   22 1     
   21    9   10 1     
   22    9   23 1     
   23    9   24 1     
   24   10   11 1     
   25   10   29 1     
   26   11   12 1     
   27   11   25 1     
   28   11   26 1     
   29   12   13 1     
   30   12   27 1     
   31   12   28 1     
   32    6   31 1     
   33   10   32 1     
   34   13   33 1     
   35   13   34 1     
   36   14   35 1     
@<TRIPOS>SUBSTRUCTURE
      1 S1             1
@<TRIPOS>SET
LONE_PAIRS      STATIC     ATOMS    <user>   **** ""
5 31 32 33 34 35
DONOR_HYDROGENS      STATIC     ATOMS    <user>   **** ""
2 30 29
ATOM$BLUE        STATIC     ATOMS    COLORGROUP SYSTEM
5 31 32 33 34 35
ATOM$RED        STATIC     ATOMS    COLORGROUP SYSTEM
2 30 29
