AV-unprocessed.smi:556|AV-procd|sdf|2913|dock6
  -GOLD-   2262023403D 1   1.00000     0.00000
 Structure written by MMmdl.
 38 39  0  0  0  0  0  0  0  0  1 V2000
  146.9623  133.3630  152.7536 C   0  0  0  0  0  0  0  0  0  0  0  0
  146.5285  133.9857  151.4154 C   0  0  1  0  0  0  0  0  0  0  0  0
  146.4572  132.9636  150.2614 C   0  0  0  0  0  0  0  0  0  0  0  0
  145.3188  132.1253  150.3854 O   0  0  0  0  0  0  0  0  0  0  0  0
  144.1139  132.8726  150.3412 C   0  0  0  0  0  0  0  0  0  0  0  0
  144.0685  133.8272  151.5421 C   0  0  0  0  0  0  0  0  0  0  0  0
  145.2456  134.7124  151.5594 N   0  0  0  0  0  0  0  0  0  0  0  0
  145.1101  136.0512  151.7536 C   0  0  0  0  0  0  0  0  0  0  0  0
  144.0236  136.6320  151.7319 O   0  0  0  0  0  0  0  0  0  0  0  0
  146.2569  136.7082  152.0011 N   0  0  0  0  0  0  0  0  0  0  0  0
  146.3716  138.1388  152.2580 C   0  0  0  0  0  0  0  0  0  0  0  0
  146.9869  138.4208  153.6383 C   0  0  0  0  0  0  0  0  0  0  0  0
  146.9358  139.8852  153.9724 C   0  0  0  0  0  0  0  0  0  0  0  0
  148.0253  140.7544  154.2648 C   0  0  0  0  0  0  0  0  0  0  0  0
  147.6397  141.9926  154.5273 N   0  0  0  0  0  0  0  0  0  0  0  0
  146.2964  141.9581  154.4089 N   0  0  0  0  0  0  0  0  0  0  0  0
  145.5285  143.1636  154.6370 C   0  0  0  0  0  0  0  0  0  0  0  0
  145.8437  140.7002  154.0742 C   0  0  0  0  0  0  0  0  0  0  0  0
  147.9408  132.8907  152.6645 H   0  0  0  0  0  0  0  0  0  0  0  0
  146.2601  132.6001  153.0896 H   0  0  0  0  0  0  0  0  0  0  0  0
  147.0332  134.1198  153.5353 H   0  0  0  0  0  0  0  0  0  0  0  0
  147.3298  134.6639  151.1215 H   0  0  0  0  0  0  0  0  0  0  0  0
  146.4222  133.4801  149.3006 H   0  0  0  0  0  0  0  0  0  0  0  0
  147.3539  132.3439  150.2456 H   0  0  0  0  0  0  0  0  0  0  0  0
  144.0366  133.4196  149.3998 H   0  0  0  0  0  0  0  0  0  0  0  0
  143.2709  132.1827  150.3792 H   0  0  0  0  0  0  0  0  0  0  0  0
  143.1253  134.3740  151.5068 H   0  0  0  0  0  0  0  0  0  0  0  0
  144.0459  133.2549  152.4697 H   0  0  0  0  0  0  0  0  0  0  0  0
  147.1129  136.1731  152.0169 H   0  0  0  0  0  0  0  0  0  0  0  0
  146.9598  138.6134  151.4705 H   0  0  0  0  0  0  0  0  0  0  0  0
  145.3721  138.5711  152.2023 H   0  0  0  0  0  0  0  0  0  0  0  0
  146.4582  137.8382  154.3937 H   0  0  0  0  0  0  0  0  0  0  0  0
  148.0178  138.0655  153.6591 H   0  0  0  0  0  0  0  0  0  0  0  0
  149.0795  140.5221  154.2968 H   0  0  0  0  0  0  0  0  0  0  0  0
  144.4995  143.0191  154.3066 H   0  0  0  0  0  0  0  0  0  0  0  0
  145.9647  143.9940  154.0806 H   0  0  0  0  0  0  0  0  0  0  0  0
  145.5297  143.4040  155.7005 H   0  0  0  0  0  0  0  0  0  0  0  0
  144.7929  140.4885  153.9404 H   0  0  0  0  0  0  0  0  0  0  0  0
  1  2  1  0  0  0  0
  1 19  1  0  0  0  0
  1 20  1  0  0  0  0
  1 21  1  0  0  0  0
  2  7  1  0  0  0  0
  2  3  1  0  0  0  0
  2 22  1  0  0  0  0
  3  4  1  0  0  0  0
  3 23  1  0  0  0  0
  3 24  1  0  0  0  0
  4  5  1  0  0  0  0
  5  6  1  0  0  0  0
  5 25  1  0  0  0  0
  5 26  1  0  0  0  0
  6  7  1  0  0  0  0
  6 27  1  0  0  0  0
  6 28  1  0  0  0  0
  7  8  1  0  0  0  0
  8  9  2  0  0  0  0
  8 10  1  0  0  0  0
 10 11  1  0  0  0  0
 10 29  1  0  0  0  0
 11 12  1  0  0  0  0
 11 30  1  0  0  0  0
 11 31  1  0  0  0  0
 12 13  1  0  0  0  0
 12 32  1  0  0  0  0
 12 33  1  0  0  0  0
 13 18  2  0  0  0  0
 13 14  1  0  0  0  0
 14 15  2  0  0  0  0
 14 34  1  0  0  0  0
 15 16  1  0  0  0  0
 16 17  1  0  0  0  0
 16 18  1  0  0  0  0
 17 35  1  0  0  0  0
 17 36  1  0  0  0  0
 17 37  1  0  0  0  0
 18 38  1  0  0  0  0
M  END
> <s_m_source_file>
AV-unprocessed.smi

> <i_m_source_file_index>
556

> <i_lp_mmshare_version>
43012

> <i_f3d_flags>
0

> <s_epik_input>
W0NIM11bQ0BASF0xW0NIMl1PW0NIMl1bQ0gyXU4xQyg9TylbTkhdW0NIMl1bQ0gyXWMyW2NIXW5uKFtDSDNdKVtjSF0y

> <s_epik_cmdline>
J2VwaWtfcHl0aG9uJywgJy1waCcsICc3LjAnLCAnLXRuJywgJzgnLCAnLW1hJywgJzIwMCcsICctbWV0YWxfYmluZGluZycsICctaW1hZScsICc8aW5maWxlLm1hZT4nLCAnLW9tYWUnLCAnPG91dGZpbGUubWFlPic=

> <r_lp_tautomer_probability>
1

> <r_epik_Ionization_Penalty>
0.000536334

> <r_epik_Ionization_Penalty_Charging>
0

> <r_epik_Ionization_Penalty_Neutral>
0.000536334

> <r_epik_State_Penalty>
-0

> <r_epik_Charging_Adjusted_Penalty>
0

> <i_epik_Tot_Q>
0

> <i_epik_Tot_abs_Q>
0

> <r_epik_Metal_State_Penalty>
-0

> <b_epik_Metal_Only>
0

> <s_lp_Force_Field>
OPLS_2005

> <r_lp_Energy>
28.9332

> <b_lp_Chiralities_Consistent>
1

> <s_lp_Variant>
AV-unprocessed.smi:556-2

> <Gold.Version>
5.8.1

> <Gold.Id.Protein>
6NUR|6NUR_protein|mol2

> <Gold.PLP.Fitness>
38.1335

> <Gold.PLP.PLP>
-30.8448

> <Gold.PLP.part.hbond>
-1.8580

> <Gold.PLP.part.metal>
0.0000

> <Gold.PLP.part.buried>
-0.1928

> <Gold.PLP.part.nonpolar>
-30.8545

> <Gold.PLP.part.repulsive>
1.4408

> <Gold.PLP.ligand.clash>
0.0000

> <Gold.PLP.ligand.torsion>
0.0603

> <Gold.PLP.Chemscore.Hbond>
0.9600

> <Gold.PLP.Chemscore.CHOScore>
1.5030

> <Gold.PLP.Chemscore.Metal>
0.0000

> <Gold.Chemscore.Hbonds>
donor molecule, donor type, donor heavy atom, donor atom, acceptor molecule, acceptor atom, score
      L1  H    10    29       P1  7948  0.91
      L1  C    18    38       P1 10175  0.50

> <Gold.PLP.Chemscore.Internal.Correction>
0.0205

> <Gold.Rescore>
     Score         DG    S(hbond)    S(metal)    S(lipo)     H(rot)  DE(clash)    DE(int)     intcor
     12.23     -12.55       0.89        0.00      65.55       1.40       0.24       0.09       ----

> <Gold.Chemscore.Fitness>
12.2261

> <Gold.Chemscore.DG>
-12.5537

> <Gold.Chemscore.ZeroCoef>
-5.4800

> <Gold.Chemscore.Hbond>
0.8948

> <Gold.Chemscore.Metal>
0.0000

> <Gold.Chemscore.Lipo>
65.5497

> <Gold.Chemscore.Internal_Hbond>
0.0000

> <Gold.Chemscore.DEClash>
0.2379

> <Gold.Chemscore.DEInternal>
0.0897

> <Gold.Chemscore.Rot>
1.4001

> <Gold.Chemscore.Internal.Correction>
   9.000000E+99

> <Gold.Chemscore.Hbonds>
donor molecule, donor type, donor heavy atom, donor atom, acceptor molecule, acceptor atom, score
      L1  H    10    29       P1  7948  0.90

> <Gold.Chemscore.Hbond.Weighted>
-2.9886

> <Gold.Chemscore.Metal.Weighted>
-0.0000

> <Gold.Chemscore.Lipo.Weighted>
-7.6693

> <Gold.Chemscore.Internal_Hbond.Weighted>
0.0000

> <Gold.Chemscore.DEClash.Weighted>
0.2379

> <Gold.Chemscore.DEInternal.Weighted>
0.0897

> <Gold.Chemscore.Rot.Weighted>
3.5842

> <Gold.Chemscore.Internal.Correction.Weighted>
   9.000000E+99

> <Gold.Protein.RotatedTorsions>
[ 6907 6896 6895 6894 ] final  -28.27 input  -60.11 | X-H torsion
[ 7974 7965 7964 7962 ] final -159.00 input  175.53 | X-H torsion
[ 8008 7997 7996 7995 ] final -167.40 input   59.86 | X-H torsion
[ 10167 10162 10161 10158 ] final   85.03 input  -65.29 | X-H torsion
[ 10718 10713 10712 10709 ] final -171.39 input   66.30 | X-H torsion
[ 10763 10752 10751 10750 ] final  174.50 input  -60.55 | X-H torsion
[ 11005 11000 10999 10996 ] final    4.93 input  -57.11 | X-H torsion

> <Gold.Protein.ActiveResidues>
 VAL166  LYS551  ARG553  GLY616  TRP617  ASP618  TYR619  PRO620  LYS621  CYS622 
 ASP623  PHE694  ASN695  SER759  ASP760  ASP761  ALA762  ILE779  LEU786  VAL792 
 PHE793  MET794  SER795  GLU796  ALA797  LYS798  CYS799  TRP800  GLU811  SER814 

> <Gold.Protein.RotatedAtoms>
  151.1353  135.0151  159.8600 H   0  0  0  0  0  0  0  0  0  0  0  0  # atno 6907 bound_to 6896
  152.5452  134.1563  159.8549 H   0  0  0  0  0  0  0  0  0  0  0  0  # atno 6908 bound_to 6896
  151.1633  133.4785  159.2627 H   0  0  0  0  0  0  0  0  0  0  0  0  # atno 6909 bound_to 6896
  144.7482  140.3747  143.6068 H   0  0  0  0  0  0  0  0  0  0  0  0  # atno 7974 bound_to 7965
  155.8772  140.1003  157.1510 H   0  0  0  0  0  0  0  0  0  0  0  0  # atno 8008 bound_to 7997
  154.4002  140.1336  156.4214 H   0  0  0  0  0  0  0  0  0  0  0  0  # atno 8009 bound_to 7997
  155.7684  140.3461  155.5236 H   0  0  0  0  0  0  0  0  0  0  0  0  # atno 8010 bound_to 7997
  139.9019  144.6324  150.8628 H   0  0  0  0  0  0  0  0  0  0  0  0  # atno 10167 bound_to 10162
  156.7402  130.9339  151.3109 H   0  0  0  0  0  0  0  0  0  0  0  0  # atno 10718 bound_to 10713
  154.4547  135.2766  155.1756 H   0  0  0  0  0  0  0  0  0  0  0  0  # atno 10763 bound_to 10752
  154.3568  135.6138  153.5674 H   0  0  0  0  0  0  0  0  0  0  0  0  # atno 10764 bound_to 10752
  152.9850  135.5825  154.4898 H   0  0  0  0  0  0  0  0  0  0  0  0  # atno 10765 bound_to 10752
  140.5764  134.0054  155.8029 H   0  0  0  0  0  0  0  0  0  0  0  0  # atno 11005 bound_to 11000
  145.7041  139.1668  143.2576 LP  0  0  0  0  0  0  0  0  0  0  0  0  # atno 17320 bound_to 7965
  146.1395  140.7077  142.9374 LP  0  0  0  0  0  0  0  0  0  0  0  0  # atno 17321 bound_to 7965
  140.7705  143.3430  151.2168 LP  0  0  0  0  0  0  0  0  0  0  0  0  # atno 17342 bound_to 10162
  139.7018  143.9521  152.2909 LP  0  0  0  0  0  0  0  0  0  0  0  0  # atno 17343 bound_to 10162
  157.6822  130.9150  150.0295 LP  0  0  0  0  0  0  0  0  0  0  0  0  # atno 17370 bound_to 10713
  156.1470  130.3642  149.9496 LP  0  0  0  0  0  0  0  0  0  0  0  0  # atno 17371 bound_to 10713
  141.1024  133.9747  157.3056 LP  0  0  0  0  0  0  0  0  0  0  0  0  # atno 17394 bound_to 11000
  139.9338  135.0198  156.8487 LP  0  0  0  0  0  0  0  0  0  0  0  0  # atno 17395 bound_to 11000

$$$$
