#       Name:                AV-unprocessed.smi:2021
#       Creating user name   scv26
#       Creation time:       Fri Mar 27 10:42:36 2020


#       File generated by GOLD software.
#

@<TRIPOS>MOLECULE
AV-unprocessed.smi:2021
    48    49     1
SMALL
NO_CHARGES


@<TRIPOS>ATOM
      1 ****        -2.6283   1.8010  -2.9031 C.3            1 S1                 0.0000
      2 ****        -1.0986   1.6668  -2.9377 C.3            1 S1                 0.0000
      3 ****        -0.5614   2.0094  -4.3374 C.3            1 S1                 0.0000
      4 ****        -0.6679   0.2543  -2.4856 C.3            1 S1                 0.0000
      5 ****         0.8074   0.1101  -2.3469 N.4            1 S1                 1.0000
      6 ****         1.2809  -1.2899  -2.4712 C.3            1 S1                 0.0000
      7 ****         1.0324  -2.0773  -1.1724 C.3            1 S1                 0.0000
      8 ****         1.6703  -1.4123  -0.0893 O.3            1 S1                 0.0000
      9 ****         1.1501  -0.1044   0.1299 C.3            1 S1                 0.0000
     10 ****         1.8524   0.4954   1.3617 C.3            1 S1                 0.0000
     11 ****         1.5539  -0.2516   2.5796 N.am           1 S1                 0.0000
     12 ****         0.3966  -0.1875   3.2535 C.2            1 S1                 0.0000
     13 ****        -0.5479   0.5219   2.9060 O.2            1 S1                 0.0000
     14 ****         0.4130  -0.9893   4.3328 N.am           1 S1                 0.0000
     15 ****        -0.6270  -1.2198   5.2724 C.2            1 S1                 0.0000
     16 ****        -1.8417  -0.6547   5.1911 N.2            1 S1                 0.0000
     17 ****        -2.6710  -1.0529   6.2316 N.2            1 S1                 0.0000
     18 ****        -2.0504  -1.9022   7.0555 C.2            1 S1                 0.0000
     19 ****        -0.3920  -2.2990   6.6402 S.3            1 S1                 0.0000
     20 ****         1.3890   0.7471  -1.1367 C.3            1 S1                 0.0000
     21 ****        -3.1048   1.0999  -3.5893 H              1 S1                 0.0000
     22 ****        -2.9422   2.8067  -3.1842 H              1 S1                 0.0000
     23 ****        -3.0178   1.6051  -1.9035 H              1 S1                 0.0000
     24 ****        -0.7059   2.4042  -2.2385 H              1 S1                 0.0000
     25 ****        -0.9311   1.3086  -5.0868 H              1 S1                 0.0000
     26 ****         0.5280   1.9832  -4.3653 H              1 S1                 0.0000
     27 ****        -0.8682   3.0108  -4.6408 H              1 S1                 0.0000
     28 ****        -1.1590  -0.0109  -1.5495 H              1 S1                 0.0000
     29 ****        -1.0324  -0.4609  -3.2241 H              1 S1                 0.0000
     30 ****         0.8119  -1.7839  -3.3230 H              1 S1                 0.0000
     31 ****         2.3511  -1.2723  -2.6810 H              1 S1                 0.0000
     32 ****        -0.0343  -2.1910  -0.9731 H              1 S1                 0.0000
     33 ****         1.4470  -3.0816  -1.2591 H              1 S1                 0.0000
     34 ****         0.0803  -0.1708   0.3306 H              1 S1                 0.0000
     35 ****         2.9327   0.4963   1.2140 H              1 S1                 0.0000
     36 ****         1.5576   1.5376   1.4957 H              1 S1                 0.0000
     37 ****         2.2798  -0.8587   2.9316 H              1 S1                 0.0000
     38 ****         1.2666  -1.5018   4.4987 H              1 S1                 0.0000
     39 ****        -2.5736  -2.2987   7.9132 H              1 S1                 0.0000
     40 ****         2.4620   0.8570  -1.2997 H              1 S1                 0.0000
     41 ****         1.0016   1.7554  -0.9991 H              1 S1                 0.0000
     42 ****         1.1908   0.6001  -3.1428 H              1 S1                 0.0000
     43 ****         2.6476  -1.3396  -0.2883 LP             1 S1                 0.0000
     44 ****         1.5387  -1.9532   0.7415 LP             1 S1                 0.0000
     45 ****        -0.4729   1.0872   2.0846 LP             1 S1                 0.0000
     46 ****        -1.3900   0.5328   3.4453 LP             1 S1                 0.0000
     47 ****        -2.1170  -0.0220   4.4673 LP             1 S1                 0.0000
     48 ****        -3.6144  -0.7428   6.3494 LP             1 S1                 0.0000
@<TRIPOS>BOND
    1    1    2 1     
    2    1   21 1     
    3    1   22 1     
    4    1   23 1     
    5    2    3 1     
    6    2    4 1     
    7    2   24 1     
    8    3   25 1     
    9    3   26 1     
   10    3   27 1     
   11    4    5 1     
   12    4   28 1     
   13    4   29 1     
   14    5   20 1     
   15    5    6 1     
   16    5   42 1     
   17    6    7 1     
   18    6   30 1     
   19    6   31 1     
   20    7    8 1     
   21    7   32 1     
   22    7   33 1     
   23    8    9 1     
   24    9   10 1     
   25    9   20 1     
   26    9   34 1     
   27   10   11 1     
   28   10   35 1     
   29   10   36 1     
   30   11   12 am    
   31   11   37 1     
   32   12   13 2     
   33   12   14 am    
   34   14   15 1     
   35   14   38 1     
   36   15   19 1     
   37   15   16 2     
   38   16   17 1     
   39   17   18 2     
   40   18   19 1     
   41   18   39 1     
   42   20   40 1     
   43   20   41 1     
   44    8   43 1     
   45    8   44 1     
   46   13   45 1     
   47   13   46 1     
   48   16   47 1     
   49   17   48 1     
@<TRIPOS>SUBSTRUCTURE
      1 S1             1
@<TRIPOS>SET
LONE_PAIRS      STATIC     ATOMS    <user>   **** ""
6 43 44 45 46 47 48
DONOR_HYDROGENS      STATIC     ATOMS    <user>   **** ""
3 42 37 38
ATOM$BLUE        STATIC     ATOMS    COLORGROUP SYSTEM
6 43 44 45 46 47 48
ATOM$RED        STATIC     ATOMS    COLORGROUP SYSTEM
3 42 37 38
