AV-unprocessed.smi:1965|AV-procd|sdf|7947|dock2
  -GOLD-   2272010113D 1   1.00000     0.00000
 Structure written by MMmdl.
 36 38  0  0  0  0  0  0  0  0  3 V2000
  151.3931  140.9580  158.0695 O   0  0  0  0  0  0  0  0  0  0  0  0
  151.1532  142.1051  157.6953 C   0  0  0  0  0  0  0  0  0  0  0  0
  151.7626  143.2040  158.2111 N   0  5  0  0  0  0  0  0  0  0  0  0
  152.0662  143.3185  159.5174 C   0  0  0  0  0  0  0  0  0  0  0  0
  152.5413  142.3052  160.2508 N   0  0  0  0  0  0  0  0  0  0  0  0
  152.7853  142.6497  161.5816 C   0  0  0  0  0  0  0  0  0  0  0  0
  152.4890  143.9561  161.8678 C   0  0  0  0  0  0  0  0  0  0  0  0
  151.8979  144.7993  160.4646 S   0  0  0  0  0  0  0  0  0  0  0  0
  150.2399  142.2941  156.7247 N   0  0  0  0  0  0  0  0  0  0  0  0
  149.5029  141.2477  156.0272 C   0  0  1  0  0  0  0  0  0  0  0  0
  148.1467  141.7000  155.4640 C   0  0  0  0  0  0  0  0  0  0  0  0
  148.0076  140.9786  154.1089 C   0  0  0  0  0  0  0  0  0  0  0  0
  149.2061  140.1209  153.9557 N   0  3  2  0  0  0  0  0  0  0  0  0
  148.9313  138.7043  154.3222 C   0  0  0  0  0  0  0  0  0  0  0  0
  150.2145  137.8663  154.3963 C   0  0  0  0  0  0  0  0  0  0  0  0
  151.1854  138.4765  155.4103 C   0  0  0  0  0  0  0  0  0  0  0  0
  151.5100  139.9175  155.0029 C   0  0  0  0  0  0  0  0  0  0  0  0
  150.2495  140.7820  154.7757 C   0  0  2  0  0  0  0  0  0  0  0  0
  153.1699  141.9004  162.2573 H   0  0  0  0  0  0  0  0  0  0  0  0
  152.5858  144.4726  162.8108 H   0  0  0  0  0  0  0  0  0  0  0  0
  150.0572  143.2463  156.4436 H   0  0  0  0  0  0  0  0  0  0  0  0
  149.3518  140.4015  156.6998 H   0  0  0  0  0  0  0  0  0  0  0  0
  147.3349  141.4449  156.1460 H   0  0  0  0  0  0  0  0  0  0  0  0
  148.1197  142.7802  155.3128 H   0  0  0  0  0  0  0  0  0  0  0  0
  147.0770  140.4142  154.0332 H   0  0  0  0  0  0  0  0  0  0  0  0
  148.0045  141.7131  153.3027 H   0  0  0  0  0  0  0  0  0  0  0  0
  148.4173  138.6622  155.2839 H   0  0  0  0  0  0  0  0  0  0  0  0
  148.2506  138.2740  153.5867 H   0  0  0  0  0  0  0  0  0  0  0  0
  149.9735  136.8423  154.6831 H   0  0  0  0  0  0  0  0  0  0  0  0
  150.6840  137.8130  153.4131 H   0  0  0  0  0  0  0  0  0  0  0  0
  150.7474  138.4561  156.4089 H   0  0  0  0  0  0  0  0  0  0  0  0
  152.1007  137.8861  155.4595 H   0  0  0  0  0  0  0  0  0  0  0  0
  152.1574  140.3826  155.7473 H   0  0  0  0  0  0  0  0  0  0  0  0
  152.0875  139.8937  154.0777 H   0  0  0  0  0  0  0  0  0  0  0  0
  150.5597  141.6721  154.2239 H   0  0  0  0  0  0  0  0  0  0  0  0
  149.5023  140.1288  152.9902 H   0  0  0  0  0  0  0  0  0  0  0  0
  1  2  2  0  0  0  0
  2  3  1  0  0  0  0
  2  9  1  0  0  0  0
  3  4  1  0  0  0  0
  4  8  1  0  0  0  0
  4  5  2  0  0  0  0
  5  6  1  0  0  0  0
  6  7  2  0  0  0  0
  6 19  1  0  0  0  0
  7  8  1  0  0  0  0
  7 20  1  0  0  0  0
  9 10  1  0  0  0  0
  9 21  1  0  0  0  0
 10 18  1  0  0  0  0
 10 11  1  0  0  0  0
 10 22  1  0  0  0  0
 11 12  1  0  0  0  0
 11 23  1  0  0  0  0
 11 24  1  0  0  0  0
 12 13  1  0  0  0  0
 12 25  1  0  0  0  0
 12 26  1  0  0  0  0
 13 18  1  0  0  0  0
 13 14  1  0  0  0  0
 13 36  1  0  0  0  0
 14 15  1  0  0  0  0
 14 27  1  0  0  0  0
 14 28  1  0  0  0  0
 15 16  1  0  0  0  0
 15 29  1  0  0  0  0
 15 30  1  0  0  0  0
 16 17  1  0  0  0  0
 16 31  1  0  0  0  0
 16 32  1  0  0  0  0
 17 18  1  0  0  0  0
 17 33  1  0  0  0  0
 17 34  1  0  0  0  0
 18 35  1  0  0  0  0
M  CHG  1   3  -1
M  CHG  1  13   1
M  END
> <s_m_source_file>
AV-unprocessed.smi

> <i_m_source_file_index>
1965

> <i_lp_mmshare_version>
43012

> <i_f3d_flags>
0

> <s_epik_input>
czFbY0hdW2NIXW5jMVtOSF1DKD1PKVtOSF1bQ0BIXShbQ0gyXVtDSDJdMilbQ0BASF0oTjIzKVtDSDJdW0NIMl1bQ0gyXVtDSDJdMw==

> <s_epik_cmdline>
J2VwaWtfcHl0aG9uJywgJy1waCcsICc3LjAnLCAnLXRuJywgJzgnLCAnLW1hJywgJzIwMCcsICctbWV0YWxfYmluZGluZycsICctaW1hZScsICc8aW5maWxlLm1hZT4nLCAnLW9tYWUnLCAnPG91dGZpbGUubWFlPic=

> <r_lp_tautomer_probability>
1

> <r_epik_Ionization_Penalty>
7.4116

> <r_epik_Ionization_Penalty_Charging>
6.13869

> <r_epik_Ionization_Penalty_Neutral>
1.27291

> <r_epik_State_Penalty>
6.13761

> <r_epik_Charging_Adjusted_Penalty>
12.2763

> <i_epik_Tot_Q>
0

> <i_epik_Tot_abs_Q>
2

> <r_epik_Metal_State_Penalty>
2.08142

> <b_epik_Metal_Only>
1

> <s_lp_Force_Field>
OPLS_2005

> <r_lp_Energy>
29.0908

> <b_lp_Chiralities_Consistent>
1

> <s_lp_Variant>
AV-unprocessed.smi:1965-16

> <Gold.Version>
5.8.1

> <Gold.Id.Protein>
6NUR|6NUR_protein|mol2

> <Gold.PLP.Fitness>
39.1283

> <Gold.PLP.PLP>
-35.0523

> <Gold.PLP.part.hbond>
-2.0000

> <Gold.PLP.part.metal>
0.0000

> <Gold.PLP.part.buried>
0.0647

> <Gold.PLP.part.nonpolar>
-32.5195

> <Gold.PLP.part.repulsive>
0.2469

> <Gold.PLP.ligand.clash>
0.0000

> <Gold.PLP.ligand.torsion>
0.9542

> <Gold.PLP.Chemscore.Hbond>
1.9913

> <Gold.PLP.Chemscore.CHOScore>
0.0000

> <Gold.PLP.Chemscore.Metal>
0.0000

> <Gold.Chemscore.Hbonds>
donor molecule, donor type, donor heavy atom, donor atom, acceptor molecule, acceptor atom, score
      L1  H     9    21       P1  8028  0.99
      L1  H    13    36       P1  7957  1.00

> <Gold.PLP.Chemscore.Internal.Correction>
0.0106

> <Gold.Rescore>
     Score         DG    S(hbond)    S(metal)    S(lipo)     H(rot)  DE(clash)    DE(int)     intcor
     15.49     -19.49       2.00        0.00      84.59       1.00       1.68       2.32       ----

> <Gold.Chemscore.Fitness>
15.4914

> <Gold.Chemscore.DG>
-19.4908

> <Gold.Chemscore.ZeroCoef>
-5.4800

> <Gold.Chemscore.Hbond>
1.9980

> <Gold.Chemscore.Metal>
0.0000

> <Gold.Chemscore.Lipo>
84.5936

> <Gold.Chemscore.Internal_Hbond>
0.0000

> <Gold.Chemscore.DEClash>
1.6778

> <Gold.Chemscore.DEInternal>
2.3216

> <Gold.Chemscore.Rot>
1.0000

> <Gold.Chemscore.Internal.Correction>
   9.000000E+99

> <Gold.Chemscore.Hbonds>
donor molecule, donor type, donor heavy atom, donor atom, acceptor molecule, acceptor atom, score
      L1  H     9    21       P1  8028  0.90
      L1  H    13    36       P1  7957  1.00

> <Gold.Chemscore.Hbond.Weighted>
-6.6733

> <Gold.Chemscore.Metal.Weighted>
-0.0000

> <Gold.Chemscore.Lipo.Weighted>
-9.8975

> <Gold.Chemscore.Internal_Hbond.Weighted>
0.0000

> <Gold.Chemscore.DEClash.Weighted>
1.6778

> <Gold.Chemscore.DEInternal.Weighted>
2.3216

> <Gold.Chemscore.Rot.Weighted>
2.5600

> <Gold.Chemscore.Internal.Correction.Weighted>
   9.000000E+99

> <Gold.Protein.RotatedTorsions>
[ 6907 6896 6895 6894 ] final -174.75 input  -60.11 | X-H torsion
[ 7974 7965 7964 7962 ] final  111.26 input  175.53 | X-H torsion
[ 8008 7997 7996 7995 ] final -109.47 input   59.86 | X-H torsion
[ 10167 10162 10161 10158 ] final  -25.17 input  -65.29 | X-H torsion
[ 10718 10713 10712 10709 ] final -111.56 input   66.30 | X-H torsion
[ 10763 10752 10751 10750 ] final  -17.44 input  -60.55 | X-H torsion
[ 11005 11000 10999 10996 ] final -131.66 input  -57.11 | X-H torsion

> <Gold.Protein.ActiveResidues>
 VAL166  LYS551  ARG553  GLY616  TRP617  ASP618  TYR619  PRO620  LYS621  CYS622 
 ASP623  PHE694  ASN695  SER759  ASP760  ASP761  ALA762  ILE779  LEU786  VAL792 
 PHE793  MET794  SER795  GLU796  ALA797  LYS798  CYS799  TRP800  GLU811  SER814 

> <Gold.Protein.RotatedAtoms>
  151.5775  133.3382  159.3001 H   0  0  0  0  0  0  0  0  0  0  0  0  # atno 6907 bound_to 6896
  150.8332  134.7597  159.6882 H   0  0  0  0  0  0  0  0  0  0  0  0  # atno 6908 bound_to 6896
  152.4413  134.5592  159.9941 H   0  0  0  0  0  0  0  0  0  0  0  0  # atno 6909 bound_to 6896
  145.2444  139.2765  143.4100 H   0  0  0  0  0  0  0  0  0  0  0  0  # atno 7974 bound_to 7965
  154.9598  140.0399  157.2184 H   0  0  0  0  0  0  0  0  0  0  0  0  # atno 8008 bound_to 7997
  154.7900  140.2834  155.5976 H   0  0  0  0  0  0  0  0  0  0  0  0  # atno 8009 bound_to 7997
  156.2948  140.2575  156.2745 H   0  0  0  0  0  0  0  0  0  0  0  0  # atno 8010 bound_to 7997
  140.7287  143.4288  151.0834 H   0  0  0  0  0  0  0  0  0  0  0  0  # atno 10167 bound_to 10162
  156.0654  130.5873  150.8389 H   0  0  0  0  0  0  0  0  0  0  0  0  # atno 10718 bound_to 10713
  153.5739  135.7007  153.5493 H   0  0  0  0  0  0  0  0  0  0  0  0  # atno 10763 bound_to 10752
  153.3320  135.4044  155.1503 H   0  0  0  0  0  0  0  0  0  0  0  0  # atno 10764 bound_to 10752
  154.8629  135.3721  154.5263 H   0  0  0  0  0  0  0  0  0  0  0  0  # atno 10765 bound_to 10752
  140.9239  134.1408  157.4291 H   0  0  0  0  0  0  0  0  0  0  0  0  # atno 11005 bound_to 11000
  146.3319  140.2817  142.8610 LP  0  0  0  0  0  0  0  0  0  0  0  0  # atno 17320 bound_to 7965
  144.9559  140.8226  143.5543 LP  0  0  0  0  0  0  0  0  0  0  0  0  # atno 17321 bound_to 7965
  139.7942  143.8175  152.3155 LP  0  0  0  0  0  0  0  0  0  0  0  0  # atno 17342 bound_to 10162
  139.8169  144.7312  150.9623 LP  0  0  0  0  0  0  0  0  0  0  0  0  # atno 17343 bound_to 10162
  157.5692  131.0946  150.9444 LP  0  0  0  0  0  0  0  0  0  0  0  0  # atno 17370 bound_to 10713
  156.9664  130.5474  149.5288 LP  0  0  0  0  0  0  0  0  0  0  0  0  # atno 17371 bound_to 10713
  139.8781  134.9981  156.5883 LP  0  0  0  0  0  0  0  0  0  0  0  0  # atno 17394 bound_to 11000
  140.7951  133.8550  155.8679 LP  0  0  0  0  0  0  0  0  0  0  0  0  # atno 17395 bound_to 11000

$$$$
