#       Name:                AV-unprocessed.smi:1006
#       Creating user name   scv26
#       Creation time:       Fri Mar 27 02:32:28 2020


#       File generated by GOLD software.
#

@<TRIPOS>MOLECULE
AV-unprocessed.smi:1006
    50    52     1
SMALL
NO_CHARGES


@<TRIPOS>ATOM
      1 ****        -4.3683   3.8767   2.3125 C.3            1 S1                 0.0000
      2 ****        -3.3451   2.8545   1.8648 C.ar           1 S1                 0.0000
      3 ****        -3.7123   1.5393   1.5127 C.ar           1 S1                 0.0000
      4 ****        -2.6761   0.6770   1.1141 C.ar           1 S1                 0.0000
      5 ****        -2.9383  -0.6393   0.7432 N.pl3          1 S1                 0.0000
      6 ****        -1.3952   1.0900   1.0749 N.ar           1 S1                 0.0000
      7 ****        -1.1128   2.3525   1.4238 C.ar           1 S1                 0.0000
      8 ****         0.5797   2.9216   1.3748 S.3            1 S1                 0.0000
      9 ****         1.4668   1.4177   0.8659 C.3            1 S1                 0.0000
     10 ****         2.9834   1.6319   0.7069 C.3            1 S1                 0.0000
     11 ****         3.5305   2.0396   1.9442 O.3            1 S1                 0.0000
     12 ****         3.7361   0.3636   0.2529 C.3            1 S1                 0.0000
     13 ****         3.2414  -0.1649  -1.0064 N.pl3          1 S1                 0.0000
     14 ****         3.6525   0.1739  -2.2433 C.2            1 S1                 0.0000
     15 ****         3.0503  -0.4207  -3.2693 N.2            1 S1                 0.0000
     16 ****         2.1428  -1.2424  -2.6230 C.ar           1 S1                 0.0000
     17 ****         1.1806  -2.1352  -3.1437 C.ar           1 S1                 0.0000
     18 ****         0.3373  -2.8751  -2.2843 C.ar           1 S1                 0.0000
     19 ****        -0.6879  -3.8185  -2.8882 C.3            1 S1                 0.0000
     20 ****         0.4525  -2.7305  -0.8784 C.ar           1 S1                 0.0000
     21 ****        -0.4463  -3.5096   0.0652 C.3            1 S1                 0.0000
     22 ****         1.4141  -1.8496  -0.3414 C.ar           1 S1                 0.0000
     23 ****         2.2422  -1.1127  -1.2070 C.ar           1 S1                 0.0000
     24 ****        -2.0435   3.2354   1.8130 N.pl3          1 S1                 1.0000
     25 ****        -5.3381   3.6783   1.8554 H              1 S1                 0.0000
     26 ****        -4.0624   4.8854   2.0319 H              1 S1                 0.0000
     27 ****        -4.4857   3.8418   3.3959 H              1 S1                 0.0000
     28 ****        -4.7416   1.2116   1.5468 H              1 S1                 0.0000
     29 ****        -3.8754  -1.0161   0.7481 H              1 S1                 0.0000
     30 ****        -2.2018  -1.2508   0.4203 H              1 S1                 0.0000
     31 ****         1.2753   0.6271   1.5924 H              1 S1                 0.0000
     32 ****         1.0384   1.0999  -0.0841 H              1 S1                 0.0000
     33 ****         3.1590   2.4289  -0.0167 H              1 S1                 0.0000
     34 ****         3.1183   2.8500   2.2025 H              1 S1                 0.0000
     35 ****         4.8005   0.5755   0.1421 H              1 S1                 0.0000
     36 ****         3.6534  -0.4190   1.0084 H              1 S1                 0.0000
     37 ****         4.4338   0.9036  -2.3992 H              1 S1                 0.0000
     38 ****         1.0917  -2.2434  -4.2147 H              1 S1                 0.0000
     39 ****        -0.5377  -4.8339  -2.5208 H              1 S1                 0.0000
     40 ****        -0.6144  -3.8437  -3.9760 H              1 S1                 0.0000
     41 ****        -1.6979  -3.5009  -2.6282 H              1 S1                 0.0000
     42 ****        -0.2648  -3.2351   1.1049 H              1 S1                 0.0000
     43 ****        -0.2672  -4.5802  -0.0359 H              1 S1                 0.0000
     44 ****        -1.4959  -3.3116  -0.1533 H              1 S1                 0.0000
     45 ****         1.5119  -1.7299   0.7274 H              1 S1                 0.0000
     46 ****        -1.7824   4.1878   2.0690 H              1 S1                 0.0000
     47 ****        -0.6677   0.4657   0.7905 LP             1 S1                 0.0000
     48 ****         4.5161   2.1784   1.8477 LP             1 S1                 0.0000
     49 ****         3.3588   1.3384   2.6362 LP             1 S1                 0.0000
     50 ****         3.2107  -0.3048  -4.2495 LP             1 S1                 0.0000
@<TRIPOS>BOND
    1    1    2 1     
    2    1   25 1     
    3    1   26 1     
    4    1   27 1     
    5    2   24 ar    
    6    2    3 ar    
    7    3    4 ar    
    8    3   28 1     
    9    4    5 1     
   10    4    6 ar    
   11    5   29 1     
   12    5   30 1     
   13    6    7 ar    
   14    7    8 1     
   15    7   24 ar    
   16    8    9 1     
   17    9   10 1     
   18    9   31 1     
   19    9   32 1     
   20   10   11 1     
   21   10   12 1     
   22   10   33 1     
   23   11   34 1     
   24   12   13 1     
   25   12   35 1     
   26   12   36 1     
   27   13   23 1     
   28   13   14 1     
   29   14   15 2     
   30   14   37 1     
   31   15   16 1     
   32   16   23 ar    
   33   16   17 ar    
   34   17   18 ar    
   35   17   38 1     
   36   18   19 1     
   37   18   20 ar    
   38   19   39 1     
   39   19   40 1     
   40   19   41 1     
   41   20   21 1     
   42   20   22 ar    
   43   21   42 1     
   44   21   43 1     
   45   21   44 1     
   46   22   23 ar    
   47   22   45 1     
   48   24   46 1     
   49    6   47 1     
   50   11   48 1     
   51   11   49 1     
   52   15   50 1     
@<TRIPOS>SUBSTRUCTURE
      1 S1             1
@<TRIPOS>SET
LONE_PAIRS      STATIC     ATOMS    <user>   **** ""
4 47 48 49 50
DONOR_HYDROGENS      STATIC     ATOMS    <user>   **** ""
4 29 30 34 46
ATOM$BLUE        STATIC     ATOMS    COLORGROUP SYSTEM
4 47 48 49 50
ATOM$RED        STATIC     ATOMS    COLORGROUP SYSTEM
4 29 30 34 46
