#       Name:                AV-unprocessed.smi:2032
#       Creating user name   scv26
#       Creation time:       Fri Mar 27 10:51:48 2020


#       File generated by GOLD software.
#

@<TRIPOS>MOLECULE
AV-unprocessed.smi:2032
    48    49     1
SMALL
NO_CHARGES


@<TRIPOS>ATOM
      1 ****        -3.9652   3.6745  -0.6862 C.3            1 S1                 0.0000
      2 ****        -3.4322   2.2501  -0.4993 C.3            1 S1                 0.0000
      3 ****        -1.9088   2.2255  -0.2816 C.3            1 S1                 0.0000
      4 ****        -1.3721   0.8664  -0.1695 N.3            1 S1                 0.0000
      5 ****         0.0921   0.8468   0.0658 C.3            1 S1                 0.0000
      6 ****         0.5111   1.6681   1.3125 C.3            1 S1                 0.0000
      7 ****         0.6729  -0.5887   0.1937 C.3            1 S1                 0.0000
      8 ****         2.1222  -0.5963   0.3671 N.am           1 S1                 0.0000
      9 ****         2.8723  -1.6925   0.5414 C.2            1 S1                 0.0000
     10 ****         2.3381  -2.8040   0.5585 O.2            1 S1                 0.0000
     11 ****         4.1928  -1.4355   0.6825 N.pl3          1 S1                -1.0000
     12 ****         5.0575  -2.4488   0.8546 C.2            1 S1                 0.0000
     13 ****         5.5282  -2.8122   2.0533 N.2            1 S1                 0.0000
     14 ****         6.4133  -3.8905   1.9989 C.2            1 S1                 0.0000
     15 ****         6.6302  -4.3519   0.7276 C.2            1 S1                 0.0000
     16 ****         5.7236  -3.4406  -0.4461 S.3            1 S1                 0.0000
     17 ****        -1.7620   0.1262  -1.3756 C.3            1 S1                 0.0000
     18 ****        -3.2767   0.1594  -1.6638 C.3            1 S1                 0.0000
     19 ****        -4.0968  -0.7412  -0.7241 C.3            1 S1                 0.0000
     20 ****        -3.7569   1.5017  -1.6654 O.3            1 S1                 0.0000
     21 ****        -3.7496   4.2924   0.1858 H              1 S1                 0.0000
     22 ****        -5.0459   3.6700  -0.8297 H              1 S1                 0.0000
     23 ****        -3.5157   4.1538  -1.5562 H              1 S1                 0.0000
     24 ****        -3.9304   1.8117   0.3658 H              1 S1                 0.0000
     25 ****        -1.4111   2.7528  -1.0969 H              1 S1                 0.0000
     26 ****        -1.7123   2.7905   0.6275 H              1 S1                 0.0000
     27 ****         0.5764   1.3091  -0.7958 H              1 S1                 0.0000
     28 ****         1.5788   1.6014   1.5181 H              1 S1                 0.0000
     29 ****        -0.0145   1.3259   2.2046 H              1 S1                 0.0000
     30 ****         0.3150   2.7324   1.1910 H              1 S1                 0.0000
     31 ****         0.2039  -1.1082   1.0312 H              1 S1                 0.0000
     32 ****         0.4791  -1.1791  -0.7005 H              1 S1                 0.0000
     33 ****         2.5926   0.2968   0.3585 H              1 S1                 0.0000
     34 ****         6.8439  -4.2649   2.9156 H              1 S1                 0.0000
     35 ****         7.2641  -5.1661   0.4110 H              1 S1                 0.0000
     36 ****        -1.2302   0.5350  -2.2361 H              1 S1                 0.0000
     37 ****        -1.4756  -0.9207  -1.3012 H              1 S1                 0.0000
     38 ****        -3.4306  -0.2183  -2.6750 H              1 S1                 0.0000
     39 ****        -3.8004  -1.7847  -0.8325 H              1 S1                 0.0000
     40 ****        -5.1605  -0.6749  -0.9531 H              1 S1                 0.0000
     41 ****        -3.9619  -0.4730   0.3234 H              1 S1                 0.0000
     42 ****        -1.7596   0.4195   0.6368 LP             1 S1                 0.0000
     43 ****         1.3482  -2.8848   0.4425 LP             1 S1                 0.0000
     44 ****         2.8949  -3.6244   0.6884 LP             1 S1                 0.0000
     45 ****         4.5248  -0.4925   0.6587 LP             1 S1                 0.0000
     46 ****         5.2711  -2.3558   2.9051 LP             1 S1                 0.0000
     47 ****        -3.3653   1.9718  -2.4564 LP             1 S1                 0.0000
     48 ****        -4.7528   1.4763  -1.7521 LP             1 S1                 0.0000
@<TRIPOS>BOND
    1    1    2 1     
    2    1   21 1     
    3    1   22 1     
    4    1   23 1     
    5    2   20 1     
    6    2    3 1     
    7    2   24 1     
    8    3    4 1     
    9    3   25 1     
   10    3   26 1     
   11    4    5 1     
   12    4   17 1     
   13    5    6 1     
   14    5    7 1     
   15    5   27 1     
   16    6   28 1     
   17    6   29 1     
   18    6   30 1     
   19    7    8 1     
   20    7   31 1     
   21    7   32 1     
   22    8    9 am    
   23    8   33 1     
   24    9   10 2     
   25    9   11 1     
   26   11   12 1     
   27   12   16 1     
   28   12   13 2     
   29   13   14 1     
   30   14   15 2     
   31   14   34 1     
   32   15   16 1     
   33   15   35 1     
   34   17   18 1     
   35   17   36 1     
   36   17   37 1     
   37   18   19 1     
   38   18   20 1     
   39   18   38 1     
   40   19   39 1     
   41   19   40 1     
   42   19   41 1     
   43    4   42 1     
   44   10   43 1     
   45   10   44 1     
   46   11   45 1     
   47   13   46 1     
   48   20   47 1     
   49   20   48 1     
@<TRIPOS>SUBSTRUCTURE
      1 S1             1
@<TRIPOS>SET
LONE_PAIRS      STATIC     ATOMS    <user>   **** ""
7 42 43 44 45 46 47 48
DONOR_HYDROGENS      STATIC     ATOMS    <user>   **** ""
1 33
ATOM$BLUE        STATIC     ATOMS    COLORGROUP SYSTEM
7 42 43 44 45 46 47 48
ATOM$RED        STATIC     ATOMS    COLORGROUP SYSTEM
1 33
