#       Name:                AV-unprocessed.smi:1120
#       Creating user name   scv26
#       Creation time:       Fri Mar 27 03:38:39 2020


#       File generated by GOLD software.
#

@<TRIPOS>MOLECULE
AV-unprocessed.smi:1120
    51    52     1
SMALL
NO_CHARGES


@<TRIPOS>ATOM
      1 ****        -2.5873   3.8847   0.3117 C.3            1 S1                 0.0000
      2 ****        -3.3190   2.5489   0.5030 C.3            1 S1                 0.0000
      3 ****        -3.0587   1.9462   1.9024 C.3            1 S1                 0.0000
      4 ****        -3.7443   0.5699   2.1084 C.3            1 S1                 0.0000
      5 ****        -3.3943  -0.4836   1.0284 C.3            1 S1                 0.0000
      6 ****        -2.0123  -0.9150   1.1885 N.pl3          1 S1                -1.0000
      7 ****        -1.5625  -2.4074   0.7388 S.o2           1 S1                 0.0000
      8 ****        -2.0359  -3.4336   1.6814 O.2            1 S1                 0.0000
      9 ****        -1.7755  -2.6683  -0.6950 O.2            1 S1                 0.0000
     10 ****         0.2673  -2.3034   0.9893 C.3            1 S1                 0.0000
     11 ****         0.9208  -1.4732  -0.1166 C.2            1 S1                 0.0000
     12 ****         1.1193  -0.2702   0.0543 O.2            1 S1                 0.0000
     13 ****         1.2592  -2.1256  -1.2406 N.am           1 S1                 0.0000
     14 ****         1.8278  -1.5154  -2.4394 C.3            1 S1                 0.0000
     15 ****         3.3689  -1.5461  -2.4564 C.3            1 S1                 0.0000
     16 ****         4.0099  -0.7971  -1.3015 C.ar           1 S1                 0.0000
     17 ****         4.6090  -1.4636  -0.2103 C.ar           1 S1                 0.0000
     18 ****         5.1629  -0.7034   0.8407 C.ar           1 S1                 0.0000
     19 ****         5.1094   0.7045   0.7773 C.ar           1 S1                 0.0000
     20 ****         4.5024   1.3175  -0.3376 C.ar           1 S1                 0.0000
     21 ****         3.9839   0.5551  -1.3247 N.pl3          1 S1                 1.0000
     22 ****        -3.6129   0.1403  -0.3742 C.3            1 S1                 0.0000
     23 ****        -2.9200   1.5133  -0.5731 C.3            1 S1                 0.0000
     24 ****        -1.5070   3.7600   0.3925 H              1 S1                 0.0000
     25 ****        -2.8956   4.6111   1.0640 H              1 S1                 0.0000
     26 ****        -2.8012   4.3126  -0.6680 H              1 S1                 0.0000
     27 ****        -4.3893   2.7384   0.4099 H              1 S1                 0.0000
     28 ****        -1.9830   1.8553   2.0672 H              1 S1                 0.0000
     29 ****        -3.4151   2.6378   2.6665 H              1 S1                 0.0000
     30 ****        -3.5063   0.1833   3.1002 H              1 S1                 0.0000
     31 ****        -4.8243   0.7217   2.1039 H              1 S1                 0.0000
     32 ****        -4.0785  -1.3246   1.1462 H              1 S1                 0.0000
     33 ****         0.4632  -1.8730   1.9714 H              1 S1                 0.0000
     34 ****         0.6674  -3.3171   0.9838 H              1 S1                 0.0000
     35 ****         1.0509  -3.1128  -1.2900 H              1 S1                 0.0000
     36 ****         1.4473  -2.0637  -3.3013 H              1 S1                 0.0000
     37 ****         1.4672  -0.4915  -2.5519 H              1 S1                 0.0000
     38 ****         3.7146  -2.5806  -2.4462 H              1 S1                 0.0000
     39 ****         3.7310  -1.1170  -3.3914 H              1 S1                 0.0000
     40 ****         4.6341  -2.5429  -0.1714 H              1 S1                 0.0000
     41 ****         5.6197  -1.1948   1.6871 H              1 S1                 0.0000
     42 ****         5.5240   1.3049   1.5739 H              1 S1                 0.0000
     43 ****         4.4118   2.3861  -0.4667 H              1 S1                 0.0000
     44 ****        -3.2929  -0.5497  -1.1549 H              1 S1                 0.0000
     45 ****        -4.6844   0.2739  -0.5263 H              1 S1                 0.0000
     46 ****        -3.1756   1.8995  -1.5602 H              1 S1                 0.0000
     47 ****        -1.8350   1.3868  -0.5788 H              1 S1                 0.0000
     48 ****         3.5394   1.0200  -2.1166 H              1 S1                 0.0000
     49 ****        -1.3374  -0.2880   1.5776 LP             1 S1                 0.0000
     50 ****         0.8533   0.1631   0.9155 LP             1 S1                 0.0000
     51 ****         1.5465   0.2737  -0.6680 LP             1 S1                 0.0000
@<TRIPOS>BOND
    1    1    2 1     
    2    1   24 1     
    3    1   25 1     
    4    1   26 1     
    5    2   23 1     
    6    2    3 1     
    7    2   27 1     
    8    3    4 1     
    9    3   28 1     
   10    3   29 1     
   11    4    5 1     
   12    4   30 1     
   13    4   31 1     
   14    5    6 1     
   15    5   22 1     
   16    5   32 1     
   17    6    7 1     
   18    7    8 2     
   19    7    9 2     
   20    7   10 1     
   21   10   11 1     
   22   10   33 1     
   23   10   34 1     
   24   11   12 2     
   25   11   13 am    
   26   13   14 1     
   27   13   35 1     
   28   14   15 1     
   29   14   36 1     
   30   14   37 1     
   31   15   16 1     
   32   15   38 1     
   33   15   39 1     
   34   16   21 ar    
   35   16   17 ar    
   36   17   18 ar    
   37   17   40 1     
   38   18   19 ar    
   39   18   41 1     
   40   19   20 ar    
   41   19   42 1     
   42   20   21 ar    
   43   20   43 1     
   44   21   48 1     
   45   22   23 1     
   46   22   44 1     
   47   22   45 1     
   48   23   46 1     
   49   23   47 1     
   50    6   49 1     
   51   12   50 1     
   52   12   51 1     
@<TRIPOS>SUBSTRUCTURE
      1 S1             1
@<TRIPOS>SET
LONE_PAIRS      STATIC     ATOMS    <user>   **** ""
5 49 8 9 50 51
DONOR_HYDROGENS      STATIC     ATOMS    <user>   **** ""
2 35 48
ATOM$BLUE        STATIC     ATOMS    COLORGROUP SYSTEM
5 49 8 9 50 51
ATOM$RED        STATIC     ATOMS    COLORGROUP SYSTEM
2 35 48
