AV-unprocessed.smi:1701|AV-procd|sdf|6840|dock4
  -GOLD-   22720 8 13D 1   1.00000     0.00000
 Structure written by MMmdl.
 54 56  0  0  0  0  0  0  0  0  4 V2000
  153.4199  142.3215  161.8735 C   0  0  0  0  0  0  0  0  0  0  0  0
  153.8365  141.7648  160.5040 C   0  0  0  0  0  0  0  0  0  0  0  0
  152.9898  142.2496  159.4139 N   0  0  0  0  0  0  0  0  0  0  0  0
  152.3673  143.5640  159.5890 C   0  0  0  0  0  0  0  0  0  0  0  0
  152.4621  144.4460  158.3339 C   0  0  0  0  0  0  0  0  0  0  0  0
  152.2950  141.2570  158.6836 C   0  0  0  0  0  0  0  0  0  0  0  0
  150.9971  141.4698  158.1597 C   0  0  0  0  0  0  0  0  0  0  0  0
  150.3550  140.4453  157.4352 C   0  0  0  0  0  0  0  0  0  0  0  0
  151.0133  139.2168  157.2252 C   0  0  0  0  0  0  0  0  0  0  0  0
  150.3156  138.2063  156.5106 N   0  0  0  0  0  0  0  0  0  0  0  0
  150.7982  137.1062  155.8815 C   0  0  0  0  0  0  0  0  0  0  0  0
  152.0132  136.9204  155.8507 O   0  0  0  0  0  0  0  0  0  0  0  0
  149.9338  136.2403  155.2699 N   0  5  0  0  0  0  0  0  0  0  0  0
  148.8227  135.4670  155.8564 C   0  0  1  0  0  0  0  0  0  0  0  0
  147.5249  136.2966  155.7930 C   0  0  0  0  0  0  0  0  0  0  0  0
  146.8448  135.9223  154.4592 C   0  0  0  0  0  0  0  0  0  0  0  0
  147.6935  134.8743  153.8576 N   0  3  2  0  0  0  0  0  0  0  0  0
  147.0214  133.8726  153.0006 C   0  0  0  0  0  0  0  0  0  0  0  0
  148.0705  132.9055  152.4154 C   0  0  0  0  0  0  0  0  0  0  0  0
  148.9437  132.2699  153.5166 C   0  0  0  0  0  0  0  0  0  0  0  0
  149.5723  133.3499  154.4177 C   0  0  0  0  0  0  0  0  0  0  0  0
  148.4574  134.2708  154.9617 C   0  0  1  0  0  0  0  0  0  0  0  0
  152.3032  139.0448  157.7795 C   0  0  0  0  0  0  0  0  0  0  0  0
  152.8805  140.0529  158.4682 N   0  3  0  0  0  0  0  0  0  0  0  0
  154.0820  141.9514  162.6562 H   0  0  0  0  0  0  0  0  0  0  0  0
  152.4035  142.0240  162.1329 H   0  0  0  0  0  0  0  0  0  0  0  0
  153.4664  143.4108  161.8918 H   0  0  0  0  0  0  0  0  0  0  0  0
  154.8658  142.0600  160.2969 H   0  0  0  0  0  0  0  0  0  0  0  0
  153.8523  140.6766  160.5356 H   0  0  0  0  0  0  0  0  0  0  0  0
  151.3255  143.4443  159.8887 H   0  0  0  0  0  0  0  0  0  0  0  0
  152.8565  144.0815  160.4150 H   0  0  0  0  0  0  0  0  0  0  0  0
  152.0211  145.4251  158.5207 H   0  0  0  0  0  0  0  0  0  0  0  0
  151.9406  144.0114  157.4816 H   0  0  0  0  0  0  0  0  0  0  0  0
  153.5014  144.6031  158.0445 H   0  0  0  0  0  0  0  0  0  0  0  0
  150.4748  142.4009  158.3177 H   0  0  0  0  0  0  0  0  0  0  0  0
  149.3614  140.6061  157.0424 H   0  0  0  0  0  0  0  0  0  0  0  0
  149.3216  138.3541  156.4150 H   0  0  0  0  0  0  0  0  0  0  0  0
  149.0331  135.1379  156.8748 H   0  0  0  0  0  0  0  0  0  0  0  0
  146.8726  136.0138  156.6200 H   0  0  0  0  0  0  0  0  0  0  0  0
  147.6979  137.3702  155.8811 H   0  0  0  0  0  0  0  0  0  0  0  0
  145.8358  135.5489  154.6415 H   0  0  0  0  0  0  0  0  0  0  0  0
  146.7710  136.7743  153.7825 H   0  0  0  0  0  0  0  0  0  0  0  0
  146.2817  133.3230  153.5848 H   0  0  0  0  0  0  0  0  0  0  0  0
  146.4866  134.3801  152.1971 H   0  0  0  0  0  0  0  0  0  0  0  0
  147.5760  132.1261  151.8353 H   0  0  0  0  0  0  0  0  0  0  0  0
  148.7110  133.4480  151.7190 H   0  0  0  0  0  0  0  0  0  0  0  0
  148.3325  131.6005  154.1234 H   0  0  0  0  0  0  0  0  0  0  0  0
  149.7244  131.6548  153.0683 H   0  0  0  0  0  0  0  0  0  0  0  0
  150.1199  132.8773  155.2347 H   0  0  0  0  0  0  0  0  0  0  0  0
  150.3028  133.9148  153.8354 H   0  0  0  0  0  0  0  0  0  0  0  0
  147.7672  133.6468  155.5344 H   0  0  0  0  0  0  0  0  0  0  0  0
  152.8913  138.1417  157.7146 H   0  0  0  0  0  0  0  0  0  0  0  0
  148.3774  135.3570  153.2918 H   0  0  0  0  0  0  0  0  0  0  0  0
  153.8123  139.8951  158.8519 H   0  0  0  0  0  0  0  0  0  0  0  0
  1  2  1  0  0  0  0
  1 25  1  0  0  0  0
  1 26  1  0  0  0  0
  1 27  1  0  0  0  0
  2  3  1  0  0  0  0
  2 28  1  0  0  0  0
  2 29  1  0  0  0  0
  3  4  1  0  0  0  0
  3  6  1  0  0  0  0
  4  5  1  0  0  0  0
  4 30  1  0  0  0  0
  4 31  1  0  0  0  0
  5 32  1  0  0  0  0
  5 33  1  0  0  0  0
  5 34  1  0  0  0  0
  6 24  1  0  0  0  0
  6  7  2  0  0  0  0
  7  8  1  0  0  0  0
  7 35  1  0  0  0  0
  8  9  2  0  0  0  0
  8 36  1  0  0  0  0
  9 10  1  0  0  0  0
  9 23  1  0  0  0  0
 10 11  1  0  0  0  0
 10 37  1  0  0  0  0
 11 12  2  0  0  0  0
 11 13  1  0  0  0  0
 13 14  1  0  0  0  0
 14 22  1  0  0  0  0
 14 15  1  0  0  0  0
 14 38  1  0  0  0  0
 15 16  1  0  0  0  0
 15 39  1  0  0  0  0
 15 40  1  0  0  0  0
 16 17  1  0  0  0  0
 16 41  1  0  0  0  0
 16 42  1  0  0  0  0
 17 22  1  0  0  0  0
 17 18  1  0  0  0  0
 17 53  1  0  0  0  0
 18 19  1  0  0  0  0
 18 43  1  0  0  0  0
 18 44  1  0  0  0  0
 19 20  1  0  0  0  0
 19 45  1  0  0  0  0
 19 46  1  0  0  0  0
 20 21  1  0  0  0  0
 20 47  1  0  0  0  0
 20 48  1  0  0  0  0
 21 22  1  0  0  0  0
 21 49  1  0  0  0  0
 21 50  1  0  0  0  0
 22 51  1  0  0  0  0
 23 24  2  0  0  0  0
 23 52  1  0  0  0  0
 24 54  1  0  0  0  0
M  CHG  1  13  -1
M  CHG  1  17   1
M  CHG  1  24   1
M  END
> <s_m_source_file>
AV-unprocessed.smi

> <i_m_source_file_index>
1701

> <i_lp_mmshare_version>
43012

> <i_f3d_flags>
0

> <s_epik_input>
W0NIM11bQ0gyXU4oW0NIMl1bQ0gzXSljMVtjSF1bY0hdYyhbY0hdbjEpW05IXUMoPU8pW05IXVtDQEhdKFtDSDJdW0NIMl0yKVtDQEBIXShOMjMpW0NIMl1bQ0gyXVtDSDJdW0NIMl0z

> <s_epik_cmdline>
J2VwaWtfcHl0aG9uJywgJy1waCcsICc3LjAnLCAnLXRuJywgJzgnLCAnLW1hJywgJzIwMCcsICctbWV0YWxfYmluZGluZycsICctaW1hZScsICc8aW5maWxlLm1hZT4nLCAnLW9tYWUnLCAnPG91dGZpbGUubWFlPic=

> <r_lp_tautomer_probability>
0.999994

> <r_epik_Ionization_Penalty>
7.37095

> <r_epik_Ionization_Penalty_Charging>
7.37095

> <r_epik_Ionization_Penalty_Neutral>
3.78969e-06

> <r_epik_State_Penalty>
6.83842

> <r_epik_Charging_Adjusted_Penalty>
14.2094

> <i_epik_Tot_Q>
1

> <i_epik_Tot_abs_Q>
3

> <r_epik_Metal_State_Penalty>
2.78552

> <b_epik_Metal_Only>
1

> <s_lp_Force_Field>
OPLS_2005

> <r_lp_Energy>
51.4286

> <b_lp_Chiralities_Consistent>
1

> <s_lp_Variant>
AV-unprocessed.smi:1701-20

> <Gold.Version>
5.8.1

> <Gold.Id.Protein>
6NUR|6NUR_protein|mol2

> <Gold.PLP.Fitness>
49.4298

> <Gold.PLP.PLP>
-42.6472

> <Gold.PLP.part.hbond>
-2.0000

> <Gold.PLP.part.metal>
0.0000

> <Gold.PLP.part.buried>
-3.8231

> <Gold.PLP.part.nonpolar>
-37.2212

> <Gold.PLP.part.repulsive>
0.2493

> <Gold.PLP.ligand.clash>
0.0000

> <Gold.PLP.ligand.torsion>
1.6240

> <Gold.PLP.Chemscore.Hbond>
3.0000

> <Gold.PLP.Chemscore.CHOScore>
0.0000

> <Gold.PLP.Chemscore.Metal>
0.0000

> <Gold.Chemscore.Hbonds>
donor molecule, donor type, donor heavy atom, donor atom, acceptor molecule, acceptor atom, score
      L1  H    17    53       P1  7948  2.00
      P1  H 10752 10764       L1    12  1.00

> <Gold.PLP.Chemscore.Internal.Correction>
1.0307

> <Gold.Rescore>
     Score         DG    S(hbond)    S(metal)    S(lipo)     H(rot)  DE(clash)    DE(int)     intcor
     17.36     -20.28       1.92        0.00      99.71       1.28       0.03       2.89       ----

> <Gold.Chemscore.Fitness>
17.3643

> <Gold.Chemscore.DG>
-20.2796

> <Gold.Chemscore.ZeroCoef>
-5.4800

> <Gold.Chemscore.Hbond>
1.9220

> <Gold.Chemscore.Metal>
0.0000

> <Gold.Chemscore.Lipo>
99.7149

> <Gold.Chemscore.Internal_Hbond>
0.0000

> <Gold.Chemscore.DEClash>
0.0301

> <Gold.Chemscore.DEInternal>
2.8853

> <Gold.Chemscore.Rot>
1.2838

> <Gold.Chemscore.Internal.Correction>
   9.000000E+99

> <Gold.Chemscore.Hbonds>
donor molecule, donor type, donor heavy atom, donor atom, acceptor molecule, acceptor atom, score
      L1  H    17    53       P1  7948  0.97
      P1  H 10752 10764       L1    12  0.91

> <Gold.Chemscore.Hbond.Weighted>
-6.4195

> <Gold.Chemscore.Metal.Weighted>
-0.0000

> <Gold.Chemscore.Lipo.Weighted>
-11.6666

> <Gold.Chemscore.Internal_Hbond.Weighted>
0.0000

> <Gold.Chemscore.DEClash.Weighted>
0.0301

> <Gold.Chemscore.DEInternal.Weighted>
2.8853

> <Gold.Chemscore.Rot.Weighted>
3.2865

> <Gold.Chemscore.Internal.Correction.Weighted>
   9.000000E+99

> <Gold.Protein.RotatedTorsions>
[ 6907 6896 6895 6894 ] final  123.20 input  -60.11 | X-H torsion
[ 7974 7965 7964 7962 ] final   39.54 input  175.53 | X-H torsion
[ 8008 7997 7996 7995 ] final    2.84 input   59.86 | X-H torsion
[ 10167 10162 10161 10158 ] final   76.15 input  -65.29 | X-H torsion
[ 10718 10713 10712 10709 ] final   86.28 input   66.30 | X-H torsion
[ 10763 10752 10751 10750 ] final  -50.44 input  -60.55 | X-H torsion
[ 11005 11000 10999 10996 ] final    0.52 input  -57.11 | X-H torsion

> <Gold.Protein.ActiveResidues>
 VAL166  LYS551  ARG553  GLY616  TRP617  ASP618  TYR619  PRO620  LYS621  CYS622 
 ASP623  PHE694  ASN695  SER759  ASP760  ASP761  ALA762  ILE779  LEU786  VAL792 
 PHE793  MET794  SER795  GLU796  ALA797  LYS798  CYS799  TRP800  GLU811  SER814 

> <Gold.Protein.RotatedAtoms>
  152.4181  133.7071  159.6456 H   0  0  0  0  0  0  0  0  0  0  0  0  # atno 6907 bound_to 6896
  150.8057  133.8503  159.3212 H   0  0  0  0  0  0  0  0  0  0  0  0  # atno 6908 bound_to 6896
  151.6228  135.1032  160.0157 H   0  0  0  0  0  0  0  0  0  0  0  0  # atno 6909 bound_to 6896
  146.0976  139.5639  142.9435 H   0  0  0  0  0  0  0  0  0  0  0  0  # atno 7974 bound_to 7965
  154.6964  140.2664  155.6762 H   0  0  0  0  0  0  0  0  0  0  0  0  # atno 8008 bound_to 7997
  156.2750  140.2781  156.1483 H   0  0  0  0  0  0  0  0  0  0  0  0  # atno 8009 bound_to 7997
  155.0825  140.0372  157.2633 H   0  0  0  0  0  0  0  0  0  0  0  0  # atno 8010 bound_to 7997
  139.9954  144.5726  150.7782 H   0  0  0  0  0  0  0  0  0  0  0  0  # atno 10167 bound_to 10162
  157.6926  131.0209  150.2949 H   0  0  0  0  0  0  0  0  0  0  0  0  # atno 10718 bound_to 10713
  154.1103  135.6550  153.4884 H   0  0  0  0  0  0  0  0  0  0  0  0  # atno 10763 bound_to 10752
  153.0258  135.5246  154.7198 H   0  0  0  0  0  0  0  0  0  0  0  0  # atno 10764 bound_to 10752
  154.6376  135.2984  155.0111 H   0  0  0  0  0  0  0  0  0  0  0  0  # atno 10765 bound_to 10752
  140.6256  133.9621  155.8247 H   0  0  0  0  0  0  0  0  0  0  0  0  # atno 11005 bound_to 11000
  145.5918  141.0368  143.2066 LP  0  0  0  0  0  0  0  0  0  0  0  0  # atno 17320 bound_to 7965
  144.7407  139.7456  143.7312 LP  0  0  0  0  0  0  0  0  0  0  0  0  # atno 17321 bound_to 7965
  140.7439  143.2853  151.3481 LP  0  0  0  0  0  0  0  0  0  0  0  0  # atno 17342 bound_to 10162
  139.6310  144.0721  152.2476 LP  0  0  0  0  0  0  0  0  0  0  0  0  # atno 17343 bound_to 10162
  156.3474  130.3825  149.7357 LP  0  0  0  0  0  0  0  0  0  0  0  0  # atno 17370 bound_to 10713
  156.4846  130.8057  151.3069 LP  0  0  0  0  0  0  0  0  0  0  0  0  # atno 17371 bound_to 10713
  141.0711  134.0203  157.3524 LP  0  0  0  0  0  0  0  0  0  0  0  0  # atno 17394 bound_to 11000
  139.9136  135.0194  156.7791 LP  0  0  0  0  0  0  0  0  0  0  0  0  # atno 17395 bound_to 11000

$$$$
