#       Name:                AV-unprocessed.smi:1897
#       Creating user name   scv26
#       Creation time:       Fri Mar 27 09:43:27 2020


#       File generated by GOLD software.
#

@<TRIPOS>MOLECULE
AV-unprocessed.smi:1897
    43    45     1
SMALL
NO_CHARGES


@<TRIPOS>ATOM
      1 ****        -3.2940   3.8819  -0.9453 C.3            1 S1                 0.0000
      2 ****        -1.9528   3.7298  -0.3136 C.2            1 S1                 0.0000
      3 ****        -1.7874   3.5891   1.0038 N.2            1 S1                 0.0000
      4 ****        -0.4506   3.4647   1.3526 N.2            1 S1                 0.0000
      5 ****         0.3737   3.4973   0.2955 C.2            1 S1                 0.0000
      6 ****         1.7086   3.3636   0.4127 N.pl3          1 S1                -1.0000
      7 ****         2.3279   2.1576   0.3231 C.2            1 S1                 0.0000
      8 ****         3.5468   2.0097   0.3973 O.2            1 S1                 0.0000
      9 ****         1.5503   1.0739   0.1461 N.am           1 S1                 0.0000
     10 ****         1.9956  -0.3087   0.0161 C.3            1 S1                 0.0000
     11 ****         2.4940  -0.9249   1.3415 C.3            1 S1                 0.0000
     12 ****         1.8111  -2.2938   1.4252 C.3            1 S1                 0.0000
     13 ****         0.5460  -2.0810   0.7119 N.4            1 S1                 1.0000
     14 ****        -0.2666  -3.2641   0.3609 C.3            1 S1                 0.0000
     15 ****        -1.6050  -2.7843  -0.2407 C.3            1 S1                 0.0000
     16 ****        -1.3989  -1.7911  -1.4064 C.3            1 S1                 0.0000
     17 ****        -0.4498  -0.6410  -1.0100 C.3            1 S1                 0.0000
     18 ****         0.8573  -1.2380  -0.4545 C.3            1 S1                 0.0000
     19 ****        -0.4627   3.7141  -1.2415 S.3            1 S1                 0.0000
     20 ****        -3.8116   2.9227  -0.9561 H              1 S1                 0.0000
     21 ****        -3.1918   4.2365  -1.9712 H              1 S1                 0.0000
     22 ****        -3.8947   4.6001  -0.3867 H              1 S1                 0.0000
     23 ****         0.5549   1.2329   0.0940 H              1 S1                 0.0000
     24 ****         2.7946  -0.3404  -0.7272 H              1 S1                 0.0000
     25 ****         3.5808  -1.0013   1.3834 H              1 S1                 0.0000
     26 ****         2.1772  -0.3130   2.1878 H              1 S1                 0.0000
     27 ****         2.4037  -3.0494   0.9070 H              1 S1                 0.0000
     28 ****         1.6509  -2.6224   2.4525 H              1 S1                 0.0000
     29 ****         0.2738  -3.8937  -0.3476 H              1 S1                 0.0000
     30 ****        -0.4486  -3.8628   1.2539 H              1 S1                 0.0000
     31 ****        -2.1913  -3.6398  -0.5772 H              1 S1                 0.0000
     32 ****        -2.1929  -2.2984   0.5393 H              1 S1                 0.0000
     33 ****        -0.9827  -2.3231  -2.2629 H              1 S1                 0.0000
     34 ****        -2.3591  -1.3891  -1.7316 H              1 S1                 0.0000
     35 ****        -0.2438  -0.0094  -1.8750 H              1 S1                 0.0000
     36 ****        -0.9303  -0.0077  -0.2625 H              1 S1                 0.0000
     37 ****         1.2851  -1.8874  -1.2216 H              1 S1                 0.0000
     38 ****        -0.0185  -1.5107   1.3253 H              1 S1                 0.0000
     39 ****        -2.5397   3.5751   1.6625 LP             1 S1                 0.0000
     40 ****        -0.1341   3.3614   2.2956 LP             1 S1                 0.0000
     41 ****         2.2634   4.1804   0.5712 LP             1 S1                 0.0000
     42 ****         4.1396   2.8039   0.5309 LP             1 S1                 0.0000
     43 ****         3.9449   1.0953   0.3241 LP             1 S1                 0.0000
@<TRIPOS>BOND
    1    1    2 1     
    2    1   20 1     
    3    1   21 1     
    4    1   22 1     
    5    2   19 1     
    6    2    3 2     
    7    3    4 1     
    8    4    5 2     
    9    5    6 1     
   10    5   19 1     
   11    6    7 1     
   12    7    8 2     
   13    7    9 am    
   14    9   10 1     
   15    9   23 1     
   16   10   18 1     
   17   10   11 1     
   18   10   24 1     
   19   11   12 1     
   20   11   25 1     
   21   11   26 1     
   22   12   13 1     
   23   12   27 1     
   24   12   28 1     
   25   13   18 1     
   26   13   14 1     
   27   13   38 1     
   28   14   15 1     
   29   14   29 1     
   30   14   30 1     
   31   15   16 1     
   32   15   31 1     
   33   15   32 1     
   34   16   17 1     
   35   16   33 1     
   36   16   34 1     
   37   17   18 1     
   38   17   35 1     
   39   17   36 1     
   40   18   37 1     
   41    3   39 1     
   42    4   40 1     
   43    6   41 1     
   44    8   42 1     
   45    8   43 1     
@<TRIPOS>SUBSTRUCTURE
      1 S1             1
@<TRIPOS>SET
LONE_PAIRS      STATIC     ATOMS    <user>   **** ""
5 39 40 41 42 43
DONOR_HYDROGENS      STATIC     ATOMS    <user>   **** ""
2 23 38
ATOM$BLUE        STATIC     ATOMS    COLORGROUP SYSTEM
5 39 40 41 42 43
ATOM$RED        STATIC     ATOMS    COLORGROUP SYSTEM
2 23 38
