AV-unprocessed.smi:3335|AV-procd|sdf|12841|dock10
  -GOLD-   2272019223D 1   1.00000     0.00000
 Structure written by MMmdl.
 47 48  0  0  0  0  0  0  0  0  2 V2000
  151.0497  141.5910  158.3363 C   0  0  0  0  0  0  0  0  0  0  0  0
  150.7816  140.9461  157.0069 C   0  0  0  0  0  0  0  0  0  0  0  0
  151.7272  140.5446  156.0220 C   0  0  0  0  0  0  0  0  0  0  0  0
  151.1590  140.0090  154.9545 N   0  0  0  0  0  0  0  0  0  0  0  0
  149.8332  140.0358  155.2191 N   0  0  0  0  0  0  0  0  0  0  0  0
  148.8600  139.5522  154.2414 C   0  0  2  0  0  0  0  0  0  0  0  0
  147.8497  140.6466  153.8436 C   0  0  0  0  0  0  0  0  0  0  0  0
  148.1765  138.2278  154.6776 C   0  0  2  0  0  0  0  0  0  0  0  0
  149.1679  137.1259  155.1100 C   0  0  0  0  0  0  0  0  0  0  0  0
  147.2984  137.7520  153.5800 N   0  3  0  0  0  0  0  0  0  0  0  0
  146.3380  136.6670  153.8879 C   0  0  1  0  0  0  0  0  0  0  0  0
  145.5018  137.0008  155.1406 C   0  0  0  0  0  0  0  0  0  0  0  0
  145.4401  136.4426  152.6569 C   0  0  0  0  0  0  0  0  0  0  0  0
  144.6771  137.3407  152.2985 O   0  0  0  0  0  0  0  0  0  0  0  0
  145.5304  135.2758  151.9822 N   0  0  0  0  0  0  0  0  0  0  0  0
  146.4420  134.1986  152.3653 C   0  0  0  0  0  0  0  0  0  0  0  0
  146.3921  133.1851  151.2224 C   0  0  0  0  0  0  0  0  0  0  0  0
  145.0220  133.4004  150.5963 C   0  0  0  0  0  0  0  0  0  0  0  0
  144.7439  134.8882  150.8106 C   0  0  0  0  0  0  0  0  0  0  0  0
  149.5816  140.6044  156.4514 C   0  0  0  0  0  0  0  0  0  0  0  0
  152.1133  141.7733  158.4923 H   0  0  0  0  0  0  0  0  0  0  0  0
  150.7074  140.9667  159.1616 H   0  0  0  0  0  0  0  0  0  0  0  0
  150.5429  142.5518  158.4277 H   0  0  0  0  0  0  0  0  0  0  0  0
  152.8036  140.6305  156.0495 H   0  0  0  0  0  0  0  0  0  0  0  0
  149.4246  139.3354  153.3328 H   0  0  0  0  0  0  0  0  0  0  0  0
  147.1855  140.2959  153.0532 H   0  0  0  0  0  0  0  0  0  0  0  0
  148.3638  141.5318  153.4677 H   0  0  0  0  0  0  0  0  0  0  0  0
  147.2266  140.9617  154.6804 H   0  0  0  0  0  0  0  0  0  0  0  0
  147.5441  138.4671  155.5319 H   0  0  0  0  0  0  0  0  0  0  0  0
  149.8754  137.4947  155.8516 H   0  0  0  0  0  0  0  0  0  0  0  0
  149.7429  136.7443  154.2663 H   0  0  0  0  0  0  0  0  0  0  0  0
  148.6584  136.2789  155.5672 H   0  0  0  0  0  0  0  0  0  0  0  0
  146.7632  138.5375  153.2381 H   0  0  0  0  0  0  0  0  0  0  0  0
  146.8704  135.7407  154.0944 H   0  0  0  0  0  0  0  0  0  0  0  0
  144.7231  136.2546  155.3041 H   0  0  0  0  0  0  0  0  0  0  0  0
  145.0158  137.9738  155.0556 H   0  0  0  0  0  0  0  0  0  0  0  0
  146.1146  137.0161  156.0414 H   0  0  0  0  0  0  0  0  0  0  0  0
  147.4586  134.5591  152.5319 H   0  0  0  0  0  0  0  0  0  0  0  0
  146.0869  133.7464  153.2928 H   0  0  0  0  0  0  0  0  0  0  0  0
  147.1672  133.4197  150.4917 H   0  0  0  0  0  0  0  0  0  0  0  0
  146.5489  132.1596  151.5582 H   0  0  0  0  0  0  0  0  0  0  0  0
  144.9861  133.1104  149.5458 H   0  0  0  0  0  0  0  0  0  0  0  0
  144.2796  132.8074  151.1325 H   0  0  0  0  0  0  0  0  0  0  0  0
  143.6771  135.0664  150.9479 H   0  0  0  0  0  0  0  0  0  0  0  0
  145.0807  135.4640  149.9472 H   0  0  0  0  0  0  0  0  0  0  0  0
  148.5763  140.7201  156.8294 H   0  0  0  0  0  0  0  0  0  0  0  0
  147.8987  137.4340  152.8325 H   0  0  0  0  0  0  0  0  0  0  0  0
  1  2  1  0  0  0  0
  1 21  1  0  0  0  0
  1 22  1  0  0  0  0
  1 23  1  0  0  0  0
  2 20  2  0  0  0  0
  2  3  1  0  0  0  0
  3  4  2  0  0  0  0
  3 24  1  0  0  0  0
  4  5  1  0  0  0  0
  5  6  1  0  0  0  0
  5 20  1  0  0  0  0
  6  7  1  0  0  0  0
  6  8  1  0  0  0  0
  6 25  1  0  0  0  0
  7 26  1  0  0  0  0
  7 27  1  0  0  0  0
  7 28  1  0  0  0  0
  8  9  1  0  0  0  0
  8 10  1  0  0  0  0
  8 29  1  0  0  0  0
  9 30  1  0  0  0  0
  9 31  1  0  0  0  0
  9 32  1  0  0  0  0
 10 11  1  0  0  0  0
 10 33  1  0  0  0  0
 10 47  1  0  0  0  0
 11 12  1  0  0  0  0
 11 13  1  0  0  0  0
 11 34  1  0  0  0  0
 12 35  1  0  0  0  0
 12 36  1  0  0  0  0
 12 37  1  0  0  0  0
 13 14  2  0  0  0  0
 13 15  1  0  0  0  0
 15 19  1  0  0  0  0
 15 16  1  0  0  0  0
 16 17  1  0  0  0  0
 16 38  1  0  0  0  0
 16 39  1  0  0  0  0
 17 18  1  0  0  0  0
 17 40  1  0  0  0  0
 17 41  1  0  0  0  0
 18 19  1  0  0  0  0
 18 42  1  0  0  0  0
 18 43  1  0  0  0  0
 19 44  1  0  0  0  0
 19 45  1  0  0  0  0
 20 46  1  0  0  0  0
M  CHG  1  10   1
M  END
> <s_m_source_file>
AV-unprocessed.smi

> <i_m_source_file_index>
3335

> <i_lp_mmshare_version>
43012

> <i_f3d_flags>
0

> <s_epik_input>
W0NIM11jMVtjSF1ubihbY0hdMSlbQ0BIXShbQ0gzXSlbQ0BIXShbQ0gzXSlbTkhdW0NASF0oW0NIM10pQyg9TylOMltDSDJdW0NIMl1bQ0gyXVtDSDJdMg==

> <s_epik_cmdline>
J2VwaWtfcHl0aG9uJywgJy1waCcsICc3LjAnLCAnLXRuJywgJzgnLCAnLW1hJywgJzIwMCcsICctbWV0YWxfYmluZGluZycsICctaW1hZScsICc8aW5maWxlLm1hZT4nLCAnLW9tYWUnLCAnPG91dGZpbGUubWFlPic=

> <r_lp_tautomer_probability>
1

> <r_epik_Ionization_Penalty>
0.14175

> <r_epik_Ionization_Penalty_Charging>
0.141731

> <r_epik_Ionization_Penalty_Neutral>
1.91261e-05

> <r_epik_State_Penalty>
0.131043

> <r_epik_Charging_Adjusted_Penalty>
0.272773

> <i_epik_Tot_Q>
1

> <i_epik_Tot_abs_Q>
1

> <r_epik_Metal_State_Penalty>
0.131408

> <b_epik_Metal_Only>
0

> <s_lp_Force_Field>
OPLS_2005

> <r_lp_Energy>
38.6819

> <b_lp_Chiralities_Consistent>
1

> <s_lp_Variant>
AV-unprocessed.smi:3335-5

> <Gold.Version>
5.8.1

> <Gold.Id.Protein>
6NUR|6NUR_protein|mol2

> <Gold.PLP.Fitness>
37.6019

> <Gold.PLP.PLP>
-28.9660

> <Gold.PLP.part.hbond>
-2.0000

> <Gold.PLP.part.metal>
0.0000

> <Gold.PLP.part.buried>
-2.4080

> <Gold.PLP.part.nonpolar>
-24.1667

> <Gold.PLP.part.repulsive>
1.5518

> <Gold.PLP.ligand.clash>
0.0000

> <Gold.PLP.ligand.torsion>
0.2836

> <Gold.PLP.Chemscore.Hbond>
3.0000

> <Gold.PLP.Chemscore.CHOScore>
0.0000

> <Gold.PLP.Chemscore.Metal>
0.0000

> <Gold.Chemscore.Hbonds>
donor molecule, donor type, donor heavy atom, donor atom, acceptor molecule, acceptor atom, score
      L1  H    10    47       P1  7948  2.00
      P1  H  7989  7998       L1     4  1.00

> <Gold.PLP.Chemscore.Internal.Correction>
0.2031

> <Gold.Rescore>
     Score         DG    S(hbond)    S(metal)    S(lipo)     H(rot)  DE(clash)    DE(int)     intcor
     15.16     -15.52       1.92        0.00      67.77       1.68       0.07       0.29       ----

> <Gold.Chemscore.Fitness>
15.1585

> <Gold.Chemscore.DG>
-15.5221

> <Gold.Chemscore.ZeroCoef>
-5.4800

> <Gold.Chemscore.Hbond>
1.9185

> <Gold.Chemscore.Metal>
0.0000

> <Gold.Chemscore.Lipo>
67.7740

> <Gold.Chemscore.Internal_Hbond>
0.0000

> <Gold.Chemscore.DEClash>
0.0699

> <Gold.Chemscore.DEInternal>
0.2937

> <Gold.Chemscore.Rot>
1.6778

> <Gold.Chemscore.Internal.Correction>
   9.000000E+99

> <Gold.Chemscore.Hbonds>
donor molecule, donor type, donor heavy atom, donor atom, acceptor molecule, acceptor atom, score
      L1  H    10    47       P1  7948  0.99
      P1  H  7989  7998       L1     4  0.67

> <Gold.Chemscore.Hbond.Weighted>
-6.4077

> <Gold.Chemscore.Metal.Weighted>
-0.0000

> <Gold.Chemscore.Lipo.Weighted>
-7.9296

> <Gold.Chemscore.Internal_Hbond.Weighted>
0.0000

> <Gold.Chemscore.DEClash.Weighted>
0.0699

> <Gold.Chemscore.DEInternal.Weighted>
0.2937

> <Gold.Chemscore.Rot.Weighted>
4.2952

> <Gold.Chemscore.Internal.Correction.Weighted>
   9.000000E+99

> <Gold.Protein.RotatedTorsions>
[ 6907 6896 6895 6894 ] final -127.39 input  -60.11 | X-H torsion
[ 7974 7965 7964 7962 ] final  -31.32 input  175.53 | X-H torsion
[ 8008 7997 7996 7995 ] final  154.65 input   59.86 | X-H torsion
[ 10167 10162 10161 10158 ] final   52.52 input  -65.29 | X-H torsion
[ 10718 10713 10712 10709 ] final   85.86 input   66.30 | X-H torsion
[ 10763 10752 10751 10750 ] final  164.70 input  -60.55 | X-H torsion
[ 11005 11000 10999 10996 ] final   58.09 input  -57.11 | X-H torsion

> <Gold.Protein.ActiveResidues>
 VAL166  LYS551  ARG553  GLY616  TRP617  ASP618  TYR619  PRO620  LYS621  CYS622 
 ASP623  PHE694  ASN695  SER759  ASP760  ASP761  ALA762  ILE779  LEU786  VAL792 
 PHE793  MET794  SER795  GLU796  ALA797  LYS798  CYS799  TRP800  GLU811  SER814 

> <Gold.Protein.RotatedAtoms>
  150.9068  133.7048  159.2864 H   0  0  0  0  0  0  0  0  0  0  0  0  # atno 6907 bound_to 6896
  151.4548  135.1032  159.9717 H   0  0  0  0  0  0  0  0  0  0  0  0  # atno 6908 bound_to 6896
  152.4908  133.8445  159.7225 H   0  0  0  0  0  0  0  0  0  0  0  0  # atno 6909 bound_to 6896
  146.1076  140.5652  142.8792 H   0  0  0  0  0  0  0  0  0  0  0  0  # atno 7974 bound_to 7965
  156.2520  140.1961  156.6679 H   0  0  0  0  0  0  0  0  0  0  0  0  # atno 8008 bound_to 7997
  154.6415  140.0583  156.9876 H   0  0  0  0  0  0  0  0  0  0  0  0  # atno 8009 bound_to 7997
  155.1556  140.3255  155.4424 H   0  0  0  0  0  0  0  0  0  0  0  0  # atno 8010 bound_to 7997
  140.2505  144.3484  150.6350 H   0  0  0  0  0  0  0  0  0  0  0  0  # atno 10167 bound_to 10162
  157.6921  131.0192  150.2886 H   0  0  0  0  0  0  0  0  0  0  0  0  # atno 10718 bound_to 10713
  154.3129  135.2757  155.2557 H   0  0  0  0  0  0  0  0  0  0  0  0  # atno 10763 bound_to 10752
  154.4945  135.5825  153.6487 H   0  0  0  0  0  0  0  0  0  0  0  0  # atno 10764 bound_to 10752
  152.9886  135.6142  154.3307 H   0  0  0  0  0  0  0  0  0  0  0  0  # atno 10765 bound_to 10752
  140.0403  134.5883  155.9390 H   0  0  0  0  0  0  0  0  0  0  0  0  # atno 11005 bound_to 11000
  144.7484  140.5128  143.6819 LP  0  0  0  0  0  0  0  0  0  0  0  0  # atno 17320 bound_to 7965
  145.5728  139.1484  143.3278 LP  0  0  0  0  0  0  0  0  0  0  0  0  # atno 17321 bound_to 7965
  140.6044  143.2167  151.7009 LP  0  0  0  0  0  0  0  0  0  0  0  0  # atno 17342 bound_to 10162
  139.5048  144.3741  152.0441 LP  0  0  0  0  0  0  0  0  0  0  0  0  # atno 17343 bound_to 10162
  156.3421  130.3817  149.7400 LP  0  0  0  0  0  0  0  0  0  0  0  0  # atno 17370 bound_to 10713
  156.4906  130.8083  151.3093 LP  0  0  0  0  0  0  0  0  0  0  0  0  # atno 17371 bound_to 10713
  141.1879  133.6561  156.5303 LP  0  0  0  0  0  0  0  0  0  0  0  0  # atno 17394 bound_to 11000
  140.4080  134.7298  157.4819 LP  0  0  0  0  0  0  0  0  0  0  0  0  # atno 17395 bound_to 11000

$$$$
