AV-unprocessed.smi:1843|AV-procd|sdf|7501|dock1
  -GOLD-   22720 9203D 1   1.00000     0.00000
 Structure written by MMmdl.
 37 39  0  0  0  0  0  0  0  0  1 V2000
  149.8743  135.2475  156.1847 O   0  0  0  0  0  0  0  0  0  0  0  0
  149.5095  135.4727  155.0305 C   0  0  0  0  0  0  0  0  0  0  0  0
  149.6549  136.6424  154.3833 N   0  0  0  0  0  0  0  0  0  0  0  0
  150.2494  137.8420  154.8572 C   0  0  0  0  0  0  0  0  0  0  0  0
  150.5262  138.8950  154.0760 N   0  0  0  0  0  0  0  0  0  0  0  0
  151.1057  139.9331  154.7919 N   0  0  0  0  0  0  0  0  0  0  0  0
  151.2482  139.6381  156.0896 C   0  0  0  0  0  0  0  0  0  0  0  0
  151.8504  140.5971  157.0619 C   0  0  0  0  0  0  0  0  0  0  0  0
  152.1214  140.2050  158.4980 C   0  0  0  0  0  0  0  0  0  0  0  0
  151.0221  141.1865  158.1802 C   0  0  0  0  0  0  0  0  0  0  0  0
  150.6747  138.0379  156.5488 S   0  0  0  0  0  0  0  0  0  0  0  0
  148.9063  134.5606  154.2544 N   0  0  0  0  0  0  0  0  0  0  0  0
  148.6077  133.1840  154.6452 C   0  0  1  0  0  0  0  0  0  0  0  0
  147.1193  132.9995  155.0086 C   0  0  0  0  0  0  0  0  0  0  0  0
  146.8330  131.5493  155.4321 C   0  0  0  0  0  0  0  0  0  0  0  0
  147.2679  130.5491  154.3484 C   0  0  0  0  0  0  0  0  0  0  0  0
  148.7465  130.7402  153.9613 C   0  0  0  0  0  0  0  0  0  0  0  0
  149.0560  132.1924  153.5478 C   0  0  1  0  0  0  0  0  0  0  0  0
  148.4095  132.4665  152.3178 O   0  0  0  0  0  0  0  0  0  0  0  0
  149.2997  136.6796  153.4394 H   0  0  0  0  0  0  0  0  0  0  0  0
  152.5708  141.2449  156.5662 H   0  0  0  0  0  0  0  0  0  0  0  0
  151.8200  139.2129  158.8278 H   0  0  0  0  0  0  0  0  0  0  0  0
  153.0246  140.5953  158.9620 H   0  0  0  0  0  0  0  0  0  0  0  0
  151.1913  142.2311  158.4325 H   0  0  0  0  0  0  0  0  0  0  0  0
  149.9953  140.8410  158.2849 H   0  0  0  0  0  0  0  0  0  0  0  0
  148.6375  134.8349  153.3212 H   0  0  0  0  0  0  0  0  0  0  0  0
  149.1969  132.9557  155.5360 H   0  0  0  0  0  0  0  0  0  0  0  0
  146.8430  133.6735  155.8201 H   0  0  0  0  0  0  0  0  0  0  0  0
  146.4886  133.2662  154.1595 H   0  0  0  0  0  0  0  0  0  0  0  0
  147.3614  131.3314  156.3611 H   0  0  0  0  0  0  0  0  0  0  0  0
  145.7709  131.4266  155.6459 H   0  0  0  0  0  0  0  0  0  0  0  0
  147.1071  129.5294  154.7000 H   0  0  0  0  0  0  0  0  0  0  0  0
  146.6378  130.6712  153.4666 H   0  0  0  0  0  0  0  0  0  0  0  0
  149.3729  130.4714  154.8128 H   0  0  0  0  0  0  0  0  0  0  0  0
  149.0152  130.0526  153.1586 H   0  0  0  0  0  0  0  0  0  0  0  0
  150.1294  132.2938  153.3825 H   0  0  0  0  0  0  0  0  0  0  0  0
  148.6703  131.8121  151.6888 H   0  0  0  0  0  0  0  0  0  0  0  0
  1  2  2  0  0  0  0
  2  3  1  0  0  0  0
  2 12  1  0  0  0  0
  3  4  1  0  0  0  0
  3 20  1  0  0  0  0
  4 11  1  0  0  0  0
  4  5  2  0  0  0  0
  5  6  1  0  0  0  0
  6  7  2  0  0  0  0
  7  8  1  0  0  0  0
  7 11  1  0  0  0  0
  8 10  1  0  0  0  0
  8  9  1  0  0  0  0
  8 21  1  0  0  0  0
  9 10  1  0  0  0  0
  9 22  1  0  0  0  0
  9 23  1  0  0  0  0
 10 24  1  0  0  0  0
 10 25  1  0  0  0  0
 12 13  1  0  0  0  0
 12 26  1  0  0  0  0
 13 18  1  0  0  0  0
 13 14  1  0  0  0  0
 13 27  1  0  0  0  0
 14 15  1  0  0  0  0
 14 28  1  0  0  0  0
 14 29  1  0  0  0  0
 15 16  1  0  0  0  0
 15 30  1  0  0  0  0
 15 31  1  0  0  0  0
 16 17  1  0  0  0  0
 16 32  1  0  0  0  0
 16 33  1  0  0  0  0
 17 18  1  0  0  0  0
 17 34  1  0  0  0  0
 17 35  1  0  0  0  0
 18 19  1  0  0  0  0
 18 36  1  0  0  0  0
 19 37  1  0  0  0  0
M  END
> <s_m_source_file>
AV-unprocessed.smi

> <i_m_source_file_index>
1843

> <i_lp_mmshare_version>
43012

> <i_f3d_flags>
0

> <s_epik_input>
W09IXVtDQEBIXTFbQ0gyXVtDSDJdW0NIMl1bQ0gyXVtDQEhdMVtOSF1DKD1PKVtOSF1jMm5uYyhzMilbQ0hdM1tDSDJdW0NIMl0z

> <s_epik_cmdline>
J2VwaWtfcHl0aG9uJywgJy1waCcsICc3LjAnLCAnLXRuJywgJzgnLCAnLW1hJywgJzIwMCcsICctbWV0YWxfYmluZGluZycsICctaW1hZScsICc8aW5maWxlLm1hZT4nLCAnLW9tYWUnLCAnPG91dGZpbGUubWFlPic=

> <r_lp_tautomer_probability>
1

> <r_epik_Ionization_Penalty>
0.000257313

> <r_epik_Ionization_Penalty_Charging>
0

> <r_epik_Ionization_Penalty_Neutral>
0.000257313

> <r_epik_State_Penalty>
-0

> <r_epik_Charging_Adjusted_Penalty>
0

> <i_epik_Tot_Q>
0

> <i_epik_Tot_abs_Q>
0

> <r_epik_Metal_State_Penalty>
0.147479

> <b_epik_Metal_Only>
0

> <s_lp_Force_Field>
OPLS_2005

> <r_lp_Energy>
11.0621

> <b_lp_Chiralities_Consistent>
1

> <s_lp_Variant>
AV-unprocessed.smi:1843-2

> <Gold.Version>
5.8.1

> <Gold.Id.Protein>
6NUR|6NUR_protein|mol2

> <Gold.PLP.Fitness>
36.2990

> <Gold.PLP.PLP>
-25.2529

> <Gold.PLP.part.hbond>
-4.2405

> <Gold.PLP.part.metal>
0.0000

> <Gold.PLP.part.buried>
-5.1004

> <Gold.PLP.part.nonpolar>
-16.5073

> <Gold.PLP.part.repulsive>
0.3335

> <Gold.PLP.ligand.clash>
0.0000

> <Gold.PLP.ligand.torsion>
0.2733

> <Gold.PLP.Chemscore.Hbond>
3.8140

> <Gold.PLP.Chemscore.CHOScore>
0.0000

> <Gold.PLP.Chemscore.Metal>
0.0000

> <Gold.Chemscore.Hbonds>
donor molecule, donor type, donor heavy atom, donor atom, acceptor molecule, acceptor atom, score
      L1  H     3    20       P1  7948  1.00
      L1  H    12    26       P1  7948  0.88
      L1  H    19    37       P1 10747  1.00
      P1  H  7989  7998       L1     6  0.95

> <Gold.PLP.Chemscore.Internal.Correction>
0.1507

> <Gold.Rescore>
     Score         DG    S(hbond)    S(metal)    S(lipo)     H(rot)  DE(clash)    DE(int)     intcor
     14.75     -16.12       2.71        0.00      51.61       1.74       0.01       1.37       ----

> <Gold.Chemscore.Fitness>
14.7496

> <Gold.Chemscore.DG>
-16.1208

> <Gold.Chemscore.ZeroCoef>
-5.4800

> <Gold.Chemscore.Hbond>
2.7119

> <Gold.Chemscore.Metal>
0.0000

> <Gold.Chemscore.Lipo>
51.6104

> <Gold.Chemscore.Internal_Hbond>
0.0000

> <Gold.Chemscore.DEClash>
0.0059

> <Gold.Chemscore.DEInternal>
1.3653

> <Gold.Chemscore.Rot>
1.7404

> <Gold.Chemscore.Internal.Correction>
   9.000000E+99

> <Gold.Chemscore.Hbonds>
donor molecule, donor type, donor heavy atom, donor atom, acceptor molecule, acceptor atom, score
      L1  H     3    20       P1  7948  0.94
      L1  H    12    26       P1  7948  0.46
      L1  H    19    37       P1 10747  1.00
      P1  H  7989  7998       L1     6  0.22

> <Gold.Chemscore.Hbond.Weighted>
-9.0578

> <Gold.Chemscore.Metal.Weighted>
-0.0000

> <Gold.Chemscore.Lipo.Weighted>
-6.0384

> <Gold.Chemscore.Internal_Hbond.Weighted>
0.0000

> <Gold.Chemscore.DEClash.Weighted>
0.0059

> <Gold.Chemscore.DEInternal.Weighted>
1.3653

> <Gold.Chemscore.Rot.Weighted>
4.4555

> <Gold.Chemscore.Internal.Correction.Weighted>
   9.000000E+99

> <Gold.Protein.RotatedTorsions>
[ 6907 6896 6895 6894 ] final -104.53 input  -60.11 | X-H torsion
[ 7974 7965 7964 7962 ] final  124.96 input  175.53 | X-H torsion
[ 8008 7997 7996 7995 ] final  152.01 input   59.86 | X-H torsion
[ 10167 10162 10161 10158 ] final   25.58 input  -65.29 | X-H torsion
[ 10718 10713 10712 10709 ] final  -87.40 input   66.30 | X-H torsion
[ 10763 10752 10751 10750 ] final -169.56 input  -60.55 | X-H torsion
[ 11005 11000 10999 10996 ] final  -40.33 input  -57.11 | X-H torsion

> <Gold.Protein.ActiveResidues>
 VAL166  LYS551  ARG553  GLY616  TRP617  ASP618  TYR619  PRO620  LYS621  CYS622 
 ASP623  PHE694  ASN695  SER759  ASP760  ASP761  ALA762  ILE779  LEU786  VAL792 
 PHE793  MET794  SER795  GLU796  ALA797  LYS798  CYS799  TRP800  GLU811  SER814 

> <Gold.Protein.RotatedAtoms>
  150.7292  134.0263  159.3717 H   0  0  0  0  0  0  0  0  0  0  0  0  # atno 6907 bound_to 6896
  151.8230  135.0643  160.0437 H   0  0  0  0  0  0  0  0  0  0  0  0  # atno 6908 bound_to 6896
  152.2989  133.5600  159.5642 H   0  0  0  0  0  0  0  0  0  0  0  0  # atno 6909 bound_to 6896
  145.0784  139.3676  143.4921 H   0  0  0  0  0  0  0  0  0  0  0  0  # atno 7974 bound_to 7965
  156.2648  140.2032  156.6266 H   0  0  0  0  0  0  0  0  0  0  0  0  # atno 8008 bound_to 7997
  154.6716  140.0549  157.0195 H   0  0  0  0  0  0  0  0  0  0  0  0  # atno 8009 bound_to 7997
  155.1129  140.3217  155.4520 H   0  0  0  0  0  0  0  0  0  0  0  0  # atno 8010 bound_to 7997
  140.5094  144.0184  150.6366 H   0  0  0  0  0  0  0  0  0  0  0  0  # atno 10167 bound_to 10162
  155.9985  130.4799  150.4862 H   0  0  0  0  0  0  0  0  0  0  0  0  # atno 10718 bound_to 10713
  154.6510  135.2911  154.9987 H   0  0  0  0  0  0  0  0  0  0  0  0  # atno 10763 bound_to 10752
  154.1080  135.6567  153.4884 H   0  0  0  0  0  0  0  0  0  0  0  0  # atno 10764 bound_to 10752
  153.0376  135.5258  154.7417 H   0  0  0  0  0  0  0  0  0  0  0  0  # atno 10765 bound_to 10752
  141.0167  133.6882  156.2307 H   0  0  0  0  0  0  0  0  0  0  0  0  # atno 11005 bound_to 11000
  146.3530  140.0563  142.8632 LP  0  0  0  0  0  0  0  0  0  0  0  0  # atno 17320 bound_to 7965
  145.1207  140.9461  143.4602 LP  0  0  0  0  0  0  0  0  0  0  0  0  # atno 17321 bound_to 7965
  140.3503  143.2967  152.0494 LP  0  0  0  0  0  0  0  0  0  0  0  0  # atno 17342 bound_to 10162
  139.4892  144.6379  151.6938 LP  0  0  0  0  0  0  0  0  0  0  0  0  # atno 17343 bound_to 10162
  157.2862  131.0617  151.2164 LP  0  0  0  0  0  0  0  0  0  0  0  0  # atno 17370 bound_to 10713
  157.3193  130.6929  149.6260 LP  0  0  0  0  0  0  0  0  0  0  0  0  # atno 17371 bound_to 10713
  140.6643  134.4935  157.5585 LP  0  0  0  0  0  0  0  0  0  0  0  0  # atno 17394 bound_to 11000
  139.9121  134.8323  156.1492 LP  0  0  0  0  0  0  0  0  0  0  0  0  # atno 17395 bound_to 11000

$$$$
