AV-unprocessed.smi:1856|AV-procd|sdf|7537|dock3
  -GOLD-   22720 9253D 1   1.00000     0.00000
 Structure written by MMmdl.
 45 46  0  0  0  0  0  0  0  0  2 V2000
  149.1624  141.4330  154.0636 C   0  0  0  0  0  0  0  0  0  0  0  0
  149.7763  140.1368  154.6047 C   0  0  0  0  0  0  0  0  0  0  0  0
  149.2592  138.8887  153.8671 C   0  0  0  0  0  0  0  0  0  0  0  0
  147.7301  138.8140  153.8194 C   0  0  0  0  0  0  0  0  0  0  0  0
  147.0462  139.6648  154.3884 O   0  0  0  0  0  0  0  0  0  0  0  0
  147.2080  137.7888  153.1283 N   0  0  0  0  0  0  0  0  0  0  0  0
  145.7845  137.5291  152.9358 C   0  0  2  0  0  0  0  0  0  0  0  0
  145.0376  137.6761  154.2718 C   0  0  0  0  0  0  0  0  0  0  0  0
  145.5816  136.1785  152.3178 C   0  0  0  0  0  0  0  0  0  0  0  0
  146.5542  135.3559  151.8281 N   0  3  0  0  0  0  0  0  0  0  0  0
  145.9787  134.1989  151.3028 C   0  0  0  0  0  0  0  0  0  0  0  0
  146.5574  133.0810  150.7100 C   0  0  0  0  0  0  0  0  0  0  0  0
  145.6769  132.0688  150.2748 C   0  0  0  0  0  0  0  0  0  0  0  0
  144.2811  132.1912  150.4339 C   0  0  0  0  0  0  0  0  0  0  0  0
  143.7063  133.3304  151.0353 C   0  0  0  0  0  0  0  0  0  0  0  0
  144.5844  134.3250  151.4648 C   0  0  0  0  0  0  0  0  0  0  0  0
  144.3852  135.5611  152.0888 N   0  0  0  0  0  0  0  0  0  0  0  0
  143.0120  135.9984  152.3865 C   0  0  0  0  0  0  0  0  0  0  0  0
  142.2291  134.9834  153.2417 C   0  0  2  0  0  0  0  0  0  0  0  0
  140.8442  135.5089  153.6377 C   0  0  0  0  0  0  0  0  0  0  0  0
  142.9499  134.6807  154.4189 O   0  0  0  0  0  0  0  0  0  0  0  0
  149.5483  142.2994  154.6015 H   0  0  0  0  0  0  0  0  0  0  0  0
  148.0775  141.4297  154.1735 H   0  0  0  0  0  0  0  0  0  0  0  0
  149.3929  141.5679  153.0063 H   0  0  0  0  0  0  0  0  0  0  0  0
  150.8625  140.1929  154.5186 H   0  0  0  0  0  0  0  0  0  0  0  0
  149.5540  140.0605  155.6701 H   0  0  0  0  0  0  0  0  0  0  0  0
  149.6337  138.8809  152.8428 H   0  0  0  0  0  0  0  0  0  0  0  0
  149.6517  137.9921  154.3497 H   0  0  0  0  0  0  0  0  0  0  0  0
  147.8496  137.1425  152.6919 H   0  0  0  0  0  0  0  0  0  0  0  0
  145.3646  138.2620  152.2450 H   0  0  0  0  0  0  0  0  0  0  0  0
  143.9690  137.4989  154.1455 H   0  0  0  0  0  0  0  0  0  0  0  0
  145.1560  138.6822  154.6756 H   0  0  0  0  0  0  0  0  0  0  0  0
  145.4085  136.9756  155.0209 H   0  0  0  0  0  0  0  0  0  0  0  0
  147.6263  132.9855  150.5860 H   0  0  0  0  0  0  0  0  0  0  0  0
  146.0800  131.1810  149.8090 H   0  0  0  0  0  0  0  0  0  0  0  0
  143.6377  131.3953  150.0878 H   0  0  0  0  0  0  0  0  0  0  0  0
  142.6360  133.4149  151.1529 H   0  0  0  0  0  0  0  0  0  0  0  0
  143.0711  136.9590  152.8996 H   0  0  0  0  0  0  0  0  0  0  0  0
  142.4989  136.1905  151.4434 H   0  0  0  0  0  0  0  0  0  0  0  0
  142.1046  134.0550  152.6835 H   0  0  0  0  0  0  0  0  0  0  0  0
  140.2432  135.7298  152.7554 H   0  0  0  0  0  0  0  0  0  0  0  0
  140.9197  136.4237  154.2270 H   0  0  0  0  0  0  0  0  0  0  0  0
  140.2996  134.7740  154.2316 H   0  0  0  0  0  0  0  0  0  0  0  0
  142.7387  133.7980  154.6811 H   0  0  0  0  0  0  0  0  0  0  0  0
  147.5420  135.5740  151.8565 H   0  0  0  0  0  0  0  0  0  0  0  0
  1  2  1  0  0  0  0
  1 22  1  0  0  0  0
  1 23  1  0  0  0  0
  1 24  1  0  0  0  0
  2  3  1  0  0  0  0
  2 25  1  0  0  0  0
  2 26  1  0  0  0  0
  3  4  1  0  0  0  0
  3 27  1  0  0  0  0
  3 28  1  0  0  0  0
  4  5  2  0  0  0  0
  4  6  1  0  0  0  0
  6  7  1  0  0  0  0
  6 29  1  0  0  0  0
  7  8  1  0  0  0  0
  7  9  1  0  0  0  0
  7 30  1  0  0  0  0
  8 31  1  0  0  0  0
  8 32  1  0  0  0  0
  8 33  1  0  0  0  0
  9 17  1  0  0  0  0
  9 10  2  0  0  0  0
 10 11  1  0  0  0  0
 10 45  1  0  0  0  0
 11 16  2  0  0  0  0
 11 12  1  0  0  0  0
 12 13  2  0  0  0  0
 12 34  1  0  0  0  0
 13 14  1  0  0  0  0
 13 35  1  0  0  0  0
 14 15  2  0  0  0  0
 14 36  1  0  0  0  0
 15 16  1  0  0  0  0
 15 37  1  0  0  0  0
 16 17  1  0  0  0  0
 17 18  1  0  0  0  0
 18 19  1  0  0  0  0
 18 38  1  0  0  0  0
 18 39  1  0  0  0  0
 19 20  1  0  0  0  0
 19 21  1  0  0  0  0
 19 40  1  0  0  0  0
 20 41  1  0  0  0  0
 20 42  1  0  0  0  0
 20 43  1  0  0  0  0
 21 44  1  0  0  0  0
M  CHG  1  10   1
M  END
> <s_m_source_file>
AV-unprocessed.smi

> <i_m_source_file_index>
1856

> <i_lp_mmshare_version>
43012

> <i_f3d_flags>
0

> <s_epik_input>
W0NIM11bQ0gyXVtDSDJdQyg9TylbTkhdW0NASF0oW0NIM10pYyhuMSluKFtDSDJdW0NASF0oW0NIM10pW09IXSljKGMxMilbY0hdW2NIXVtjSF1bY0hdMg==

> <s_epik_cmdline>
J2VwaWtfcHl0aG9uJywgJy1waCcsICc3LjAnLCAnLXRuJywgJzgnLCAnLW1hJywgJzIwMCcsICctbWV0YWxfYmluZGluZycsICctaW1hZScsICc8aW5maWxlLm1hZT4nLCAnLW9tYWUnLCAnPG91dGZpbGUubWFlPic=

> <r_epik_Ionization_Penalty>
0.945588

> <r_epik_Ionization_Penalty_Charging>
0.945588

> <r_epik_Ionization_Penalty_Neutral>
8.64698e-08

> <r_epik_State_Penalty>
0.989378

> <r_epik_Charging_Adjusted_Penalty>
1.93497

> <i_epik_Tot_Q>
1

> <i_epik_Tot_abs_Q>
1

> <r_epik_Metal_State_Penalty>
1.10045

> <b_epik_Metal_Only>
0

> <s_lp_Force_Field>
OPLS_2005

> <r_lp_Energy>
9.41994

> <b_lp_Chiralities_Consistent>
1

> <s_lp_Variant>
AV-unprocessed.smi:1856-5

> <Gold.Version>
5.8.1

> <Gold.Id.Protein>
6NUR|6NUR_protein|mol2

> <Gold.PLP.Fitness>
50.4837

> <Gold.PLP.PLP>
-39.0676

> <Gold.PLP.part.hbond>
-2.9927

> <Gold.PLP.part.metal>
0.0000

> <Gold.PLP.part.buried>
-5.2580

> <Gold.PLP.part.nonpolar>
-31.7731

> <Gold.PLP.part.repulsive>
0.1825

> <Gold.PLP.ligand.clash>
0.0000

> <Gold.PLP.ligand.torsion>
0.3273

> <Gold.PLP.Chemscore.Hbond>
4.0000

> <Gold.PLP.Chemscore.CHOScore>
0.0000

> <Gold.PLP.Chemscore.Metal>
0.0000

> <Gold.Chemscore.Hbonds>
donor molecule, donor type, donor heavy atom, donor atom, acceptor molecule, acceptor atom, score
      L1  H     6    29       P1  7948  1.00
      L1  H    10    45       P1  7948  1.95
      L1  H    21    44       P1 10957  1.00

> <Gold.PLP.Chemscore.Internal.Correction>
0.0707

> <Gold.Rescore>
     Score         DG    S(hbond)    S(metal)    S(lipo)     H(rot)  DE(clash)    DE(int)     intcor
     17.08     -20.22       2.97        0.00      96.28       2.52       0.05       3.09       ----

> <Gold.Chemscore.Fitness>
17.0781

> <Gold.Chemscore.DG>
-20.2198

> <Gold.Chemscore.ZeroCoef>
-5.4800

> <Gold.Chemscore.Hbond>
2.9690

> <Gold.Chemscore.Metal>
0.0000

> <Gold.Chemscore.Lipo>
96.2792

> <Gold.Chemscore.Internal_Hbond>
0.0000

> <Gold.Chemscore.DEClash>
0.0516

> <Gold.Chemscore.DEInternal>
3.0901

> <Gold.Chemscore.Rot>
2.5161

> <Gold.Chemscore.Internal.Correction>
   9.000000E+99

> <Gold.Chemscore.Hbonds>
donor molecule, donor type, donor heavy atom, donor atom, acceptor molecule, acceptor atom, score
      L1  H     6    29       P1  7948  1.00
      L1  H    10    45       P1  7948  0.91
      L1  H    21    44       P1 10957  0.93

> <Gold.Chemscore.Hbond.Weighted>
-9.9163

> <Gold.Chemscore.Metal.Weighted>
-0.0000

> <Gold.Chemscore.Lipo.Weighted>
-11.2647

> <Gold.Chemscore.Internal_Hbond.Weighted>
0.0000

> <Gold.Chemscore.DEClash.Weighted>
0.0516

> <Gold.Chemscore.DEInternal.Weighted>
3.0901

> <Gold.Chemscore.Rot.Weighted>
6.4412

> <Gold.Chemscore.Internal.Correction.Weighted>
   9.000000E+99

> <Gold.Protein.RotatedTorsions>
[ 6907 6896 6895 6894 ] final  110.88 input  -60.11 | X-H torsion
[ 7974 7965 7964 7962 ] final  130.45 input  175.53 | X-H torsion
[ 8008 7997 7996 7995 ] final   99.04 input   59.86 | X-H torsion
[ 10167 10162 10161 10158 ] final  -50.99 input  -65.29 | X-H torsion
[ 10718 10713 10712 10709 ] final  -17.70 input   66.30 | X-H torsion
[ 10763 10752 10751 10750 ] final   44.28 input  -60.55 | X-H torsion
[ 11005 11000 10999 10996 ] final  105.04 input  -57.11 | X-H torsion

> <Gold.Protein.ActiveResidues>
 VAL166  LYS551  ARG553  GLY616  TRP617  ASP618  TYR619  PRO620  LYS621  CYS622 
 ASP623  PHE694  ASN695  SER759  ASP760  ASP761  ALA762  ILE779  LEU786  VAL792 
 PHE793  MET794  SER795  GLU796  ALA797  LYS798  CYS799  TRP800  GLU811  SER814 

> <Gold.Protein.RotatedAtoms>
  152.4997  133.8736  159.7310 H   0  0  0  0  0  0  0  0  0  0  0  0  # atno 6907 bound_to 6896
  150.9217  133.6864  159.2837 H   0  0  0  0  0  0  0  0  0  0  0  0  # atno 6908 bound_to 6896
  151.4239  135.1006  159.9674 H   0  0  0  0  0  0  0  0  0  0  0  0  # atno 6909 bound_to 6896
  145.0177  139.4160  143.5213 H   0  0  0  0  0  0  0  0  0  0  0  0  # atno 7974 bound_to 7965
  156.1066  140.3234  155.8014 H   0  0  0  0  0  0  0  0  0  0  0  0  # atno 8008 bound_to 7997
  155.4746  140.0549  157.2992 H   0  0  0  0  0  0  0  0  0  0  0  0  # atno 8009 bound_to 7997
  154.4731  140.2020  155.9959 H   0  0  0  0  0  0  0  0  0  0  0  0  # atno 8010 bound_to 7997
  140.6610  143.2636  151.4439 H   0  0  0  0  0  0  0  0  0  0  0  0  # atno 10167 bound_to 10162
  156.5698  130.4747  149.6368 H   0  0  0  0  0  0  0  0  0  0  0  0  # atno 10718 bound_to 10713
  152.9844  135.6075  154.3248 H   0  0  0  0  0  0  0  0  0  0  0  0  # atno 10763 bound_to 10752
  154.2956  135.2774  155.2637 H   0  0  0  0  0  0  0  0  0  0  0  0  # atno 10764 bound_to 10752
  154.4912  135.5891  153.6517 H   0  0  0  0  0  0  0  0  0  0  0  0  # atno 10765 bound_to 10752
  139.8798  134.9322  156.5453 H   0  0  0  0  0  0  0  0  0  0  0  0  # atno 11005 bound_to 11000
  146.3480  139.9658  142.8712 LP  0  0  0  0  0  0  0  0  0  0  0  0  # atno 17320 bound_to 7965
  145.1937  140.9823  143.4196 LP  0  0  0  0  0  0  0  0  0  0  0  0  # atno 17321 bound_to 7965
  139.5844  144.1636  152.2010 LP  0  0  0  0  0  0  0  0  0  0  0  0  # atno 17342 bound_to 10162
  140.0972  144.5571  150.7014 LP  0  0  0  0  0  0  0  0  0  0  0  0  # atno 17343 bound_to 10162
  156.2724  130.7025  151.1826 LP  0  0  0  0  0  0  0  0  0  0  0  0  # atno 17370 bound_to 10713
  157.7350  131.0576  150.5491 LP  0  0  0  0  0  0  0  0  0  0  0  0  # atno 17371 bound_to 10713
  140.8280  133.8301  155.8957 LP  0  0  0  0  0  0  0  0  0  0  0  0  # atno 17394 bound_to 11000
  140.9355  134.1967  157.4834 LP  0  0  0  0  0  0  0  0  0  0  0  0  # atno 17395 bound_to 11000

$$$$
