AV-unprocessed.smi:1978|AV-procd|sdf|7994|dock5
  -GOLD-   2272010173D 1   1.00000     0.00000
 Structure written by MMmdl.
 45 46  0  0  0  0  0  0  0  0  2 V2000
  143.7501  132.3935  150.2943 C   0  0  0  0  0  0  0  0  0  0  0  0
  144.2656  133.5798  151.0340 C   0  0  0  0  0  0  0  0  0  0  0  0
  145.4716  134.2227  151.0357 C   0  0  0  0  0  0  0  0  0  0  0  0
  145.2743  135.2690  151.9752 C   0  0  0  0  0  0  0  0  0  0  0  0
  146.3145  136.1862  152.2719 N   0  0  0  0  0  0  0  0  0  0  0  0
  146.2139  137.3471  152.9406 C   0  0  0  0  0  0  0  0  0  0  0  0
  145.1756  137.8043  153.4193 O   0  0  0  0  0  0  0  0  0  0  0  0
  147.4003  137.9657  153.0294 N   0  0  0  0  0  0  0  0  0  0  0  0
  147.6232  139.2398  153.7052 C   0  0  0  0  0  0  0  0  0  0  0  0
  147.9797  139.0633  155.2038 C   0  0  2  0  0  0  0  0  0  0  0  0
  147.2372  140.0665  156.1106 C   0  0  0  0  0  0  0  0  0  0  0  0
  149.4564  139.0757  155.4598 N   0  3  2  0  0  0  0  0  0  0  0  0
  150.1059  140.3907  155.1834 C   0  0  0  0  0  0  0  0  0  0  0  0
  151.5432  140.4300  155.7221 C   0  0  0  0  0  0  0  0  0  0  0  0
  152.3766  139.2994  155.1155 C   0  0  0  0  0  0  0  0  0  0  0  0
  151.6876  137.9560  155.3756 C   0  0  0  0  0  0  0  0  0  0  0  0
  150.2344  137.9438  154.8530 C   0  0  1  0  0  0  0  0  0  0  0  0
  149.6174  136.5549  155.1150 C   0  0  0  0  0  0  0  0  0  0  0  0
  144.0576  135.2673  152.4977 N   0  0  0  0  0  0  0  0  0  0  0  0
  143.4047  134.1846  151.8969 O   0  0  0  0  0  0  0  0  0  0  0  0
  144.5030  132.0054  149.6082 H   0  0  0  0  0  0  0  0  0  0  0  0
  142.8658  132.6546  149.7128 H   0  0  0  0  0  0  0  0  0  0  0  0
  143.4782  131.5954  150.9853 H   0  0  0  0  0  0  0  0  0  0  0  0
  146.3514  133.9787  150.4590 H   0  0  0  0  0  0  0  0  0  0  0  0
  147.2329  135.9275  151.9431 H   0  0  0  0  0  0  0  0  0  0  0  0
  148.2047  137.5223  152.6097 H   0  0  0  0  0  0  0  0  0  0  0  0
  148.4048  139.7850  153.1750 H   0  0  0  0  0  0  0  0  0  0  0  0
  146.7110  139.8260  153.5953 H   0  0  0  0  0  0  0  0  0  0  0  0
  147.6038  138.0963  155.5314 H   0  0  0  0  0  0  0  0  0  0  0  0
  146.1633  139.8787  156.1043 H   0  0  0  0  0  0  0  0  0  0  0  0
  147.3792  141.0988  155.7920 H   0  0  0  0  0  0  0  0  0  0  0  0
  147.5697  139.9827  157.1457 H   0  0  0  0  0  0  0  0  0  0  0  0
  150.1136  140.5830  154.1099 H   0  0  0  0  0  0  0  0  0  0  0  0
  149.5537  141.2066  155.6454 H   0  0  0  0  0  0  0  0  0  0  0  0
  152.0008  141.3931  155.4940 H   0  0  0  0  0  0  0  0  0  0  0  0
  151.5328  140.3406  156.8092 H   0  0  0  0  0  0  0  0  0  0  0  0
  152.4914  139.4567  154.0422 H   0  0  0  0  0  0  0  0  0  0  0  0
  153.3802  139.2989  155.5416 H   0  0  0  0  0  0  0  0  0  0  0  0
  152.2642  137.1605  154.9020 H   0  0  0  0  0  0  0  0  0  0  0  0
  151.6959  137.7455  156.4461 H   0  0  0  0  0  0  0  0  0  0  0  0
  150.2701  138.0929  153.7731 H   0  0  0  0  0  0  0  0  0  0  0  0
  150.2870  135.7621  154.7803 H   0  0  0  0  0  0  0  0  0  0  0  0
  148.6838  136.4108  154.5716 H   0  0  0  0  0  0  0  0  0  0  0  0
  149.4258  136.3961  156.1768 H   0  0  0  0  0  0  0  0  0  0  0  0
  149.5393  138.9397  156.4571 H   0  0  0  0  0  0  0  0  0  0  0  0
  1  2  1  0  0  0  0
  1 21  1  0  0  0  0
  1 22  1  0  0  0  0
  1 23  1  0  0  0  0
  2 20  1  0  0  0  0
  2  3  2  0  0  0  0
  3  4  1  0  0  0  0
  3 24  1  0  0  0  0
  4  5  1  0  0  0  0
  4 19  2  0  0  0  0
  5  6  1  0  0  0  0
  5 25  1  0  0  0  0
  6  7  2  0  0  0  0
  6  8  1  0  0  0  0
  8  9  1  0  0  0  0
  8 26  1  0  0  0  0
  9 10  1  0  0  0  0
  9 27  1  0  0  0  0
  9 28  1  0  0  0  0
 10 11  1  0  0  0  0
 10 12  1  0  0  0  0
 10 29  1  0  0  0  0
 11 30  1  0  0  0  0
 11 31  1  0  0  0  0
 11 32  1  0  0  0  0
 12 17  1  0  0  0  0
 12 13  1  0  0  0  0
 12 45  1  0  0  0  0
 13 14  1  0  0  0  0
 13 33  1  0  0  0  0
 13 34  1  0  0  0  0
 14 15  1  0  0  0  0
 14 35  1  0  0  0  0
 14 36  1  0  0  0  0
 15 16  1  0  0  0  0
 15 37  1  0  0  0  0
 15 38  1  0  0  0  0
 16 17  1  0  0  0  0
 16 39  1  0  0  0  0
 16 40  1  0  0  0  0
 17 18  1  0  0  0  0
 17 41  1  0  0  0  0
 18 42  1  0  0  0  0
 18 43  1  0  0  0  0
 18 44  1  0  0  0  0
 19 20  1  0  0  0  0
M  CHG  1  12   1
M  END
> <s_m_source_file>
AV-unprocessed.smi

> <i_m_source_file_index>
1978

> <i_lp_mmshare_version>
43012

> <i_f3d_flags>
0

> <s_epik_input>
W0NIM11jMVtjSF1jKG5vMSlbTkhdQyg9TylbTkhdW0NIMl1bQ0BIXShbQ0gzXSlOMltDSDJdW0NIMl1bQ0gyXVtDSDJdW0NASF0yW0NIM10=

> <s_epik_cmdline>
J2VwaWtfcHl0aG9uJywgJy1waCcsICc3LjAnLCAnLXRuJywgJzgnLCAnLW1hJywgJzIwMCcsICctbWV0YWxfYmluZGluZycsICctaW1hZScsICc8aW5maWxlLm1hZT4nLCAnLW9tYWUnLCAnPG91dGZpbGUubWFlPic=

> <r_epik_Ionization_Penalty>
0.00265971

> <r_epik_Ionization_Penalty_Charging>
0.00262393

> <r_epik_Ionization_Penalty_Neutral>
3.57846e-05

> <r_epik_State_Penalty>
0.00182566

> <r_epik_Charging_Adjusted_Penalty>
0.00444959

> <i_epik_Tot_Q>
1

> <i_epik_Tot_abs_Q>
1

> <r_epik_Metal_State_Penalty>
0.0216344

> <b_epik_Metal_Only>
0

> <s_lp_Force_Field>
OPLS_2005

> <r_lp_Energy>
19.2971

> <b_lp_Chiralities_Consistent>
1

> <s_lp_Variant>
AV-unprocessed.smi:1978-3

> <Gold.Version>
5.8.1

> <Gold.Id.Protein>
6NUR|6NUR_protein|mol2

> <Gold.PLP.Fitness>
32.9934

> <Gold.PLP.PLP>
-28.5421

> <Gold.PLP.part.hbond>
-2.0000

> <Gold.PLP.part.metal>
0.0000

> <Gold.PLP.part.buried>
-2.6739

> <Gold.PLP.part.nonpolar>
-24.5144

> <Gold.PLP.part.repulsive>
0.5934

> <Gold.PLP.ligand.clash>
0.0000

> <Gold.PLP.ligand.torsion>
0.8333

> <Gold.PLP.Chemscore.Hbond>
2.0000

> <Gold.PLP.Chemscore.CHOScore>
0.0000

> <Gold.PLP.Chemscore.Metal>
0.0000

> <Gold.Chemscore.Hbonds>
donor molecule, donor type, donor heavy atom, donor atom, acceptor molecule, acceptor atom, score
      L1  H     5    25       P1  7948  1.00
      L1  H     8    26       P1  7948  1.00

> <Gold.PLP.Chemscore.Internal.Correction>
0.1178

> <Gold.Rescore>
     Score         DG    S(hbond)    S(metal)    S(lipo)     H(rot)  DE(clash)    DE(int)     intcor
     13.96     -16.05       1.91        0.00      69.55       1.55       0.04       2.05       ----

> <Gold.Chemscore.Fitness>
13.9565

> <Gold.Chemscore.DG>
-16.0488

> <Gold.Chemscore.ZeroCoef>
-5.4800

> <Gold.Chemscore.Hbond>
1.9140

> <Gold.Chemscore.Metal>
0.0000

> <Gold.Chemscore.Lipo>
69.5495

> <Gold.Chemscore.Internal_Hbond>
0.0000

> <Gold.Chemscore.DEClash>
0.0408

> <Gold.Chemscore.DEInternal>
2.0515

> <Gold.Chemscore.Rot>
1.5474

> <Gold.Chemscore.Internal.Correction>
   9.000000E+99

> <Gold.Chemscore.Hbonds>
donor molecule, donor type, donor heavy atom, donor atom, acceptor molecule, acceptor atom, score
      L1  H     5    25       P1  7948  0.95
      L1  H     8    26       P1  7948  0.97

> <Gold.Chemscore.Hbond.Weighted>
-6.3927

> <Gold.Chemscore.Metal.Weighted>
-0.0000

> <Gold.Chemscore.Lipo.Weighted>
-8.1373

> <Gold.Chemscore.Internal_Hbond.Weighted>
0.0000

> <Gold.Chemscore.DEClash.Weighted>
0.0408

> <Gold.Chemscore.DEInternal.Weighted>
2.0515

> <Gold.Chemscore.Rot.Weighted>
3.9612

> <Gold.Chemscore.Internal.Correction.Weighted>
   9.000000E+99

> <Gold.Protein.RotatedTorsions>
[ 6907 6896 6895 6894 ] final -161.23 input  -60.11 | X-H torsion
[ 7974 7965 7964 7962 ] final   -6.05 input  175.53 | X-H torsion
[ 8008 7997 7996 7995 ] final  138.25 input   59.86 | X-H torsion
[ 10167 10162 10161 10158 ] final  -82.56 input  -65.29 | X-H torsion
[ 10718 10713 10712 10709 ] final  -71.72 input   66.30 | X-H torsion
[ 10763 10752 10751 10750 ] final -148.28 input  -60.55 | X-H torsion
[ 11005 11000 10999 10996 ] final  124.75 input  -57.11 | X-H torsion

> <Gold.Protein.ActiveResidues>
 VAL166  LYS551  ARG553  GLY616  TRP617  ASP618  TYR619  PRO620  LYS621  CYS622 
 ASP623  PHE694  ASN695  SER759  ASP760  ASP761  ALA762  ILE779  LEU786  VAL792 
 PHE793  MET794  SER795  GLU796  ALA797  LYS798  CYS799  TRP800  GLU811  SER814 

> <Gold.Protein.RotatedAtoms>
  151.3614  133.3888  159.2689 H   0  0  0  0  0  0  0  0  0  0  0  0  # atno 6907 bound_to 6896
  150.9723  134.9094  159.7805 H   0  0  0  0  0  0  0  0  0  0  0  0  # atno 6908 bound_to 6896
  152.5188  134.3576  159.9325 H   0  0  0  0  0  0  0  0  0  0  0  0  # atno 6909 bound_to 6896
  146.2339  140.2113  142.8335 H   0  0  0  0  0  0  0  0  0  0  0  0  # atno 7974 bound_to 7965
  156.2998  140.2398  156.4043 H   0  0  0  0  0  0  0  0  0  0  0  0  # atno 8008 bound_to 7997
  154.8499  140.0424  157.1617 H   0  0  0  0  0  0  0  0  0  0  0  0  # atno 8009 bound_to 7997
  154.9010  140.2977  155.5321 H   0  0  0  0  0  0  0  0  0  0  0  0  # atno 8010 bound_to 7997
  140.4308  143.2549  151.8761 H   0  0  0  0  0  0  0  0  0  0  0  0  # atno 10167 bound_to 10162
  156.0351  130.4357  150.2485 H   0  0  0  0  0  0  0  0  0  0  0  0  # atno 10718 bound_to 10713
  154.8241  135.3338  154.6949 H   0  0  0  0  0  0  0  0  0  0  0  0  # atno 10763 bound_to 10752
  153.7577  135.6935  153.4936 H   0  0  0  0  0  0  0  0  0  0  0  0  # atno 10764 bound_to 10752
  153.2132  135.4475  155.0353 H   0  0  0  0  0  0  0  0  0  0  0  0  # atno 10765 bound_to 10752
  139.9373  134.9638  156.8456 H   0  0  0  0  0  0  0  0  0  0  0  0  # atno 11005 bound_to 11000
  144.9704  140.8363  143.5458 LP  0  0  0  0  0  0  0  0  0  0  0  0  # atno 17320 bound_to 7965
  145.2094  139.2212  143.5151 LP  0  0  0  0  0  0  0  0  0  0  0  0  # atno 17321 bound_to 7965
  139.4785  144.5336  151.8630 LP  0  0  0  0  0  0  0  0  0  0  0  0  # atno 17342 bound_to 10162
  140.4429  144.1962  150.5892 LP  0  0  0  0  0  0  0  0  0  0  0  0  # atno 17343 bound_to 10162
  157.0585  131.0083  151.3230 LP  0  0  0  0  0  0  0  0  0  0  0  0  # atno 17370 bound_to 10713
  157.5088  130.7925  149.7682 LP  0  0  0  0  0  0  0  0  0  0  0  0  # atno 17371 bound_to 10713
  140.6041  134.0144  155.7549 LP  0  0  0  0  0  0  0  0  0  0  0  0  # atno 17394 bound_to 11000
  141.0993  133.9794  157.3106 LP  0  0  0  0  0  0  0  0  0  0  0  0  # atno 17395 bound_to 11000

$$$$
