AV-unprocessed.smi:2639|AV-procd|sdf|10265|dock3
  -GOLD-   2272014273D 1   1.00000     0.00000
 Structure written by MMmdl.
 43 44  0  0  0  0  0  0  0  0  1 V2000
  145.7979  138.6318  154.4969 C   0  0  0  0  0  0  0  0  0  0  0  0
  146.7791  138.6704  153.2964 C   0  0  2  0  0  0  0  0  0  0  0  0
  146.1881  139.5706  152.1769 C   0  0  0  0  0  0  0  0  0  0  0  0
  146.7848  139.3208  150.9185 O   0  0  0  0  0  0  0  0  0  0  0  0
  146.8995  137.3214  152.7187 N   0  0  0  0  0  0  0  0  0  0  0  0
  145.9332  136.5191  152.2395 C   0  0  0  0  0  0  0  0  0  0  0  0
  144.7384  136.8128  152.2247 O   0  0  0  0  0  0  0  0  0  0  0  0
  146.4545  135.3727  151.7687 N   0  0  0  0  0  0  0  0  0  0  0  0
  145.7815  134.2484  151.2174 C   0  0  0  0  0  0  0  0  0  0  0  0
  146.5617  133.1343  150.8446 C   0  0  0  0  0  0  0  0  0  0  0  0
  145.9161  132.0001  150.3127 C   0  0  0  0  0  0  0  0  0  0  0  0
  144.5794  131.9165  150.1471 N   0  0  0  0  0  0  0  0  0  0  0  0
  143.8329  132.9782  150.5177 C   0  0  0  0  0  0  0  0  0  0  0  0
  144.3772  134.1598  151.0595 C   0  0  0  0  0  0  0  0  0  0  0  0
  148.1909  139.1900  153.7525 C   0  0  0  0  0  0  0  0  0  0  0  0
  148.9577  138.2254  154.6936 C   0  0  0  0  0  0  0  0  0  0  0  0
  150.3767  138.7329  154.9985 C   0  0  0  0  0  0  0  0  0  0  0  0
  150.3460  140.1431  155.6038 C   0  0  0  0  0  0  0  0  0  0  0  0
  149.5922  141.1164  154.6870 C   0  0  0  0  0  0  0  0  0  0  0  0
  148.1742  140.6103  154.3777 C   0  0  0  0  0  0  0  0  0  0  0  0
  145.4877  139.6328  154.7963 H   0  0  0  0  0  0  0  0  0  0  0  0
  146.2406  138.1560  155.3720 H   0  0  0  0  0  0  0  0  0  0  0  0
  144.8891  138.0795  154.2547 H   0  0  0  0  0  0  0  0  0  0  0  0
  145.1183  139.4026  152.0604 H   0  0  0  0  0  0  0  0  0  0  0  0
  146.3197  140.6279  152.4060 H   0  0  0  0  0  0  0  0  0  0  0  0
  147.7226  139.2896  151.0315 H   0  0  0  0  0  0  0  0  0  0  0  0
  147.8437  136.9685  152.6629 H   0  0  0  0  0  0  0  0  0  0  0  0
  147.4622  135.3142  151.7670 H   0  0  0  0  0  0  0  0  0  0  0  0
  147.6361  133.1454  150.9569 H   0  0  0  0  0  0  0  0  0  0  0  0
  146.4902  131.1355  150.0139 H   0  0  0  0  0  0  0  0  0  0  0  0
  142.7655  132.8813  150.3847 H   0  0  0  0  0  0  0  0  0  0  0  0
  143.7119  134.9576  151.3508 H   0  0  0  0  0  0  0  0  0  0  0  0
  148.8040  139.2630  152.8538 H   0  0  0  0  0  0  0  0  0  0  0  0
  148.4225  138.1047  155.6351 H   0  0  0  0  0  0  0  0  0  0  0  0
  149.0369  137.2331  154.2517 H   0  0  0  0  0  0  0  0  0  0  0  0
  150.8773  138.0470  155.6823 H   0  0  0  0  0  0  0  0  0  0  0  0
  150.9679  138.7407  154.0820 H   0  0  0  0  0  0  0  0  0  0  0  0
  149.8637  140.1120  156.5816 H   0  0  0  0  0  0  0  0  0  0  0  0
  151.3628  140.4999  155.7702 H   0  0  0  0  0  0  0  0  0  0  0  0
  149.5411  142.1006  155.1536 H   0  0  0  0  0  0  0  0  0  0  0  0
  150.1450  141.2451  153.7557 H   0  0  0  0  0  0  0  0  0  0  0  0
  147.6933  141.3259  153.7114 H   0  0  0  0  0  0  0  0  0  0  0  0
  147.5933  140.6103  155.2997 H   0  0  0  0  0  0  0  0  0  0  0  0
  1  2  1  0  0  0  0
  1 21  1  0  0  0  0
  1 22  1  0  0  0  0
  1 23  1  0  0  0  0
  2  3  1  0  0  0  0
  2  5  1  0  0  0  0
  2 15  1  0  0  0  0
  3  4  1  0  0  0  0
  3 24  1  0  0  0  0
  3 25  1  0  0  0  0
  4 26  1  0  0  0  0
  5  6  1  0  0  0  0
  5 27  1  0  0  0  0
  6  7  2  0  0  0  0
  6  8  1  0  0  0  0
  8  9  1  0  0  0  0
  8 28  1  0  0  0  0
  9 14  1  0  0  0  0
  9 10  2  0  0  0  0
 10 11  1  0  0  0  0
 10 29  1  0  0  0  0
 11 12  2  0  0  0  0
 11 30  1  0  0  0  0
 12 13  1  0  0  0  0
 13 14  2  0  0  0  0
 13 31  1  0  0  0  0
 14 32  1  0  0  0  0
 15 20  1  0  0  0  0
 15 16  1  0  0  0  0
 15 33  1  0  0  0  0
 16 17  1  0  0  0  0
 16 34  1  0  0  0  0
 16 35  1  0  0  0  0
 17 18  1  0  0  0  0
 17 36  1  0  0  0  0
 17 37  1  0  0  0  0
 18 19  1  0  0  0  0
 18 38  1  0  0  0  0
 18 39  1  0  0  0  0
 19 20  1  0  0  0  0
 19 40  1  0  0  0  0
 19 41  1  0  0  0  0
 20 42  1  0  0  0  0
 20 43  1  0  0  0  0
M  END
> <s_m_source_file>
AV-unprocessed.smi

> <i_m_source_file_index>
2639

> <i_lp_mmshare_version>
43012

> <i_f3d_flags>
0

> <s_epik_input>
W0NIMl0xW0NIMl1bQ0gyXVtDSDJdW0NIMl1bQ0hdMVtDQF0oW0NIM10pKFtDSDJdW09IXSlbTkhdQyg9TylbTkhdYzJbY0hdW2NIXW5bY0hdW2NIXTI=

> <s_epik_cmdline>
J2VwaWtfcHl0aG9uJywgJy1waCcsICc3LjAnLCAnLXRuJywgJzgnLCAnLW1hJywgJzIwMCcsICctbWV0YWxfYmluZGluZycsICctaW1hZScsICc8aW5maWxlLm1hZT4nLCAnLW9tYWUnLCAnPG91dGZpbGUubWFlPic=

> <r_epik_Ionization_Penalty>
0.119032

> <r_epik_Ionization_Penalty_Charging>
0

> <r_epik_Ionization_Penalty_Neutral>
0.119032

> <r_epik_State_Penalty>
0.108564

> <r_epik_Charging_Adjusted_Penalty>
0.108564

> <i_epik_Tot_Q>
0

> <i_epik_Tot_abs_Q>
0

> <r_epik_Metal_State_Penalty>
0.0902516

> <b_epik_Metal_Only>
0

> <s_lp_Force_Field>
OPLS_2005

> <r_lp_Energy>
26.8318

> <b_lp_Chiralities_Consistent>
1

> <s_lp_Variant>
AV-unprocessed.smi:2639-2

> <Gold.Version>
5.8.1

> <Gold.Id.Protein>
6NUR|6NUR_protein|mol2

> <Gold.PLP.Fitness>
45.7195

> <Gold.PLP.PLP>
-31.7635

> <Gold.PLP.part.hbond>
-4.3043

> <Gold.PLP.part.metal>
0.0000

> <Gold.PLP.part.buried>
2.3232

> <Gold.PLP.part.nonpolar>
-30.1527

> <Gold.PLP.part.repulsive>
0.5694

> <Gold.PLP.ligand.clash>
0.0000

> <Gold.PLP.ligand.torsion>
0.2840

> <Gold.PLP.Chemscore.Hbond>
2.9040

> <Gold.PLP.Chemscore.CHOScore>
1.9168

> <Gold.PLP.Chemscore.Metal>
0.0000

> <Gold.Chemscore.Hbonds>
donor molecule, donor type, donor heavy atom, donor atom, acceptor molecule, acceptor atom, score
      L1  H     4    26       P1  7957  1.00
      L1  H     5    27       P1  7948  0.98
      L1  H     8    28       P1  7948  0.93
      L1  C    11    30       P1 10747  0.93
      L1  C    13    31       P1 10186  1.00

> <Gold.PLP.Chemscore.Internal.Correction>
0.0616

> <Gold.Rescore>
     Score         DG    S(hbond)    S(metal)    S(lipo)     H(rot)  DE(clash)    DE(int)     intcor
     16.84     -19.90       2.74        0.00      88.40       1.98       1.64       1.42       ----

> <Gold.Chemscore.Fitness>
16.8417

> <Gold.Chemscore.DG>
-19.8971

> <Gold.Chemscore.ZeroCoef>
-5.4800

> <Gold.Chemscore.Hbond>
2.7374

> <Gold.Chemscore.Metal>
0.0000

> <Gold.Chemscore.Lipo>
88.3964

> <Gold.Chemscore.Internal_Hbond>
0.0000

> <Gold.Chemscore.DEClash>
1.6363

> <Gold.Chemscore.DEInternal>
1.4191

> <Gold.Chemscore.Rot>
1.9798

> <Gold.Chemscore.Internal.Correction>
   9.000000E+99

> <Gold.Chemscore.Hbonds>
donor molecule, donor type, donor heavy atom, donor atom, acceptor molecule, acceptor atom, score
      L1  H     4    26       P1  7957  0.58
      L1  H     5    27       P1  7948  0.89
      L1  H     8    28       P1  7948  0.86

> <Gold.Chemscore.Hbond.Weighted>
-9.1429

> <Gold.Chemscore.Metal.Weighted>
-0.0000

> <Gold.Chemscore.Lipo.Weighted>
-10.3424

> <Gold.Chemscore.Internal_Hbond.Weighted>
0.0000

> <Gold.Chemscore.DEClash.Weighted>
1.6363

> <Gold.Chemscore.DEInternal.Weighted>
1.4191

> <Gold.Chemscore.Rot.Weighted>
5.0682

> <Gold.Chemscore.Internal.Correction.Weighted>
   9.000000E+99

> <Gold.Protein.RotatedTorsions>
[ 6907 6896 6895 6894 ] final   84.15 input  -60.11 | X-H torsion
[ 7974 7965 7964 7962 ] final -152.17 input  175.53 | X-H torsion
[ 8008 7997 7996 7995 ] final   78.53 input   59.86 | X-H torsion
[ 10167 10162 10161 10158 ] final  -29.72 input  -65.29 | X-H torsion
[ 10718 10713 10712 10709 ] final   54.45 input   66.30 | X-H torsion
[ 10763 10752 10751 10750 ] final   42.51 input  -60.55 | X-H torsion
[ 11005 11000 10999 10996 ] final -155.78 input  -57.11 | X-H torsion

> <Gold.Protein.ActiveResidues>
 VAL166  LYS551  ARG553  GLY616  TRP617  ASP618  TYR619  PRO620  LYS621  CYS622 
 ASP623  PHE694  ASN695  SER759  ASP760  ASP761  ALA762  ILE779  LEU786  VAL792 
 PHE793  MET794  SER795  GLU796  ALA797  LYS798  CYS799  TRP800  GLU811  SER814 

> <Gold.Protein.RotatedAtoms>
  152.5345  134.2786  159.8998 H   0  0  0  0  0  0  0  0  0  0  0  0  # atno 6907 bound_to 6896
  151.2740  133.4235  159.2630 H   0  0  0  0  0  0  0  0  0  0  0  0  # atno 6908 bound_to 6896
  151.0342  134.9576  159.8184 H   0  0  0  0  0  0  0  0  0  0  0  0  # atno 6909 bound_to 6896
  144.7809  140.4699  143.5840 H   0  0  0  0  0  0  0  0  0  0  0  0  # atno 7974 bound_to 7965
  155.8570  140.3455  155.5731 H   0  0  0  0  0  0  0  0  0  0  0  0  # atno 8008 bound_to 7997
  155.7976  140.0880  157.1994 H   0  0  0  0  0  0  0  0  0  0  0  0  # atno 8009 bound_to 7997
  154.4010  140.1471  156.3223 H   0  0  0  0  0  0  0  0  0  0  0  0  # atno 8010 bound_to 7997
  140.7257  143.3906  151.1437 H   0  0  0  0  0  0  0  0  0  0  0  0  # atno 10167 bound_to 10162
  157.5258  130.8596  149.8619 H   0  0  0  0  0  0  0  0  0  0  0  0  # atno 10718 bound_to 10713
  152.9881  135.6129  154.2961 H   0  0  0  0  0  0  0  0  0  0  0  0  # atno 10763 bound_to 10752
  154.2684  135.2780  155.2750 H   0  0  0  0  0  0  0  0  0  0  0  0  # atno 10764 bound_to 10752
  154.5144  135.5832  153.6687 H   0  0  0  0  0  0  0  0  0  0  0  0  # atno 10765 bound_to 10752
  140.6827  134.4127  157.5225 H   0  0  0  0  0  0  0  0  0  0  0  0  # atno 11005 bound_to 11000
  145.6053  139.1508  143.3106 LP  0  0  0  0  0  0  0  0  0  0  0  0  # atno 17320 bound_to 7965
  146.2016  140.6172  142.9099 LP  0  0  0  0  0  0  0  0  0  0  0  0  # atno 17321 bound_to 7965
  139.7510  143.8778  152.3076 LP  0  0  0  0  0  0  0  0  0  0  0  0  # atno 17342 bound_to 10162
  139.8632  144.7106  150.9075 LP  0  0  0  0  0  0  0  0  0  0  0  0  # atno 17343 bound_to 10162
  156.0386  130.3745  150.1495 LP  0  0  0  0  0  0  0  0  0  0  0  0  # atno 17370 bound_to 10713
  156.9682  130.9826  151.3464 LP  0  0  0  0  0  0  0  0  0  0  0  0  # atno 17371 bound_to 10713
  139.8947  134.8701  156.2166 LP  0  0  0  0  0  0  0  0  0  0  0  0  # atno 17394 bound_to 11000
  141.0304  133.6992  156.1421 LP  0  0  0  0  0  0  0  0  0  0  0  0  # atno 17395 bound_to 11000

$$$$
