AV-unprocessed.smi:2840|AV-procd|sdf|10932|dock3
  -GOLD-   2272015383D 1   1.00000     0.00000
 Structure written by MMmdl.
 36 37  0  0  0  0  0  0  0  0  1 V2000
  145.2967  143.4693  155.6751 C   0  0  0  0  0  0  0  0  0  0  0  0
  145.8903  142.1621  155.1228 C   0  0  1  0  0  0  0  0  0  0  0  0
  146.5797  142.3835  153.7605 C   0  0  0  0  0  0  0  0  0  0  0  0
  147.1152  141.0659  153.1782 C   0  0  0  0  0  0  0  0  0  0  0  0
  148.0656  140.3658  154.1606 C   0  0  0  0  0  0  0  0  0  0  0  0
  147.3902  140.1413  155.5248 C   0  0  0  0  0  0  0  0  0  0  0  0
  146.8355  141.4494  156.1245 C   0  0  1  0  0  0  0  0  0  0  0  0
  147.9445  142.3114  156.5402 N   0  0  0  0  0  0  0  0  0  0  0  0
  148.8945  142.0026  157.4356 C   0  0  0  0  0  0  0  0  0  0  0  0
  148.9295  140.9388  158.0546 O   0  0  0  0  0  0  0  0  0  0  0  0
  149.7853  143.0024  157.5579 N   0  0  0  0  0  0  0  0  0  0  0  0
  150.9467  143.0499  158.3744 C   0  0  0  0  0  0  0  0  0  0  0  0
  151.8689  144.0687  158.0441 C   0  0  0  0  0  0  0  0  0  0  0  0
  153.0572  144.1966  158.7894 C   0  0  0  0  0  0  0  0  0  0  0  0
  153.2922  143.3021  159.8486 C   0  0  0  0  0  0  0  0  0  0  0  0
  152.3217  142.3183  160.1133 C   0  0  0  0  0  0  0  0  0  0  0  0
  151.1828  142.1933  159.3997 N   0  0  0  0  0  0  0  0  0  0  0  0
  146.0615  144.2333  155.8147 H   0  0  0  0  0  0  0  0  0  0  0  0
  144.8110  143.3028  156.6371 H   0  0  0  0  0  0  0  0  0  0  0  0
  144.5477  143.8755  154.9950 H   0  0  0  0  0  0  0  0  0  0  0  0
  145.0488  141.4896  154.9496 H   0  0  0  0  0  0  0  0  0  0  0  0
  145.8770  142.8309  153.0568 H   0  0  0  0  0  0  0  0  0  0  0  0
  147.3993  143.0951  153.8686 H   0  0  0  0  0  0  0  0  0  0  0  0
  146.2801  140.4043  152.9445 H   0  0  0  0  0  0  0  0  0  0  0  0
  147.6301  141.2580  152.2365 H   0  0  0  0  0  0  0  0  0  0  0  0
  148.3885  139.4105  153.7458 H   0  0  0  0  0  0  0  0  0  0  0  0
  148.9677  140.9651  154.2873 H   0  0  0  0  0  0  0  0  0  0  0  0
  146.5726  139.4299  155.4021 H   0  0  0  0  0  0  0  0  0  0  0  0
  148.0929  139.6760  156.2174 H   0  0  0  0  0  0  0  0  0  0  0  0
  146.2491  141.1740  157.0028 H   0  0  0  0  0  0  0  0  0  0  0  0
  147.9983  143.2146  156.0926 H   0  0  0  0  0  0  0  0  0  0  0  0
  149.6248  143.8175  156.9851 H   0  0  0  0  0  0  0  0  0  0  0  0
  151.6728  144.7473  157.2266 H   0  0  0  0  0  0  0  0  0  0  0  0
  153.7756  144.9671  158.5512 H   0  0  0  0  0  0  0  0  0  0  0  0
  154.1916  143.3681  160.4426 H   0  0  0  0  0  0  0  0  0  0  0  0
  152.4635  141.6125  160.9185 H   0  0  0  0  0  0  0  0  0  0  0  0
  1  2  1  0  0  0  0
  1 18  1  0  0  0  0
  1 19  1  0  0  0  0
  1 20  1  0  0  0  0
  2  7  1  0  0  0  0
  2  3  1  0  0  0  0
  2 21  1  0  0  0  0
  3  4  1  0  0  0  0
  3 22  1  0  0  0  0
  3 23  1  0  0  0  0
  4  5  1  0  0  0  0
  4 24  1  0  0  0  0
  4 25  1  0  0  0  0
  5  6  1  0  0  0  0
  5 26  1  0  0  0  0
  5 27  1  0  0  0  0
  6  7  1  0  0  0  0
  6 28  1  0  0  0  0
  6 29  1  0  0  0  0
  7  8  1  0  0  0  0
  7 30  1  0  0  0  0
  8  9  1  0  0  0  0
  8 31  1  0  0  0  0
  9 10  2  0  0  0  0
  9 11  1  0  0  0  0
 11 12  1  0  0  0  0
 11 32  1  0  0  0  0
 12 17  1  0  0  0  0
 12 13  2  0  0  0  0
 13 14  1  0  0  0  0
 13 33  1  0  0  0  0
 14 15  2  0  0  0  0
 14 34  1  0  0  0  0
 15 16  1  0  0  0  0
 15 35  1  0  0  0  0
 16 17  2  0  0  0  0
 16 36  1  0  0  0  0
M  END
> <s_m_source_file>
AV-unprocessed.smi

> <i_m_source_file_index>
2840

> <i_lp_mmshare_version>
43012

> <i_f3d_flags>
0

> <s_epik_input>
W0NIM11bQ0BASF0xW0NIMl1bQ0gyXVtDSDJdW0NIMl1bQ0BIXTFbTkhdQyg9TylbTkhdYzJbY0hdW2NIXVtjSF1bY0hdbjI=

> <s_epik_cmdline>
J2VwaWtfcHl0aG9uJywgJy1waCcsICc3LjAnLCAnLXRuJywgJzgnLCAnLW1hJywgJzIwMCcsICctbWV0YWxfYmluZGluZycsICctaW1hZScsICc8aW5maWxlLm1hZT4nLCAnLW9tYWUnLCAnPG91dGZpbGUubWFlPic=

> <r_lp_tautomer_probability>
1

> <r_epik_Ionization_Penalty>
5.29956e-05

> <r_epik_Ionization_Penalty_Charging>
0

> <r_epik_Ionization_Penalty_Neutral>
5.29956e-05

> <r_epik_State_Penalty>
-0

> <r_epik_Charging_Adjusted_Penalty>
0

> <i_epik_Tot_Q>
0

> <i_epik_Tot_abs_Q>
0

> <r_epik_Metal_State_Penalty>
-0

> <b_epik_Metal_Only>
0

> <s_lp_Force_Field>
OPLS_2005

> <r_lp_Energy>
11.7155

> <b_lp_Chiralities_Consistent>
1

> <s_lp_Variant>
AV-unprocessed.smi:2840-2

> <Gold.Version>
5.8.1

> <Gold.Id.Protein>
6NUR|6NUR_protein|mol2

> <Gold.PLP.Fitness>
40.1127

> <Gold.PLP.PLP>
-34.2250

> <Gold.PLP.part.hbond>
-2.2482

> <Gold.PLP.part.metal>
0.0000

> <Gold.PLP.part.buried>
-5.2120

> <Gold.PLP.part.nonpolar>
-24.9026

> <Gold.PLP.part.repulsive>
0.0562

> <Gold.PLP.ligand.clash>
0.0000

> <Gold.PLP.ligand.torsion>
0.0597

> <Gold.PLP.Chemscore.Hbond>
2.0000

> <Gold.PLP.Chemscore.CHOScore>
0.0000

> <Gold.PLP.Chemscore.Metal>
0.0000

> <Gold.Chemscore.Hbonds>
donor molecule, donor type, donor heavy atom, donor atom, acceptor molecule, acceptor atom, score
      L1  H     8    31       P1  8028  1.00
      L1  H    11    32       P1  8028  1.00

> <Gold.PLP.Chemscore.Internal.Correction>
0.0071

> <Gold.Rescore>
     Score         DG    S(hbond)    S(metal)    S(lipo)     H(rot)  DE(clash)    DE(int)     intcor
     16.97     -18.40       1.68        0.00      84.33       1.00       0.07       1.36       ----

> <Gold.Chemscore.Fitness>
16.9714

> <Gold.Chemscore.DG>
-18.3981

> <Gold.Chemscore.ZeroCoef>
-5.4800

> <Gold.Chemscore.Hbond>
1.6803

> <Gold.Chemscore.Metal>
0.0000

> <Gold.Chemscore.Lipo>
84.3252

> <Gold.Chemscore.Internal_Hbond>
0.0000

> <Gold.Chemscore.DEClash>
0.0659

> <Gold.Chemscore.DEInternal>
1.3608

> <Gold.Chemscore.Rot>
1.0000

> <Gold.Chemscore.Internal.Correction>
   9.000000E+99

> <Gold.Chemscore.Hbonds>
donor molecule, donor type, donor heavy atom, donor atom, acceptor molecule, acceptor atom, score
      L1  H     8    31       P1  8028  0.38
      L1  H    11    32       P1  8028  0.87

> <Gold.Chemscore.Hbond.Weighted>
-5.6121

> <Gold.Chemscore.Metal.Weighted>
-0.0000

> <Gold.Chemscore.Lipo.Weighted>
-9.8660

> <Gold.Chemscore.Internal_Hbond.Weighted>
0.0000

> <Gold.Chemscore.DEClash.Weighted>
0.0659

> <Gold.Chemscore.DEInternal.Weighted>
1.3608

> <Gold.Chemscore.Rot.Weighted>
2.5600

> <Gold.Chemscore.Internal.Correction.Weighted>
   9.000000E+99

> <Gold.Protein.RotatedTorsions>
[ 6907 6896 6895 6894 ] final  108.01 input  -60.11 | X-H torsion
[ 7974 7965 7964 7962 ] final  -61.06 input  175.53 | X-H torsion
[ 8008 7997 7996 7995 ] final  108.58 input   59.86 | X-H torsion
[ 10167 10162 10161 10158 ] final -171.03 input  -65.29 | X-H torsion
[ 10718 10713 10712 10709 ] final  132.95 input   66.30 | X-H torsion
[ 10763 10752 10751 10750 ] final  178.55 input  -60.55 | X-H torsion
[ 11005 11000 10999 10996 ] final  -70.73 input  -57.11 | X-H torsion

> <Gold.Protein.ActiveResidues>
 VAL166  LYS551  ARG553  GLY616  TRP617  ASP618  TYR619  PRO620  LYS621  CYS622 
 ASP623  PHE694  ASN695  SER759  ASP760  ASP761  ALA762  ILE779  LEU786  VAL792 
 PHE793  MET794  SER795  GLU796  ALA797  LYS798  CYS799  TRP800  GLU811  SER814 

> <Gold.Protein.RotatedAtoms>
  152.5130  133.9151  159.7506 H   0  0  0  0  0  0  0  0  0  0  0  0  # atno 6907 bound_to 6896
  150.9535  133.6514  159.2774 H   0  0  0  0  0  0  0  0  0  0  0  0  # atno 6908 bound_to 6896
  151.3784  135.0940  159.9541 H   0  0  0  0  0  0  0  0  0  0  0  0  # atno 6909 bound_to 6896
  145.8080  140.8616  143.0197 H   0  0  0  0  0  0  0  0  0  0  0  0  # atno 7974 bound_to 7965
  156.1913  140.3074  155.9339 H   0  0  0  0  0  0  0  0  0  0  0  0  # atno 8008 bound_to 7997
  155.3166  140.0453  157.3054 H   0  0  0  0  0  0  0  0  0  0  0  0  # atno 8009 bound_to 7997
  154.5456  140.2275  155.8578 H   0  0  0  0  0  0  0  0  0  0  0  0  # atno 8010 bound_to 7997
  139.5826  144.1388  152.1535 H   0  0  0  0  0  0  0  0  0  0  0  0  # atno 10167 bound_to 10162
  157.4821  131.1086  150.9668 H   0  0  0  0  0  0  0  0  0  0  0  0  # atno 10718 bound_to 10713
  154.5091  135.2787  155.1358 H   0  0  0  0  0  0  0  0  0  0  0  0  # atno 10763 bound_to 10752
  154.2960  135.6257  153.5409 H   0  0  0  0  0  0  0  0  0  0  0  0  # atno 10764 bound_to 10752
  152.9915  135.5685  154.5552 H   0  0  0  0  0  0  0  0  0  0  0  0  # atno 10765 bound_to 10752
  141.1579  133.6798  156.6798 H   0  0  0  0  0  0  0  0  0  0  0  0  # atno 11005 bound_to 11000
  144.6761  140.0354  143.7482 LP  0  0  0  0  0  0  0  0  0  0  0  0  # atno 17320 bound_to 7965
  145.9808  139.2940  143.1043 LP  0  0  0  0  0  0  0  0  0  0  0  0  # atno 17321 bound_to 7965
  140.0945  144.5592  150.7031 LP  0  0  0  0  0  0  0  0  0  0  0  0  # atno 17342 bound_to 10162
  140.7103  143.2499  151.4602 LP  0  0  0  0  0  0  0  0  0  0  0  0  # atno 17343 bound_to 10162
  157.0397  130.5744  149.5354 LP  0  0  0  0  0  0  0  0  0  0  0  0  # atno 17370 bound_to 10713
  156.0127  130.5220  150.8039 LP  0  0  0  0  0  0  0  0  0  0  0  0  # atno 17371 bound_to 10713
  140.3111  134.8085  157.4177 LP  0  0  0  0  0  0  0  0  0  0  0  0  # atno 17394 bound_to 11000
  140.1178  134.5260  155.8210 LP  0  0  0  0  0  0  0  0  0  0  0  0  # atno 17395 bound_to 11000

$$$$
