#       Name:                AV-unprocessed.smi:1012
#       Creating user name   scv26
#       Creation time:       Fri Mar 27 02:37:25 2020


#       File generated by GOLD software.
#

@<TRIPOS>MOLECULE
AV-unprocessed.smi:1012
    50    52     1
SMALL
NO_CHARGES


@<TRIPOS>ATOM
      1 ****        -2.6907   4.3047   3.1641 C.3            1 S1                 0.0000
      2 ****        -1.9174   3.7497   2.1101 O.3            1 S1                 0.0000
      3 ****        -2.5733   3.1115   1.0765 C.ar           1 S1                 0.0000
      4 ****        -3.9859   2.9929   1.0088 C.ar           1 S1                 0.0000
      5 ****        -4.6017   2.3311  -0.0702 C.ar           1 S1                 0.0000
      6 ****        -3.8182   1.7789  -1.0979 C.ar           1 S1                 0.0000
      7 ****        -2.4177   1.8894  -1.0436 C.ar           1 S1                 0.0000
      8 ****        -1.7920   2.5480   0.0360 C.ar           1 S1                 0.0000
      9 ****        -0.2750   2.6463   0.0374 C.3            1 S1                 0.0000
     10 ****         0.3247   1.3619   0.0021 O.3            1 S1                 0.0000
     11 ****         1.7413   1.4148  -0.0369 C.3            1 S1                 0.0000
     12 ****         2.2938  -0.0172  -0.0699 C.3            1 S1                 0.0000
     13 ****         3.6954   0.0351   0.1095 O.3            1 S1                 0.0000
     14 ****         1.9629  -0.7480  -1.3857 C.3            1 S1                 0.0000
     15 ****         2.4211  -2.1252  -1.3806 N.pl3          1 S1                 0.0000
     16 ****         3.5408  -2.6158  -1.9462 C.2            1 S1                 0.0000
     17 ****         3.7682  -3.9198  -1.8150 N.2            1 S1                 0.0000
     18 ****         2.6678  -4.3227  -1.0779 C.ar           1 S1                 0.0000
     19 ****         2.3028  -5.6007  -0.5976 C.ar           1 S1                 0.0000
     20 ****         1.1150  -5.7737   0.1432 C.ar           1 S1                 0.0000
     21 ****         0.7802  -7.0052   0.5961 F              1 S1                 0.0000
     22 ****         0.2751  -4.6729   0.4145 C.ar           1 S1                 0.0000
     23 ****        -0.8638  -4.8483   1.1258 F              1 S1                 0.0000
     24 ****         0.6186  -3.3899  -0.0531 C.ar           1 S1                 0.0000
     25 ****         1.8045  -3.2228  -0.7914 C.ar           1 S1                 0.0000
     26 ****        -2.0242   4.7593   3.8970 H              1 S1                 0.0000
     27 ****        -3.2717   3.5387   3.6795 H              1 S1                 0.0000
     28 ****        -3.3604   5.0849   2.7999 H              1 S1                 0.0000
     29 ****        -4.6255   3.4033   1.7751 H              1 S1                 0.0000
     30 ****        -5.6779   2.2481  -0.1087 H              1 S1                 0.0000
     31 ****        -4.2902   1.2724  -1.9269 H              1 S1                 0.0000
     32 ****        -1.8193   1.4650  -1.8366 H              1 S1                 0.0000
     33 ****         0.0269   3.2162  -0.8427 H              1 S1                 0.0000
     34 ****         0.0890   3.1934   0.9072 H              1 S1                 0.0000
     35 ****         2.0803   1.9775  -0.9085 H              1 S1                 0.0000
     36 ****         2.1055   1.9338   0.8515 H              1 S1                 0.0000
     37 ****         1.8779  -0.5735   0.7713 H              1 S1                 0.0000
     38 ****         4.0706   0.5358  -0.5985 H              1 S1                 0.0000
     39 ****         0.8854  -0.7520  -1.5555 H              1 S1                 0.0000
     40 ****         2.4099  -0.2311  -2.2361 H              1 S1                 0.0000
     41 ****         4.2298  -1.9791  -2.4819 H              1 S1                 0.0000
     42 ****         2.9380  -6.4504  -0.7989 H              1 S1                 0.0000
     43 ****        -0.0207  -2.5445   0.1536 H              1 S1                 0.0000
     44 ****        -1.2945   3.0835   2.5203 LP             1 S1                 0.0000
     45 ****        -1.3884   4.4966   1.7073 LP             1 S1                 0.0000
     46 ****         0.0009   0.8809  -0.8126 LP             1 S1                 0.0000
     47 ****         0.0467   0.8574   0.8196 LP             1 S1                 0.0000
     48 ****         4.0709  -0.8917   0.1030 LP             1 S1                 0.0000
     49 ****         3.9074   0.4745   0.9825 LP             1 S1                 0.0000
     50 ****         4.5327  -4.4654  -2.1583 LP             1 S1                 0.0000
@<TRIPOS>BOND
    1    1    2 1     
    2    1   26 1     
    3    1   27 1     
    4    1   28 1     
    5    2    3 1     
    6    3    8 ar    
    7    3    4 ar    
    8    4    5 ar    
    9    4   29 1     
   10    5    6 ar    
   11    5   30 1     
   12    6    7 ar    
   13    6   31 1     
   14    7    8 ar    
   15    7   32 1     
   16    8    9 1     
   17    9   10 1     
   18    9   33 1     
   19    9   34 1     
   20   10   11 1     
   21   11   12 1     
   22   11   35 1     
   23   11   36 1     
   24   12   13 1     
   25   12   14 1     
   26   12   37 1     
   27   13   38 1     
   28   14   15 1     
   29   14   39 1     
   30   14   40 1     
   31   15   25 1     
   32   15   16 1     
   33   16   17 2     
   34   16   41 1     
   35   17   18 1     
   36   18   25 ar    
   37   18   19 ar    
   38   19   20 ar    
   39   19   42 1     
   40   20   21 1     
   41   20   22 ar    
   42   22   23 1     
   43   22   24 ar    
   44   24   25 ar    
   45   24   43 1     
   46    2   44 1     
   47    2   45 1     
   48   10   46 1     
   49   10   47 1     
   50   13   48 1     
   51   13   49 1     
   52   17   50 1     
@<TRIPOS>SUBSTRUCTURE
      1 S1             1
@<TRIPOS>SET
LONE_PAIRS      STATIC     ATOMS    <user>   **** ""
7 44 45 46 47 48 49 50
DONOR_HYDROGENS      STATIC     ATOMS    <user>   **** ""
1 38
ATOM$BLUE        STATIC     ATOMS    COLORGROUP SYSTEM
7 44 45 46 47 48 49 50
ATOM$RED        STATIC     ATOMS    COLORGROUP SYSTEM
1 38
