AV-unprocessed.smi:263|AV-procd|sdf|2006|dock8
  -GOLD-   2262021203D 1   1.00000     0.00000
 Structure written by MMmdl.
 57 61  0  0  0  0  0  0  0  0  1 V2000
  152.5454  137.8082  157.2551 O   0  0  0  0  0  0  0  0  0  0  0  0
  151.3126  137.5764  156.5959 C   0  0  0  0  0  0  0  0  0  0  0  0
  150.6695  136.3111  157.2166 C   0  0  0  0  0  0  0  0  0  0  0  0
  149.7693  135.6015  156.3202 N   0  0  0  0  0  0  0  0  0  0  0  0
  148.5665  136.0556  155.8278 C   0  0  0  0  0  0  0  0  0  0  0  0
  147.9391  135.2260  155.0397 N   0  0  0  0  0  0  0  0  0  0  0  0
  148.7700  134.1127  154.9857 C   0  0  0  0  0  0  0  0  0  0  0  0
  148.6986  132.8525  154.3266 C   0  0  0  0  0  0  0  0  0  0  0  0
  147.6673  132.5040  153.5147 N   0  0  0  0  0  0  0  0  0  0  0  0
  147.5749  131.1019  153.1016 C   0  0  0  0  0  0  0  0  0  0  0  0
  146.1961  130.7871  152.4903 C   0  0  0  0  0  0  0  0  0  0  0  0
  145.8305  131.7665  151.3552 C   0  0  1  0  0  0  0  0  0  0  0  0
  146.7399  131.5441  150.2893 O   0  0  0  0  0  0  0  0  0  0  0  0
  144.4056  131.5096  150.8159 C   0  0  0  0  0  0  0  0  0  0  0  0
  143.9810  132.5509  149.7625 C   0  0  0  0  0  0  0  0  0  0  0  0
  144.1297  133.9863  150.2919 C   0  0  0  0  0  0  0  0  0  0  0  0
  145.5539  134.2515  150.8072 C   0  0  0  0  0  0  0  0  0  0  0  0
  145.9541  133.2205  151.8803 C   0  0  2  0  0  0  0  0  0  0  0  0
  147.3497  133.4863  152.4776 C   0  0  0  0  0  0  0  0  0  0  0  0
  149.7209  131.9799  154.5371 N   0  0  0  0  0  0  0  0  0  0  0  0
  150.7444  132.3149  155.3278 C   0  0  0  0  0  0  0  0  0  0  0  0
  150.9438  133.4509  155.9984 N   0  0  0  0  0  0  0  0  0  0  0  0
  149.9207  134.3296  155.7959 C   0  0  0  0  0  0  0  0  0  0  0  0
  150.4045  138.8032  156.8159 C   0  0  0  0  0  0  0  0  0  0  0  0
  150.9180  140.0473  156.0694 C   0  0  0  0  0  0  0  0  0  0  0  0
  151.0636  139.7566  154.6849 O   0  0  0  0  0  0  0  0  0  0  0  0
  152.0317  138.7446  154.4367 C   0  0  0  0  0  0  0  0  0  0  0  0
  151.5921  137.4194  155.0849 C   0  0  0  0  0  0  0  0  0  0  0  0
  152.9393  136.9738  157.4603 H   0  0  0  0  0  0  0  0  0  0  0  0
  151.4432  135.6154  157.5444 H   0  0  0  0  0  0  0  0  0  0  0  0
  150.1073  136.5798  158.1120 H   0  0  0  0  0  0  0  0  0  0  0  0
  148.1681  137.0303  156.0701 H   0  0  0  0  0  0  0  0  0  0  0  0
  148.3627  130.8866  152.3783 H   0  0  0  0  0  0  0  0  0  0  0  0
  147.7427  130.4494  153.9595 H   0  0  0  0  0  0  0  0  0  0  0  0
  146.1762  129.7578  152.1298 H   0  0  0  0  0  0  0  0  0  0  0  0
  145.4423  130.8473  153.2765 H   0  0  0  0  0  0  0  0  0  0  0  0
  147.5907  131.3594  150.6564 H   0  0  0  0  0  0  0  0  0  0  0  0
  144.3347  130.5063  150.3934 H   0  0  0  0  0  0  0  0  0  0  0  0
  143.6952  131.5401  151.6432 H   0  0  0  0  0  0  0  0  0  0  0  0
  144.5833  132.4310  148.8613 H   0  0  0  0  0  0  0  0  0  0  0  0
  142.9478  132.3722  149.4636 H   0  0  0  0  0  0  0  0  0  0  0  0
  143.8800  134.7000  149.5062 H   0  0  0  0  0  0  0  0  0  0  0  0
  143.4137  134.1523  151.0977 H   0  0  0  0  0  0  0  0  0  0  0  0
  146.2590  134.2217  149.9754 H   0  0  0  0  0  0  0  0  0  0  0  0
  145.6090  135.2591  151.2207 H   0  0  0  0  0  0  0  0  0  0  0  0
  145.2414  133.3326  152.6997 H   0  0  0  0  0  0  0  0  0  0  0  0
  147.3805  134.5007  152.8733 H   0  0  0  0  0  0  0  0  0  0  0  0
  148.1122  133.4360  151.6994 H   0  0  0  0  0  0  0  0  0  0  0  0
  151.5142  131.5654  155.4381 H   0  0  0  0  0  0  0  0  0  0  0  0
  149.4000  138.5772  156.4554 H   0  0  0  0  0  0  0  0  0  0  0  0
  150.3039  139.0208  157.8801 H   0  0  0  0  0  0  0  0  0  0  0  0
  150.2084  140.8670  156.1816 H   0  0  0  0  0  0  0  0  0  0  0  0
  151.8664  140.3931  156.4832 H   0  0  0  0  0  0  0  0  0  0  0  0
  152.1345  138.6153  153.3591 H   0  0  0  0  0  0  0  0  0  0  0  0
  153.0078  139.0590  154.8093 H   0  0  0  0  0  0  0  0  0  0  0  0
  152.3517  136.6579  154.9062 H   0  0  0  0  0  0  0  0  0  0  0  0
  150.6861  137.0725  154.5862 H   0  0  0  0  0  0  0  0  0  0  0  0
  1  2  1  0  0  0  0
  1 29  1  0  0  0  0
  2 28  1  0  0  0  0
  2  3  1  0  0  0  0
  2 24  1  0  0  0  0
  3  4  1  0  0  0  0
  3 30  1  0  0  0  0
  3 31  1  0  0  0  0
  4 23  1  0  0  0  0
  4  5  1  0  0  0  0
  5  6  2  0  0  0  0
  5 32  1  0  0  0  0
  6  7  1  0  0  0  0
  7 23  2  0  0  0  0
  7  8  1  0  0  0  0
  8  9  1  0  0  0  0
  8 20  2  0  0  0  0
  9 19  1  0  0  0  0
  9 10  1  0  0  0  0
 10 11  1  0  0  0  0
 10 33  1  0  0  0  0
 10 34  1  0  0  0  0
 11 12  1  0  0  0  0
 11 35  1  0  0  0  0
 11 36  1  0  0  0  0
 12 18  1  0  0  0  0
 12 13  1  0  0  0  0
 12 14  1  0  0  0  0
 13 37  1  0  0  0  0
 14 15  1  0  0  0  0
 14 38  1  0  0  0  0
 14 39  1  0  0  0  0
 15 16  1  0  0  0  0
 15 40  1  0  0  0  0
 15 41  1  0  0  0  0
 16 17  1  0  0  0  0
 16 42  1  0  0  0  0
 16 43  1  0  0  0  0
 17 18  1  0  0  0  0
 17 44  1  0  0  0  0
 17 45  1  0  0  0  0
 18 19  1  0  0  0  0
 18 46  1  0  0  0  0
 19 47  1  0  0  0  0
 19 48  1  0  0  0  0
 20 21  1  0  0  0  0
 21 22  2  0  0  0  0
 21 49  1  0  0  0  0
 22 23  1  0  0  0  0
 24 25  1  0  0  0  0
 24 50  1  0  0  0  0
 24 51  1  0  0  0  0
 25 26  1  0  0  0  0
 25 52  1  0  0  0  0
 25 53  1  0  0  0  0
 26 27  1  0  0  0  0
 27 28  1  0  0  0  0
 27 54  1  0  0  0  0
 27 55  1  0  0  0  0
 28 56  1  0  0  0  0
 28 57  1  0  0  0  0
M  END
> <s_m_source_file>
AV-unprocessed.smi

> <i_m_source_file_index>
263

> <i_lp_mmshare_version>
43012

> <i_f3d_flags>
0

> <s_epik_input>
W0NIMl0xW0NIMl1PW0NIMl1bQ0gyXUMxKFtPSF0pW0NIMl1uKFtjSF1uMiljKGMyMyluW2NIXW5jM04oW0NIMl1bQ0gyXTQpW0NIMl1bQ0BASF0oW0NAXTQ1W09IXSlbQ0gyXVtDSDJdW0NIMl1bQ0gyXTU=

> <s_epik_cmdline>
J2VwaWtfcHl0aG9uJywgJy1waCcsICc3LjAnLCAnLXRuJywgJzgnLCAnLW1hJywgJzIwMCcsICctbWV0YWxfYmluZGluZycsICctaW1hZScsICc8aW5maWxlLm1hZT4nLCAnLW9tYWUnLCAnPG91dGZpbGUubWFlPic=

> <r_lp_tautomer_probability>
1

> <r_epik_Ionization_Penalty>
0.00747493

> <r_epik_Ionization_Penalty_Charging>
0

> <r_epik_Ionization_Penalty_Neutral>
0.00747493

> <r_epik_State_Penalty>
0.00549307

> <r_epik_Charging_Adjusted_Penalty>
0.00549307

> <i_epik_Tot_Q>
0

> <i_epik_Tot_abs_Q>
0

> <r_epik_Metal_State_Penalty>
-0

> <b_epik_Metal_Only>
0

> <s_lp_Force_Field>
OPLS_2005

> <r_lp_Energy>
38.115

> <b_lp_Chiralities_Consistent>
1

> <s_lp_Variant>
AV-unprocessed.smi:263-4

> <Gold.Version>
5.8.1

> <Gold.Id.Protein>
6NUR|6NUR_protein|mol2

> <Gold.PLP.Fitness>
45.3837

> <Gold.PLP.PLP>
-40.9305

> <Gold.PLP.part.hbond>
-1.3523

> <Gold.PLP.part.metal>
0.0000

> <Gold.PLP.part.buried>
-6.1608

> <Gold.PLP.part.nonpolar>
-33.1303

> <Gold.PLP.part.repulsive>
0.2917

> <Gold.PLP.ligand.clash>
0.0000

> <Gold.PLP.ligand.torsion>
0.6942

> <Gold.PLP.Chemscore.Hbond>
1.8160

> <Gold.PLP.Chemscore.CHOScore>
0.0000

> <Gold.PLP.Chemscore.Metal>
0.0000

> <Gold.Chemscore.Hbonds>
donor molecule, donor type, donor heavy atom, donor atom, acceptor molecule, acceptor atom, score
      L1  H    13    37       P1 10747  0.80
      P1  H  7989  7998       L1    26  0.80

> <Gold.PLP.Chemscore.Internal.Correction>
0.3935

> <Gold.Rescore>
     Score         DG    S(hbond)    S(metal)    S(lipo)     H(rot)  DE(clash)    DE(int)     intcor
     14.13     -16.24       1.73        0.00     100.03       2.62       1.47       0.65       ----

> <Gold.Chemscore.Fitness>
14.1250

> <Gold.Chemscore.DG>
-16.2429

> <Gold.Chemscore.ZeroCoef>
-5.4800

> <Gold.Chemscore.Hbond>
1.7289

> <Gold.Chemscore.Metal>
0.0000

> <Gold.Chemscore.Lipo>
100.0329

> <Gold.Chemscore.Internal_Hbond>
0.0000

> <Gold.Chemscore.DEClash>
1.4728

> <Gold.Chemscore.DEInternal>
0.6450

> <Gold.Chemscore.Rot>
2.6232

> <Gold.Chemscore.Internal.Correction>
   9.000000E+99

> <Gold.Chemscore.Hbonds>
donor molecule, donor type, donor heavy atom, donor atom, acceptor molecule, acceptor atom, score
      L1  H    13    37       P1 10747  0.74
      P1  H  7989  7998       L1    26  0.12

> <Gold.Chemscore.Hbond.Weighted>
-5.7745

> <Gold.Chemscore.Metal.Weighted>
-0.0000

> <Gold.Chemscore.Lipo.Weighted>
-11.7039

> <Gold.Chemscore.Internal_Hbond.Weighted>
0.0000

> <Gold.Chemscore.DEClash.Weighted>
1.4728

> <Gold.Chemscore.DEInternal.Weighted>
0.6450

> <Gold.Chemscore.Rot.Weighted>
6.7155

> <Gold.Chemscore.Internal.Correction.Weighted>
   9.000000E+99

> <Gold.Protein.RotatedTorsions>
[ 6907 6896 6895 6894 ] final   99.18 input  -60.11 | X-H torsion
[ 7974 7965 7964 7962 ] final  121.83 input  175.53 | X-H torsion
[ 8008 7997 7996 7995 ] final  -91.98 input   59.86 | X-H torsion
[ 10167 10162 10161 10158 ] final   20.01 input  -65.29 | X-H torsion
[ 10718 10713 10712 10709 ] final  -70.87 input   66.30 | X-H torsion
[ 10763 10752 10751 10750 ] final -134.27 input  -60.55 | X-H torsion
[ 11005 11000 10999 10996 ] final  -65.75 input  -57.11 | X-H torsion

> <Gold.Protein.ActiveResidues>
 VAL166  LYS551  ARG553  GLY616  TRP617  ASP618  TYR619  PRO620  LYS621  CYS622 
 ASP623  PHE694  ASN695  SER759  ASP760  ASP761  ALA762  ILE779  LEU786  VAL792 
 PHE793  MET794  SER795  GLU796  ALA797  LYS798  CYS799  TRP800  GLU811  SER814 

> <Gold.Protein.RotatedAtoms>
  152.5396  134.0468  159.8091 H   0  0  0  0  0  0  0  0  0  0  0  0  # atno 6907 bound_to 6896
  151.0615  133.5532  159.2641 H   0  0  0  0  0  0  0  0  0  0  0  0  # atno 6908 bound_to 6896
  151.2429  135.0603  159.9086 H   0  0  0  0  0  0  0  0  0  0  0  0  # atno 6909 bound_to 6896
  145.1147  139.3429  143.4745 H   0  0  0  0  0  0  0  0  0  0  0  0  # atno 7974 bound_to 7965
  154.7174  140.0514  157.0608 H   0  0  0  0  0  0  0  0  0  0  0  0  # atno 8008 bound_to 7997
  155.0472  140.3175  155.4685 H   0  0  0  0  0  0  0  0  0  0  0  0  # atno 8009 bound_to 7997
  156.2807  140.2122  156.5597 H   0  0  0  0  0  0  0  0  0  0  0  0  # atno 8010 bound_to 7997
  140.5536  143.9465  150.6594 H   0  0  0  0  0  0  0  0  0  0  0  0  # atno 10167 bound_to 10162
  156.0388  130.4340  150.2359 H   0  0  0  0  0  0  0  0  0  0  0  0  # atno 10718 bound_to 10713
  154.8721  135.3740  154.4708 H   0  0  0  0  0  0  0  0  0  0  0  0  # atno 10763 bound_to 10752
  153.5368  135.7027  153.5661 H   0  0  0  0  0  0  0  0  0  0  0  0  # atno 10764 bound_to 10752
  153.3840  135.3989  155.1842 H   0  0  0  0  0  0  0  0  0  0  0  0  # atno 10765 bound_to 10752
  141.1463  133.6687  156.6034 H   0  0  0  0  0  0  0  0  0  0  0  0  # atno 11005 bound_to 11000
  146.3524  140.1081  142.8605 LP  0  0  0  0  0  0  0  0  0  0  0  0  # atno 17320 bound_to 7965
  145.0807  140.9219  143.4827 LP  0  0  0  0  0  0  0  0  0  0  0  0  # atno 17321 bound_to 7965
  140.2897  143.3332  152.1074 LP  0  0  0  0  0  0  0  0  0  0  0  0  # atno 17342 bound_to 10162
  139.5038  144.6763  151.6121 LP  0  0  0  0  0  0  0  0  0  0  0  0  # atno 17343 bound_to 10162
  157.0456  131.0048  151.3270 LP  0  0  0  0  0  0  0  0  0  0  0  0  # atno 17370 bound_to 10713
  157.5178  130.7979  149.7775 LP  0  0  0  0  0  0  0  0  0  0  0  0  # atno 17371 bound_to 10713
  140.3671  134.7638  157.4573 LP  0  0  0  0  0  0  0  0  0  0  0  0  # atno 17394 bound_to 11000
  140.0739  134.5824  155.8612 LP  0  0  0  0  0  0  0  0  0  0  0  0  # atno 17395 bound_to 11000

$$$$
