AV-unprocessed.smi:835|AV-procd|sdf|3889|dock4
  -GOLD-   22720 1343D 1   1.00000     0.00000
 Structure written by MMmdl.
 41 43  0  0  0  0  0  0  0  0  2 V2000
  153.9505  141.2453  161.0404 C   0  0  0  0  0  0  0  0  0  0  0  0
  153.0907  141.9729  160.0495 C   0  0  0  0  0  0  0  0  0  0  0  0
  151.9484  141.4829  159.3521 C   0  0  0  0  0  0  0  0  0  0  0  0
  151.5722  142.5597  158.5968 C   0  0  0  0  0  0  0  0  0  0  0  0
  150.5413  142.6662  157.7169 N   0  0  0  0  0  0  0  0  0  0  0  0
  149.9663  141.6983  156.9819 C   0  0  0  0  0  0  0  0  0  0  0  0
  150.2822  140.5085  156.9941 O   0  0  0  0  0  0  0  0  0  0  0  0
  148.9752  142.1871  156.2231 N   0  0  0  0  0  0  0  0  0  0  0  0
  148.1417  141.3846  155.3343 C   0  0  1  0  0  0  0  0  0  0  0  0
  147.3856  142.1863  154.2794 C   0  0  0  0  0  0  0  0  0  0  0  0
  147.0585  141.1235  153.2248 C   0  0  0  0  0  0  0  0  0  0  0  0
  148.1185  140.0884  153.3176 N   0  3  2  0  0  0  0  0  0  0  0  0
  147.5931  138.7060  153.3513 C   0  0  0  0  0  0  0  0  0  0  0  0
  146.4226  138.4817  152.4240 C   0  0  0  0  0  0  0  0  0  0  0  0
  146.1958  138.6051  153.9152 C   0  0  0  0  0  0  0  0  0  0  0  0
  148.9708  140.4277  154.4788 C   0  0  0  0  0  0  0  0  0  0  0  0
  152.4437  143.5985  158.8370 N   0  0  0  0  0  0  0  0  0  0  0  0
  152.4620  144.9348  158.2743 C   0  0  0  0  0  0  0  0  0  0  0  0
  153.3801  143.2316  159.7385 N   0  0  0  0  0  0  0  0  0  0  0  0
  153.5767  140.2373  161.2211 H   0  0  0  0  0  0  0  0  0  0  0  0
  153.9738  141.7661  161.9979 H   0  0  0  0  0  0  0  0  0  0  0  0
  154.9763  141.1591  160.6814 H   0  0  0  0  0  0  0  0  0  0  0  0
  151.5005  140.5021  159.4080 H   0  0  0  0  0  0  0  0  0  0  0  0
  150.1474  143.5911  157.6268 H   0  0  0  0  0  0  0  0  0  0  0  0
  148.7815  143.1769  156.2693 H   0  0  0  0  0  0  0  0  0  0  0  0
  147.4313  140.8017  155.9247 H   0  0  0  0  0  0  0  0  0  0  0  0
  146.4954  142.6777  154.6738 H   0  0  0  0  0  0  0  0  0  0  0  0
  148.0322  142.9524  153.8485 H   0  0  0  0  0  0  0  0  0  0  0  0
  146.0837  140.6847  153.4444 H   0  0  0  0  0  0  0  0  0  0  0  0
  147.0086  141.5449  152.2204 H   0  0  0  0  0  0  0  0  0  0  0  0
  148.3196  137.9142  153.5262 H   0  0  0  0  0  0  0  0  0  0  0  0
  146.0978  139.3085  151.7950 H   0  0  0  0  0  0  0  0  0  0  0  0
  146.3134  137.4925  151.9842 H   0  0  0  0  0  0  0  0  0  0  0  0
  145.9375  137.6974  154.4569 H   0  0  0  0  0  0  0  0  0  0  0  0
  145.7196  139.5142  154.2781 H   0  0  0  0  0  0  0  0  0  0  0  0
  149.8634  140.9297  154.1020 H   0  0  0  0  0  0  0  0  0  0  0  0
  149.2990  139.5486  155.0357 H   0  0  0  0  0  0  0  0  0  0  0  0
  151.4912  145.4084  158.4216 H   0  0  0  0  0  0  0  0  0  0  0  0
  152.6735  144.8788  157.2065 H   0  0  0  0  0  0  0  0  0  0  0  0
  153.2276  145.5442  158.7564 H   0  0  0  0  0  0  0  0  0  0  0  0
  148.6983  140.1652  152.4941 H   0  0  0  0  0  0  0  0  0  0  0  0
  1  2  1  0  0  0  0
  1 20  1  0  0  0  0
  1 21  1  0  0  0  0
  1 22  1  0  0  0  0
  2 19  2  0  0  0  0
  2  3  1  0  0  0  0
  3  4  2  0  0  0  0
  3 23  1  0  0  0  0
  4  5  1  0  0  0  0
  4 17  1  0  0  0  0
  5  6  1  0  0  0  0
  5 24  1  0  0  0  0
  6  7  2  0  0  0  0
  6  8  1  0  0  0  0
  8  9  1  0  0  0  0
  8 25  1  0  0  0  0
  9 16  1  0  0  0  0
  9 10  1  0  0  0  0
  9 26  1  0  0  0  0
 10 11  1  0  0  0  0
 10 27  1  0  0  0  0
 10 28  1  0  0  0  0
 11 12  1  0  0  0  0
 11 29  1  0  0  0  0
 11 30  1  0  0  0  0
 12 13  1  0  0  0  0
 12 16  1  0  0  0  0
 12 41  1  0  0  0  0
 13 15  1  0  0  0  0
 13 14  1  0  0  0  0
 13 31  1  0  0  0  0
 14 15  1  0  0  0  0
 14 32  1  0  0  0  0
 14 33  1  0  0  0  0
 15 34  1  0  0  0  0
 15 35  1  0  0  0  0
 16 36  1  0  0  0  0
 16 37  1  0  0  0  0
 17 18  1  0  0  0  0
 17 19  1  0  0  0  0
 18 38  1  0  0  0  0
 18 39  1  0  0  0  0
 18 40  1  0  0  0  0
M  CHG  1  12   1
M  END
> <s_m_source_file>
AV-unprocessed.smi

> <i_m_source_file_index>
835

> <i_lp_mmshare_version>
43012

> <i_f3d_flags>
0

> <s_epik_input>
W0NIM11jMVtjSF1jKG4objEpW0NIM10pW05IXUMoPU8pW05IXVtDQEBIXTJbQ0gyXVtDSDJdTihbQ0gyXTIpW0NIXTNbQ0gyXVtDSDJdMw==

> <s_epik_cmdline>
J2VwaWtfcHl0aG9uJywgJy1waCcsICc3LjAnLCAnLXRuJywgJzgnLCAnLW1hJywgJzIwMCcsICctbWV0YWxfYmluZGluZycsICctaW1hZScsICc8aW5maWxlLm1hZT4nLCAnLW9tYWUnLCAnPG91dGZpbGUubWFlPic=

> <r_lp_tautomer_probability>
1

> <r_epik_Ionization_Penalty>
0.000700689

> <r_epik_Ionization_Penalty_Charging>
0.000627528

> <r_epik_Ionization_Penalty_Neutral>
7.31611e-05

> <r_epik_State_Penalty>
0.00039643

> <r_epik_Charging_Adjusted_Penalty>
0.00102396

> <i_epik_Tot_Q>
1

> <i_epik_Tot_abs_Q>
1

> <r_epik_Metal_State_Penalty>
-0

> <b_epik_Metal_Only>
0

> <s_lp_Force_Field>
OPLS_2005

> <r_lp_Energy>
38.983

> <b_lp_Chiralities_Consistent>
1

> <s_lp_Variant>
AV-unprocessed.smi:835-4

> <Gold.Version>
5.8.1

> <Gold.Id.Protein>
6NUR|6NUR_protein|mol2

> <Gold.PLP.Fitness>
46.3328

> <Gold.PLP.PLP>
-41.1104

> <Gold.PLP.part.hbond>
-1.9626

> <Gold.PLP.part.metal>
0.0000

> <Gold.PLP.part.buried>
-4.7488

> <Gold.PLP.part.nonpolar>
-34.5957

> <Gold.PLP.part.repulsive>
0.2298

> <Gold.PLP.ligand.clash>
0.0000

> <Gold.PLP.ligand.torsion>
1.0092

> <Gold.PLP.Chemscore.Hbond>
1.9913

> <Gold.PLP.Chemscore.CHOScore>
0.0000

> <Gold.PLP.Chemscore.Metal>
0.0000

> <Gold.Chemscore.Hbonds>
donor molecule, donor type, donor heavy atom, donor atom, acceptor molecule, acceptor atom, score
      L1  H     8    25       P1  8028  1.00
      L1  H    12    41       P1  7957  1.00

> <Gold.PLP.Chemscore.Internal.Correction>
1.2671

> <Gold.Rescore>
     Score         DG    S(hbond)    S(metal)    S(lipo)     H(rot)  DE(clash)    DE(int)     intcor
     17.14     -20.17       2.28        0.00      87.27       1.22       0.37       2.66       ----

> <Gold.Chemscore.Fitness>
17.1353

> <Gold.Chemscore.DG>
-20.1671

> <Gold.Chemscore.ZeroCoef>
-5.4800

> <Gold.Chemscore.Hbond>
2.2751

> <Gold.Chemscore.Metal>
0.0000

> <Gold.Chemscore.Lipo>
87.2688

> <Gold.Chemscore.Internal_Hbond>
0.0000

> <Gold.Chemscore.DEClash>
0.3681

> <Gold.Chemscore.DEInternal>
2.6637

> <Gold.Chemscore.Rot>
1.2196

> <Gold.Chemscore.Internal.Correction>
   9.000000E+99

> <Gold.Chemscore.Hbonds>
donor molecule, donor type, donor heavy atom, donor atom, acceptor molecule, acceptor atom, score
      L1  H     8    25       P1  8028  0.94
      L1  H    12    41       P1  7957  0.99

> <Gold.Chemscore.Hbond.Weighted>
-7.5990

> <Gold.Chemscore.Metal.Weighted>
-0.0000

> <Gold.Chemscore.Lipo.Weighted>
-10.2104

> <Gold.Chemscore.Internal_Hbond.Weighted>
0.0000

> <Gold.Chemscore.DEClash.Weighted>
0.3681

> <Gold.Chemscore.DEInternal.Weighted>
2.6637

> <Gold.Chemscore.Rot.Weighted>
3.1223

> <Gold.Chemscore.Internal.Correction.Weighted>
   9.000000E+99

> <Gold.Protein.RotatedTorsions>
[ 6907 6896 6895 6894 ] final -116.50 input  -60.11 | X-H torsion
[ 7974 7965 7964 7962 ] final  152.95 input  175.53 | X-H torsion
[ 8008 7997 7996 7995 ] final  -57.28 input   59.86 | X-H torsion
[ 10167 10162 10161 10158 ] final  156.42 input  -65.29 | X-H torsion
[ 10718 10713 10712 10709 ] final -106.57 input   66.30 | X-H torsion
[ 10763 10752 10751 10750 ] final   95.35 input  -60.55 | X-H torsion
[ 11005 11000 10999 10996 ] final   19.50 input  -57.11 | X-H torsion

> <Gold.Protein.ActiveResidues>
 VAL166  LYS551  ARG553  GLY616  TRP617  ASP618  TYR619  PRO620  LYS621  CYS622 
 ASP623  PHE694  ASN695  SER759  ASP760  ASP761  ALA762  ILE779  LEU786  VAL792 
 PHE793  MET794  SER795  GLU796  ALA797  LYS798  CYS799  TRP800  GLU811  SER814 

> <Gold.Protein.RotatedAtoms>
  150.8061  133.8508  159.3204 H   0  0  0  0  0  0  0  0  0  0  0  0  # atno 6907 bound_to 6896
  151.6307  135.1021  160.0130 H   0  0  0  0  0  0  0  0  0  0  0  0  # atno 6908 bound_to 6896
  152.4151  133.6985  159.6467 H   0  0  0  0  0  0  0  0  0  0  0  0  # atno 6909 bound_to 6896
  144.8187  139.6736  143.6110 H   0  0  0  0  0  0  0  0  0  0  0  0  # atno 7974 bound_to 7965
  154.4262  140.1110  156.5773 H   0  0  0  0  0  0  0  0  0  0  0  0  # atno 8008 bound_to 7997
  155.6150  140.3494  155.4615 H   0  0  0  0  0  0  0  0  0  0  0  0  # atno 8009 bound_to 7997
  156.0069  140.1211  157.0481 H   0  0  0  0  0  0  0  0  0  0  0  0  # atno 8010 bound_to 7997
  139.4821  144.5010  151.8168 H   0  0  0  0  0  0  0  0  0  0  0  0  # atno 10167 bound_to 10162
  156.0396  130.5619  150.7699 H   0  0  0  0  0  0  0  0  0  0  0  0  # atno 10718 bound_to 10713
  153.2522  135.4257  155.0809 H   0  0  0  0  0  0  0  0  0  0  0  0  # atno 10763 bound_to 10752
  154.8386  135.3428  154.6496 H   0  0  0  0  0  0  0  0  0  0  0  0  # atno 10764 bound_to 10752
  153.6917  135.7033  153.5145 H   0  0  0  0  0  0  0  0  0  0  0  0  # atno 10765 bound_to 10752
  140.4130  134.1598  155.7668 H   0  0  0  0  0  0  0  0  0  0  0  0  # atno 11005 bound_to 11000
  146.2492  139.6162  142.9439 LP  0  0  0  0  0  0  0  0  0  0  0  0  # atno 17320 bound_to 7965
  145.5154  141.0434  143.2464 LP  0  0  0  0  0  0  0  0  0  0  0  0  # atno 17321 bound_to 7965
  140.4503  144.1864  150.5897 LP  0  0  0  0  0  0  0  0  0  0  0  0  # atno 17342 bound_to 10162
  140.4591  143.2456  151.9244 LP  0  0  0  0  0  0  0  0  0  0  0  0  # atno 17343 bound_to 10162
  157.5195  131.0930  151.0096 LP  0  0  0  0  0  0  0  0  0  0  0  0  # atno 17370 bound_to 10713
  157.0430  130.5757  149.5359 LP  0  0  0  0  0  0  0  0  0  0  0  0  # atno 17371 bound_to 10713
  141.1814  133.8406  157.1245 LP  0  0  0  0  0  0  0  0  0  0  0  0  # atno 17394 bound_to 11000
  140.0254  134.9926  157.0675 LP  0  0  0  0  0  0  0  0  0  0  0  0  # atno 17395 bound_to 11000

$$$$
