AV-unprocessed.smi:1005|AV-procd|sdf|4377|dock1
  -GOLD-   22720 2293D 1   1.00000     0.00000
 Structure written by MMmdl.
 57 59  0  0  0  0  0  0  0  0  3 V2000
  151.9109  145.2622  160.5879 C   0  0  0  0  0  0  0  0  0  0  0  0
  151.8305  144.0669  159.6538 C   0  0  0  0  0  0  0  0  0  0  0  0
  151.0624  144.1839  158.4735 C   0  0  0  0  0  0  0  0  0  0  0  0
  151.0067  143.0732  157.6400 C   0  0  0  0  0  0  0  0  0  0  0  0
  150.3432  142.8739  156.4276 N   0  3  0  0  0  0  0  0  0  0  0  0
  150.5835  141.6106  155.9806 C   0  0  0  0  0  0  0  0  0  0  0  0
  151.3905  140.9991  156.8897 N   0  0  0  0  0  0  0  0  0  0  0  0
  151.9412  139.6364  156.8793 C   0  0  0  0  0  0  0  0  0  0  0  0
  151.4961  138.8208  155.6496 C   0  0  1  0  0  0  0  0  0  0  0  0
  152.3868  139.1223  154.5954 O   0  0  0  0  0  0  0  0  0  0  0  0
  151.5057  137.2936  155.8859 C   0  0  0  0  0  0  0  0  0  0  0  0
  150.4254  136.5462  155.2406 N   0  0  0  0  0  0  0  0  0  0  0  0
  149.1367  136.7302  155.9051 C   0  0  0  0  0  0  0  0  0  0  0  0
  148.0236  135.9069  155.2356 C   0  0  0  0  0  0  0  0  0  0  0  0
  148.3987  134.5340  155.2026 O   0  0  0  0  0  0  0  0  0  0  0  0
  149.6203  134.3075  154.5044 C   0  0  2  0  0  0  0  0  0  0  0  0
  149.9163  132.7972  154.5296 C   0  0  0  0  0  0  0  0  0  0  0  0
  148.7210  131.9714  154.2203 N   0  3  0  0  0  0  0  0  0  0  0  0
  147.9144  132.4960  153.0938 C   0  0  0  0  0  0  0  0  0  0  0  0
  149.0671  130.5467  154.0206 C   0  0  0  0  0  0  0  0  0  0  0  0
  150.7335  135.1209  155.1948 C   0  0  0  0  0  0  0  0  0  0  0  0
  151.6834  141.8752  157.9426 C   0  0  0  0  0  0  0  0  0  0  0  0
  152.4455  141.7442  159.1018 C   0  0  0  0  0  0  0  0  0  0  0  0
  152.5128  142.8620  159.9639 C   0  0  0  0  0  0  0  0  0  0  0  0
  153.3333  142.7458  161.2375 C   0  0  0  0  0  0  0  0  0  0  0  0
  151.3255  146.1021  160.2126 H   0  0  0  0  0  0  0  0  0  0  0  0
  152.9432  145.5968  160.6936 H   0  0  0  0  0  0  0  0  0  0  0  0
  151.5269  145.0039  161.5750 H   0  0  0  0  0  0  0  0  0  0  0  0
  150.5396  145.0977  158.2309 H   0  0  0  0  0  0  0  0  0  0  0  0
  150.2021  141.1725  155.0693 H   0  0  0  0  0  0  0  0  0  0  0  0
  153.0277  139.7363  156.8832 H   0  0  0  0  0  0  0  0  0  0  0  0
  151.6810  139.1299  157.8087 H   0  0  0  0  0  0  0  0  0  0  0  0
  150.5031  139.1622  155.3604 H   0  0  0  0  0  0  0  0  0  0  0  0
  153.0375  138.4391  154.5440 H   0  0  0  0  0  0  0  0  0  0  0  0
  152.4663  136.9080  155.5409 H   0  0  0  0  0  0  0  0  0  0  0  0
  151.4742  137.0892  156.9562 H   0  0  0  0  0  0  0  0  0  0  0  0
  149.2162  136.4423  156.9545 H   0  0  0  0  0  0  0  0  0  0  0  0
  148.8445  137.7792  155.8900 H   0  0  0  0  0  0  0  0  0  0  0  0
  147.0909  136.0090  155.7905 H   0  0  0  0  0  0  0  0  0  0  0  0
  147.8343  136.2643  154.2222 H   0  0  0  0  0  0  0  0  0  0  0  0
  149.5207  134.6570  153.4764 H   0  0  0  0  0  0  0  0  0  0  0  0
  150.7176  132.5517  153.8310 H   0  0  0  0  0  0  0  0  0  0  0  0
  150.2858  132.5399  155.5234 H   0  0  0  0  0  0  0  0  0  0  0  0
  148.5002  132.5279  152.1743 H   0  0  0  0  0  0  0  0  0  0  0  0
  147.5416  133.4988  153.2982 H   0  0  0  0  0  0  0  0  0  0  0  0
  147.0449  131.8614  152.9189 H   0  0  0  0  0  0  0  0  0  0  0  0
  149.7155  130.4207  153.1523 H   0  0  0  0  0  0  0  0  0  0  0  0
  148.1685  129.9484  153.8662 H   0  0  0  0  0  0  0  0  0  0  0  0
  149.5819  130.1454  154.8944 H   0  0  0  0  0  0  0  0  0  0  0  0
  151.6725  134.9663  154.6614 H   0  0  0  0  0  0  0  0  0  0  0  0
  150.8854  134.7442  156.2077 H   0  0  0  0  0  0  0  0  0  0  0  0
  152.9638  140.8282  159.3430 H   0  0  0  0  0  0  0  0  0  0  0  0
  153.7974  141.7631  161.3258 H   0  0  0  0  0  0  0  0  0  0  0  0
  152.7029  142.8959  162.1142 H   0  0  0  0  0  0  0  0  0  0  0  0
  154.1288  143.4914  161.2504 H   0  0  0  0  0  0  0  0  0  0  0  0
  148.1335  132.0025  155.0420 H   0  0  0  0  0  0  0  0  0  0  0  0
  149.7686  143.5486  155.9387 H   0  0  0  0  0  0  0  0  0  0  0  0
  1  2  1  0  0  0  0
  1 26  1  0  0  0  0
  1 27  1  0  0  0  0
  1 28  1  0  0  0  0
  2 24  1  0  0  0  0
  2  3  2  0  0  0  0
  3  4  1  0  0  0  0
  3 29  1  0  0  0  0
  4 22  2  0  0  0  0
  4  5  1  0  0  0  0
  5  6  2  0  0  0  0
  5 57  1  0  0  0  0
  6  7  1  0  0  0  0
  6 30  1  0  0  0  0
  7  8  1  0  0  0  0
  7 22  1  0  0  0  0
  8  9  1  0  0  0  0
  8 31  1  0  0  0  0
  8 32  1  0  0  0  0
  9 10  1  0  0  0  0
  9 11  1  0  0  0  0
  9 33  1  0  0  0  0
 10 34  1  0  0  0  0
 11 12  1  0  0  0  0
 11 35  1  0  0  0  0
 11 36  1  0  0  0  0
 12 21  1  0  0  0  0
 12 13  1  0  0  0  0
 13 14  1  0  0  0  0
 13 37  1  0  0  0  0
 13 38  1  0  0  0  0
 14 15  1  0  0  0  0
 14 39  1  0  0  0  0
 14 40  1  0  0  0  0
 15 16  1  0  0  0  0
 16 17  1  0  0  0  0
 16 21  1  0  0  0  0
 16 41  1  0  0  0  0
 17 18  1  0  0  0  0
 17 42  1  0  0  0  0
 17 43  1  0  0  0  0
 18 19  1  0  0  0  0
 18 20  1  0  0  0  0
 18 56  1  0  0  0  0
 19 44  1  0  0  0  0
 19 45  1  0  0  0  0
 19 46  1  0  0  0  0
 20 47  1  0  0  0  0
 20 48  1  0  0  0  0
 20 49  1  0  0  0  0
 21 50  1  0  0  0  0
 21 51  1  0  0  0  0
 22 23  1  0  0  0  0
 23 24  2  0  0  0  0
 23 52  1  0  0  0  0
 24 25  1  0  0  0  0
 25 53  1  0  0  0  0
 25 54  1  0  0  0  0
 25 55  1  0  0  0  0
M  CHG  1   5   1
M  CHG  1  18   1
M  END
> <s_m_source_file>
AV-unprocessed.smi

> <i_m_source_file_index>
1005

> <i_lp_mmshare_version>
43012

> <i_f3d_flags>
0

> <s_epik_input>
W0NIM11jKFtjSF0xKWMoW0NIM10pW2NIXWMoYzEyKW4oW2NIXW4yKVtDSDJdW0NASF0oW09IXSlbQ0gyXU4zW0NIMl1bQ0gyXU9bQ0BIXShbQ0gyXTMpW0NIMl1OKFtDSDNdKVtDSDNd

> <s_epik_cmdline>
J2VwaWtfcHl0aG9uJywgJy1waCcsICc3LjAnLCAnLXRuJywgJzgnLCAnLW1hJywgJzIwMCcsICctbWV0YWxfYmluZGluZycsICctaW1hZScsICc8aW5maWxlLm1hZT4nLCAnLW9tYWUnLCAnPG91dGZpbGUubWFlPic=

> <r_epik_Ionization_Penalty>
1.3281

> <r_epik_Ionization_Penalty_Charging>
1.21988

> <r_epik_Ionization_Penalty_Neutral>
0.10822

> <r_epik_State_Penalty>
1.32886

> <r_epik_Charging_Adjusted_Penalty>
2.54875

> <i_epik_Tot_Q>
2

> <i_epik_Tot_abs_Q>
2

> <r_epik_Metal_State_Penalty>
5.33912

> <b_epik_Metal_Only>
0

> <s_lp_Force_Field>
OPLS_2005

> <r_lp_Energy>
45.9182

> <b_lp_Chiralities_Consistent>
1

> <s_lp_Variant>
AV-unprocessed.smi:1005-16

> <Gold.Version>
5.8.1

> <Gold.Id.Protein>
6NUR|6NUR_protein|mol2

> <Gold.PLP.Fitness>
54.3170

> <Gold.PLP.PLP>
-49.3645

> <Gold.PLP.part.hbond>
-1.8390

> <Gold.PLP.part.metal>
0.0000

> <Gold.PLP.part.buried>
-5.8260

> <Gold.PLP.part.nonpolar>
-41.6276

> <Gold.PLP.part.repulsive>
0.3256

> <Gold.PLP.ligand.clash>
0.0000

> <Gold.PLP.ligand.torsion>
1.1205

> <Gold.PLP.Chemscore.Hbond>
2.3242

> <Gold.PLP.Chemscore.CHOScore>
0.0000

> <Gold.PLP.Chemscore.Metal>
0.0000

> <Gold.Chemscore.Hbonds>
donor molecule, donor type, donor heavy atom, donor atom, acceptor molecule, acceptor atom, score
      L1  H     5    57       P1  8028  1.79
      P1  H  7989  7998       L1    10  0.47

> <Gold.PLP.Chemscore.Internal.Correction>
0.2210

> <Gold.Rescore>
     Score         DG    S(hbond)    S(metal)    S(lipo)     H(rot)  DE(clash)    DE(int)     intcor
     16.71     -17.85       1.00        0.00     131.77       2.49       0.05       1.09       ----

> <Gold.Chemscore.Fitness>
16.7102

> <Gold.Chemscore.DG>
-17.8487

> <Gold.Chemscore.ZeroCoef>
-5.4800

> <Gold.Chemscore.Hbond>
0.9956

> <Gold.Chemscore.Metal>
0.0000

> <Gold.Chemscore.Lipo>
131.7716

> <Gold.Chemscore.Internal_Hbond>
0.0000

> <Gold.Chemscore.DEClash>
0.0486

> <Gold.Chemscore.DEInternal>
1.0898

> <Gold.Chemscore.Rot>
2.4897

> <Gold.Chemscore.Internal.Correction>
   9.000000E+99

> <Gold.Chemscore.Hbonds>
donor molecule, donor type, donor heavy atom, donor atom, acceptor molecule, acceptor atom, score
      L1  H     5    57       P1  8028  0.87
      P1  H  7989  7998       L1    10  0.35

> <Gold.Chemscore.Hbond.Weighted>
-3.3251

> <Gold.Chemscore.Metal.Weighted>
-0.0000

> <Gold.Chemscore.Lipo.Weighted>
-15.4173

> <Gold.Chemscore.Internal_Hbond.Weighted>
0.0000

> <Gold.Chemscore.DEClash.Weighted>
0.0486

> <Gold.Chemscore.DEInternal.Weighted>
1.0898

> <Gold.Chemscore.Rot.Weighted>
6.3737

> <Gold.Chemscore.Internal.Correction.Weighted>
   9.000000E+99

> <Gold.Protein.RotatedTorsions>
[ 6907 6896 6895 6894 ] final   44.80 input  -60.11 | X-H torsion
[ 7974 7965 7964 7962 ] final   37.31 input  175.53 | X-H torsion
[ 8008 7997 7996 7995 ] final  119.71 input   59.86 | X-H torsion
[ 10167 10162 10161 10158 ] final  -10.21 input  -65.29 | X-H torsion
[ 10718 10713 10712 10709 ] final  155.03 input   66.30 | X-H torsion
[ 10763 10752 10751 10750 ] final -110.58 input  -60.55 | X-H torsion
[ 11005 11000 10999 10996 ] final  -81.42 input  -57.11 | X-H torsion

> <Gold.Protein.ActiveResidues>
 VAL166  LYS551  ARG553  GLY616  TRP617  ASP618  TYR619  PRO620  LYS621  CYS622 
 ASP623  PHE694  ASN695  SER759  ASP760  ASP761  ALA762  ILE779  LEU786  VAL792 
 PHE793  MET794  SER795  GLU796  ALA797  LYS798  CYS799  TRP800  GLU811  SER814 

> <Gold.Protein.RotatedAtoms>
  152.2368  134.8267  160.0465 H   0  0  0  0  0  0  0  0  0  0  0  0  # atno 6907 bound_to 6896
  151.8996  133.3530  159.3834 H   0  0  0  0  0  0  0  0  0  0  0  0  # atno 6908 bound_to 6896
  150.7042  134.4767  159.5495 H   0  0  0  0  0  0  0  0  0  0  0  0  # atno 6909 bound_to 6896
  146.1147  139.5910  142.9329 H   0  0  0  0  0  0  0  0  0  0  0  0  # atno 7974 bound_to 7965
  156.2608  140.2847  156.1034 H   0  0  0  0  0  0  0  0  0  0  0  0  # atno 8008 bound_to 7997
  155.1335  140.0394  157.2798 H   0  0  0  0  0  0  0  0  0  0  0  0  # atno 8009 bound_to 7997
  154.6582  140.2560  155.7144 H   0  0  0  0  0  0  0  0  0  0  0  0  # atno 8010 bound_to 7997
  140.7108  143.5773  150.9029 H   0  0  0  0  0  0  0  0  0  0  0  0  # atno 10167 bound_to 10162
  157.2238  131.0724  151.1896 H   0  0  0  0  0  0  0  0  0  0  0  0  # atno 10718 bound_to 10713
  154.8255  135.4559  154.0907 H   0  0  0  0  0  0  0  0  0  0  0  0  # atno 10763 bound_to 10752
  153.2225  135.6895  153.7990 H   0  0  0  0  0  0  0  0  0  0  0  0  # atno 10764 bound_to 10752
  153.7402  135.3313  155.3279 H   0  0  0  0  0  0  0  0  0  0  0  0  # atno 10765 bound_to 10752
  141.1666  133.7196  156.8420 H   0  0  0  0  0  0  0  0  0  0  0  0  # atno 11005 bound_to 11000
  145.5591  141.0406  143.2236 LP  0  0  0  0  0  0  0  0  0  0  0  0  # atno 17320 bound_to 7965
  144.7542  139.7116  143.7261 LP  0  0  0  0  0  0  0  0  0  0  0  0  # atno 17321 bound_to 7965
  139.9499  143.6284  152.3032 LP  0  0  0  0  0  0  0  0  0  0  0  0  # atno 17342 bound_to 10162
  139.6799  144.7656  151.1627 LP  0  0  0  0  0  0  0  0  0  0  0  0  # atno 17343 bound_to 10162
  157.3549  130.7101  149.6464 LP  0  0  0  0  0  0  0  0  0  0  0  0  # atno 17370 bound_to 10713
  155.9680  130.4242  150.4597 LP  0  0  0  0  0  0  0  0  0  0  0  0  # atno 17371 bound_to 10713
  140.1977  134.8920  157.3133 LP  0  0  0  0  0  0  0  0  0  0  0  0  # atno 17394 bound_to 11000
  140.2222  134.4010  155.7561 LP  0  0  0  0  0  0  0  0  0  0  0  0  # atno 17395 bound_to 11000

$$$$
