AV-unprocessed.smi:2035|AV-procd|sdf|8269|dock3
  -GOLD-   2272010543D 1   1.00000     0.00000
 Structure written by MMmdl.
 34 35  0  0  0  0  0  0  0  0  1 V2000
  149.8057  140.6268  156.7590 O   0  0  0  0  0  0  0  0  0  0  0  0
  149.7286  141.6887  156.1411 C   0  0  0  0  0  0  0  0  0  0  0  0
  150.3947  142.8174  156.4417 N   0  0  0  0  0  0  0  0  0  0  0  0
  151.2964  143.0632  157.5129 C   0  0  0  0  0  0  0  0  0  0  0  0
  151.8070  144.3707  157.6521 C   0  0  0  0  0  0  0  0  0  0  0  0
  152.6896  144.6463  158.7155 C   0  0  0  0  0  0  0  0  0  0  0  0
  153.0704  143.7217  159.6218 N   0  0  0  0  0  0  0  0  0  0  0  0
  152.5706  142.4743  159.4953 C   0  0  0  0  0  0  0  0  0  0  0  0
  151.6823  142.0934  158.4695 C   0  0  0  0  0  0  0  0  0  0  0  0
  148.9681  141.8547  155.0492 N   0  0  0  0  0  0  0  0  0  0  0  0
  148.1067  140.8392  154.4430 C   0  0  2  0  0  0  0  0  0  0  0  0
  146.8802  140.5506  155.3478 C   0  0  0  0  0  0  0  0  0  0  0  0
  146.2370  139.1558  155.1986 C   0  0  0  0  0  0  0  0  0  0  0  0
  145.8270  138.7621  153.7649 C   0  0  0  0  0  0  0  0  0  0  0  0
  146.9284  138.8416  152.6812 C   0  0  0  0  0  0  0  0  0  0  0  0
  148.2908  138.7119  153.1967 N   0  0  0  0  0  0  0  0  0  0  0  0
  148.9069  139.6002  153.9957 C   0  0  0  0  0  0  0  0  0  0  0  0
  150.0637  139.4260  154.3768 O   0  0  0  0  0  0  0  0  0  0  0  0
  150.2816  143.5818  155.7922 H   0  0  0  0  0  0  0  0  0  0  0  0
  151.5346  145.1509  156.9563 H   0  0  0  0  0  0  0  0  0  0  0  0
  153.0988  145.6377  158.8420 H   0  0  0  0  0  0  0  0  0  0  0  0
  152.8826  141.7571  160.2401 H   0  0  0  0  0  0  0  0  0  0  0  0
  151.3113  141.0807  158.4473 H   0  0  0  0  0  0  0  0  0  0  0  0
  148.9662  142.7620  154.6058 H   0  0  0  0  0  0  0  0  0  0  0  0
  147.7318  141.2794  153.5179 H   0  0  0  0  0  0  0  0  0  0  0  0
  147.1688  140.6646  156.3939 H   0  0  0  0  0  0  0  0  0  0  0  0
  146.1231  141.3151  155.1690 H   0  0  0  0  0  0  0  0  0  0  0  0
  146.9141  138.4004  155.5994 H   0  0  0  0  0  0  0  0  0  0  0  0
  145.3548  139.1095  155.8378 H   0  0  0  0  0  0  0  0  0  0  0  0
  145.4548  137.7375  153.8006 H   0  0  0  0  0  0  0  0  0  0  0  0
  144.9776  139.3683  153.4490 H   0  0  0  0  0  0  0  0  0  0  0  0
  146.7654  138.0588  151.9402 H   0  0  0  0  0  0  0  0  0  0  0  0
  146.8430  139.7787  152.1301 H   0  0  0  0  0  0  0  0  0  0  0  0
  148.8113  137.8949  152.9111 H   0  0  0  0  0  0  0  0  0  0  0  0
  1  2  2  0  0  0  0
  2  3  1  0  0  0  0
  2 10  1  0  0  0  0
  3  4  1  0  0  0  0
  3 19  1  0  0  0  0
  4  9  1  0  0  0  0
  4  5  2  0  0  0  0
  5  6  1  0  0  0  0
  5 20  1  0  0  0  0
  6  7  2  0  0  0  0
  6 21  1  0  0  0  0
  7  8  1  0  0  0  0
  8  9  2  0  0  0  0
  8 22  1  0  0  0  0
  9 23  1  0  0  0  0
 10 11  1  0  0  0  0
 10 24  1  0  0  0  0
 11 17  1  0  0  0  0
 11 12  1  0  0  0  0
 11 25  1  0  0  0  0
 12 13  1  0  0  0  0
 12 26  1  0  0  0  0
 12 27  1  0  0  0  0
 13 14  1  0  0  0  0
 13 28  1  0  0  0  0
 13 29  1  0  0  0  0
 14 15  1  0  0  0  0
 14 30  1  0  0  0  0
 14 31  1  0  0  0  0
 15 16  1  0  0  0  0
 15 32  1  0  0  0  0
 15 33  1  0  0  0  0
 16 17  1  0  0  0  0
 16 34  1  0  0  0  0
 17 18  2  0  0  0  0
M  END
> <s_m_source_file>
AV-unprocessed.smi

> <i_m_source_file_index>
2035

> <i_lp_mmshare_version>
43012

> <i_f3d_flags>
0

> <s_epik_input>
W2NIXTFbY0hdbltjSF1bY0hdYzFbTkhdQyg9TylbTkhdW0NAQEhdMltDSDJdW0NIMl1bQ0gyXVtDSDJdW05IXUMyPU8=

> <s_epik_cmdline>
J2VwaWtfcHl0aG9uJywgJy1waCcsICc3LjAnLCAnLXRuJywgJzgnLCAnLW1hJywgJzIwMCcsICctbWV0YWxfYmluZGluZycsICctaW1hZScsICc8aW5maWxlLm1hZT4nLCAnLW9tYWUnLCAnPG91dGZpbGUubWFlPic=

> <r_epik_Ionization_Penalty>
0.100041

> <r_epik_Ionization_Penalty_Charging>
0

> <r_epik_Ionization_Penalty_Neutral>
0.100041

> <r_epik_State_Penalty>
0.0900442

> <r_epik_Charging_Adjusted_Penalty>
0.0900442

> <i_epik_Tot_Q>
0

> <i_epik_Tot_abs_Q>
0

> <r_epik_Metal_State_Penalty>
0.0769377

> <b_epik_Metal_Only>
0

> <s_lp_Force_Field>
OPLS_2005

> <r_lp_Energy>
20.0166

> <b_lp_Chiralities_Consistent>
1

> <s_lp_Variant>
AV-unprocessed.smi:2035-1

> <Gold.Version>
5.8.1

> <Gold.Id.Protein>
6NUR|6NUR_protein|mol2

> <Gold.PLP.Fitness>
42.9546

> <Gold.PLP.PLP>
-32.4067

> <Gold.PLP.part.hbond>
-4.7573

> <Gold.PLP.part.metal>
0.0000

> <Gold.PLP.part.buried>
-2.5536

> <Gold.PLP.part.nonpolar>
-26.6084

> <Gold.PLP.part.repulsive>
1.2183

> <Gold.PLP.ligand.clash>
0.0000

> <Gold.PLP.ligand.torsion>
0.0513

> <Gold.PLP.Chemscore.Hbond>
3.5322

> <Gold.PLP.Chemscore.CHOScore>
0.0000

> <Gold.PLP.Chemscore.Metal>
0.0000

> <Gold.Chemscore.Hbonds>
donor molecule, donor type, donor heavy atom, donor atom, acceptor molecule, acceptor atom, score
      L1  H     3    19       P1  8028  0.58
      L1  H    10    24       P1  8028  0.30
      L1  H    16    34       P1  7948  1.00
      P1  H  7989  7998       L1    18  0.32

> <Gold.PLP.Chemscore.Internal.Correction>
0.0539

> <Gold.Rescore>
     Score         DG    S(hbond)    S(metal)    S(lipo)     H(rot)  DE(clash)    DE(int)     intcor
     18.16     -23.26       3.39        0.00      77.01       1.00       1.12       3.98       ----

> <Gold.Chemscore.Fitness>
18.1645

> <Gold.Chemscore.DG>
-23.2598

> <Gold.Chemscore.ZeroCoef>
-5.4800

> <Gold.Chemscore.Hbond>
3.3923

> <Gold.Chemscore.Metal>
0.0000

> <Gold.Chemscore.Lipo>
77.0059

> <Gold.Chemscore.Internal_Hbond>
0.0000

> <Gold.Chemscore.DEClash>
1.1157

> <Gold.Chemscore.DEInternal>
3.9796

> <Gold.Chemscore.Rot>
1.0000

> <Gold.Chemscore.Internal.Correction>
   9.000000E+99

> <Gold.Chemscore.Hbonds>
donor molecule, donor type, donor heavy atom, donor atom, acceptor molecule, acceptor atom, score
      L1  H     3    19       P1  8028  0.58
      L1  H    10    24       P1  8028  0.30
      L1  H    16    34       P1  7948  0.94
      P1  H  7989  7998       L1    18  0.30

> <Gold.Chemscore.Hbond.Weighted>
-11.3301

> <Gold.Chemscore.Metal.Weighted>
-0.0000

> <Gold.Chemscore.Lipo.Weighted>
-9.0097

> <Gold.Chemscore.Internal_Hbond.Weighted>
0.0000

> <Gold.Chemscore.DEClash.Weighted>
1.1157

> <Gold.Chemscore.DEInternal.Weighted>
3.9796

> <Gold.Chemscore.Rot.Weighted>
2.5600

> <Gold.Chemscore.Internal.Correction.Weighted>
   9.000000E+99

> <Gold.Protein.RotatedTorsions>
[ 6907 6896 6895 6894 ] final   -8.07 input  -60.11 | X-H torsion
[ 7974 7965 7964 7962 ] final    0.96 input  175.53 | X-H torsion
[ 8008 7997 7996 7995 ] final   97.15 input   59.86 | X-H torsion
[ 10167 10162 10161 10158 ] final  120.30 input  -65.29 | X-H torsion
[ 10718 10713 10712 10709 ] final  -13.50 input   66.30 | X-H torsion
[ 10763 10752 10751 10750 ] final  -18.65 input  -60.55 | X-H torsion
[ 11005 11000 10999 10996 ] final   14.82 input  -57.11 | X-H torsion

> <Gold.Protein.ActiveResidues>
 VAL166  LYS551  ARG553  GLY616  TRP617  ASP618  TYR619  PRO620  LYS621  CYS622 
 ASP623  PHE694  ASN695  SER759  ASP760  ASP761  ALA762  ILE779  LEU786  VAL792 
 PHE793  MET794  SER795  GLU796  ALA797  LYS798  CYS799  TRP800  GLU811  SER814 

> <Gold.Protein.RotatedAtoms>
  151.4395  135.1018  159.9665 H   0  0  0  0  0  0  0  0  0  0  0  0  # atno 6907 bound_to 6896
  152.4928  133.8542  159.7227 H   0  0  0  0  0  0  0  0  0  0  0  0  # atno 6908 bound_to 6896
  150.9098  133.6953  159.2885 H   0  0  0  0  0  0  0  0  0  0  0  0  # atno 6909 bound_to 6896
  146.2437  140.1059  142.8346 H   0  0  0  0  0  0  0  0  0  0  0  0  # atno 7974 bound_to 7965
  156.0871  140.3262  155.7767 H   0  0  0  0  0  0  0  0  0  0  0  0  # atno 8008 bound_to 7997
  155.5058  140.0573  157.2949 H   0  0  0  0  0  0  0  0  0  0  0  0  # atno 8009 bound_to 7997
  154.4615  140.1969  156.0247 H   0  0  0  0  0  0  0  0  0  0  0  0  # atno 8010 bound_to 7997
  139.5991  144.7051  151.3105 H   0  0  0  0  0  0  0  0  0  0  0  0  # atno 10167 bound_to 10162
  156.6294  130.4897  149.6135 H   0  0  0  0  0  0  0  0  0  0  0  0  # atno 10718 bound_to 10713
  153.5925  135.7002  153.5417 H   0  0  0  0  0  0  0  0  0  0  0  0  # atno 10763 bound_to 10752
  153.3166  135.4086  155.1381 H   0  0  0  0  0  0  0  0  0  0  0  0  # atno 10764 bound_to 10752
  154.8598  135.3685  154.5457 H   0  0  0  0  0  0  0  0  0  0  0  0  # atno 10765 bound_to 10752
  140.4653  134.1086  155.7723 H   0  0  0  0  0  0  0  0  0  0  0  0  # atno 11005 bound_to 11000
  145.0528  140.9030  143.4985 LP  0  0  0  0  0  0  0  0  0  0  0  0  # atno 17320 bound_to 7965
  145.1160  139.2725  143.5613 LP  0  0  0  0  0  0  0  0  0  0  0  0  # atno 17321 bound_to 7965
  140.7235  143.7068  150.7801 LP  0  0  0  0  0  0  0  0  0  0  0  0  # atno 17342 bound_to 10162
  140.0641  143.5126  152.2613 LP  0  0  0  0  0  0  0  0  0  0  0  0  # atno 17343 bound_to 10162
  156.2247  130.6758  151.1403 LP  0  0  0  0  0  0  0  0  0  0  0  0  # atno 17370 bound_to 10713
  157.7204  131.0685  150.6157 LP  0  0  0  0  0  0  0  0  0  0  0  0  # atno 17371 bound_to 10713
  141.1602  133.8806  157.1868 LP  0  0  0  0  0  0  0  0  0  0  0  0  # atno 17394 bound_to 11000
  139.9919  135.0061  156.9995 LP  0  0  0  0  0  0  0  0  0  0  0  0  # atno 17395 bound_to 11000

$$$$
