AV-unprocessed.smi:675|AV-procd|sdf|3304|dock5
  -GOLD-   22720 0263D 1   1.00000     0.00000
 Structure written by MMmdl.
 29 30  0  0  0  0  0  0  0  0  1 V2000
  154.6035  134.9876  160.1976 O   0  0  0  0  0  0  0  0  0  0  0  0
  154.2143  136.1492  160.0943 C   0  0  0  0  0  0  0  0  0  0  0  0
  154.0071  136.7039  158.8275 N   0  0  0  0  0  0  0  0  0  0  0  0
  153.5685  138.0033  158.5705 C   0  0  0  0  0  0  0  0  0  0  0  0
  153.4304  138.3831  157.4080 O   0  0  0  0  0  0  0  0  0  0  0  0
  153.3070  138.8202  159.6948 N   0  0  0  0  0  0  0  0  0  0  0  0
  152.8760  140.1790  159.4694 C   0  0  0  0  0  0  0  0  0  0  0  0
  153.6723  141.2126  160.2961 C   0  0  1  0  0  0  0  0  0  0  0  0
  155.0032  141.2597  159.8172 O   0  0  0  0  0  0  0  0  0  0  0  0
  152.9984  142.5834  160.2434 C   0  0  0  0  0  0  0  0  0  0  0  0
  152.6434  143.1516  158.9971 C   0  0  0  0  0  0  0  0  0  0  0  0
  152.0142  144.4092  158.9342 C   0  0  0  0  0  0  0  0  0  0  0  0
  151.7263  145.1115  160.1181 C   0  0  0  0  0  0  0  0  0  0  0  0
  152.0625  144.5510  161.3639 C   0  0  0  0  0  0  0  0  0  0  0  0
  152.6918  143.2918  161.4334 C   0  0  0  0  0  0  0  0  0  0  0  0
  153.0580  142.6416  162.9939 Cl  0  0  0  0  0  0  0  0  0  0  0  0
  153.5063  138.3140  160.9701 C   0  0  0  0  0  0  0  0  0  0  0  0
  153.9350  137.0516  161.2105 C   0  0  0  0  0  0  0  0  0  0  0  0
  154.1602  136.4959  162.8304 Cl  0  0  0  0  0  0  0  0  0  0  0  0
  154.1930  136.1139  158.0295 H   0  0  0  0  0  0  0  0  0  0  0  0
  152.8584  140.3878  158.3973 H   0  0  0  0  0  0  0  0  0  0  0  0
  151.8293  140.1771  159.7794 H   0  0  0  0  0  0  0  0  0  0  0  0
  153.7357  140.8898  161.3350 H   0  0  0  0  0  0  0  0  0  0  0  0
  155.5888  141.1099  160.5434 H   0  0  0  0  0  0  0  0  0  0  0  0
  152.8467  142.6247  158.0763 H   0  0  0  0  0  0  0  0  0  0  0  0
  151.7502  144.8333  157.9766 H   0  0  0  0  0  0  0  0  0  0  0  0
  151.2427  146.0761  160.0714 H   0  0  0  0  0  0  0  0  0  0  0  0
  151.8314  145.0891  162.2716 H   0  0  0  0  0  0  0  0  0  0  0  0
  153.3142  138.9572  161.8174 H   0  0  0  0  0  0  0  0  0  0  0  0
  1  2  2  0  0  0  0
  2 18  1  0  0  0  0
  2  3  1  0  0  0  0
  3 20  1  0  0  0  0
  3  4  1  0  0  0  0
  4  5  2  0  0  0  0
  4  6  1  0  0  0  0
  6  7  1  0  0  0  0
  6 17  1  0  0  0  0
  7  8  1  0  0  0  0
  7 21  1  0  0  0  0
  7 22  1  0  0  0  0
  8  9  1  0  0  0  0
  8 10  1  0  0  0  0
  8 23  1  0  0  0  0
  9 24  1  0  0  0  0
 10 15  1  0  0  0  0
 10 11  2  0  0  0  0
 11 12  1  0  0  0  0
 11 25  1  0  0  0  0
 12 13  2  0  0  0  0
 12 26  1  0  0  0  0
 13 14  1  0  0  0  0
 13 27  1  0  0  0  0
 14 15  2  0  0  0  0
 14 28  1  0  0  0  0
 15 16  1  0  0  0  0
 17 18  2  0  0  0  0
 17 29  1  0  0  0  0
 18 19  1  0  0  0  0
M  END
> <s_m_source_file>
AV-unprocessed.smi

> <i_m_source_file_index>
675

> <i_lp_mmshare_version>
43012

> <i_f3d_flags>
0

> <s_epik_input>
Tz1jMVtuSF1jKD1PKW4oW2NIXWMxQ2wpW0NIMl1bQ0BIXShbT0hdKWMyW2NIXVtjSF1bY0hdW2NIXWMyQ2w=

> <s_epik_cmdline>
J2VwaWtfcHl0aG9uJywgJy1waCcsICc3LjAnLCAnLXRuJywgJzgnLCAnLW1hJywgJzIwMCcsICctbWV0YWxfYmluZGluZycsICctaW1hZScsICc8aW5maWxlLm1hZT4nLCAnLW9tYWUnLCAnPG91dGZpbGUubWFlPic=

> <r_lp_tautomer_probability>
0.999537

> <r_epik_Ionization_Penalty>
0.029206

> <r_epik_Ionization_Penalty_Charging>
0.0292057

> <r_epik_Ionization_Penalty_Neutral>
2.68278e-07

> <r_epik_State_Penalty>
0.0240115

> <r_epik_Charging_Adjusted_Penalty>
0.0532172

> <i_epik_Tot_Q>
0

> <i_epik_Tot_abs_Q>
0

> <r_epik_Metal_State_Penalty>
2.21956

> <b_epik_Metal_Only>
0

> <s_lp_Force_Field>
OPLS_2005

> <r_lp_Energy>
14.2263

> <b_lp_Chiralities_Consistent>
1

> <s_lp_Variant>
AV-unprocessed.smi:675-2

> <Gold.Version>
5.8.1

> <Gold.Id.Protein>
6NUR|6NUR_protein|mol2

> <Gold.PLP.Fitness>
47.7368

> <Gold.PLP.PLP>
-43.8267

> <Gold.PLP.part.hbond>
-1.7823

> <Gold.PLP.part.metal>
0.0000

> <Gold.PLP.part.buried>
-3.4365

> <Gold.PLP.part.nonpolar>
-37.9579

> <Gold.PLP.part.repulsive>
0.0919

> <Gold.PLP.ligand.clash>
0.0000

> <Gold.PLP.ligand.torsion>
0.3389

> <Gold.PLP.Chemscore.Hbond>
1.5241

> <Gold.PLP.Chemscore.CHOScore>
0.0000

> <Gold.PLP.Chemscore.Metal>
0.0000

> <Gold.Chemscore.Hbonds>
donor molecule, donor type, donor heavy atom, donor atom, acceptor molecule, acceptor atom, score
      P1  H  6896  6909       L1     1  0.41
      P1  H  7997  8009       L1     5  0.99

> <Gold.PLP.Chemscore.Internal.Correction>
0.0157

> <Gold.Rescore>
     Score         DG    S(hbond)    S(metal)    S(lipo)     H(rot)  DE(clash)    DE(int)     intcor
     17.60     -18.01       0.98        0.00     126.74       2.18       0.19       0.22       ----

> <Gold.Chemscore.Fitness>
17.5964

> <Gold.Chemscore.DG>
-18.0107

> <Gold.Chemscore.ZeroCoef>
-5.4800

> <Gold.Chemscore.Hbond>
0.9811

> <Gold.Chemscore.Metal>
0.0000

> <Gold.Chemscore.Lipo>
126.7363

> <Gold.Chemscore.Internal_Hbond>
0.0000

> <Gold.Chemscore.DEClash>
0.1902

> <Gold.Chemscore.DEInternal>
0.2241

> <Gold.Chemscore.Rot>
2.1775

> <Gold.Chemscore.Internal.Correction>
   9.000000E+99

> <Gold.Chemscore.Hbonds>
donor molecule, donor type, donor heavy atom, donor atom, acceptor molecule, acceptor atom, score
      P1  H  6896  6909       L1     1  0.03
      P1  H  7997  8009       L1     5  0.76

> <Gold.Chemscore.Hbond.Weighted>
-3.2770

> <Gold.Chemscore.Metal.Weighted>
-0.0000

> <Gold.Chemscore.Lipo.Weighted>
-14.8281

> <Gold.Chemscore.Internal_Hbond.Weighted>
0.0000

> <Gold.Chemscore.DEClash.Weighted>
0.1902

> <Gold.Chemscore.DEInternal.Weighted>
0.2241

> <Gold.Chemscore.Rot.Weighted>
5.5745

> <Gold.Chemscore.Internal.Correction.Weighted>
   9.000000E+99

> <Gold.Protein.RotatedTorsions>
[ 6907 6896 6895 6894 ] final -150.83 input  -60.11 | X-H torsion
[ 7974 7965 7964 7962 ] final   93.63 input  175.53 | X-H torsion
[ 8008 7997 7996 7995 ] final  156.72 input   59.86 | X-H torsion
[ 10167 10162 10161 10158 ] final  158.90 input  -65.29 | X-H torsion
[ 10718 10713 10712 10709 ] final -159.12 input   66.30 | X-H torsion
[ 10763 10752 10751 10750 ] final -105.80 input  -60.55 | X-H torsion
[ 11005 11000 10999 10996 ] final  110.87 input  -57.11 | X-H torsion

> <Gold.Protein.ActiveResidues>
 VAL166  LYS551  ARG553  GLY616  TRP617  ASP618  TYR619  PRO620  LYS621  CYS622 
 ASP623  PHE694  ASN695  SER759  ASP760  ASP761  ALA762  ILE779  LEU786  VAL792 
 PHE793  MET794  SER795  GLU796  ALA797  LYS798  CYS799  TRP800  GLU811  SER814 

> <Gold.Protein.RotatedAtoms>
  151.2042  133.4593  159.2596 H   0  0  0  0  0  0  0  0  0  0  0  0  # atno 6907 bound_to 6896
  151.1039  134.9988  159.8472 H   0  0  0  0  0  0  0  0  0  0  0  0  # atno 6908 bound_to 6896
  152.5445  134.1967  159.8748 H   0  0  0  0  0  0  0  0  0  0  0  0  # atno 6909 bound_to 6896
  145.4763  139.2280  143.2907 H   0  0  0  0  0  0  0  0  0  0  0  0  # atno 7974 bound_to 7965
  156.2406  140.1905  156.6998 H   0  0  0  0  0  0  0  0  0  0  0  0  # atno 8008 bound_to 7997
  154.6190  140.0611  156.9617 H   0  0  0  0  0  0  0  0  0  0  0  0  # atno 8009 bound_to 7997
  155.1893  140.3283  155.4364 H   0  0  0  0  0  0  0  0  0  0  0  0  # atno 8010 bound_to 7997
  139.4829  144.4781  151.8483 H   0  0  0  0  0  0  0  0  0  0  0  0  # atno 10167 bound_to 10162
  156.5637  130.8658  151.2817 H   0  0  0  0  0  0  0  0  0  0  0  0  # atno 10718 bound_to 10713
  154.7970  135.4735  154.0186 H   0  0  0  0  0  0  0  0  0  0  0  0  # atno 10763 bound_to 10752
  153.1720  135.6826  153.8601 H   0  0  0  0  0  0  0  0  0  0  0  0  # atno 10764 bound_to 10752
  153.8181  135.3208  155.3385 H   0  0  0  0  0  0  0  0  0  0  0  0  # atno 10765 bound_to 10752
  139.8891  134.9494  156.6345 H   0  0  0  0  0  0  0  0  0  0  0  0  # atno 11005 bound_to 11000
  146.2367  140.5546  142.8952 LP  0  0  0  0  0  0  0  0  0  0  0  0  # atno 17320 bound_to 7965
  144.7915  140.6041  143.6538 LP  0  0  0  0  0  0  0  0  0  0  0  0  # atno 17321 bound_to 7965
  140.4255  144.2186  150.5887 LP  0  0  0  0  0  0  0  0  0  0  0  0  # atno 17342 bound_to 10162
  140.4832  143.2372  151.8926 LP  0  0  0  0  0  0  0  0  0  0  0  0  # atno 17343 bound_to 10162
  157.7363  130.9776  150.2129 LP  0  0  0  0  0  0  0  0  0  0  0  0  # atno 17370 bound_to 10713
  156.2776  130.3729  149.7967 LP  0  0  0  0  0  0  0  0  0  0  0  0  # atno 17371 bound_to 10713
  140.7641  133.8793  155.8441 LP  0  0  0  0  0  0  0  0  0  0  0  0  # atno 17394 bound_to 11000
  140.9897  134.1295  157.4419 LP  0  0  0  0  0  0  0  0  0  0  0  0  # atno 17395 bound_to 11000

$$$$
