#       Name:                AV-unprocessed.smi:3315
#       Creating user name   scv26
#       Creation time:       Fri Mar 27 19:09:07 2020


#       File generated by GOLD software.
#

@<TRIPOS>MOLECULE
AV-unprocessed.smi:3315
    44    45     1
SMALL
NO_CHARGES


@<TRIPOS>ATOM
      1 ****        -3.5396   2.7267   0.6834 C.3            1 S1                 0.0000
      2 ****        -2.8385   1.5583   1.0898 O.3            1 S1                 0.0000
      3 ****        -1.4180   1.6741   1.1897 C.3            1 S1                 0.0000
      4 ****        -1.0491   2.6321   2.3333 C.3            1 S1                 0.0000
      5 ****        -0.7544   1.8975  -0.1816 C.3            1 S1                 0.0000
      6 ****         0.2911   0.8739   0.2557 C.3            1 S1                 0.0000
      7 ****         0.7410   0.0243  -0.8420 N.am           1 S1                 0.0000
      8 ****         1.7137  -0.8916  -0.7406 C.2            1 S1                 0.0000
      9 ****         2.3373  -1.1077   0.2990 O.2            1 S1                 0.0000
     10 ****         1.9062  -1.5302  -1.9074 N.am           1 S1                 0.0000
     11 ****         2.8453  -2.5556  -2.1873 C.2            1 S1                 0.0000
     12 ****         2.9391  -3.1230  -3.4861 C.2            1 S1                 0.0000
     13 ****         3.9340  -4.0478  -3.3415 C.2            1 S1                 0.0000
     14 ****         4.4088  -4.0480  -2.0675 O.3            1 S1                 0.0000
     15 ****         3.7049  -3.0875  -1.3310 N.2            1 S1                 0.0000
     16 ****        -0.7897   0.2421   1.1698 C.3            1 S1                 0.0000
     17 ****        -0.2891  -0.3126   2.5073 C.3            1 S1                 0.0000
     18 ****        -1.6586  -0.8719   0.5516 C.3            1 S1                 0.0000
     19 ****        -4.5930   2.4809   0.5502 H              1 S1                 0.0000
     20 ****        -3.1700   3.1171  -0.2650 H              1 S1                 0.0000
     21 ****        -3.4850   3.5158   1.4329 H              1 S1                 0.0000
     22 ****         0.0229   2.6375   2.5290 H              1 S1                 0.0000
     23 ****        -1.5488   2.3523   3.2610 H              1 S1                 0.0000
     24 ****        -1.3232   3.6620   2.1064 H              1 S1                 0.0000
     25 ****        -1.3659   1.5685  -1.0238 H              1 S1                 0.0000
     26 ****        -0.3627   2.9022  -0.3423 H              1 S1                 0.0000
     27 ****         1.1049   1.3411   0.8153 H              1 S1                 0.0000
     28 ****         0.2775   0.1395  -1.7313 H              1 S1                 0.0000
     29 ****         1.3194  -1.2510  -2.6794 H              1 S1                 0.0000
     30 ****         2.3739  -2.8925  -4.3768 H              1 S1                 0.0000
     31 ****         4.3969  -4.7502  -4.0189 H              1 S1                 0.0000
     32 ****         0.2076  -1.2752   2.3807 H              1 S1                 0.0000
     33 ****        -1.1094  -0.4552   3.2112 H              1 S1                 0.0000
     34 ****         0.4347   0.3505   2.9802 H              1 S1                 0.0000
     35 ****        -1.0873  -1.7868   0.3913 H              1 S1                 0.0000
     36 ****        -2.0769  -0.5839  -0.4130 H              1 S1                 0.0000
     37 ****        -2.4982  -1.1266   1.1992 H              1 S1                 0.0000
     38 ****        -3.0394   0.8367   0.4272 LP             1 S1                 0.0000
     39 ****        -3.1863   1.2917   1.9886 LP             1 S1                 0.0000
     40 ****         2.1267  -0.5862   1.1259 LP             1 S1                 0.0000
     41 ****         3.0542  -1.8046   0.3163 LP             1 S1                 0.0000
     42 ****         5.3832  -3.8233  -2.0706 LP             1 S1                 0.0000
     43 ****         4.2762  -4.9507  -1.6583 LP             1 S1                 0.0000
     44 ****         3.8251  -2.8534  -0.3663 LP             1 S1                 0.0000
@<TRIPOS>BOND
    1    1    2 1     
    2    1   19 1     
    3    1   20 1     
    4    1   21 1     
    5    2    3 1     
    6    3   16 1     
    7    3    4 1     
    8    3    5 1     
    9    4   22 1     
   10    4   23 1     
   11    4   24 1     
   12    5    6 1     
   13    5   25 1     
   14    5   26 1     
   15    6    7 1     
   16    6   16 1     
   17    6   27 1     
   18    7    8 am    
   19    7   28 1     
   20    8    9 2     
   21    8   10 am    
   22   10   11 1     
   23   10   29 1     
   24   11   15 2     
   25   11   12 1     
   26   12   13 2     
   27   12   30 1     
   28   13   14 1     
   29   13   31 1     
   30   14   15 1     
   31   16   17 1     
   32   16   18 1     
   33   17   32 1     
   34   17   33 1     
   35   17   34 1     
   36   18   35 1     
   37   18   36 1     
   38   18   37 1     
   39    2   38 1     
   40    2   39 1     
   41    9   40 1     
   42    9   41 1     
   43   14   42 1     
   44   14   43 1     
   45   15   44 1     
@<TRIPOS>SUBSTRUCTURE
      1 S1             1
@<TRIPOS>SET
LONE_PAIRS      STATIC     ATOMS    <user>   **** ""
7 38 39 40 41 42 43 44
DONOR_HYDROGENS      STATIC     ATOMS    <user>   **** ""
2 28 29
ATOM$BLUE        STATIC     ATOMS    COLORGROUP SYSTEM
7 38 39 40 41 42 43 44
ATOM$RED        STATIC     ATOMS    COLORGROUP SYSTEM
2 28 29
