AV-unprocessed.smi:1816|AV-procd|sdf|7366|dock9
  -GOLD-   22720 9 33D 1   1.00000     0.00000
 Structure written by MMmdl.
 35 36  0  0  0  0  0  0  0  0  3 V2000
  150.3735  135.6802  156.8125 C   0  0  0  0  0  0  0  0  0  0  0  0
  150.5349  135.9818  155.3059 C   0  0  2  0  0  0  0  0  0  0  0  0
  150.5688  137.5115  155.0664 C   0  0  0  0  0  0  0  0  0  0  0  0
  151.3742  138.2154  156.0637 N   0  0  0  0  0  0  0  0  0  0  0  0
  151.7364  139.5056  156.0382 C   0  0  0  0  0  0  0  0  0  0  0  0
  151.4339  140.2136  155.0760 O   0  0  0  0  0  0  0  0  0  0  0  0
  152.4123  139.8992  157.1396 N   0  5  0  0  0  0  0  0  0  0  0  0
  152.1656  141.1020  157.6836 C   0  0  0  0  0  0  0  0  0  0  0  0
  151.2540  141.9497  157.1930 N   0  0  0  0  0  0  0  0  0  0  0  0
  151.1574  143.1399  157.9164 C   0  0  0  0  0  0  0  0  0  0  0  0
  152.0118  143.1973  158.9854 C   0  0  0  0  0  0  0  0  0  0  0  0
  152.9668  141.7481  159.1184 S   0  0  0  0  0  0  0  0  0  0  0  0
  149.4800  135.3268  154.4781 N   0  3  0  0  0  0  0  0  0  0  0  0
  149.7273  133.9039  154.1664 C   0  0  0  0  0  0  0  0  0  0  0  0
  148.3986  133.3869  153.6214 C   0  0  0  0  0  0  0  0  0  0  0  0
  147.3355  134.2248  154.3367 C   0  0  0  0  0  0  0  0  0  0  0  0
  148.1008  135.3705  155.0127 C   0  0  0  0  0  0  0  0  0  0  0  0
  151.1026  136.2383  157.4004 H   0  0  0  0  0  0  0  0  0  0  0  0
  150.5317  134.6259  157.0386 H   0  0  0  0  0  0  0  0  0  0  0  0
  149.3814  135.9531  157.1743 H   0  0  0  0  0  0  0  0  0  0  0  0
  151.4987  135.5719  155.0000 H   0  0  0  0  0  0  0  0  0  0  0  0
  151.0135  137.7133  154.0916 H   0  0  0  0  0  0  0  0  0  0  0  0
  149.5627  137.9291  155.0160 H   0  0  0  0  0  0  0  0  0  0  0  0
  151.6603  137.6796  156.8706 H   0  0  0  0  0  0  0  0  0  0  0  0
  150.4519  143.8931  157.5987 H   0  0  0  0  0  0  0  0  0  0  0  0
  152.1360  143.9970  159.6997 H   0  0  0  0  0  0  0  0  0  0  0  0
  150.5418  133.7579  153.4582 H   0  0  0  0  0  0  0  0  0  0  0  0
  149.9816  133.3672  155.0819 H   0  0  0  0  0  0  0  0  0  0  0  0
  148.3481  133.5706  152.5473 H   0  0  0  0  0  0  0  0  0  0  0  0
  148.2711  132.3157  153.7814 H   0  0  0  0  0  0  0  0  0  0  0  0
  146.6022  134.6041  153.6236 H   0  0  0  0  0  0  0  0  0  0  0  0
  146.7977  133.6332  155.0786 H   0  0  0  0  0  0  0  0  0  0  0  0
  148.1192  135.2002  156.0903 H   0  0  0  0  0  0  0  0  0  0  0  0
  147.6336  136.3388  154.8297 H   0  0  0  0  0  0  0  0  0  0  0  0
  149.4542  135.8145  153.5930 H   0  0  0  0  0  0  0  0  0  0  0  0
  1  2  1  0  0  0  0
  1 18  1  0  0  0  0
  1 19  1  0  0  0  0
  1 20  1  0  0  0  0
  2  3  1  0  0  0  0
  2 13  1  0  0  0  0
  2 21  1  0  0  0  0
  3  4  1  0  0  0  0
  3 22  1  0  0  0  0
  3 23  1  0  0  0  0
  4  5  1  0  0  0  0
  4 24  1  0  0  0  0
  5  6  2  0  0  0  0
  5  7  1  0  0  0  0
  7  8  1  0  0  0  0
  8 12  1  0  0  0  0
  8  9  2  0  0  0  0
  9 10  1  0  0  0  0
 10 11  2  0  0  0  0
 10 25  1  0  0  0  0
 11 12  1  0  0  0  0
 11 26  1  0  0  0  0
 13 17  1  0  0  0  0
 13 14  1  0  0  0  0
 13 35  1  0  0  0  0
 14 15  1  0  0  0  0
 14 27  1  0  0  0  0
 14 28  1  0  0  0  0
 15 16  1  0  0  0  0
 15 29  1  0  0  0  0
 15 30  1  0  0  0  0
 16 17  1  0  0  0  0
 16 31  1  0  0  0  0
 16 32  1  0  0  0  0
 17 33  1  0  0  0  0
 17 34  1  0  0  0  0
M  CHG  1   7  -1
M  CHG  1  13   1
M  END
> <s_m_source_file>
AV-unprocessed.smi

> <i_m_source_file_index>
1816

> <i_lp_mmshare_version>
43012

> <i_f3d_flags>
0

> <s_epik_input>
W0NIMl0xW0NIMl1bQ0gyXVtDSDJdTjFbQ0BIXShbQ0gzXSlbQ0gyXVtOSF1DKD1PKVtOSF1jMm5bY0hdW2NIXXMy

> <s_epik_cmdline>
J2VwaWtfcHl0aG9uJywgJy1waCcsICc3LjAnLCAnLXRuJywgJzgnLCAnLW1hJywgJzIwMCcsICctbWV0YWxfYmluZGluZycsICctaW1hZScsICc8aW5maWxlLm1hZT4nLCAnLW9tYWUnLCAnPG91dGZpbGUubWFlPic=

> <r_lp_tautomer_probability>
0.999

> <r_epik_Ionization_Penalty>
6.21769

> <r_epik_Ionization_Penalty_Charging>
5.38662

> <r_epik_Ionization_Penalty_Neutral>
0.831074

> <r_epik_State_Penalty>
5.38626

> <r_epik_Charging_Adjusted_Penalty>
10.7729

> <i_epik_Tot_Q>
0

> <i_epik_Tot_abs_Q>
2

> <r_epik_Metal_State_Penalty>
1.41347

> <b_epik_Metal_Only>
1

> <s_lp_Force_Field>
OPLS_2005

> <r_lp_Energy>
25.8125

> <b_lp_Chiralities_Consistent>
1

> <s_lp_Variant>
AV-unprocessed.smi:1816-3

> <Gold.Version>
5.8.1

> <Gold.Id.Protein>
6NUR|6NUR_protein|mol2

> <Gold.PLP.Fitness>
42.7017

> <Gold.PLP.PLP>
-26.4563

> <Gold.PLP.part.hbond>
-3.0000

> <Gold.PLP.part.metal>
0.0000

> <Gold.PLP.part.buried>
-3.8796

> <Gold.PLP.part.nonpolar>
-18.3060

> <Gold.PLP.part.repulsive>
0.2166

> <Gold.PLP.ligand.clash>
0.0000

> <Gold.PLP.ligand.torsion>
0.9089

> <Gold.PLP.Chemscore.Hbond>
5.0000

> <Gold.PLP.Chemscore.CHOScore>
1.0000

> <Gold.PLP.Chemscore.Metal>
0.0000

> <Gold.Chemscore.Hbonds>
donor molecule, donor type, donor heavy atom, donor atom, acceptor molecule, acceptor atom, score
      L1  H    13    35       P1  7948  2.00
      P1  H  7989  7998       L1     6  1.00
      P1  H  7997  8010       L1     7  1.98
      L1  C    10    25       P1  8028  0.82

> <Gold.PLP.Chemscore.Internal.Correction>
0.0631

> <Gold.Rescore>
     Score         DG    S(hbond)    S(metal)    S(lipo)     H(rot)  DE(clash)    DE(int)     intcor
     14.35     -16.90       2.53        0.00      59.89       1.57       0.07       2.48       ----

> <Gold.Chemscore.Fitness>
14.3520

> <Gold.Chemscore.DG>
-16.9015

> <Gold.Chemscore.ZeroCoef>
-5.4800

> <Gold.Chemscore.Hbond>
2.5257

> <Gold.Chemscore.Metal>
0.0000

> <Gold.Chemscore.Lipo>
59.8945

> <Gold.Chemscore.Internal_Hbond>
0.0000

> <Gold.Chemscore.DEClash>
0.0650

> <Gold.Chemscore.DEInternal>
2.4844

> <Gold.Chemscore.Rot>
1.5710

> <Gold.Chemscore.Internal.Correction>
   9.000000E+99

> <Gold.Chemscore.Hbonds>
donor molecule, donor type, donor heavy atom, donor atom, acceptor molecule, acceptor atom, score
      L1  H    13    35       P1  7948  0.39
      P1  H  7989  7998       L1     6  0.96
      P1  H  7997  8010       L1     7  0.18

> <Gold.Chemscore.Hbond.Weighted>
-8.4357

> <Gold.Chemscore.Metal.Weighted>
-0.0000

> <Gold.Chemscore.Lipo.Weighted>
-7.0077

> <Gold.Chemscore.Internal_Hbond.Weighted>
0.0000

> <Gold.Chemscore.DEClash.Weighted>
0.0650

> <Gold.Chemscore.DEInternal.Weighted>
2.4844

> <Gold.Chemscore.Rot.Weighted>
4.0219

> <Gold.Chemscore.Internal.Correction.Weighted>
   9.000000E+99

> <Gold.Protein.RotatedTorsions>
[ 6907 6896 6895 6894 ] final  110.57 input  -60.11 | X-H torsion
[ 7974 7965 7964 7962 ] final  -46.38 input  175.53 | X-H torsion
[ 8008 7997 7996 7995 ] final   60.43 input   59.86 | X-H torsion
[ 10167 10162 10161 10158 ] final  -77.83 input  -65.29 | X-H torsion
[ 10718 10713 10712 10709 ] final   -7.70 input   66.30 | X-H torsion
[ 10763 10752 10751 10750 ] final   41.36 input  -60.55 | X-H torsion
[ 11005 11000 10999 10996 ] final  -45.57 input  -57.11 | X-H torsion

> <Gold.Protein.ActiveResidues>
 VAL166  LYS551  ARG553  GLY616  TRP617  ASP618  TYR619  PRO620  LYS621  CYS622 
 ASP623  PHE694  ASN695  SER759  ASP760  ASP761  ALA762  ILE779  LEU786  VAL792 
 PHE793  MET794  SER795  GLU796  ALA797  LYS798  CYS799  TRP800  GLU811  SER814 

> <Gold.Protein.RotatedAtoms>
  152.5013  133.8781  159.7332 H   0  0  0  0  0  0  0  0  0  0  0  0  # atno 6907 bound_to 6896
  150.9250  133.6825  159.2830 H   0  0  0  0  0  0  0  0  0  0  0  0  # atno 6908 bound_to 6896
  151.4189  135.1000  159.9660 H   0  0  0  0  0  0  0  0  0  0  0  0  # atno 6909 bound_to 6896
  145.9725  140.7368  142.9403 H   0  0  0  0  0  0  0  0  0  0  0  0  # atno 7974 bound_to 7965
  155.5822  140.3491  155.4543 H   0  0  0  0  0  0  0  0  0  0  0  0  # atno 8008 bound_to 7997
  156.0364  140.1286  157.0228 H   0  0  0  0  0  0  0  0  0  0  0  0  # atno 8009 bound_to 7997
  154.4373  140.1033  156.6159 H   0  0  0  0  0  0  0  0  0  0  0  0  # atno 8010 bound_to 7997
  140.4736  143.2420  151.8167 H   0  0  0  0  0  0  0  0  0  0  0  0  # atno 10167 bound_to 10162
  156.7134  130.5129  149.5886 H   0  0  0  0  0  0  0  0  0  0  0  0  # atno 10718 bound_to 10713
  152.9910  135.6164  154.2774 H   0  0  0  0  0  0  0  0  0  0  0  0  # atno 10763 bound_to 10752
  154.2505  135.2785  155.2820 H   0  0  0  0  0  0  0  0  0  0  0  0  # atno 10764 bound_to 10752
  154.5292  135.5793  153.6802 H   0  0  0  0  0  0  0  0  0  0  0  0  # atno 10765 bound_to 10752
  141.0524  133.6738  156.3032 H   0  0  0  0  0  0  0  0  0  0  0  0  # atno 11005 bound_to 11000
  144.6840  140.2773  143.7297 LP  0  0  0  0  0  0  0  0  0  0  0  0  # atno 17320 bound_to 7965
  145.7885  139.1918  143.2116 LP  0  0  0  0  0  0  0  0  0  0  0  0  # atno 17321 bound_to 7965
  139.4822  144.4861  151.9245 LP  0  0  0  0  0  0  0  0  0  0  0  0  # atno 17342 bound_to 10162
  140.3946  144.2571  150.5897 LP  0  0  0  0  0  0  0  0  0  0  0  0  # atno 17343 bound_to 10162
  156.1645  130.6396  151.0760 LP  0  0  0  0  0  0  0  0  0  0  0  0  # atno 17370 bound_to 10713
  157.6927  131.0804  150.7061 LP  0  0  0  0  0  0  0  0  0  0  0  0  # atno 17371 bound_to 10713
  140.6030  134.5536  157.5521 LP  0  0  0  0  0  0  0  0  0  0  0  0  # atno 17394 bound_to 11000
  139.9361  134.7872  156.0798 LP  0  0  0  0  0  0  0  0  0  0  0  0  # atno 17395 bound_to 11000

$$$$
