AV-unprocessed.smi:3314|AV-procd|sdf|12747|dock2
  -GOLD-   2272019 83D 1   1.00000     0.00000
 Structure written by MMmdl.
 37 38  0  0  0  0  0  0  0  0  1 V2000
  151.6633  145.7250  159.9959 C   0  0  0  0  0  0  0  0  0  0  0  0
  152.0920  144.3541  159.5135 C   0  0  0  0  0  0  0  0  0  0  0  0
  153.1215  143.6138  160.2229 C   0  0  0  0  0  0  0  0  0  0  0  0
  153.4890  142.4002  159.7776 C   0  0  0  0  0  0  0  0  0  0  0  0
  154.5492  141.5472  160.4418 C   0  0  0  0  0  0  0  0  0  0  0  0
  152.8978  141.8453  158.6495 N   0  0  0  0  0  0  0  0  0  0  0  0
  151.8934  142.4947  157.9107 C   0  0  0  0  0  0  0  0  0  0  0  0
  151.3048  142.0155  156.8533 N   0  0  0  0  0  0  0  0  0  0  0  0
  151.6222  140.7706  156.3148 C   0  0  0  0  0  0  0  0  0  0  0  0
  152.5507  140.0090  156.6008 O   0  0  0  0  0  0  0  0  0  0  0  0
  150.6310  140.3479  155.2237 C   0  0  2  0  0  0  0  0  0  0  0  0
  149.4106  141.2922  155.1833 C   0  0  0  0  0  0  0  0  0  0  0  0
  148.4160  140.8511  154.2132 N   0  0  0  0  0  0  0  0  0  0  0  0
  147.2644  141.7398  154.1821 C   0  0  0  0  0  0  0  0  0  0  0  0
  148.0268  139.4767  154.5004 C   0  0  0  0  0  0  0  0  0  0  0  0
  149.2453  138.5387  154.5400 C   0  0  0  0  0  0  0  0  0  0  0  0
  150.1855  139.0192  155.4961 O   0  0  0  0  0  0  0  0  0  0  0  0
  151.5179  143.8071  158.4156 C   0  0  0  0  0  0  0  0  0  0  0  0
  152.2189  146.0221  160.8859 H   0  0  0  0  0  0  0  0  0  0  0  0
  150.6011  145.7260  160.2422 H   0  0  0  0  0  0  0  0  0  0  0  0
  151.8382  146.4719  159.2212 H   0  0  0  0  0  0  0  0  0  0  0  0
  153.5881  144.0357  161.1014 H   0  0  0  0  0  0  0  0  0  0  0  0
  154.9771  142.0530  161.3079 H   0  0  0  0  0  0  0  0  0  0  0  0
  155.3561  141.3308  159.7413 H   0  0  0  0  0  0  0  0  0  0  0  0
  154.1205  140.6025  160.7772 H   0  0  0  0  0  0  0  0  0  0  0  0
  151.1355  140.3505  154.2549 H   0  0  0  0  0  0  0  0  0  0  0  0
  148.9574  141.3469  156.1749 H   0  0  0  0  0  0  0  0  0  0  0  0
  149.7386  142.3029  154.9358 H   0  0  0  0  0  0  0  0  0  0  0  0
  146.5425  141.4108  153.4340 H   0  0  0  0  0  0  0  0  0  0  0  0
  147.5674  142.7560  153.9271 H   0  0  0  0  0  0  0  0  0  0  0  0
  146.7613  141.7677  155.1496 H   0  0  0  0  0  0  0  0  0  0  0  0
  147.5060  139.4316  155.4581 H   0  0  0  0  0  0  0  0  0  0  0  0
  147.3226  139.1258  153.7453 H   0  0  0  0  0  0  0  0  0  0  0  0
  148.9395  137.5295  154.8159 H   0  0  0  0  0  0  0  0  0  0  0  0
  149.7163  138.4745  153.5579 H   0  0  0  0  0  0  0  0  0  0  0  0
  150.7561  144.3869  157.9140 H   0  0  0  0  0  0  0  0  0  0  0  0
  153.2280  140.9301  158.3775 H   0  0  0  0  0  0  0  0  0  0  0  0
  1  2  1  0  0  0  0
  1 19  1  0  0  0  0
  1 20  1  0  0  0  0
  1 21  1  0  0  0  0
  2 18  2  0  0  0  0
  2  3  1  0  0  0  0
  3  4  2  0  0  0  0
  3 22  1  0  0  0  0
  4  5  1  0  0  0  0
  4  6  1  0  0  0  0
  5 23  1  0  0  0  0
  5 24  1  0  0  0  0
  5 25  1  0  0  0  0
  6  7  1  0  0  0  0
  6 37  1  0  0  0  0
  7  8  2  0  0  0  0
  7 18  1  0  0  0  0
  8  9  1  0  0  0  0
  9 10  2  0  0  0  0
  9 11  1  0  0  0  0
 11 17  1  0  0  0  0
 11 12  1  0  0  0  0
 11 26  1  0  0  0  0
 12 13  1  0  0  0  0
 12 27  1  0  0  0  0
 12 28  1  0  0  0  0
 13 14  1  0  0  0  0
 13 15  1  0  0  0  0
 14 29  1  0  0  0  0
 14 30  1  0  0  0  0
 14 31  1  0  0  0  0
 15 16  1  0  0  0  0
 15 32  1  0  0  0  0
 15 33  1  0  0  0  0
 16 17  1  0  0  0  0
 16 34  1  0  0  0  0
 16 35  1  0  0  0  0
 18 36  1  0  0  0  0
M  END
> <s_m_source_file>
AV-unprocessed.smi

> <i_m_source_file_index>
3314

> <i_lp_mmshare_version>
43012

> <i_f3d_flags>
0

> <s_epik_input>
W0NIM11jMVtjSF1jKFtDSDNdKW5jKFtjSF0xKVtOSF1DKD1PKVtDQEBIXTJbQ0gyXU4oW0NIM10pW0NIMl1bQ0gyXU8y

> <s_epik_cmdline>
J2VwaWtfcHl0aG9uJywgJy1waCcsICc3LjAnLCAnLXRuJywgJzgnLCAnLW1hJywgJzIwMCcsICctbWV0YWxfYmluZGluZycsICctaW1hZScsICc8aW5maWxlLm1hZT4nLCAnLW9tYWUnLCAnPG91dGZpbGUubWFlPic=

> <r_epik_Ionization_Penalty>
1.13914

> <r_epik_Ionization_Penalty_Charging>
0.583937

> <r_epik_Ionization_Penalty_Neutral>
0.555199

> <r_epik_State_Penalty>
2.94598

> <r_epik_Charging_Adjusted_Penalty>
3.52991

> <i_epik_Tot_Q>
0

> <i_epik_Tot_abs_Q>
0

> <r_epik_Metal_State_Penalty>
2.95583

> <b_epik_Metal_Only>
1

> <s_lp_Force_Field>
OPLS_2005

> <r_lp_Energy>
39.2006

> <b_lp_Chiralities_Consistent>
1

> <s_lp_Variant>
AV-unprocessed.smi:3314-17

> <Gold.Version>
5.8.1

> <Gold.Id.Protein>
6NUR|6NUR_protein|mol2

> <Gold.PLP.Fitness>
42.7426

> <Gold.PLP.PLP>
-40.1739

> <Gold.PLP.part.hbond>
-1.0000

> <Gold.PLP.part.metal>
0.0000

> <Gold.PLP.part.buried>
-4.3366

> <Gold.PLP.part.nonpolar>
-34.7831

> <Gold.PLP.part.repulsive>
0.4725

> <Gold.PLP.ligand.clash>
0.0000

> <Gold.PLP.ligand.torsion>
0.2158

> <Gold.PLP.Chemscore.Hbond>
1.0000

> <Gold.PLP.Chemscore.CHOScore>
0.0000

> <Gold.PLP.Chemscore.Metal>
0.0000

> <Gold.Chemscore.Hbonds>
donor molecule, donor type, donor heavy atom, donor atom, acceptor molecule, acceptor atom, score
      P1  H  7997  8009       L1    10  1.00

> <Gold.PLP.Chemscore.Internal.Correction>
0.0003

> <Gold.Rescore>
     Score         DG    S(hbond)    S(metal)    S(lipo)     H(rot)  DE(clash)    DE(int)     intcor
     15.87     -17.70       0.98        0.00      98.36       1.00       0.28       1.54       ----

> <Gold.Chemscore.Fitness>
15.8704

> <Gold.Chemscore.DG>
-17.6961

> <Gold.Chemscore.ZeroCoef>
-5.4800

> <Gold.Chemscore.Hbond>
0.9783

> <Gold.Chemscore.Metal>
0.0000

> <Gold.Chemscore.Lipo>
98.3645

> <Gold.Chemscore.Internal_Hbond>
0.0000

> <Gold.Chemscore.DEClash>
0.2840

> <Gold.Chemscore.DEInternal>
1.5417

> <Gold.Chemscore.Rot>
1.0000

> <Gold.Chemscore.Internal.Correction>
   9.000000E+99

> <Gold.Chemscore.Hbonds>
donor molecule, donor type, donor heavy atom, donor atom, acceptor molecule, acceptor atom, score
      P1  H  7997  8009       L1    10  0.99

> <Gold.Chemscore.Hbond.Weighted>
-3.2675

> <Gold.Chemscore.Metal.Weighted>
-0.0000

> <Gold.Chemscore.Lipo.Weighted>
-11.5086

> <Gold.Chemscore.Internal_Hbond.Weighted>
0.0000

> <Gold.Chemscore.DEClash.Weighted>
0.2840

> <Gold.Chemscore.DEInternal.Weighted>
1.5417

> <Gold.Chemscore.Rot.Weighted>
2.5600

> <Gold.Chemscore.Internal.Correction.Weighted>
   9.000000E+99

> <Gold.Protein.RotatedTorsions>
[ 6907 6896 6895 6894 ] final   94.34 input  -60.11 | X-H torsion
[ 7974 7965 7964 7962 ] final  -62.26 input  175.53 | X-H torsion
[ 8008 7997 7996 7995 ] final -159.92 input   59.86 | X-H torsion
[ 10167 10162 10161 10158 ] final  -38.57 input  -65.29 | X-H torsion
[ 10718 10713 10712 10709 ] final  120.96 input   66.30 | X-H torsion
[ 10763 10752 10751 10750 ] final  111.75 input  -60.55 | X-H torsion
[ 11005 11000 10999 10996 ] final  120.91 input  -57.11 | X-H torsion

> <Gold.Protein.ActiveResidues>
 VAL166  LYS551  ARG553  GLY616  TRP617  ASP618  TYR619  PRO620  LYS621  CYS622 
 ASP623  PHE694  ASN695  SER759  ASP760  ASP761  ALA762  ILE779  LEU786  VAL792 
 PHE793  MET794  SER795  GLU796  ALA797  LYS798  CYS799  TRP800  GLU811  SER814 

> <Gold.Protein.RotatedAtoms>
  152.5450  134.1208  159.8397 H   0  0  0  0  0  0  0  0  0  0  0  0  # atno 6907 bound_to 6896
  151.1264  133.5060  159.2608 H   0  0  0  0  0  0  0  0  0  0  0  0  # atno 6908 bound_to 6896
  151.1722  135.0333  159.8811 H   0  0  0  0  0  0  0  0  0  0  0  0  # atno 6909 bound_to 6896
  145.7935  140.8696  143.0268 H   0  0  0  0  0  0  0  0  0  0  0  0  # atno 7974 bound_to 7965
  155.7697  140.0850  157.2114 H   0  0  0  0  0  0  0  0  0  0  0  0  # atno 8008 bound_to 7997
  154.3997  140.1527  156.2984 H   0  0  0  0  0  0  0  0  0  0  0  0  # atno 8009 bound_to 7997
  155.8759  140.3423  155.5856 H   0  0  0  0  0  0  0  0  0  0  0  0  # atno 8010 bound_to 7997
  140.7088  143.3269  151.2659 H   0  0  0  0  0  0  0  0  0  0  0  0  # atno 10167 bound_to 10162
  157.5853  131.1070  150.8108 H   0  0  0  0  0  0  0  0  0  0  0  0  # atno 10718 bound_to 10713
  153.4679  135.3707  155.2375 H   0  0  0  0  0  0  0  0  0  0  0  0  # atno 10763 bound_to 10752
  154.8757  135.3924  154.3847 H   0  0  0  0  0  0  0  0  0  0  0  0  # atno 10764 bound_to 10752
  153.4430  135.7084  153.6221 H   0  0  0  0  0  0  0  0  0  0  0  0  # atno 10765 bound_to 10752
  139.9204  134.9637  156.7878 H   0  0  0  0  0  0  0  0  0  0  0  0  # atno 11005 bound_to 11000
  144.6778  140.0157  143.7484 LP  0  0  0  0  0  0  0  0  0  0  0  0  # atno 17320 bound_to 7965
  145.9952  139.3047  143.0961 LP  0  0  0  0  0  0  0  0  0  0  0  0  # atno 17321 bound_to 7965
  139.6740  143.9971  152.2770 LP  0  0  0  0  0  0  0  0  0  0  0  0  # atno 17342 bound_to 10162
  139.9578  144.6577  150.8108 LP  0  0  0  0  0  0  0  0  0  0  0  0  # atno 17343 bound_to 10162
  156.8544  130.5091  149.5309 LP  0  0  0  0  0  0  0  0  0  0  0  0  # atno 17370 bound_to 10713
  156.0901  130.5889  150.9718 LP  0  0  0  0  0  0  0  0  0  0  0  0  # atno 17371 bound_to 10713
  140.6491  133.9747  155.7746 LP  0  0  0  0  0  0  0  0  0  0  0  0  # atno 17394 bound_to 11000
  141.0720  134.0192  157.3513 LP  0  0  0  0  0  0  0  0  0  0  0  0  # atno 17395 bound_to 11000

$$$$
