#       Name:                AV-unprocessed.smi:163
#       Creating user name   scv26
#       Creation time:       Thu Mar 26 19:10:58 2020


#       File generated by GOLD software.
#

@<TRIPOS>MOLECULE
AV-unprocessed.smi:163
    59    62     1
SMALL
NO_CHARGES


@<TRIPOS>ATOM
      1 ****        -6.2072   1.6499  -6.4780 N.1            1 S1                 0.0000
      2 ****        -5.6609   1.1857  -5.5694 C.1            1 S1                 0.0000
      3 ****        -4.9656   0.5919  -4.4152 C.3            1 S1                 0.0000
      4 ****        -4.7634   1.5697  -3.2501 C.2            1 S1                 0.0000
      5 ****        -5.1923   2.7195  -3.3559 O.2            1 S1                 0.0000
      6 ****        -4.1200   1.1345  -2.1416 N.am           1 S1                 0.0000
      7 ****        -3.5282  -0.1981  -1.9738 C.3            1 S1                 0.0000
      8 ****        -1.9972  -0.0585  -1.8891 C.3            1 S1                 0.0000
      9 ****        -1.6208   0.8890  -0.8377 N.3            1 S1                 0.0000
     10 ****        -0.3137   0.8677  -0.4699 C.ar           1 S1                 0.0000
     11 ****         0.4379   1.9960  -0.5815 N.ar           1 S1                 0.0000
     12 ****         1.7268   1.9885  -0.2290 C.ar           1 S1                 0.0000
     13 ****         2.4534   0.9800   0.2557 N.ar           1 S1                 0.0000
     14 ****         1.7042  -0.1526   0.3813 C.ar           1 S1                 0.0000
     15 ****         0.3279  -0.2954   0.0443 C.ar           1 S1                 0.0000
     16 ****        -0.0918  -1.5914   0.3211 N.2            1 S1                 0.0000
     17 ****         0.9761  -2.1828   0.7816 C.2            1 S1                 0.0000
     18 ****         2.0985  -1.3899   0.8606 N.pl3          1 S1                 0.0000
     19 ****         3.4159  -1.7884   1.3331 C.3            1 S1                 0.0000
     20 ****         3.5487  -1.8307   2.8767 C.3            1 S1                 0.0000
     21 ****         2.6533  -2.7980   3.3942 O.3            1 S1                 0.0000
     22 ****         3.2899  -0.4886   3.5640 C.3            1 S1                 0.0000
     23 ****         4.6933   0.0619   3.7681 C.3            1 S1                 0.0000
     24 ****         5.4199  -1.0960   4.1397 O.3            1 S1                 0.0000
     25 ****         4.9894  -2.1702   3.3118 C.3            1 S1                 0.0000
     26 ****        -2.3023   2.1861  -0.8801 C.3            1 S1                 0.0000
     27 ****        -3.8270   1.9992  -0.9921 C.3            1 S1                 0.0000
     28 ****        -5.5562  -0.2633  -4.0859 H              1 S1                 0.0000
     29 ****        -4.0010   0.2275  -4.7699 H              1 S1                 0.0000
     30 ****        -3.9109  -0.6427  -1.0540 H              1 S1                 0.0000
     31 ****        -3.7888  -0.8969  -2.7668 H              1 S1                 0.0000
     32 ****        -1.5580  -1.0404  -1.7214 H              1 S1                 0.0000
     33 ****        -1.6034   0.3006  -2.8409 H              1 S1                 0.0000
     34 ****         2.2506   2.9249  -0.3536 H              1 S1                 0.0000
     35 ****         0.9734  -3.2199   1.0851 H              1 S1                 0.0000
     36 ****         3.6437  -2.7679   0.9103 H              1 S1                 0.0000
     37 ****         4.1507  -1.0999   0.9138 H              1 S1                 0.0000
     38 ****         2.7566  -2.8287   4.3332 H              1 S1                 0.0000
     39 ****         2.6478   0.1915   3.0063 H              1 S1                 0.0000
     40 ****         2.8300  -0.6381   4.5424 H              1 S1                 0.0000
     41 ****         5.0947   0.4730   2.8403 H              1 S1                 0.0000
     42 ****         4.7384   0.8317   4.5388 H              1 S1                 0.0000
     43 ****         5.0640  -3.1132   3.8553 H              1 S1                 0.0000
     44 ****         5.6592  -2.2371   2.4532 H              1 S1                 0.0000
     45 ****        -2.0719   2.7590   0.0192 H              1 S1                 0.0000
     46 ****        -1.9349   2.7594  -1.7328 H              1 S1                 0.0000
     47 ****        -4.3140   2.9730  -1.0562 H              1 S1                 0.0000
     48 ****        -4.2136   1.5306  -0.0859 H              1 S1                 0.0000
     49 ****        -6.6792   2.0509  -7.2630 LP             1 S1                 0.0000
     50 ****        -5.6635   3.0025  -4.1913 LP             1 S1                 0.0000
     51 ****        -5.0694   3.3699  -2.6064 LP             1 S1                 0.0000
     52 ****        -2.0372   0.5043  -0.0139 LP             1 S1                 0.0000
     53 ****         0.0231   2.8366  -0.9296 LP             1 S1                 0.0000
     54 ****         3.4219   1.0460   0.4958 LP             1 S1                 0.0000
     55 ****        -1.0041  -1.9815   0.1959 LP             1 S1                 0.0000
     56 ****         2.8610  -3.6943   3.0022 LP             1 S1                 0.0000
     57 ****         1.7133  -2.5442   3.1661 LP             1 S1                 0.0000
     58 ****         5.2421  -1.3148   5.0992 LP             1 S1                 0.0000
     59 ****         6.3988  -0.9386   4.0096 LP             1 S1                 0.0000
@<TRIPOS>BOND
    1    1    2 3     
    2    2    3 1     
    3    3    4 1     
    4    3   28 1     
    5    3   29 1     
    6    4    5 2     
    7    4    6 am    
    8    6   27 1     
    9    6    7 1     
   10    7    8 1     
   11    7   30 1     
   12    7   31 1     
   13    8    9 1     
   14    8   32 1     
   15    8   33 1     
   16    9   10 1     
   17    9   26 1     
   18   10   15 ar    
   19   10   11 ar    
   20   11   12 ar    
   21   12   13 ar    
   22   12   34 1     
   23   13   14 ar    
   24   14   18 1     
   25   14   15 ar    
   26   15   16 1     
   27   16   17 2     
   28   17   18 1     
   29   17   35 1     
   30   18   19 1     
   31   19   20 1     
   32   19   36 1     
   33   19   37 1     
   34   20   25 1     
   35   20   21 1     
   36   20   22 1     
   37   21   38 1     
   38   22   23 1     
   39   22   39 1     
   40   22   40 1     
   41   23   24 1     
   42   23   41 1     
   43   23   42 1     
   44   24   25 1     
   45   25   43 1     
   46   25   44 1     
   47   26   27 1     
   48   26   45 1     
   49   26   46 1     
   50   27   47 1     
   51   27   48 1     
   52    1   49 1     
   53    5   50 1     
   54    5   51 1     
   55    9   52 1     
   56   11   53 1     
   57   13   54 1     
   58   16   55 1     
   59   21   56 1     
   60   21   57 1     
   61   24   58 1     
   62   24   59 1     
@<TRIPOS>SUBSTRUCTURE
      1 S1             1
@<TRIPOS>SET
LONE_PAIRS      STATIC     ATOMS    <user>   **** ""
11 49 50 51 52 53 54 55 56 57 58 59
DONOR_HYDROGENS      STATIC     ATOMS    <user>   **** ""
1 38
ATOM$BLUE        STATIC     ATOMS    COLORGROUP SYSTEM
11 49 50 51 52 53 54 55 56 57 58 59
ATOM$RED        STATIC     ATOMS    COLORGROUP SYSTEM
1 38
