AV-unprocessed.smi:3031|AV-procd|sdf|11548|dock8
  -GOLD-   2272016503D 1   1.00000     0.00000
 Structure written by MMmdl.
 47 48  0  0  0  0  0  0  0  0  2 V2000
  151.5691  143.3207  158.8293 C   0  0  0  0  0  0  0  0  0  0  0  0
  151.2530  142.1152  157.9921 C   0  0  0  0  0  0  0  0  0  0  0  0
  151.2481  140.7492  158.3940 C   0  0  0  0  0  0  0  0  0  0  0  0
  150.9180  139.9257  157.4129 N   0  0  0  0  0  0  0  0  0  0  0  0
  150.6970  140.7344  156.3537 N   0  0  0  0  0  0  0  0  0  0  0  0
  150.3025  140.1636  155.0785 C   0  0  0  0  0  0  0  0  0  0  0  0
  148.7868  140.2662  154.7804 C   0  0  1  0  0  0  0  0  0  0  0  0
  148.4354  141.6976  154.3520 C   0  0  0  0  0  0  0  0  0  0  0  0
  148.3641  139.3394  153.7256 N   0  0  0  0  0  0  0  0  0  0  0  0
  147.0682  139.6356  153.1084 C   0  0  0  0  0  0  0  0  0  0  0  0
  146.5278  138.4484  152.2925 C   0  0  1  0  0  0  0  0  0  0  0  0
  147.4906  138.0640  151.3310 O   0  0  0  0  0  0  0  0  0  0  0  0
  146.1202  137.2426  153.1667 C   0  0  0  0  0  0  0  0  0  0  0  0
  146.0023  135.9863  152.3852 N   0  3  0  0  0  0  0  0  0  0  0  0
  145.7787  134.8006  153.2462 C   0  0  0  0  0  0  0  0  0  0  0  0
  145.7235  133.5204  152.3955 C   0  0  0  0  0  0  0  0  0  0  0  0
  144.7040  133.6435  151.4116 O   0  0  0  0  0  0  0  0  0  0  0  0
  144.9491  134.7274  150.5242 C   0  0  0  0  0  0  0  0  0  0  0  0
  144.9766  136.0464  151.3143 C   0  0  0  0  0  0  0  0  0  0  0  0
  150.9018  142.0599  156.6730 C   0  0  0  0  0  0  0  0  0  0  0  0
  152.1562  143.0597  159.7099 H   0  0  0  0  0  0  0  0  0  0  0  0
  150.6621  143.8122  159.1819 H   0  0  0  0  0  0  0  0  0  0  0  0
  152.1415  144.0620  158.2709 H   0  0  0  0  0  0  0  0  0  0  0  0
  151.4715  140.3342  159.3658 H   0  0  0  0  0  0  0  0  0  0  0  0
  150.8647  140.6888  154.3053 H   0  0  0  0  0  0  0  0  0  0  0  0
  150.6279  139.1225  155.0352 H   0  0  0  0  0  0  0  0  0  0  0  0
  148.2273  140.0596  155.6940 H   0  0  0  0  0  0  0  0  0  0  0  0
  148.6998  142.4163  155.1279 H   0  0  0  0  0  0  0  0  0  0  0  0
  147.3663  141.8006  154.1633 H   0  0  0  0  0  0  0  0  0  0  0  0
  148.9636  141.9828  153.4412 H   0  0  0  0  0  0  0  0  0  0  0  0
  149.0754  139.3015  153.0021 H   0  0  0  0  0  0  0  0  0  0  0  0
  146.3280  139.8849  153.8639 H   0  0  0  0  0  0  0  0  0  0  0  0
  147.1523  140.5169  152.4717 H   0  0  0  0  0  0  0  0  0  0  0  0
  145.6619  138.8135  151.7416 H   0  0  0  0  0  0  0  0  0  0  0  0
  148.1143  137.4864  151.7443 H   0  0  0  0  0  0  0  0  0  0  0  0
  146.8647  137.1118  153.9536 H   0  0  0  0  0  0  0  0  0  0  0  0
  145.1750  137.4404  153.6752 H   0  0  0  0  0  0  0  0  0  0  0  0
  146.5820  134.7169  153.9791 H   0  0  0  0  0  0  0  0  0  0  0  0
  144.8475  134.9217  153.8023 H   0  0  0  0  0  0  0  0  0  0  0  0
  146.6857  133.3278  151.9182 H   0  0  0  0  0  0  0  0  0  0  0  0
  145.5035  132.6593  153.0267 H   0  0  0  0  0  0  0  0  0  0  0  0
  145.8887  134.5726  149.9912 H   0  0  0  0  0  0  0  0  0  0  0  0
  144.1584  134.7555  149.7740 H   0  0  0  0  0  0  0  0  0  0  0  0
  143.9965  136.2339  151.7559 H   0  0  0  0  0  0  0  0  0  0  0  0
  145.1807  136.8704  150.6317 H   0  0  0  0  0  0  0  0  0  0  0  0
  150.7741  142.8465  155.9438 H   0  0  0  0  0  0  0  0  0  0  0  0
  146.8972  135.8460  151.9374 H   0  0  0  0  0  0  0  0  0  0  0  0
  1  2  1  0  0  0  0
  1 21  1  0  0  0  0
  1 22  1  0  0  0  0
  1 23  1  0  0  0  0
  2 20  2  0  0  0  0
  2  3  1  0  0  0  0
  3  4  2  0  0  0  0
  3 24  1  0  0  0  0
  4  5  1  0  0  0  0
  5  6  1  0  0  0  0
  5 20  1  0  0  0  0
  6  7  1  0  0  0  0
  6 25  1  0  0  0  0
  6 26  1  0  0  0  0
  7  8  1  0  0  0  0
  7  9  1  0  0  0  0
  7 27  1  0  0  0  0
  8 28  1  0  0  0  0
  8 29  1  0  0  0  0
  8 30  1  0  0  0  0
  9 10  1  0  0  0  0
  9 31  1  0  0  0  0
 10 11  1  0  0  0  0
 10 32  1  0  0  0  0
 10 33  1  0  0  0  0
 11 12  1  0  0  0  0
 11 13  1  0  0  0  0
 11 34  1  0  0  0  0
 12 35  1  0  0  0  0
 13 14  1  0  0  0  0
 13 36  1  0  0  0  0
 13 37  1  0  0  0  0
 14 19  1  0  0  0  0
 14 15  1  0  0  0  0
 14 47  1  0  0  0  0
 15 16  1  0  0  0  0
 15 38  1  0  0  0  0
 15 39  1  0  0  0  0
 16 17  1  0  0  0  0
 16 40  1  0  0  0  0
 16 41  1  0  0  0  0
 17 18  1  0  0  0  0
 18 19  1  0  0  0  0
 18 42  1  0  0  0  0
 18 43  1  0  0  0  0
 19 44  1  0  0  0  0
 19 45  1  0  0  0  0
 20 46  1  0  0  0  0
M  CHG  1  14   1
M  END
> <s_m_source_file>
AV-unprocessed.smi

> <i_m_source_file_index>
3031

> <i_lp_mmshare_version>
43012

> <i_f3d_flags>
0

> <s_epik_input>
W0NIM11jMVtjSF1ubihbY0hdMSlbQ0gyXVtDQEhdKFtDSDNdKVtOSF1bQ0gyXVtDQEhdKFtPSF0pW0NIMl1OMltDSDJdW0NIMl1PW0NIMl1bQ0gyXTI=

> <s_epik_cmdline>
J2VwaWtfcHl0aG9uJywgJy1waCcsICc3LjAnLCAnLXRuJywgJzgnLCAnLW1hJywgJzIwMCcsICctbWV0YWxfYmluZGluZycsICctaW1hZScsICc8aW5maWxlLm1hZT4nLCAnLW9tYWUnLCAnPG91dGZpbGUubWFlPic=

> <r_epik_Ionization_Penalty>
0.467051

> <r_epik_Ionization_Penalty_Charging>
0.202493

> <r_epik_Ionization_Penalty_Neutral>
0.264558

> <r_epik_State_Penalty>
1.34287

> <r_epik_Charging_Adjusted_Penalty>
1.54537

> <i_epik_Tot_Q>
1

> <i_epik_Tot_abs_Q>
1

> <r_epik_Metal_State_Penalty>
1.34281

> <b_epik_Metal_Only>
0

> <s_lp_Force_Field>
OPLS_2005

> <r_lp_Energy>
30.2263

> <b_lp_Chiralities_Consistent>
1

> <s_lp_Variant>
AV-unprocessed.smi:3031-8

> <Gold.Version>
5.8.1

> <Gold.Id.Protein>
6NUR|6NUR_protein|mol2

> <Gold.PLP.Fitness>
52.9194

> <Gold.PLP.PLP>
-38.4509

> <Gold.PLP.part.hbond>
-4.6682

> <Gold.PLP.part.metal>
0.0000

> <Gold.PLP.part.buried>
-1.0797

> <Gold.PLP.part.nonpolar>
-32.7855

> <Gold.PLP.part.repulsive>
0.1151

> <Gold.PLP.ligand.clash>
0.0000

> <Gold.PLP.ligand.torsion>
0.8410

> <Gold.PLP.Chemscore.Hbond>
4.3500

> <Gold.PLP.Chemscore.CHOScore>
0.9989

> <Gold.PLP.Chemscore.Metal>
0.0000

> <Gold.Chemscore.Hbonds>
donor molecule, donor type, donor heavy atom, donor atom, acceptor molecule, acceptor atom, score
      L1  H     9    31       P1  7957  0.83
      L1  H    12    35       P1  7948  0.86
      L1  H    14    47       P1  7948  1.82
      P1  H  7954  7966       L1    12  0.60
      L1  C    20    46       P1  8028  0.66

> <Gold.PLP.Chemscore.Internal.Correction>
0.1037

> <Gold.Rescore>
     Score         DG    S(hbond)    S(metal)    S(lipo)     H(rot)  DE(clash)    DE(int)     intcor
     18.27     -19.59       2.91        0.00      95.64       2.65       0.46       0.86       ----

> <Gold.Chemscore.Fitness>
18.2712

> <Gold.Chemscore.DG>
-19.5936

> <Gold.Chemscore.ZeroCoef>
-5.4800

> <Gold.Chemscore.Hbond>
2.9082

> <Gold.Chemscore.Metal>
0.0000

> <Gold.Chemscore.Lipo>
95.6386

> <Gold.Chemscore.Internal_Hbond>
0.0000

> <Gold.Chemscore.DEClash>
0.4605

> <Gold.Chemscore.DEInternal>
0.8620

> <Gold.Chemscore.Rot>
2.6521

> <Gold.Chemscore.Internal.Correction>
   9.000000E+99

> <Gold.Chemscore.Hbonds>
donor molecule, donor type, donor heavy atom, donor atom, acceptor molecule, acceptor atom, score
      L1  H     9    31       P1  7957  0.78
      L1  H    12    35       P1  7948  0.82
      L1  H    14    47       P1  7948  0.83
      P1  H  7954  7966       L1    12  0.04

> <Gold.Chemscore.Hbond.Weighted>
-9.7132

> <Gold.Chemscore.Metal.Weighted>
-0.0000

> <Gold.Chemscore.Lipo.Weighted>
-11.1897

> <Gold.Chemscore.Internal_Hbond.Weighted>
0.0000

> <Gold.Chemscore.DEClash.Weighted>
0.4605

> <Gold.Chemscore.DEInternal.Weighted>
0.8620

> <Gold.Chemscore.Rot.Weighted>
6.7894

> <Gold.Chemscore.Internal.Correction.Weighted>
   9.000000E+99

> <Gold.Protein.RotatedTorsions>
[ 6907 6896 6895 6894 ] final   27.99 input  -60.11 | X-H torsion
[ 7974 7965 7964 7962 ] final   15.54 input  175.53 | X-H torsion
[ 8008 7997 7996 7995 ] final  164.00 input   59.86 | X-H torsion
[ 10167 10162 10161 10158 ] final -115.85 input  -65.29 | X-H torsion
[ 10718 10713 10712 10709 ] final  -60.33 input   66.30 | X-H torsion
[ 10763 10752 10751 10750 ] final  -49.57 input  -60.55 | X-H torsion
[ 11005 11000 10999 10996 ] final  -75.53 input  -57.11 | X-H torsion

> <Gold.Protein.ActiveResidues>
 VAL166  LYS551  ARG553  GLY616  TRP617  ASP618  TYR619  PRO620  LYS621  CYS622 
 ASP623  PHE694  ASN695  SER759  ASP760  ASP761  ALA762  ILE779  LEU786  VAL792 
 PHE793  MET794  SER795  GLU796  ALA797  LYS798  CYS799  TRP800  GLU811  SER814 

> <Gold.Protein.RotatedAtoms>
  152.0104  134.9879  160.0567 H   0  0  0  0  0  0  0  0  0  0  0  0  # atno 6907 bound_to 6896
  152.1434  133.4473  159.4786 H   0  0  0  0  0  0  0  0  0  0  0  0  # atno 6908 bound_to 6896
  150.6867  134.2195  159.4434 H   0  0  0  0  0  0  0  0  0  0  0  0  # atno 6909 bound_to 6896
  146.2275  139.8879  142.8560 H   0  0  0  0  0  0  0  0  0  0  0  0  # atno 7974 bound_to 7965
  156.1914  140.1708  156.8084 H   0  0  0  0  0  0  0  0  0  0  0  0  # atno 8008 bound_to 7997
  154.5476  140.0724  156.8646 H   0  0  0  0  0  0  0  0  0  0  0  0  # atno 8009 bound_to 7997
  155.3092  140.3366  155.4247 H   0  0  0  0  0  0  0  0  0  0  0  0  # atno 8010 bound_to 7997
  140.0855  143.4747  152.1900 H   0  0  0  0  0  0  0  0  0  0  0  0  # atno 10167 bound_to 10162
  156.0998  130.4188  150.0839 H   0  0  0  0  0  0  0  0  0  0  0  0  # atno 10718 bound_to 10713
  154.0962  135.6570  153.4860 H   0  0  0  0  0  0  0  0  0  0  0  0  # atno 10763 bound_to 10752
  153.0304  135.5214  154.7331 H   0  0  0  0  0  0  0  0  0  0  0  0  # atno 10764 bound_to 10752
  154.6470  135.2996  155.0003 H   0  0  0  0  0  0  0  0  0  0  0  0  # atno 10765 bound_to 10752
  141.1646  133.6950  156.7530 H   0  0  0  0  0  0  0  0  0  0  0  0  # atno 11005 bound_to 11000
  145.2447  141.0022  143.3915 LP  0  0  0  0  0  0  0  0  0  0  0  0  # atno 17320 bound_to 7965
  144.9423  139.4175  143.6443 LP  0  0  0  0  0  0  0  0  0  0  0  0  # atno 17321 bound_to 7965
  139.5754  144.7485  151.3778 LP  0  0  0  0  0  0  0  0  0  0  0  0  # atno 17342 bound_to 10162
  140.7055  143.7524  150.7475 LP  0  0  0  0  0  0  0  0  0  0  0  0  # atno 17343 bound_to 10162
  156.8829  130.9563  151.3597 LP  0  0  0  0  0  0  0  0  0  0  0  0  # atno 17370 bound_to 10713
  157.6166  130.8623  149.9039 LP  0  0  0  0  0  0  0  0  0  0  0  0  # atno 17371 bound_to 10713
  140.2590  134.8482  157.3740 LP  0  0  0  0  0  0  0  0  0  0  0  0  # atno 17394 bound_to 11000
  140.1629  134.4705  155.7882 LP  0  0  0  0  0  0  0  0  0  0  0  0  # atno 17395 bound_to 11000

$$$$
