#       Name:                AV-unprocessed.smi:1574
#       Creating user name   scv26
#       Creation time:       Fri Mar 27 06:55:01 2020


#       File generated by GOLD software.
#

@<TRIPOS>MOLECULE
AV-unprocessed.smi:1574
    47    48     1
SMALL
NO_CHARGES


@<TRIPOS>ATOM
      1 ****        -2.0326  -0.6405   1.5705 C.3            1 S1                 0.0000
      2 ****        -2.5097   0.1101   0.3178 C.3            1 S1                 0.0000
      3 ****        -1.9787   1.5572   0.2876 C.3            1 S1                 0.0000
      4 ****        -2.4962   2.3235  -0.9399 C.3            1 S1                 0.0000
      5 ****        -2.1557   1.5862  -2.2436 C.3            1 S1                 0.0000
      6 ****        -2.6817   0.1409  -2.2210 C.3            1 S1                 0.0000
      7 ****        -2.1698  -0.6364  -0.9945 C.3            1 S1                 0.0000
      8 ****        -0.7602  -0.7668  -1.1279 O.3            1 S1                 0.0000
      9 ****        -0.2678  -2.0891  -0.9813 C.3            1 S1                 0.0000
     10 ****         1.2668  -2.0545  -0.9664 C.3            1 S1                 0.0000
     11 ****         1.7754  -1.4421   0.2564 N.am           1 S1                 0.0000
     12 ****         1.9862  -0.1286   0.4362 C.2            1 S1                 0.0000
     13 ****         1.7868   0.7196  -0.4330 O.2            1 S1                 0.0000
     14 ****         2.5049   0.2971   1.8089 C.3            1 S1                 0.0000
     15 ****         3.9544   0.2762   1.8391 N.pl3          1 S1                 0.0000
     16 ****         4.8527   1.1755   1.4325 C.2            1 S1                 0.0000
     17 ****         6.0919   0.7525   1.6311 N.2            1 S1                 0.0000
     18 ****         5.9104  -0.4970   2.2004 N.2            1 S1                 0.0000
     19 ****         4.6441  -0.7853   2.3261 N.2            1 S1                 0.0000
     20 ****        -0.9447  -0.6991   1.6110 H              1 S1                 0.0000
     21 ****        -2.4250  -1.6574   1.5931 H              1 S1                 0.0000
     22 ****        -2.3686  -0.1379   2.4777 H              1 S1                 0.0000
     23 ****        -3.5974   0.1649   0.3821 H              1 S1                 0.0000
     24 ****        -2.2772   2.0824   1.1954 H              1 S1                 0.0000
     25 ****        -0.8881   1.5527   0.2815 H              1 S1                 0.0000
     26 ****        -3.5769   2.4488  -0.8632 H              1 S1                 0.0000
     27 ****        -2.0685   3.3264  -0.9585 H              1 S1                 0.0000
     28 ****        -2.5779   2.1216  -3.0944 H              1 S1                 0.0000
     29 ****        -1.0744   1.5823  -2.3888 H              1 S1                 0.0000
     30 ****        -3.7722   0.1549  -2.2103 H              1 S1                 0.0000
     31 ****        -2.3915  -0.3751  -3.1367 H              1 S1                 0.0000
     32 ****        -2.6521  -1.6161  -0.9903 H              1 S1                 0.0000
     33 ****        -0.6416  -2.5496  -0.0657 H              1 S1                 0.0000
     34 ****        -0.6192  -2.6949  -1.8176 H              1 S1                 0.0000
     35 ****         1.6510  -3.0738  -1.0071 H              1 S1                 0.0000
     36 ****         1.6515  -1.5438  -1.8508 H              1 S1                 0.0000
     37 ****         1.9743  -2.0632   1.0272 H              1 S1                 0.0000
     38 ****         2.1641   1.3080   2.0365 H              1 S1                 0.0000
     39 ****         2.1129  -0.3586   2.5882 H              1 S1                 0.0000
     40 ****         4.6002   2.1286   0.9918 H              1 S1                 0.0000
     41 ****        -0.3277  -0.1949  -0.4309 LP             1 S1                 0.0000
     42 ****        -0.5021  -0.4378  -2.0363 LP             1 S1                 0.0000
     43 ****         1.4490   0.4436  -1.3328 LP             1 S1                 0.0000
     44 ****         1.9626   1.6848  -0.2394 LP             1 S1                 0.0000
     45 ****         6.9499   1.2212   1.4211 LP             1 S1                 0.0000
     46 ****         6.6560  -1.1020   2.4799 LP             1 S1                 0.0000
     47 ****         4.2575  -1.6251   2.7072 LP             1 S1                 0.0000
@<TRIPOS>BOND
    1    1    2 1     
    2    1   20 1     
    3    1   21 1     
    4    1   22 1     
    5    2    7 1     
    6    2    3 1     
    7    2   23 1     
    8    3    4 1     
    9    3   24 1     
   10    3   25 1     
   11    4    5 1     
   12    4   26 1     
   13    4   27 1     
   14    5    6 1     
   15    5   28 1     
   16    5   29 1     
   17    6    7 1     
   18    6   30 1     
   19    6   31 1     
   20    7    8 1     
   21    7   32 1     
   22    8    9 1     
   23    9   10 1     
   24    9   33 1     
   25    9   34 1     
   26   10   11 1     
   27   10   35 1     
   28   10   36 1     
   29   11   12 am    
   30   11   37 1     
   31   12   13 2     
   32   12   14 1     
   33   14   15 1     
   34   14   38 1     
   35   14   39 1     
   36   15   19 1     
   37   15   16 1     
   38   16   17 2     
   39   16   40 1     
   40   17   18 1     
   41   18   19 2     
   42    8   41 1     
   43    8   42 1     
   44   13   43 1     
   45   13   44 1     
   46   17   45 1     
   47   18   46 1     
   48   19   47 1     
@<TRIPOS>SUBSTRUCTURE
      1 S1             1
@<TRIPOS>SET
LONE_PAIRS      STATIC     ATOMS    <user>   **** ""
7 41 42 43 44 45 46 47
DONOR_HYDROGENS      STATIC     ATOMS    <user>   **** ""
1 37
ATOM$BLUE        STATIC     ATOMS    COLORGROUP SYSTEM
7 41 42 43 44 45 46 47
ATOM$RED        STATIC     ATOMS    COLORGROUP SYSTEM
1 37
