AV-unprocessed.smi:203|AV-procd|sdf|1597|dock9
  -GOLD-   2262019503D 1   1.00000     0.00000
 Structure written by MMmdl.
 57 61  0  0  0  0  0  0  0  0  1 V2000
  149.8005  145.3953  160.4173 O   0  0  0  0  0  0  0  0  0  0  0  0
  150.6228  144.9536  159.6182 C   0  0  0  0  0  0  0  0  0  0  0  0
  150.4735  143.6158  158.9146 C   0  0  0  0  0  0  0  0  0  0  0  0
  151.8372  143.4146  158.2225 C   0  0  2  0  0  0  0  0  0  0  0  0
  152.7047  142.2637  158.8245 C   0  0  1  0  0  0  0  0  0  0  0  0
  153.1662  142.5565  160.2771 C   0  0  0  0  0  0  0  0  0  0  0  0
  154.0140  141.4116  160.8470 C   0  0  0  0  0  0  0  0  0  0  0  0
  153.2364  140.0945  160.7598 C   0  0  0  0  0  0  0  0  0  0  0  0
  152.8012  139.8270  159.3130 C   0  0  0  0  0  0  0  0  0  0  0  0
  152.0373  140.9501  158.7703 N   0  0  0  0  0  0  0  0  0  0  0  0
  151.4722  140.6055  157.5916 C   0  0  0  0  0  0  0  0  0  0  0  0
  152.3019  140.1663  156.6137 N   0  0  0  0  0  0  0  0  0  0  0  0
  151.8024  139.8027  155.4285 C   0  0  0  0  0  0  0  0  0  0  0  0
  150.5307  139.8038  155.0220 N   0  0  0  0  0  0  0  0  0  0  0  0
  149.6963  140.2532  156.0028 C   0  0  0  0  0  0  0  0  0  0  0  0
  150.0792  140.6752  157.3066 C   0  0  0  0  0  0  0  0  0  0  0  0
  148.9578  141.0710  158.0261 N   0  0  0  0  0  0  0  0  0  0  0  0
  147.9672  140.8894  157.1956 C   0  0  0  0  0  0  0  0  0  0  0  0
  148.3215  140.4014  155.9584 N   0  0  0  0  0  0  0  0  0  0  0  0
  147.4245  140.1070  154.8540 C   0  0  0  0  0  0  0  0  0  0  0  0
  147.2893  138.5923  154.5878 C   0  0  1  0  0  0  0  0  0  0  0  0
  146.7938  137.9804  155.7633 O   0  0  0  0  0  0  0  0  0  0  0  0
  146.3114  138.2651  153.4411 C   0  0  1  0  0  0  0  0  0  0  0  0
  146.7803  138.6987  152.0506 C   0  0  0  0  0  0  0  0  0  0  0  0
  146.0217  137.7743  151.1130 C   0  0  0  0  0  0  0  0  0  0  0  0
  145.5878  136.6158  152.0139 C   0  0  0  0  0  0  0  0  0  0  0  0
  146.2210  136.8592  153.2625 O   0  0  0  0  0  0  0  0  0  0  0  0
  152.5228  144.7967  158.2855 C   0  0  0  0  0  0  0  0  0  0  0  0
  151.7485  145.5590  159.2455 N   0  0  0  0  0  0  0  0  0  0  0  0
  150.2230  142.8213  159.6178 H   0  0  0  0  0  0  0  0  0  0  0  0
  149.6688  143.6836  158.1821 H   0  0  0  0  0  0  0  0  0  0  0  0
  151.6598  143.2086  157.1665 H   0  0  0  0  0  0  0  0  0  0  0  0
  153.6067  142.1859  158.2165 H   0  0  0  0  0  0  0  0  0  0  0  0
  153.7449  143.4782  160.3241 H   0  0  0  0  0  0  0  0  0  0  0  0
  152.3031  142.7063  160.9257 H   0  0  0  0  0  0  0  0  0  0  0  0
  154.9476  141.3288  160.2891 H   0  0  0  0  0  0  0  0  0  0  0  0
  154.2835  141.6217  161.8822 H   0  0  0  0  0  0  0  0  0  0  0  0
  153.8492  139.2702  161.1251 H   0  0  0  0  0  0  0  0  0  0  0  0
  152.3580  140.1410  161.4049 H   0  0  0  0  0  0  0  0  0  0  0  0
  153.6799  139.6527  158.6904 H   0  0  0  0  0  0  0  0  0  0  0  0
  152.2013  138.9160  159.2777 H   0  0  0  0  0  0  0  0  0  0  0  0
  152.5250  139.4615  154.7019 H   0  0  0  0  0  0  0  0  0  0  0  0
  146.9439  141.1094  157.4634 H   0  0  0  0  0  0  0  0  0  0  0  0
  146.4483  140.5456  155.0655 H   0  0  0  0  0  0  0  0  0  0  0  0
  147.8098  140.6195  153.9722 H   0  0  0  0  0  0  0  0  0  0  0  0
  148.2724  138.1772  154.3623 H   0  0  0  0  0  0  0  0  0  0  0  0
  147.1213  137.0950  155.8021 H   0  0  0  0  0  0  0  0  0  0  0  0
  145.3200  138.6785  153.6398 H   0  0  0  0  0  0  0  0  0  0  0  0
  146.5891  139.7528  151.8479 H   0  0  0  0  0  0  0  0  0  0  0  0
  147.8519  138.5234  151.9444 H   0  0  0  0  0  0  0  0  0  0  0  0
  145.1494  138.2723  150.6876 H   0  0  0  0  0  0  0  0  0  0  0  0
  146.6538  137.4402  150.2894 H   0  0  0  0  0  0  0  0  0  0  0  0
  144.5058  136.6201  152.1507 H   0  0  0  0  0  0  0  0  0  0  0  0
  145.8774  135.6438  151.6144 H   0  0  0  0  0  0  0  0  0  0  0  0
  153.5737  144.7462  158.5713 H   0  0  0  0  0  0  0  0  0  0  0  0
  152.4711  145.2994  157.3190 H   0  0  0  0  0  0  0  0  0  0  0  0
  152.0454  146.4607  159.5898 H   0  0  0  0  0  0  0  0  0  0  0  0
  1  2  2  0  0  0  0
  2 29  1  0  0  0  0
  2  3  1  0  0  0  0
  3  4  1  0  0  0  0
  3 30  1  0  0  0  0
  3 31  1  0  0  0  0
  4  5  1  0  0  0  0
  4 28  1  0  0  0  0
  4 32  1  0  0  0  0
  5 10  1  0  0  0  0
  5  6  1  0  0  0  0
  5 33  1  0  0  0  0
  6  7  1  0  0  0  0
  6 34  1  0  0  0  0
  6 35  1  0  0  0  0
  7  8  1  0  0  0  0
  7 36  1  0  0  0  0
  7 37  1  0  0  0  0
  8  9  1  0  0  0  0
  8 38  1  0  0  0  0
  8 39  1  0  0  0  0
  9 10  1  0  0  0  0
  9 40  1  0  0  0  0
  9 41  1  0  0  0  0
 10 11  1  0  0  0  0
 11 16  1  0  0  0  0
 11 12  2  0  0  0  0
 12 13  1  0  0  0  0
 13 14  2  0  0  0  0
 13 42  1  0  0  0  0
 14 15  1  0  0  0  0
 15 19  1  0  0  0  0
 15 16  2  0  0  0  0
 16 17  1  0  0  0  0
 17 18  2  0  0  0  0
 18 19  1  0  0  0  0
 18 43  1  0  0  0  0
 19 20  1  0  0  0  0
 20 21  1  0  0  0  0
 20 44  1  0  0  0  0
 20 45  1  0  0  0  0
 21 22  1  0  0  0  0
 21 23  1  0  0  0  0
 21 46  1  0  0  0  0
 22 47  1  0  0  0  0
 23 27  1  0  0  0  0
 23 24  1  0  0  0  0
 23 48  1  0  0  0  0
 24 25  1  0  0  0  0
 24 49  1  0  0  0  0
 24 50  1  0  0  0  0
 25 26  1  0  0  0  0
 25 51  1  0  0  0  0
 25 52  1  0  0  0  0
 26 27  1  0  0  0  0
 26 53  1  0  0  0  0
 26 54  1  0  0  0  0
 28 29  1  0  0  0  0
 28 55  1  0  0  0  0
 28 56  1  0  0  0  0
 29 57  1  0  0  0  0
M  END
> <s_m_source_file>
AV-unprocessed.smi

> <i_m_source_file_index>
203

> <i_lp_mmshare_version>
43012

> <i_f3d_flags>
0

> <s_epik_input>
Tz1DMVtDSDJdW0NASF0oW0NIMl1bTkhdMSlbQ0BASF0yW0NIMl1bQ0gyXVtDSDJdW0NIMl1OMmMobltjSF1uMyljKGMzNCluW2NIXW40W0NIMl1bQ0BIXShbT0hdKVtDQEBIXTVbQ0gyXVtDSDJdW0NIMl1PNQ==

> <s_epik_cmdline>
J2VwaWtfcHl0aG9uJywgJy1waCcsICc3LjAnLCAnLXRuJywgJzgnLCAnLW1hJywgJzIwMCcsICctbWV0YWxfYmluZGluZycsICctaW1hZScsICc8aW5maWxlLm1hZT4nLCAnLW9tYWUnLCAnPG91dGZpbGUubWFlPic=

> <r_lp_tautomer_probability>
1

> <r_epik_Ionization_Penalty>
0.00175146

> <r_epik_Ionization_Penalty_Charging>
0

> <r_epik_Ionization_Penalty_Neutral>
0.00175146

> <r_epik_State_Penalty>
0.00109045

> <r_epik_Charging_Adjusted_Penalty>
0.00109045

> <i_epik_Tot_Q>
0

> <i_epik_Tot_abs_Q>
0

> <r_epik_Metal_State_Penalty>
-0

> <b_epik_Metal_Only>
0

> <s_lp_Force_Field>
OPLS_2005

> <r_lp_Energy>
57.64

> <b_lp_Chiralities_Consistent>
1

> <s_lp_Variant>
AV-unprocessed.smi:203-16

> <Gold.Version>
5.8.1

> <Gold.Id.Protein>
6NUR|6NUR_protein|mol2

> <Gold.PLP.Fitness>
47.7026

> <Gold.PLP.PLP>
-45.1965

> <Gold.PLP.part.hbond>
-2.6601

> <Gold.PLP.part.metal>
0.0000

> <Gold.PLP.part.buried>
-2.7437

> <Gold.PLP.part.nonpolar>
-42.6286

> <Gold.PLP.part.repulsive>
0.8447

> <Gold.PLP.ligand.clash>
0.0000

> <Gold.PLP.ligand.torsion>
0.4013

> <Gold.PLP.Chemscore.Hbond>
1.0000

> <Gold.PLP.Chemscore.CHOScore>
0.0000

> <Gold.PLP.Chemscore.Metal>
0.0000

> <Gold.Chemscore.Hbonds>
donor molecule, donor type, donor heavy atom, donor atom, acceptor molecule, acceptor atom, score
      P1  H  7997  8010       L1    12  0.98

> <Gold.PLP.Chemscore.Internal.Correction>
0.3086

> <Gold.Rescore>
     Score         DG    S(hbond)    S(metal)    S(lipo)     H(rot)  DE(clash)    DE(int)     intcor
     11.58     -15.39       0.84        0.00     120.01       2.72       1.76       2.05       ----

> <Gold.Chemscore.Fitness>
11.5782

> <Gold.Chemscore.DG>
-15.3859

> <Gold.Chemscore.ZeroCoef>
-5.4800

> <Gold.Chemscore.Hbond>
0.8443

> <Gold.Chemscore.Metal>
0.0000

> <Gold.Chemscore.Lipo>
120.0127

> <Gold.Chemscore.Internal_Hbond>
0.0000

> <Gold.Chemscore.DEClash>
1.7585

> <Gold.Chemscore.DEInternal>
2.0492

> <Gold.Chemscore.Rot>
2.7171

> <Gold.Chemscore.Internal.Correction>
   9.000000E+99

> <Gold.Chemscore.Hbonds>
donor molecule, donor type, donor heavy atom, donor atom, acceptor molecule, acceptor atom, score
      P1  H  7997  8010       L1    12  0.58

> <Gold.Chemscore.Hbond.Weighted>
-2.8201

> <Gold.Chemscore.Metal.Weighted>
-0.0000

> <Gold.Chemscore.Lipo.Weighted>
-14.0415

> <Gold.Chemscore.Internal_Hbond.Weighted>
0.0000

> <Gold.Chemscore.DEClash.Weighted>
1.7585

> <Gold.Chemscore.DEInternal.Weighted>
2.0492

> <Gold.Chemscore.Rot.Weighted>
6.9557

> <Gold.Chemscore.Internal.Correction.Weighted>
   9.000000E+99

> <Gold.Protein.RotatedTorsions>
[ 6907 6896 6895 6894 ] final -128.46 input  -60.11 | X-H torsion
[ 7974 7965 7964 7962 ] final -162.75 input  175.53 | X-H torsion
[ 8008 7997 7996 7995 ] final   68.77 input   59.86 | X-H torsion
[ 10167 10162 10161 10158 ] final  -32.65 input  -65.29 | X-H torsion
[ 10718 10713 10712 10709 ] final  -83.05 input   66.30 | X-H torsion
[ 10763 10752 10751 10750 ] final   94.12 input  -60.55 | X-H torsion
[ 11005 11000 10999 10996 ] final  152.77 input  -57.11 | X-H torsion

> <Gold.Protein.ActiveResidues>
 VAL166  LYS551  ARG553  GLY616  TRP617  ASP618  TYR619  PRO620  LYS621  CYS622 
 ASP623  PHE694  ASN695  SER759  ASP760  ASP761  ALA762  ILE779  LEU786  VAL792 
 PHE793  MET794  SER795  GLU796  ALA797  LYS798  CYS799  TRP800  GLU811  SER814 

> <Gold.Protein.RotatedAtoms>
  150.9181  133.6914  159.2838 H   0  0  0  0  0  0  0  0  0  0  0  0  # atno 6907 bound_to 6896
  151.4377  135.1015  159.9671 H   0  0  0  0  0  0  0  0  0  0  0  0  # atno 6908 bound_to 6896
  152.4965  133.8597  159.7299 H   0  0  0  0  0  0  0  0  0  0  0  0  # atno 6909 bound_to 6896
  144.7347  140.3206  143.6171 H   0  0  0  0  0  0  0  0  0  0  0  0  # atno 7974 bound_to 7965
  155.7133  140.3494  155.4983 H   0  0  0  0  0  0  0  0  0  0  0  0  # atno 8008 bound_to 7997
  155.9336  140.1088  157.1135 H   0  0  0  0  0  0  0  0  0  0  0  0  # atno 8009 bound_to 7997
  154.4089  140.1226  156.4821 H   0  0  0  0  0  0  0  0  0  0  0  0  # atno 8010 bound_to 7997
  140.7218  143.3679  151.1835 H   0  0  0  0  0  0  0  0  0  0  0  0  # atno 10167 bound_to 10162
  156.0024  130.4653  150.4198 H   0  0  0  0  0  0  0  0  0  0  0  0  # atno 10718 bound_to 10713
  153.2380  135.4301  155.0668 H   0  0  0  0  0  0  0  0  0  0  0  0  # atno 10763 bound_to 10752
  154.8328  135.3396  154.6690 H   0  0  0  0  0  0  0  0  0  0  0  0  # atno 10764 bound_to 10752
  153.7115  135.7022  153.5093 H   0  0  0  0  0  0  0  0  0  0  0  0  # atno 10765 bound_to 10752
  140.1337  134.8785  157.2239 H   0  0  0  0  0  0  0  0  0  0  0  0  # atno 11005 bound_to 11000
  145.7572  139.1813  143.2288 LP  0  0  0  0  0  0  0  0  0  0  0  0  # atno 17320 bound_to 7965
  146.1015  140.7538  142.9547 LP  0  0  0  0  0  0  0  0  0  0  0  0  # atno 17321 bound_to 7965
  139.7244  143.9172  152.2997 LP  0  0  0  0  0  0  0  0  0  0  0  0  # atno 17342 bound_to 10162
  139.8940  144.6950  150.8739 LP  0  0  0  0  0  0  0  0  0  0  0  0  # atno 17343 bound_to 10162
  157.2255  131.0492  151.2522 LP  0  0  0  0  0  0  0  0  0  0  0  0  # atno 17370 bound_to 10713
  157.3760  130.7206  149.6597 LP  0  0  0  0  0  0  0  0  0  0  0  0  # atno 17371 bound_to 10713
  140.2809  134.3351  155.7343 LP  0  0  0  0  0  0  0  0  0  0  0  0  # atno 17394 bound_to 11000
  141.2174  133.7478  156.9362 LP  0  0  0  0  0  0  0  0  0  0  0  0  # atno 17395 bound_to 11000

$$$$
