#       Name:                AV-unprocessed.smi:841
#       Creating user name   scv26
#       Creation time:       Fri Mar 27 01:37:58 2020


#       File generated by GOLD software.
#

@<TRIPOS>MOLECULE
AV-unprocessed.smi:841
    35    36     1
SMALL
NO_CHARGES


@<TRIPOS>ATOM
      1 ****        -0.0720   1.4711   0.1985 O.2            1 S1                 0.0000
      2 ****         0.6580   0.5437  -0.1515 C.2            1 S1                 0.0000
      3 ****         2.1774   0.7291  -0.1764 C.3            1 S1                 0.0000
      4 ****         2.5687   1.8052  -1.0710 N.pl3          1 S1                 0.0000
      5 ****         2.4963   1.8462  -2.4485 C.2            1 S1                 0.0000
      6 ****         2.9887   3.0560  -2.8467 C.2            1 S1                 0.0000
      7 ****         3.3476   3.6927  -1.6260 C.2            1 S1                 0.0000
      8 ****         3.0986   2.9408  -0.5659 N.2            1 S1                 0.0000
      9 ****         0.1972  -0.6613  -0.5226 N.am           1 S1                 0.0000
     10 ****        -1.2074  -1.0555  -0.5699 C.3            1 S1                 0.0000
     11 ****        -1.6411  -1.7910   0.7121 C.3            1 S1                 0.0000
     12 ****        -1.6445  -0.9471   1.9726 C.3            1 S1                 0.0000
     13 ****        -2.5481  -1.7575   2.8971 C.3            1 S1                 0.0000
     14 ****        -3.4716  -2.4335   2.0482 O.3            1 S1                 0.0000
     15 ****        -3.0911  -2.2727   0.6851 C.3            1 S1                 0.0000
     16 ****         2.5294   0.9444   0.8338 H              1 S1                 0.0000
     17 ****         2.6746  -0.1862  -0.5009 H              1 S1                 0.0000
     18 ****         2.1032   1.0205  -3.0232 H              1 S1                 0.0000
     19 ****         3.0803   3.4287  -3.8561 H              1 S1                 0.0000
     20 ****         3.7813   4.6710  -1.4798 H              1 S1                 0.0000
     21 ****         0.8730  -1.3618  -0.7914 H              1 S1                 0.0000
     22 ****        -1.8487  -0.1919  -0.7545 H              1 S1                 0.0000
     23 ****        -1.3352  -1.7163  -1.4276 H              1 S1                 0.0000
     24 ****        -0.9934  -2.6549   0.8718 H              1 S1                 0.0000
     25 ****        -0.6492  -0.7882   2.3886 H              1 S1                 0.0000
     26 ****        -2.0918   0.0282   1.7757 H              1 S1                 0.0000
     27 ****        -1.9666  -2.5038   3.4399 H              1 S1                 0.0000
     28 ****        -3.0616  -1.1321   3.6274 H              1 S1                 0.0000
     29 ****        -3.7408  -1.5215   0.2338 H              1 S1                 0.0000
     30 ****        -3.2119  -3.2018   0.1278 H              1 S1                 0.0000
     31 ****         0.3273   2.3476   0.4672 LP             1 S1                 0.0000
     32 ****        -1.0642   1.3479   0.2140 LP             1 S1                 0.0000
     33 ****         3.2654   3.1634   0.3946 LP             1 S1                 0.0000
     34 ****        -4.3859  -2.0518   2.1836 LP             1 S1                 0.0000
     35 ****        -3.4795  -3.4070   2.2768 LP             1 S1                 0.0000
@<TRIPOS>BOND
    1    1    2 2     
    2    2    3 1     
    3    2    9 am    
    4    3    4 1     
    5    3   16 1     
    6    3   17 1     
    7    4    8 1     
    8    4    5 1     
    9    5    6 2     
   10    5   18 1     
   11    6    7 1     
   12    6   19 1     
   13    7    8 2     
   14    7   20 1     
   15    9   10 1     
   16    9   21 1     
   17   10   11 1     
   18   10   22 1     
   19   10   23 1     
   20   11   15 1     
   21   11   12 1     
   22   11   24 1     
   23   12   13 1     
   24   12   25 1     
   25   12   26 1     
   26   13   14 1     
   27   13   27 1     
   28   13   28 1     
   29   14   15 1     
   30   15   29 1     
   31   15   30 1     
   32    1   31 1     
   33    1   32 1     
   34    8   33 1     
   35   14   34 1     
   36   14   35 1     
@<TRIPOS>SUBSTRUCTURE
      1 S1             1
@<TRIPOS>SET
LONE_PAIRS      STATIC     ATOMS    <user>   **** ""
5 31 32 33 34 35
DONOR_HYDROGENS      STATIC     ATOMS    <user>   **** ""
1 21
ATOM$BLUE        STATIC     ATOMS    COLORGROUP SYSTEM
5 31 32 33 34 35
ATOM$RED        STATIC     ATOMS    COLORGROUP SYSTEM
1 21
