#       Name:                AV-unprocessed.smi:2433
#       Creating user name   scv26
#       Creation time:       Fri Mar 27 13:22:10 2020


#       File generated by GOLD software.
#

@<TRIPOS>MOLECULE
AV-unprocessed.smi:2433
    43    45     1
SMALL
NO_CHARGES


@<TRIPOS>ATOM
      1 ****        -0.7657  -0.3632   2.1609 O.2            1 S1                 0.0000
      2 ****        -0.9916   0.3083   1.1537 C.2            1 S1                 0.0000
      3 ****        -1.5152   1.6727   1.2167 C.2            1 S1                 0.0000
      4 ****        -1.7385   2.3865   0.0881 C.2            1 S1                 0.0000
      5 ****        -2.2931   3.8079   0.1690 C.3            1 S1                 0.0000
      6 ****        -2.3812   4.6167  -1.1414 C.3            1 S1                 0.0000
      7 ****        -1.0200   5.2337  -0.8039 C.3            1 S1                 0.0000
      8 ****        -1.2632   4.8402   0.6574 C.3            1 S1                 0.0000
      9 ****        -1.4811   1.8225  -1.1681 N.2            1 S1                 0.0000
     10 ****        -1.0183   0.6162  -1.2528 C.2            1 S1                 0.0000
     11 ****        -0.7694  -0.1633  -0.1075 N.am           1 S1                 0.0000
     12 ****        -0.2493  -1.5207  -0.3396 C.3            1 S1                 0.0000
     13 ****         1.2770  -1.6115  -0.1206 C.3            1 S1                 0.0000
     14 ****         1.9310  -1.0579  -1.2456 O.3            1 S1                 0.0000
     15 ****         1.7048  -3.0518   0.1170 C.ar           1 S1                 0.0000
     16 ****         2.0293  -3.4819   1.4216 C.ar           1 S1                 0.0000
     17 ****         2.4127  -4.8170   1.6544 C.ar           1 S1                 0.0000
     18 ****         2.4702  -5.7309   0.5848 C.ar           1 S1                 0.0000
     19 ****         2.8364  -7.0150   0.8097 F              1 S1                 0.0000
     20 ****         2.1445  -5.3089  -0.7184 C.ar           1 S1                 0.0000
     21 ****         1.7617  -3.9737  -0.9521 C.ar           1 S1                 0.0000
     22 ****        -1.7223   2.1141   2.1809 H              1 S1                 0.0000
     23 ****        -3.2218   3.8338   0.7403 H              1 S1                 0.0000
     24 ****        -2.4112   4.0510  -2.0723 H              1 S1                 0.0000
     25 ****        -3.1833   5.3559  -1.1145 H              1 S1                 0.0000
     26 ****        -0.1874   4.6902  -1.2534 H              1 S1                 0.0000
     27 ****        -0.9475   6.3067  -0.9829 H              1 S1                 0.0000
     28 ****        -1.7191   5.6447   1.2367 H              1 S1                 0.0000
     29 ****        -0.3904   4.4281   1.1657 H              1 S1                 0.0000
     30 ****        -0.7927   0.1355  -2.2063 H              1 S1                 0.0000
     31 ****        -0.7510  -2.1929   0.3598 H              1 S1                 0.0000
     32 ****        -0.5190  -1.9074  -1.3248 H              1 S1                 0.0000
     33 ****         1.5698  -1.0231   0.7501 H              1 S1                 0.0000
     34 ****         2.8605  -1.0462  -1.0748 H              1 S1                 0.0000
     35 ****         1.9826  -2.7898   2.2499 H              1 S1                 0.0000
     36 ****         2.6602  -5.1404   2.6548 H              1 S1                 0.0000
     37 ****         2.1853  -6.0100  -1.5390 H              1 S1                 0.0000
     38 ****         1.5081  -3.6610  -1.9544 H              1 S1                 0.0000
     39 ****        -0.4055  -1.2918   2.0723 LP             1 S1                 0.0000
     40 ****        -0.9425   0.0202   3.0675 LP             1 S1                 0.0000
     41 ****        -1.6547   2.3513  -1.9989 LP             1 S1                 0.0000
     42 ****         1.6044  -0.1255  -1.4011 LP             1 S1                 0.0000
     43 ****         1.7432  -1.6159  -2.0538 LP             1 S1                 0.0000
@<TRIPOS>BOND
    1    1    2 2     
    2    2   11 am    
    3    2    3 1     
    4    3    4 2     
    5    3   22 1     
    6    4    5 1     
    7    4    9 1     
    8    5    8 1     
    9    5    6 1     
   10    5   23 1     
   11    6    7 1     
   12    6   24 1     
   13    6   25 1     
   14    7    8 1     
   15    7   26 1     
   16    7   27 1     
   17    8   28 1     
   18    8   29 1     
   19    9   10 2     
   20   10   11 1     
   21   10   30 1     
   22   11   12 1     
   23   12   13 1     
   24   12   31 1     
   25   12   32 1     
   26   13   14 1     
   27   13   15 1     
   28   13   33 1     
   29   14   34 1     
   30   15   21 ar    
   31   15   16 ar    
   32   16   17 ar    
   33   16   35 1     
   34   17   18 ar    
   35   17   36 1     
   36   18   19 1     
   37   18   20 ar    
   38   20   21 ar    
   39   20   37 1     
   40   21   38 1     
   41    1   39 1     
   42    1   40 1     
   43    9   41 1     
   44   14   42 1     
   45   14   43 1     
@<TRIPOS>SUBSTRUCTURE
      1 S1             1
@<TRIPOS>SET
LONE_PAIRS      STATIC     ATOMS    <user>   **** ""
5 39 40 41 42 43
DONOR_HYDROGENS      STATIC     ATOMS    <user>   **** ""
1 34
ATOM$BLUE        STATIC     ATOMS    COLORGROUP SYSTEM
5 39 40 41 42 43
ATOM$RED        STATIC     ATOMS    COLORGROUP SYSTEM
1 34
