AV-unprocessed.smi:1918|AV-procd|sdf|7770|dock2
  -GOLD-   22720 9513D 1   1.00000     0.00000
 Structure written by MMmdl.
 35 37  0  0  0  0  0  0  0  0  1 V2000
  152.1764  139.9357  155.9192 C   0  0  0  0  0  0  0  0  0  0  0  0
  150.8209  140.4500  155.5504 C   0  0  0  0  0  0  0  0  0  0  0  0
  150.2821  140.2372  154.3499 N   0  0  0  0  0  0  0  0  0  0  0  0
  149.0574  140.8684  154.4520 C   0  0  0  0  0  0  0  0  0  0  0  0
  148.0128  141.0025  153.5095 C   0  0  0  0  0  0  0  0  0  0  0  0
  146.8352  141.7025  153.8443 C   0  0  0  0  0  0  0  0  0  0  0  0
  146.6855  142.2778  155.1229 C   0  0  0  0  0  0  0  0  0  0  0  0
  147.7144  142.1559  156.0767 C   0  0  0  0  0  0  0  0  0  0  0  0
  148.8877  141.4556  155.7381 C   0  0  0  0  0  0  0  0  0  0  0  0
  150.0631  141.1593  156.4224 N   0  0  0  0  0  0  0  0  0  0  0  0
  150.3926  141.5387  157.7898 C   0  0  0  0  0  0  0  0  0  0  0  0
  151.5280  142.5793  157.8650 C   0  0  1  0  0  0  0  0  0  0  0  0
  151.1452  143.7622  157.1885 O   0  0  0  0  0  0  0  0  0  0  0  0
  151.9414  142.8385  159.3080 C   0  0  0  0  0  0  0  0  0  0  0  0
  151.6186  144.0602  159.9413 C   0  0  0  0  0  0  0  0  0  0  0  0
  152.0004  144.2929  161.2767 C   0  0  0  0  0  0  0  0  0  0  0  0
  152.7031  143.3042  161.9908 C   0  0  0  0  0  0  0  0  0  0  0  0
  153.0714  143.5282  163.2743 F   0  0  0  0  0  0  0  0  0  0  0  0
  153.0193  142.0809  161.3702 C   0  0  0  0  0  0  0  0  0  0  0  0
  152.6383  141.8461  160.0346 C   0  0  0  0  0  0  0  0  0  0  0  0
  152.9427  140.6595  159.4556 F   0  0  0  0  0  0  0  0  0  0  0  0
  152.6481  139.4539  155.0621 H   0  0  0  0  0  0  0  0  0  0  0  0
  152.0954  139.2034  156.7225 H   0  0  0  0  0  0  0  0  0  0  0  0
  152.8185  140.7520  156.2486 H   0  0  0  0  0  0  0  0  0  0  0  0
  148.1182  140.5663  152.5272 H   0  0  0  0  0  0  0  0  0  0  0  0
  146.0433  141.7995  153.1162 H   0  0  0  0  0  0  0  0  0  0  0  0
  145.7810  142.8135  155.3709 H   0  0  0  0  0  0  0  0  0  0  0  0
  147.6049  142.5986  157.0555 H   0  0  0  0  0  0  0  0  0  0  0  0
  149.4928  141.9242  158.2710 H   0  0  0  0  0  0  0  0  0  0  0  0
  150.6673  140.6400  158.3428 H   0  0  0  0  0  0  0  0  0  0  0  0
  152.3957  142.1975  157.3271 H   0  0  0  0  0  0  0  0  0  0  0  0
  150.2301  143.6952  156.9625 H   0  0  0  0  0  0  0  0  0  0  0  0
  151.0744  144.8255  159.4074 H   0  0  0  0  0  0  0  0  0  0  0  0
  151.7531  145.2301  161.7532 H   0  0  0  0  0  0  0  0  0  0  0  0
  153.5537  141.3199  161.9200 H   0  0  0  0  0  0  0  0  0  0  0  0
  1  2  1  0  0  0  0
  1 22  1  0  0  0  0
  1 23  1  0  0  0  0
  1 24  1  0  0  0  0
  2 10  1  0  0  0  0
  2  3  2  0  0  0  0
  3  4  1  0  0  0  0
  4  9  2  0  0  0  0
  4  5  1  0  0  0  0
  5  6  2  0  0  0  0
  5 25  1  0  0  0  0
  6  7  1  0  0  0  0
  6 26  1  0  0  0  0
  7  8  2  0  0  0  0
  7 27  1  0  0  0  0
  8  9  1  0  0  0  0
  8 28  1  0  0  0  0
  9 10  1  0  0  0  0
 10 11  1  0  0  0  0
 11 12  1  0  0  0  0
 11 29  1  0  0  0  0
 11 30  1  0  0  0  0
 12 13  1  0  0  0  0
 12 14  1  0  0  0  0
 12 31  1  0  0  0  0
 13 32  1  0  0  0  0
 14 20  1  0  0  0  0
 14 15  2  0  0  0  0
 15 16  1  0  0  0  0
 15 33  1  0  0  0  0
 16 17  2  0  0  0  0
 16 34  1  0  0  0  0
 17 18  1  0  0  0  0
 17 19  1  0  0  0  0
 19 20  2  0  0  0  0
 19 35  1  0  0  0  0
 20 21  1  0  0  0  0
M  END
> <s_m_source_file>
AV-unprocessed.smi

> <i_m_source_file_index>
1918

> <i_lp_mmshare_version>
43012

> <i_f3d_flags>
0

> <s_epik_input>
W2NIXTFbY0hdW2NIXVtjSF1jKGMxMiluKGMobjIpW0NIM10pW0NIMl1bQ0BIXShbT0hdKWMzW2NIXVtjSF1jKEYpW2NIXWMzRg==

> <s_epik_cmdline>
J2VwaWtfcHl0aG9uJywgJy1waCcsICc3LjAnLCAnLXRuJywgJzgnLCAnLW1hJywgJzIwMCcsICctbWV0YWxfYmluZGluZycsICctaW1hZScsICc8aW5maWxlLm1hZT4nLCAnLW9tYWUnLCAnPG91dGZpbGUubWFlPic=

> <r_epik_Ionization_Penalty>
0.129663

> <r_epik_Ionization_Penalty_Charging>
0

> <r_epik_Ionization_Penalty_Neutral>
0.129663

> <r_epik_State_Penalty>
0.119073

> <r_epik_Charging_Adjusted_Penalty>
0.119073

> <i_epik_Tot_Q>
0

> <i_epik_Tot_abs_Q>
0

> <r_epik_Metal_State_Penalty>
0.000131867

> <b_epik_Metal_Only>
0

> <s_lp_Force_Field>
OPLS_2005

> <r_lp_Energy>
11.52

> <b_lp_Chiralities_Consistent>
1

> <s_lp_Variant>
AV-unprocessed.smi:1918-2

> <Gold.Version>
5.8.1

> <Gold.Id.Protein>
6NUR|6NUR_protein|mol2

> <Gold.PLP.Fitness>
55.2213

> <Gold.PLP.PLP>
-52.4811

> <Gold.PLP.part.hbond>
-2.0000

> <Gold.PLP.part.metal>
0.0000

> <Gold.PLP.part.buried>
-1.4049

> <Gold.PLP.part.nonpolar>
-47.9327

> <Gold.PLP.part.repulsive>
0.1150

> <Gold.PLP.ligand.clash>
0.0000

> <Gold.PLP.ligand.torsion>
0.3827

> <Gold.PLP.Chemscore.Hbond>
1.1576

> <Gold.PLP.Chemscore.CHOScore>
0.0000

> <Gold.PLP.Chemscore.Metal>
0.0000

> <Gold.Chemscore.Hbonds>
donor molecule, donor type, donor heavy atom, donor atom, acceptor molecule, acceptor atom, score
      L1  H    13    32       P1  8028  0.55
      P1  H  7989  7998       L1     3  0.75

> <Gold.PLP.Chemscore.Internal.Correction>
0.0328

> <Gold.Rescore>
     Score         DG    S(hbond)    S(metal)    S(lipo)     H(rot)  DE(clash)    DE(int)     intcor
     16.12     -17.10       0.60        0.00     123.31       1.88       0.56       0.41       ----

> <Gold.Chemscore.Fitness>
16.1235

> <Gold.Chemscore.DG>
-17.1018

> <Gold.Chemscore.ZeroCoef>
-5.4800

> <Gold.Chemscore.Hbond>
0.6038

> <Gold.Chemscore.Metal>
0.0000

> <Gold.Chemscore.Lipo>
123.3146

> <Gold.Chemscore.Internal_Hbond>
0.0000

> <Gold.Chemscore.DEClash>
0.5640

> <Gold.Chemscore.DEInternal>
0.4142

> <Gold.Chemscore.Rot>
1.8839

> <Gold.Chemscore.Internal.Correction>
   9.000000E+99

> <Gold.Chemscore.Hbonds>
donor molecule, donor type, donor heavy atom, donor atom, acceptor molecule, acceptor atom, score
      L1  H    13    32       P1  8028  0.55
      P1  H  7989  7998       L1     3  0.09

> <Gold.Chemscore.Hbond.Weighted>
-2.0167

> <Gold.Chemscore.Metal.Weighted>
-0.0000

> <Gold.Chemscore.Lipo.Weighted>
-14.4278

> <Gold.Chemscore.Internal_Hbond.Weighted>
0.0000

> <Gold.Chemscore.DEClash.Weighted>
0.5640

> <Gold.Chemscore.DEInternal.Weighted>
0.4142

> <Gold.Chemscore.Rot.Weighted>
4.8227

> <Gold.Chemscore.Internal.Correction.Weighted>
   9.000000E+99

> <Gold.Protein.RotatedTorsions>
[ 6907 6896 6895 6894 ] final   83.76 input  -60.11 | X-H torsion
[ 7974 7965 7964 7962 ] final  -70.28 input  175.53 | X-H torsion
[ 8008 7997 7996 7995 ] final  -76.41 input   59.86 | X-H torsion
[ 10167 10162 10161 10158 ] final -114.17 input  -65.29 | X-H torsion
[ 10718 10713 10712 10709 ] final  117.10 input   66.30 | X-H torsion
[ 10763 10752 10751 10750 ] final  101.14 input  -60.55 | X-H torsion
[ 11005 11000 10999 10996 ] final   32.91 input  -57.11 | X-H torsion

> <Gold.Protein.ActiveResidues>
 VAL166  LYS551  ARG553  GLY616  TRP617  ASP618  TYR619  PRO620  LYS621  CYS622 
 ASP623  PHE694  ASN695  SER759  ASP760  ASP761  ALA762  ILE779  LEU786  VAL792 
 PHE793  MET794  SER795  GLU796  ALA797  LYS798  CYS799  TRP800  GLU811  SER814 

> <Gold.Protein.RotatedAtoms>
  152.5335  134.2846  159.9019 H   0  0  0  0  0  0  0  0  0  0  0  0  # atno 6907 bound_to 6896
  151.2799  133.4208  159.2634 H   0  0  0  0  0  0  0  0  0  0  0  0  # atno 6908 bound_to 6896
  151.0293  134.9542  159.8159 H   0  0  0  0  0  0  0  0  0  0  0  0  # atno 6909 bound_to 6896
  145.6930  140.9146  143.0771 H   0  0  0  0  0  0  0  0  0  0  0  0  # atno 7974 bound_to 7965
  154.5503  140.0727  156.8656 H   0  0  0  0  0  0  0  0  0  0  0  0  # atno 8008 bound_to 7997
  155.3007  140.3384  155.4229 H   0  0  0  0  0  0  0  0  0  0  0  0  # atno 8009 bound_to 7997
  156.1955  140.1702  156.7993 H   0  0  0  0  0  0  0  0  0  0  0  0  # atno 8010 bound_to 7997
  140.1039  143.4588  152.1795 H   0  0  0  0  0  0  0  0  0  0  0  0  # atno 10167 bound_to 10162
  157.6118  131.1033  150.7568 H   0  0  0  0  0  0  0  0  0  0  0  0  # atno 10718 bound_to 10713
  153.3229  135.4055  155.1432 H   0  0  0  0  0  0  0  0  0  0  0  0  # atno 10763 bound_to 10752
  154.8605  135.3592  154.5573 H   0  0  0  0  0  0  0  0  0  0  0  0  # atno 10764 bound_to 10752
  153.6007  135.7071  153.5444 H   0  0  0  0  0  0  0  0  0  0  0  0  # atno 10765 bound_to 10752
  140.2685  134.3109  155.7835 H   0  0  0  0  0  0  0  0  0  0  0  0  # atno 11005 bound_to 11000
  144.6991  139.8847  143.7449 LP  0  0  0  0  0  0  0  0  0  0  0  0  # atno 17320 bound_to 7965
  146.0865  139.3853  143.0432 LP  0  0  0  0  0  0  0  0  0  0  0  0  # atno 17321 bound_to 7965
  139.5656  144.7433  151.4032 LP  0  0  0  0  0  0  0  0  0  0  0  0  # atno 17342 bound_to 10162
  140.6963  143.7741  150.7332 LP  0  0  0  0  0  0  0  0  0  0  0  0  # atno 17343 bound_to 10162
  156.7943  130.4900  149.5379 LP  0  0  0  0  0  0  0  0  0  0  0  0  # atno 17370 bound_to 10713
  156.1224  130.6119  151.0213 LP  0  0  0  0  0  0  0  0  0  0  0  0  # atno 17371 bound_to 10713
  141.2181  133.7452  156.9298 LP  0  0  0  0  0  0  0  0  0  0  0  0  # atno 17394 bound_to 11000
  140.1396  134.9302  157.2448 LP  0  0  0  0  0  0  0  0  0  0  0  0  # atno 17395 bound_to 11000

$$$$
