AV-unprocessed.smi:2512|AV-procd|sdf|9890|dock4
  -GOLD-   2272013523D 1   1.00000     0.00000
 Structure written by MMmdl.
 27 28  0  0  0  0  0  0  0  0  1 V2000
  148.2103  141.4259  153.9391 C   0  0  0  0  0  0  0  0  0  0  0  0
  149.3241  140.7980  154.7981 C   0  0  0  0  0  0  0  0  0  0  0  0
  148.7515  139.6874  155.6940 C   0  0  0  0  0  0  0  0  0  0  0  0
  150.2335  140.1811  153.9069 O   0  0  0  0  0  0  0  0  0  0  0  0
  150.0876  141.8395  155.6547 C   0  0  0  0  0  0  0  0  0  0  0  0
  151.0567  141.2629  156.5754 N   0  0  0  0  0  0  0  0  0  0  0  0
  151.6683  140.0863  156.2562 N   0  0  0  0  0  0  0  0  0  0  0  0
  152.4860  139.7674  157.2141 N   0  0  0  0  0  0  0  0  0  0  0  0
  152.4217  140.7581  158.1793 C   0  0  0  0  0  0  0  0  0  0  0  0
  153.0939  140.9171  159.4115 C   0  0  0  0  0  0  0  0  0  0  0  0
  152.8431  142.0464  160.2214 C   0  0  0  0  0  0  0  0  0  0  0  0
  153.6863  142.2056  161.7210 Cl  0  0  0  0  0  0  0  0  0  0  0  0
  151.9150  143.0316  159.8058 C   0  0  0  0  0  0  0  0  0  0  0  0
  151.5976  144.4209  160.7825 Cl  0  0  0  0  0  0  0  0  0  0  0  0
  151.2365  142.8850  158.5795 C   0  0  0  0  0  0  0  0  0  0  0  0
  151.4992  141.7531  157.7893 C   0  0  0  0  0  0  0  0  0  0  0  0
  147.4896  141.9602  154.5590 H   0  0  0  0  0  0  0  0  0  0  0  0
  147.6635  140.6644  153.3820 H   0  0  0  0  0  0  0  0  0  0  0  0
  148.6079  142.1319  153.2093 H   0  0  0  0  0  0  0  0  0  0  0  0
  148.0267  140.0891  156.4029 H   0  0  0  0  0  0  0  0  0  0  0  0
  149.5364  139.1952  156.2694 H   0  0  0  0  0  0  0  0  0  0  0  0
  148.2451  138.9210  155.1057 H   0  0  0  0  0  0  0  0  0  0  0  0
  149.7879  140.0100  153.0913 H   0  0  0  0  0  0  0  0  0  0  0  0
  150.6111  142.5406  155.0025 H   0  0  0  0  0  0  0  0  0  0  0  0
  149.3857  142.4392  156.2356 H   0  0  0  0  0  0  0  0  0  0  0  0
  153.8046  140.1699  159.7329 H   0  0  0  0  0  0  0  0  0  0  0  0
  150.5251  143.6286  158.2518 H   0  0  0  0  0  0  0  0  0  0  0  0
  1  2  1  0  0  0  0
  1 17  1  0  0  0  0
  1 18  1  0  0  0  0
  1 19  1  0  0  0  0
  2  3  1  0  0  0  0
  2  4  1  0  0  0  0
  2  5  1  0  0  0  0
  3 20  1  0  0  0  0
  3 21  1  0  0  0  0
  3 22  1  0  0  0  0
  4 23  1  0  0  0  0
  5  6  1  0  0  0  0
  5 24  1  0  0  0  0
  5 25  1  0  0  0  0
  6 16  1  0  0  0  0
  6  7  1  0  0  0  0
  7  8  2  0  0  0  0
  8  9  1  0  0  0  0
  9 16  2  0  0  0  0
  9 10  1  0  0  0  0
 10 11  2  0  0  0  0
 10 26  1  0  0  0  0
 11 12  1  0  0  0  0
 11 13  1  0  0  0  0
 13 14  1  0  0  0  0
 13 15  2  0  0  0  0
 15 16  1  0  0  0  0
 15 27  1  0  0  0  0
M  END
> <s_m_source_file>
AV-unprocessed.smi

> <i_m_source_file_index>
2512

> <i_lp_mmshare_version>
43012

> <i_f3d_flags>
0

> <s_epik_input>
W0NIM11DKFtDSDNdKShbT0hdKVtDSDJdbihubjEpYyhjMTIpW2NIXWMoQ2wpYyhDbClbY0hdMg==

> <s_epik_cmdline>
J2VwaWtfcHl0aG9uJywgJy1waCcsICc3LjAnLCAnLXRuJywgJzgnLCAnLW1hJywgJzIwMCcsICctbWV0YWxfYmluZGluZycsICctaW1hZScsICc8aW5maWxlLm1hZT4nLCAnLW9tYWUnLCAnPG91dGZpbGUubWFlPic=

> <r_lp_tautomer_probability>
1

> <r_epik_Ionization_Penalty>
2.14984e-07

> <r_epik_Ionization_Penalty_Charging>
0

> <r_epik_Ionization_Penalty_Neutral>
2.14984e-07

> <r_epik_State_Penalty>
-0

> <r_epik_Charging_Adjusted_Penalty>
0

> <i_epik_Tot_Q>
0

> <i_epik_Tot_abs_Q>
0

> <r_epik_Metal_State_Penalty>
-0

> <b_epik_Metal_Only>
0

> <s_lp_Force_Field>
OPLS_2005

> <r_lp_Energy>
5.86035

> <b_lp_Chiralities_Consistent>
1

> <s_lp_Variant>
AV-unprocessed.smi:2512-1

> <Gold.Version>
5.8.1

> <Gold.Id.Protein>
6NUR|6NUR_protein|mol2

> <Gold.PLP.Fitness>
44.0725

> <Gold.PLP.PLP>
-35.9300

> <Gold.PLP.part.hbond>
-2.8921

> <Gold.PLP.part.metal>
0.0000

> <Gold.PLP.part.buried>
-3.4708

> <Gold.PLP.part.nonpolar>
-28.7865

> <Gold.PLP.part.repulsive>
0.0000

> <Gold.PLP.ligand.clash>
0.0000

> <Gold.PLP.ligand.torsion>
0.4196

> <Gold.PLP.Chemscore.Hbond>
2.9920

> <Gold.PLP.Chemscore.CHOScore>
0.0000

> <Gold.PLP.Chemscore.Metal>
0.0000

> <Gold.Chemscore.Hbonds>
donor molecule, donor type, donor heavy atom, donor atom, acceptor molecule, acceptor atom, score
      L1  H     4    23       P1  7957  1.00
      P1  H  7989  7998       L1     4  0.88
      P1  H  7997  8008       L1     8  0.85

> <Gold.PLP.Chemscore.Internal.Correction>
0.0058

> <Gold.Rescore>
     Score         DG    S(hbond)    S(metal)    S(lipo)     H(rot)  DE(clash)    DE(int)     intcor
     17.91     -20.46       2.34        0.00      96.55       1.62       0.11       2.44       ----

> <Gold.Chemscore.Fitness>
17.9127

> <Gold.Chemscore.DG>
-20.4573

> <Gold.Chemscore.ZeroCoef>
-5.4800

> <Gold.Chemscore.Hbond>
2.3445

> <Gold.Chemscore.Metal>
0.0000

> <Gold.Chemscore.Lipo>
96.5500

> <Gold.Chemscore.Internal_Hbond>
0.0000

> <Gold.Chemscore.DEClash>
0.1060

> <Gold.Chemscore.DEInternal>
2.4386

> <Gold.Chemscore.Rot>
1.6210

> <Gold.Chemscore.Internal.Correction>
   9.000000E+99

> <Gold.Chemscore.Hbonds>
donor molecule, donor type, donor heavy atom, donor atom, acceptor molecule, acceptor atom, score
      L1  H     4    23       P1  7957  0.97
      P1  H  7989  7998       L1     4  0.38
      P1  H  7997  8008       L1     8  0.10

> <Gold.Chemscore.Hbond.Weighted>
-7.8306

> <Gold.Chemscore.Metal.Weighted>
-0.0000

> <Gold.Chemscore.Lipo.Weighted>
-11.2963

> <Gold.Chemscore.Internal_Hbond.Weighted>
0.0000

> <Gold.Chemscore.DEClash.Weighted>
0.1060

> <Gold.Chemscore.DEInternal.Weighted>
2.4386

> <Gold.Chemscore.Rot.Weighted>
4.1497

> <Gold.Chemscore.Internal.Correction.Weighted>
   9.000000E+99

> <Gold.Protein.RotatedTorsions>
[ 6907 6896 6895 6894 ] final   94.92 input  -60.11 | X-H torsion
[ 7974 7965 7964 7962 ] final -146.70 input  175.53 | X-H torsion
[ 8008 7997 7996 7995 ] final  -60.94 input   59.86 | X-H torsion
[ 10167 10162 10161 10158 ] final  -12.34 input  -65.29 | X-H torsion
[ 10718 10713 10712 10709 ] final -143.57 input   66.30 | X-H torsion
[ 10763 10752 10751 10750 ] final  161.18 input  -60.55 | X-H torsion
[ 11005 11000 10999 10996 ] final  100.34 input  -57.11 | X-H torsion

> <Gold.Protein.ActiveResidues>
 VAL166  LYS551  ARG553  GLY616  TRP617  ASP618  TYR619  PRO620  LYS621  CYS622 
 ASP623  PHE694  ASN695  SER759  ASP760  ASP761  ALA762  ILE779  LEU786  VAL792 
 PHE793  MET794  SER795  GLU796  ALA797  LYS798  CYS799  TRP800  GLU811  SER814 

> <Gold.Protein.RotatedAtoms>
  152.5447  134.1119  159.8361 H   0  0  0  0  0  0  0  0  0  0  0  0  # atno 6907 bound_to 6896
  151.1184  133.5114  159.2610 H   0  0  0  0  0  0  0  0  0  0  0  0  # atno 6908 bound_to 6896
  151.1806  135.0368  159.8845 H   0  0  0  0  0  0  0  0  0  0  0  0  # atno 6909 bound_to 6896
  144.8142  140.5422  143.5622 H   0  0  0  0  0  0  0  0  0  0  0  0  # atno 7974 bound_to 7965
  154.4423  140.1028  156.6353 H   0  0  0  0  0  0  0  0  0  0  0  0  # atno 8008 bound_to 7997
  155.5560  140.3486  155.4461 H   0  0  0  0  0  0  0  0  0  0  0  0  # atno 8009 bound_to 7997
  156.0494  140.1300  157.0056 H   0  0  0  0  0  0  0  0  0  0  0  0  # atno 8010 bound_to 7997
  140.7159  143.5543  150.9266 H   0  0  0  0  0  0  0  0  0  0  0  0  # atno 10167 bound_to 10162
  156.3595  130.7731  151.1896 H   0  0  0  0  0  0  0  0  0  0  0  0  # atno 10718 bound_to 10713
  154.2590  135.2769  155.2786 H   0  0  0  0  0  0  0  0  0  0  0  0  # atno 10763 bound_to 10752
  154.5400  135.5705  153.6834 H   0  0  0  0  0  0  0  0  0  0  0  0  # atno 10764 bound_to 10752
  152.9966  135.6248  154.2740 H   0  0  0  0  0  0  0  0  0  0  0  0  # atno 10765 bound_to 10752
  139.8771  134.9136  156.4742 H   0  0  0  0  0  0  0  0  0  0  0  0  # atno 11005 bound_to 11000
  145.5253  139.1476  143.3529 LP  0  0  0  0  0  0  0  0  0  0  0  0  # atno 17320 bound_to 7965
  146.2443  140.5394  142.8920 LP  0  0  0  0  0  0  0  0  0  0  0  0  # atno 17321 bound_to 7965
  139.9268  143.6541  152.3085 LP  0  0  0  0  0  0  0  0  0  0  0  0  # atno 17342 bound_to 10162
  139.6977  144.7639  151.1327 LP  0  0  0  0  0  0  0  0  0  0  0  0  # atno 17343 bound_to 10162
  157.7472  131.0404  150.4596 LP  0  0  0  0  0  0  0  0  0  0  0  0  # atno 17370 bound_to 10713
  156.4805  130.4072  149.6464 LP  0  0  0  0  0  0  0  0  0  0  0  0  # atno 17371 bound_to 10713
  140.8774  133.7943  155.9429 LP  0  0  0  0  0  0  0  0  0  0  0  0  # atno 17394 bound_to 11000
  140.8890  134.2519  157.5104 LP  0  0  0  0  0  0  0  0  0  0  0  0  # atno 17395 bound_to 11000

$$$$
