AV-unprocessed.smi:2843|AV-procd|sdf|10937|dock2
  -GOLD-   2272015383D 1   1.00000     0.00000
 Structure written by MMmdl.
 29 29  0  0  0  0  0  0  0  0  1 V2000
  152.7682  143.2153  159.9909 C   0  0  0  0  0  0  0  0  0  0  0  0
  152.0886  142.5321  158.8543 C   0  0  0  0  0  0  0  0  0  0  0  0
  151.2335  142.9669  157.8822 C   0  0  0  0  0  0  0  0  0  0  0  0
  150.9732  141.7974  157.1157 C   0  0  0  0  0  0  0  0  0  0  0  0
  150.0995  141.6516  155.9030 C   0  0  0  0  0  0  0  0  0  0  0  0
  150.2538  139.9408  155.2376 S   0  0  0  0  0  0  0  0  0  0  0  0
  151.6155  139.7465  154.7165 O   0  0  0  0  0  0  0  0  0  0  0  0
  149.7054  139.0007  156.2274 O   0  0  0  0  0  0  0  0  0  0  0  0
  149.1822  139.9650  153.8874 N   0  0  0  0  0  0  0  0  0  0  0  0
  148.0546  139.0354  153.8942 C   0  0  0  0  0  0  0  0  0  0  0  0
  146.9596  139.5190  152.9347 C   0  0  0  0  0  0  0  0  0  0  0  0
  146.2380  138.3570  152.2399 C   0  0  0  0  0  0  0  0  0  0  0  0
  147.1104  137.7301  151.3250 O   0  0  0  0  0  0  0  0  0  0  0  0
  151.6147  140.7445  157.5952 N   0  0  0  0  0  0  0  0  0  0  0  0
  152.3317  141.2045  158.7052 O   0  0  0  0  0  0  0  0  0  0  0  0
  152.5512  144.2837  159.9900 H   0  0  0  0  0  0  0  0  0  0  0  0
  153.8492  143.0904  159.9261 H   0  0  0  0  0  0  0  0  0  0  0  0
  152.4358  142.8031  160.9437 H   0  0  0  0  0  0  0  0  0  0  0  0
  150.8565  143.9685  157.7372 H   0  0  0  0  0  0  0  0  0  0  0  0
  149.0508  141.8352  156.1398 H   0  0  0  0  0  0  0  0  0  0  0  0
  150.3932  142.3539  155.1231 H   0  0  0  0  0  0  0  0  0  0  0  0
  149.7020  139.8955  153.0128 H   0  0  0  0  0  0  0  0  0  0  0  0
  148.4073  138.0462  153.5999 H   0  0  0  0  0  0  0  0  0  0  0  0
  147.6633  138.9537  154.9089 H   0  0  0  0  0  0  0  0  0  0  0  0
  146.2340  140.1204  153.4848 H   0  0  0  0  0  0  0  0  0  0  0  0
  147.3991  140.1753  152.1818 H   0  0  0  0  0  0  0  0  0  0  0  0
  145.9007  137.6210  152.9706 H   0  0  0  0  0  0  0  0  0  0  0  0
  145.3578  138.7145  151.7045 H   0  0  0  0  0  0  0  0  0  0  0  0
  147.5937  137.0583  151.7815 H   0  0  0  0  0  0  0  0  0  0  0  0
  1  2  1  0  0  0  0
  1 16  1  0  0  0  0
  1 17  1  0  0  0  0
  1 18  1  0  0  0  0
  2 15  1  0  0  0  0
  2  3  2  0  0  0  0
  3  4  1  0  0  0  0
  3 19  1  0  0  0  0
  4  5  1  0  0  0  0
  4 14  2  0  0  0  0
  5  6  1  0  0  0  0
  5 20  1  0  0  0  0
  5 21  1  0  0  0  0
  6  7  2  0  0  0  0
  6  8  2  0  0  0  0
  6  9  1  0  0  0  0
  9 10  1  0  0  0  0
  9 22  1  0  0  0  0
 10 11  1  0  0  0  0
 10 23  1  0  0  0  0
 10 24  1  0  0  0  0
 11 12  1  0  0  0  0
 11 25  1  0  0  0  0
 11 26  1  0  0  0  0
 12 13  1  0  0  0  0
 12 27  1  0  0  0  0
 12 28  1  0  0  0  0
 13 29  1  0  0  0  0
 14 15  1  0  0  0  0
M  END
> <s_m_source_file>
AV-unprocessed.smi

> <i_m_source_file_index>
2843

> <i_lp_mmshare_version>
43012

> <i_f3d_flags>
0

> <s_epik_input>
W0NIM11jMVtjSF1jKG5vMSlbQ0gyXVMoPU8pKD1PKVtOSF1bQ0gyXVtDSDJdW0NIMl1bT0hd

> <s_epik_cmdline>
J2VwaWtfcHl0aG9uJywgJy1waCcsICc3LjAnLCAnLXRuJywgJzgnLCAnLW1hJywgJzIwMCcsICctbWV0YWxfYmluZGluZycsICctaW1hZScsICc8aW5maWxlLm1hZT4nLCAnLW9tYWUnLCAnPG91dGZpbGUubWFlPic=

> <r_lp_tautomer_probability>
1

> <r_epik_Ionization_Penalty>
0.000153409

> <r_epik_Ionization_Penalty_Charging>
0

> <r_epik_Ionization_Penalty_Neutral>
0.000153409

> <r_epik_State_Penalty>
-0

> <r_epik_Charging_Adjusted_Penalty>
0

> <i_epik_Tot_Q>
0

> <i_epik_Tot_abs_Q>
0

> <r_epik_Metal_State_Penalty>
0.110712

> <b_epik_Metal_Only>
0

> <s_lp_Force_Field>
OPLS_2005

> <r_lp_Energy>
-3.16936

> <b_lp_Chiralities_Consistent>
1

> <s_lp_Variant>
AV-unprocessed.smi:2843-1

> <Gold.Version>
5.8.1

> <Gold.Id.Protein>
6NUR|6NUR_protein|mol2

> <Gold.PLP.Fitness>
39.7074

> <Gold.PLP.PLP>
-29.2646

> <Gold.PLP.part.hbond>
-3.5246

> <Gold.PLP.part.metal>
0.0000

> <Gold.PLP.part.buried>
-4.8434

> <Gold.PLP.part.nonpolar>
-22.5082

> <Gold.PLP.part.repulsive>
0.0678

> <Gold.PLP.ligand.clash>
0.0000

> <Gold.PLP.ligand.torsion>
0.4511

> <Gold.PLP.Chemscore.Hbond>
3.7260

> <Gold.PLP.Chemscore.CHOScore>
0.0000

> <Gold.PLP.Chemscore.Metal>
0.0000

> <Gold.Chemscore.Hbonds>
donor molecule, donor type, donor heavy atom, donor atom, acceptor molecule, acceptor atom, score
      L1  H     9    22       P1  7957  0.91
      L1  H    13    29       P1  7948  0.88
      P1  H  7954  7966       L1    13  0.90
      P1  H  7989  7998       L1     7  1.00

> <Gold.PLP.Chemscore.Internal.Correction>
0.1670

> <Gold.Rescore>
     Score         DG    S(hbond)    S(metal)    S(lipo)     H(rot)  DE(clash)    DE(int)     intcor
     12.89     -14.73       2.77        0.00      67.55       3.09       0.01       1.84       ----

> <Gold.Chemscore.Fitness>
12.8881

> <Gold.Chemscore.DG>
-14.7313

> <Gold.Chemscore.ZeroCoef>
-5.4800

> <Gold.Chemscore.Hbond>
2.7747

> <Gold.Chemscore.Metal>
0.0000

> <Gold.Chemscore.Lipo>
67.5504

> <Gold.Chemscore.Internal_Hbond>
0.0000

> <Gold.Chemscore.DEClash>
0.0081

> <Gold.Chemscore.DEInternal>
1.8352

> <Gold.Chemscore.Rot>
3.0935

> <Gold.Chemscore.Internal.Correction>
   9.000000E+99

> <Gold.Chemscore.Hbonds>
donor molecule, donor type, donor heavy atom, donor atom, acceptor molecule, acceptor atom, score
      L1  H     9    22       P1  7957  0.90
      L1  H    13    29       P1  7948  0.84
      P1  H  7954  7966       L1    13  0.18
      P1  H  7989  7998       L1     7  0.30

> <Gold.Chemscore.Hbond.Weighted>
-9.2674

> <Gold.Chemscore.Metal.Weighted>
-0.0000

> <Gold.Chemscore.Lipo.Weighted>
-7.9034

> <Gold.Chemscore.Internal_Hbond.Weighted>
0.0000

> <Gold.Chemscore.DEClash.Weighted>
0.0081

> <Gold.Chemscore.DEInternal.Weighted>
1.8352

> <Gold.Chemscore.Rot.Weighted>
7.9195

> <Gold.Chemscore.Internal.Correction.Weighted>
   9.000000E+99

> <Gold.Protein.RotatedTorsions>
[ 6907 6896 6895 6894 ] final   33.83 input  -60.11 | X-H torsion
[ 7974 7965 7964 7962 ] final  -84.88 input  175.53 | X-H torsion
[ 8008 7997 7996 7995 ] final   78.89 input   59.86 | X-H torsion
[ 10167 10162 10161 10158 ] final -125.66 input  -65.29 | X-H torsion
[ 10718 10713 10712 10709 ] final   43.44 input   66.30 | X-H torsion
[ 10763 10752 10751 10750 ] final   58.17 input  -60.55 | X-H torsion
[ 11005 11000 10999 10996 ] final -148.57 input  -57.11 | X-H torsion

> <Gold.Protein.ActiveResidues>
 VAL166  LYS551  ARG553  GLY616  TRP617  ASP618  TYR619  PRO620  LYS621  CYS622 
 ASP623  PHE694  ASN695  SER759  ASP760  ASP761  ALA762  ILE779  LEU786  VAL792 
 PHE793  MET794  SER795  GLU796  ALA797  LYS798  CYS799  TRP800  GLU811  SER814 

> <Gold.Protein.RotatedAtoms>
  152.0940  134.9388  160.0570 H   0  0  0  0  0  0  0  0  0  0  0  0  # atno 6907 bound_to 6896
  152.0628  133.4065  159.4433 H   0  0  0  0  0  0  0  0  0  0  0  0  # atno 6908 bound_to 6896
  150.6837  134.3101  159.4786 H   0  0  0  0  0  0  0  0  0  0  0  0  # atno 6909 bound_to 6896
  145.5008  140.9547  143.1761 H   0  0  0  0  0  0  0  0  0  0  0  0  # atno 7974 bound_to 7965
  155.8620  140.3453  155.5762 H   0  0  0  0  0  0  0  0  0  0  0  0  # atno 8008 bound_to 7997
  155.7923  140.0873  157.2021 H   0  0  0  0  0  0  0  0  0  0  0  0  # atno 8009 bound_to 7997
  154.4012  140.1481  156.3164 H   0  0  0  0  0  0  0  0  0  0  0  0  # atno 8010 bound_to 7997
  139.9797  143.5756  152.2383 H   0  0  0  0  0  0  0  0  0  0  0  0  # atno 10167 bound_to 10162
  157.4159  130.7941  149.7472 H   0  0  0  0  0  0  0  0  0  0  0  0  # atno 10718 bound_to 10713
  152.9865  135.5616  154.5509 H   0  0  0  0  0  0  0  0  0  0  0  0  # atno 10763 bound_to 10752
  154.4946  135.2794  155.1471 H   0  0  0  0  0  0  0  0  0  0  0  0  # atno 10764 bound_to 10752
  154.2926  135.6323  153.5444 H   0  0  0  0  0  0  0  0  0  0  0  0  # atno 10765 bound_to 10752
  140.7598  134.3311  157.5104 H   0  0  0  0  0  0  0  0  0  0  0  0  # atno 11005 bound_to 11000
  144.7781  139.6585  143.7166 LP  0  0  0  0  0  0  0  0  0  0  0  0  # atno 17320 bound_to 7965
  146.2227  139.5666  142.9607 LP  0  0  0  0  0  0  0  0  0  0  0  0  # atno 17321 bound_to 7965
  139.6419  144.7655  151.2322 LP  0  0  0  0  0  0  0  0  0  0  0  0  # atno 17342 bound_to 10162
  140.7493  143.6303  150.8429 LP  0  0  0  0  0  0  0  0  0  0  0  0  # atno 17343 bound_to 10162
  155.9865  130.3974  150.3209 LP  0  0  0  0  0  0  0  0  0  0  0  0  # atno 17370 bound_to 10713
  157.1352  131.0282  151.2952 LP  0  0  0  0  0  0  0  0  0  0  0  0  # atno 17371 bound_to 10713
  139.8773  134.9195  156.3228 LP  0  0  0  0  0  0  0  0  0  0  0  0  # atno 17394 bound_to 11000
  140.9674  133.7349  156.0485 LP  0  0  0  0  0  0  0  0  0  0  0  0  # atno 17395 bound_to 11000

$$$$
