AV-unprocessed.smi:3017|AV-procd|sdf|11477|dock3
  -GOLD-   2272016413D 1   1.00000     0.00000
 Structure written by MMmdl.
 37 38  0  0  0  0  0  0  0  0  1 V2000
  153.0173  141.7393  160.7173 C   0  0  0  0  0  0  0  0  0  0  0  0
  152.8115  142.4018  159.3477 C   0  0  2  0  0  0  0  0  0  0  0  0
  152.5844  143.9195  159.4854 C   0  0  0  0  0  0  0  0  0  0  0  0
  152.3726  144.5836  158.1160 C   0  0  0  0  0  0  0  0  0  0  0  0
  151.2131  143.9243  157.3545 C   0  0  0  0  0  0  0  0  0  0  0  0
  151.4358  142.4110  157.1966 C   0  0  2  0  0  0  0  0  0  0  0  0
  150.2846  141.8821  156.5526 O   0  0  0  0  0  0  0  0  0  0  0  0
  150.4342  140.5515  156.0731 C   0  0  0  0  0  0  0  0  0  0  0  0
  149.5142  140.3442  154.8698 C   0  0  0  0  0  0  0  0  0  0  0  0
  149.6096  141.0982  153.9015 O   0  0  0  0  0  0  0  0  0  0  0  0
  148.6291  139.3346  154.9690 N   0  0  0  0  0  0  0  0  0  0  0  0
  147.6742  138.9058  154.0106 C   0  0  0  0  0  0  0  0  0  0  0  0
  147.0408  137.6708  154.2853 C   0  0  0  0  0  0  0  0  0  0  0  0
  146.1122  137.1290  153.4660 N   0  0  0  0  0  0  0  0  0  0  0  0
  145.8079  137.8288  152.3524 C   0  0  0  0  0  0  0  0  0  0  0  0
  146.4279  139.0608  152.0629 C   0  0  0  0  0  0  0  0  0  0  0  0
  147.3552  139.5967  152.8862 N   0  0  0  0  0  0  0  0  0  0  0  0
  151.6488  141.7484  158.5740 C   0  0  0  0  0  0  0  0  0  0  0  0
  152.1344  141.8489  161.3477 H   0  0  0  0  0  0  0  0  0  0  0  0
  153.8609  142.1845  161.2456 H   0  0  0  0  0  0  0  0  0  0  0  0
  153.2210  140.6734  160.6115 H   0  0  0  0  0  0  0  0  0  0  0  0
  153.7250  142.2509  158.7705 H   0  0  0  0  0  0  0  0  0  0  0  0
  151.7157  144.1068  160.1182 H   0  0  0  0  0  0  0  0  0  0  0  0
  153.4358  144.3811  159.9868 H   0  0  0  0  0  0  0  0  0  0  0  0
  152.1742  145.6478  158.2457 H   0  0  0  0  0  0  0  0  0  0  0  0
  153.2874  144.5086  157.5267 H   0  0  0  0  0  0  0  0  0  0  0  0
  150.2787  144.1048  157.8879 H   0  0  0  0  0  0  0  0  0  0  0  0
  151.1035  144.3882  156.3737 H   0  0  0  0  0  0  0  0  0  0  0  0
  152.3170  142.2573  156.5708 H   0  0  0  0  0  0  0  0  0  0  0  0
  151.4647  140.3707  155.7640 H   0  0  0  0  0  0  0  0  0  0  0  0
  150.1847  139.8259  156.8477 H   0  0  0  0  0  0  0  0  0  0  0  0
  148.6581  138.8015  155.8261 H   0  0  0  0  0  0  0  0  0  0  0  0
  147.2817  137.1064  155.1747 H   0  0  0  0  0  0  0  0  0  0  0  0
  145.0677  137.4048  151.6900 H   0  0  0  0  0  0  0  0  0  0  0  0
  146.1802  139.6163  151.1707 H   0  0  0  0  0  0  0  0  0  0  0  0
  151.8500  140.6841  158.4541 H   0  0  0  0  0  0  0  0  0  0  0  0
  150.7309  141.8241  159.1586 H   0  0  0  0  0  0  0  0  0  0  0  0
  1  2  1  0  0  0  0
  1 19  1  0  0  0  0
  1 20  1  0  0  0  0
  1 21  1  0  0  0  0
  2 18  1  0  0  0  0
  2  3  1  0  0  0  0
  2 22  1  0  0  0  0
  3  4  1  0  0  0  0
  3 23  1  0  0  0  0
  3 24  1  0  0  0  0
  4  5  1  0  0  0  0
  4 25  1  0  0  0  0
  4 26  1  0  0  0  0
  5  6  1  0  0  0  0
  5 27  1  0  0  0  0
  5 28  1  0  0  0  0
  6  7  1  0  0  0  0
  6 18  1  0  0  0  0
  6 29  1  0  0  0  0
  7  8  1  0  0  0  0
  8  9  1  0  0  0  0
  8 30  1  0  0  0  0
  8 31  1  0  0  0  0
  9 10  2  0  0  0  0
  9 11  1  0  0  0  0
 11 12  1  0  0  0  0
 11 32  1  0  0  0  0
 12 17  1  0  0  0  0
 12 13  2  0  0  0  0
 13 14  1  0  0  0  0
 13 33  1  0  0  0  0
 14 15  2  0  0  0  0
 15 16  1  0  0  0  0
 15 34  1  0  0  0  0
 16 17  2  0  0  0  0
 16 35  1  0  0  0  0
 18 36  1  0  0  0  0
 18 37  1  0  0  0  0
M  END
> <s_m_source_file>
AV-unprocessed.smi

> <i_m_source_file_index>
3017

> <i_lp_mmshare_version>
43012

> <i_f3d_flags>
0

> <s_epik_input>
W0NIM11bQ0BASF0xW0NIMl1bQ0gyXVtDSDJdW0NASF0oW0NIMl0xKU9bQ0gyXUMoPU8pW05IXWMyW2NIXW5bY0hdW2NIXW4y

> <s_epik_cmdline>
J2VwaWtfcHl0aG9uJywgJy1waCcsICc3LjAnLCAnLXRuJywgJzgnLCAnLW1hJywgJzIwMCcsICctbWV0YWxfYmluZGluZycsICctaW1hZScsICc8aW5maWxlLm1hZT4nLCAnLW9tYWUnLCAnPG91dGZpbGUubWFlPic=

> <r_lp_tautomer_probability>
1

> <r_epik_Ionization_Penalty>
2.89243e-06

> <r_epik_Ionization_Penalty_Charging>
0

> <r_epik_Ionization_Penalty_Neutral>
2.89243e-06

> <r_epik_State_Penalty>
-0

> <r_epik_Charging_Adjusted_Penalty>
0

> <i_epik_Tot_Q>
0

> <i_epik_Tot_abs_Q>
0

> <r_epik_Metal_State_Penalty>
-0

> <b_epik_Metal_Only>
0

> <s_lp_Force_Field>
OPLS_2005

> <r_lp_Energy>
19.9912

> <b_lp_Chiralities_Consistent>
1

> <s_lp_Variant>
AV-unprocessed.smi:3017-3

> <Gold.Version>
5.8.1

> <Gold.Id.Protein>
6NUR|6NUR_protein|mol2

> <Gold.PLP.Fitness>
39.9160

> <Gold.PLP.PLP>
-33.6455

> <Gold.PLP.part.hbond>
-2.0000

> <Gold.PLP.part.metal>
0.0000

> <Gold.PLP.part.buried>
-1.8599

> <Gold.PLP.part.nonpolar>
-34.5263

> <Gold.PLP.part.repulsive>
4.2884

> <Gold.PLP.ligand.clash>
0.0000

> <Gold.PLP.ligand.torsion>
0.2832

> <Gold.PLP.Chemscore.Hbond>
1.2320

> <Gold.PLP.Chemscore.CHOScore>
1.0397

> <Gold.PLP.Chemscore.Metal>
0.0000

> <Gold.Chemscore.Hbonds>
donor molecule, donor type, donor heavy atom, donor atom, acceptor molecule, acceptor atom, score
      P1  H  7989  7998       L1    10  0.36
      P1  H  8011  8017       L1    10  0.81
      L1  C    15    34       P1 10171  0.93
      L1  C    16    35       P1 10171  0.16
      L1  C    16    35       P1 10175  0.01

> <Gold.PLP.Chemscore.Internal.Correction>
0.0216

> <Gold.Rescore>
     Score         DG    S(hbond)    S(metal)    S(lipo)     H(rot)  DE(clash)    DE(int)     intcor
     13.20     -16.16       0.79        0.00     101.95       1.51       1.40       1.56       ----

> <Gold.Chemscore.Fitness>
13.1986

> <Gold.Chemscore.DG>
-16.1621

> <Gold.Chemscore.ZeroCoef>
-5.4800

> <Gold.Chemscore.Hbond>
0.7857

> <Gold.Chemscore.Metal>
0.0000

> <Gold.Chemscore.Lipo>
101.9527

> <Gold.Chemscore.Internal_Hbond>
0.0000

> <Gold.Chemscore.DEClash>
1.3999

> <Gold.Chemscore.DEInternal>
1.5637

> <Gold.Chemscore.Rot>
1.5119

> <Gold.Chemscore.Internal.Correction>
   9.000000E+99

> <Gold.Chemscore.Hbonds>
donor molecule, donor type, donor heavy atom, donor atom, acceptor molecule, acceptor atom, score
      P1  H  7989  7998       L1    10  0.10
      P1  H  8011  8017       L1    10  0.78

> <Gold.Chemscore.Hbond.Weighted>
-2.6243

> <Gold.Chemscore.Metal.Weighted>
-0.0000

> <Gold.Chemscore.Lipo.Weighted>
-11.9285

> <Gold.Chemscore.Internal_Hbond.Weighted>
0.0000

> <Gold.Chemscore.DEClash.Weighted>
1.3999

> <Gold.Chemscore.DEInternal.Weighted>
1.5637

> <Gold.Chemscore.Rot.Weighted>
3.8706

> <Gold.Chemscore.Internal.Correction.Weighted>
   9.000000E+99

> <Gold.Protein.RotatedTorsions>
[ 6907 6896 6895 6894 ] final  131.14 input  -60.11 | X-H torsion
[ 7974 7965 7964 7962 ] final -103.90 input  175.53 | X-H torsion
[ 8008 7997 7996 7995 ] final  -11.42 input   59.86 | X-H torsion
[ 10167 10162 10161 10158 ] final  -51.38 input  -65.29 | X-H torsion
[ 10718 10713 10712 10709 ] final   29.14 input   66.30 | X-H torsion
[ 10763 10752 10751 10750 ] final    4.93 input  -60.55 | X-H torsion
[ 11005 11000 10999 10996 ] final  -41.37 input  -57.11 | X-H torsion

> <Gold.Protein.ActiveResidues>
 VAL166  LYS551  ARG553  GLY616  TRP617  ASP618  TYR619  PRO620  LYS621  CYS622 
 ASP623  PHE694  ASN695  SER759  ASP760  ASP761  ALA762  ILE779  LEU786  VAL792 
 PHE793  MET794  SER795  GLU796  ALA797  LYS798  CYS799  TRP800  GLU811  SER814 

> <Gold.Protein.RotatedAtoms>
  152.3456  133.6118  159.5907 H   0  0  0  0  0  0  0  0  0  0  0  0  # atno 6907 bound_to 6896
  150.7505  133.9654  159.3537 H   0  0  0  0  0  0  0  0  0  0  0  0  # atno 6908 bound_to 6896
  151.7513  135.0833  160.0382 H   0  0  0  0  0  0  0  0  0  0  0  0  # atno 6909 bound_to 6896
  145.2500  140.9234  143.3101 H   0  0  0  0  0  0  0  0  0  0  0  0  # atno 7974 bound_to 7965
  154.5466  140.2303  155.8552 H   0  0  0  0  0  0  0  0  0  0  0  0  # atno 8008 bound_to 7997
  156.1909  140.3077  155.9292 H   0  0  0  0  0  0  0  0  0  0  0  0  # atno 8009 bound_to 7997
  155.3151  140.0437  157.3027 H   0  0  0  0  0  0  0  0  0  0  0  0  # atno 8010 bound_to 7997
  140.6591  143.2622  151.4495 H   0  0  0  0  0  0  0  0  0  0  0  0  # atno 10167 bound_to 10162
  157.2427  130.7077  149.6366 H   0  0  0  0  0  0  0  0  0  0  0  0  # atno 10718 bound_to 10713
  153.2653  135.6927  153.7536 H   0  0  0  0  0  0  0  0  0  0  0  0  # atno 10763 bound_to 10752
  153.6579  135.3365  155.3119 H   0  0  0  0  0  0  0  0  0  0  0  0  # atno 10764 bound_to 10752
  154.8445  135.4470  154.1658 H   0  0  0  0  0  0  0  0  0  0  0  0  # atno 10765 bound_to 10752
  141.0241  133.6849  156.2448 H   0  0  0  0  0  0  0  0  0  0  0  0  # atno 11005 bound_to 11000
  144.9512  139.4081  143.6402 LP  0  0  0  0  0  0  0  0  0  0  0  0  # atno 17320 bound_to 7965
  146.3305  139.8519  142.8871 LP  0  0  0  0  0  0  0  0  0  0  0  0  # atno 17321 bound_to 7965
  139.5820  144.1688  152.1981 LP  0  0  0  0  0  0  0  0  0  0  0  0  # atno 17342 bound_to 10162
  140.1016  144.5535  150.6985 LP  0  0  0  0  0  0  0  0  0  0  0  0  # atno 17343 bound_to 10162
  155.9669  130.4453  150.5495 LP  0  0  0  0  0  0  0  0  0  0  0  0  # atno 17370 bound_to 10713
  157.3362  131.0708  151.1823 LP  0  0  0  0  0  0  0  0  0  0  0  0  # atno 17371 bound_to 10713
  140.6522  134.5055  157.5578 LP  0  0  0  0  0  0  0  0  0  0  0  0  # atno 17394 bound_to 11000
  139.9164  134.8237  156.1351 LP  0  0  0  0  0  0  0  0  0  0  0  0  # atno 17395 bound_to 11000

$$$$
