AV-unprocessed.smi:3163|AV-procd|sdf|12071|dock5
  -GOLD-   2272017503D 1   1.00000     0.00000
 Structure written by MMmdl.
 36 37  0  0  0  0  0  0  0  0  2 V2000
  144.2798  140.9528  156.2568 C   0  0  0  0  0  0  0  0  0  0  0  0
  144.9824  141.2764  154.9976 N   0  3  1  0  0  0  0  0  0  0  0  0
  145.0632  142.7242  154.6927 C   0  0  0  0  0  0  0  0  0  0  0  0
  146.5207  143.0129  154.3154 C   0  0  0  0  0  0  0  0  0  0  0  0
  147.0935  141.6444  153.9425 C   0  0  1  0  0  0  0  0  0  0  0  0
  148.6266  141.5243  154.0331 C   0  0  0  0  0  0  0  0  0  0  0  0
  149.1707  142.3047  155.1403 N   0  0  0  0  0  0  0  0  0  0  0  0
  150.1672  141.9166  155.9496 C   0  0  0  0  0  0  0  0  0  0  0  0
  150.7357  140.8294  155.8499 O   0  0  0  0  0  0  0  0  0  0  0  0
  150.4311  142.8534  156.8770 N   0  0  0  0  0  0  0  0  0  0  0  0
  151.4101  142.8366  157.9077 C   0  0  0  0  0  0  0  0  0  0  0  0
  151.6478  144.0395  158.6045 C   0  0  0  0  0  0  0  0  0  0  0  0
  152.6244  144.0554  159.6202 C   0  0  0  0  0  0  0  0  0  0  0  0
  153.3585  142.9752  159.9599 N   0  0  0  0  0  0  0  0  0  0  0  0
  153.1400  141.8282  159.2828 C   0  0  0  0  0  0  0  0  0  0  0  0
  152.1873  141.7041  158.2516 C   0  0  0  0  0  0  0  0  0  0  0  0
  146.3475  140.7189  154.9034 C   0  0  0  0  0  0  0  0  0  0  0  0
  144.7921  141.3867  157.1164 H   0  0  0  0  0  0  0  0  0  0  0  0
  144.2280  139.8727  156.3969 H   0  0  0  0  0  0  0  0  0  0  0  0
  143.2603  141.3391  156.2336 H   0  0  0  0  0  0  0  0  0  0  0  0
  144.3976  142.9373  153.8559 H   0  0  0  0  0  0  0  0  0  0  0  0
  144.7477  143.3464  155.5316 H   0  0  0  0  0  0  0  0  0  0  0  0
  146.6083  143.7428  153.5101 H   0  0  0  0  0  0  0  0  0  0  0  0
  147.0466  143.4120  155.1840 H   0  0  0  0  0  0  0  0  0  0  0  0
  146.7773  141.4051  152.9255 H   0  0  0  0  0  0  0  0  0  0  0  0
  148.9278  140.4780  154.1100 H   0  0  0  0  0  0  0  0  0  0  0  0
  149.0749  141.9012  153.1135 H   0  0  0  0  0  0  0  0  0  0  0  0
  148.7594  143.2132  155.2992 H   0  0  0  0  0  0  0  0  0  0  0  0
  149.8237  143.6595  156.8760 H   0  0  0  0  0  0  0  0  0  0  0  0
  151.0917  144.9361  158.3723 H   0  0  0  0  0  0  0  0  0  0  0  0
  152.8226  144.9620  160.1727 H   0  0  0  0  0  0  0  0  0  0  0  0
  153.7487  140.9826  159.5676 H   0  0  0  0  0  0  0  0  0  0  0  0
  152.0846  140.7570  157.7453 H   0  0  0  0  0  0  0  0  0  0  0  0
  146.8237  140.7425  155.8856 H   0  0  0  0  0  0  0  0  0  0  0  0
  146.3331  139.6835  154.5618 H   0  0  0  0  0  0  0  0  0  0  0  0
  144.4530  140.8618  154.2438 H   0  0  0  0  0  0  0  0  0  0  0  0
  1  2  1  0  0  0  0
  1 18  1  0  0  0  0
  1 19  1  0  0  0  0
  1 20  1  0  0  0  0
  2 17  1  0  0  0  0
  2  3  1  0  0  0  0
  2 36  1  0  0  0  0
  3  4  1  0  0  0  0
  3 21  1  0  0  0  0
  3 22  1  0  0  0  0
  4  5  1  0  0  0  0
  4 23  1  0  0  0  0
  4 24  1  0  0  0  0
  5  6  1  0  0  0  0
  5 17  1  0  0  0  0
  5 25  1  0  0  0  0
  6  7  1  0  0  0  0
  6 26  1  0  0  0  0
  6 27  1  0  0  0  0
  7  8  1  0  0  0  0
  7 28  1  0  0  0  0
  8  9  2  0  0  0  0
  8 10  1  0  0  0  0
 10 11  1  0  0  0  0
 10 29  1  0  0  0  0
 11 16  1  0  0  0  0
 11 12  2  0  0  0  0
 12 13  1  0  0  0  0
 12 30  1  0  0  0  0
 13 14  2  0  0  0  0
 13 31  1  0  0  0  0
 14 15  1  0  0  0  0
 15 16  2  0  0  0  0
 15 32  1  0  0  0  0
 16 33  1  0  0  0  0
 17 34  1  0  0  0  0
 17 35  1  0  0  0  0
M  CHG  1   2   1
M  END
> <s_m_source_file>
AV-unprocessed.smi

> <i_m_source_file_index>
3163

> <i_lp_mmshare_version>
43012

> <i_f3d_flags>
0

> <s_epik_input>
W0NIM11OMVtDSDJdW0NIMl1bQ0BIXShbQ0gyXTEpW0NIMl1bTkhdQyg9TylbTkhdYzJbY0hdW2NIXW5bY0hdW2NIXTI=

> <s_epik_cmdline>
J2VwaWtfcHl0aG9uJywgJy1waCcsICc3LjAnLCAnLXRuJywgJzgnLCAnLW1hJywgJzIwMCcsICctbWV0YWxfYmluZGluZycsICctaW1hZScsICc8aW5maWxlLm1hZT4nLCAnLW9tYWUnLCAnPG91dGZpbGUubWFlPic=

> <r_epik_Ionization_Penalty>
0.103936

> <r_epik_Ionization_Penalty_Charging>
0.0012301

> <r_epik_Ionization_Penalty_Neutral>
0.102706

> <r_epik_State_Penalty>
0.0926275

> <r_epik_Charging_Adjusted_Penalty>
0.0938576

> <i_epik_Tot_Q>
1

> <i_epik_Tot_abs_Q>
1

> <r_epik_Metal_State_Penalty>
0.0788376

> <b_epik_Metal_Only>
0

> <s_lp_Force_Field>
OPLS_2005

> <r_lp_Energy>
32.4174

> <b_lp_Chiralities_Consistent>
1

> <s_lp_Variant>
AV-unprocessed.smi:3163-1

> <Gold.Version>
5.8.1

> <Gold.Id.Protein>
6NUR|6NUR_protein|mol2

> <Gold.PLP.Fitness>
47.5251

> <Gold.PLP.PLP>
-36.3414

> <Gold.PLP.part.hbond>
-3.0000

> <Gold.PLP.part.metal>
0.0000

> <Gold.PLP.part.buried>
-5.5763

> <Gold.PLP.part.nonpolar>
-28.7995

> <Gold.PLP.part.repulsive>
0.2642

> <Gold.PLP.ligand.clash>
0.0000

> <Gold.PLP.ligand.torsion>
0.4101

> <Gold.PLP.Chemscore.Hbond>
4.0000

> <Gold.PLP.Chemscore.CHOScore>
0.0000

> <Gold.PLP.Chemscore.Metal>
0.0000

> <Gold.Chemscore.Hbonds>
donor molecule, donor type, donor heavy atom, donor atom, acceptor molecule, acceptor atom, score
      L1  H     2    36       P1 10175  2.00
      L1  H     7    28       P1  8028  1.00
      L1  H    10    29       P1  8028  0.80

> <Gold.PLP.Chemscore.Internal.Correction>
0.0039

> <Gold.Rescore>
     Score         DG    S(hbond)    S(metal)    S(lipo)     H(rot)  DE(clash)    DE(int)     intcor
     20.59     -22.35       2.95        0.00      87.38       1.26       0.03       1.73       ----

> <Gold.Chemscore.Fitness>
20.5931

> <Gold.Chemscore.DG>
-22.3529

> <Gold.Chemscore.ZeroCoef>
-5.4800

> <Gold.Chemscore.Hbond>
2.9533

> <Gold.Chemscore.Metal>
0.0000

> <Gold.Chemscore.Lipo>
87.3849

> <Gold.Chemscore.Internal_Hbond>
0.0000

> <Gold.Chemscore.DEClash>
0.0273

> <Gold.Chemscore.DEInternal>
1.7325

> <Gold.Chemscore.Rot>
1.2559

> <Gold.Chemscore.Internal.Correction>
   9.000000E+99

> <Gold.Chemscore.Hbonds>
donor molecule, donor type, donor heavy atom, donor atom, acceptor molecule, acceptor atom, score
      L1  H     2    36       P1 10175  0.95
      L1  H     7    28       P1  8028  0.91
      L1  H    10    29       P1  8028  0.79

> <Gold.Chemscore.Hbond.Weighted>
-9.8639

> <Gold.Chemscore.Metal.Weighted>
-0.0000

> <Gold.Chemscore.Lipo.Weighted>
-10.2240

> <Gold.Chemscore.Internal_Hbond.Weighted>
0.0000

> <Gold.Chemscore.DEClash.Weighted>
0.0273

> <Gold.Chemscore.DEInternal.Weighted>
1.7325

> <Gold.Chemscore.Rot.Weighted>
3.2151

> <Gold.Chemscore.Internal.Correction.Weighted>
   9.000000E+99

> <Gold.Protein.RotatedTorsions>
[ 6907 6896 6895 6894 ] final  170.14 input  -60.11 | X-H torsion
[ 7974 7965 7964 7962 ] final  -97.73 input  175.53 | X-H torsion
[ 8008 7997 7996 7995 ] final -110.03 input   59.86 | X-H torsion
[ 10167 10162 10161 10158 ] final   16.63 input  -65.29 | X-H torsion
[ 10718 10713 10712 10709 ] final  129.48 input   66.30 | X-H torsion
[ 10763 10752 10751 10750 ] final -161.72 input  -60.55 | X-H torsion
[ 11005 11000 10999 10996 ] final -113.53 input  -57.11 | X-H torsion

> <Gold.Protein.ActiveResidues>
 VAL166  LYS551  ARG553  GLY616  TRP617  ASP618  TYR619  PRO620  LYS621  CYS622 
 ASP623  PHE694  ASN695  SER759  ASP760  ASP761  ALA762  ILE779  LEU786  VAL792 
 PHE793  MET794  SER795  GLU796  ALA797  LYS798  CYS799  TRP800  GLU811  SER814 

> <Gold.Protein.RotatedAtoms>
  151.8207  133.3394  159.3583 H   0  0  0  0  0  0  0  0  0  0  0  0  # atno 6907 bound_to 6896
  150.7295  134.5576  159.5835 H   0  0  0  0  0  0  0  0  0  0  0  0  # atno 6908 bound_to 6896
  152.3008  134.7614  160.0409 H   0  0  0  0  0  0  0  0  0  0  0  0  # atno 6909 bound_to 6896
  145.3299  140.9439  143.2667 H   0  0  0  0  0  0  0  0  0  0  0  0  # atno 7974 bound_to 7965
  154.9683  140.0398  157.2222 H   0  0  0  0  0  0  0  0  0  0  0  0  # atno 8008 bound_to 7997
  154.7825  140.2821  155.6031 H   0  0  0  0  0  0  0  0  0  0  0  0  # atno 8009 bound_to 7997
  156.2938  140.2589  156.2653 H   0  0  0  0  0  0  0  0  0  0  0  0  # atno 8010 bound_to 7997
  140.5784  143.9029  150.6769 H   0  0  0  0  0  0  0  0  0  0  0  0  # atno 10167 bound_to 10162
  157.5150  131.1097  150.9238 H   0  0  0  0  0  0  0  0  0  0  0  0  # atno 10718 bound_to 10713
  154.7279  135.3040  154.8941 H   0  0  0  0  0  0  0  0  0  0  0  0  # atno 10763 bound_to 10752
  153.9792  135.6732  153.4753 H   0  0  0  0  0  0  0  0  0  0  0  0  # atno 10764 bound_to 10752
  153.0891  135.4968  154.8575 H   0  0  0  0  0  0  0  0  0  0  0  0  # atno 10765 bound_to 10752
  141.0608  133.9538  157.2670 H   0  0  0  0  0  0  0  0  0  0  0  0  # atno 11005 bound_to 11000
  144.8872  139.4823  143.6695 LP  0  0  0  0  0  0  0  0  0  0  0  0  # atno 17320 bound_to 7965
  146.3049  139.7548  142.9063 LP  0  0  0  0  0  0  0  0  0  0  0  0  # atno 17321 bound_to 7965
  140.2522  143.3585  152.1396 LP  0  0  0  0  0  0  0  0  0  0  0  0  # atno 17342 bound_to 10162
  139.5155  144.6964  151.5617 LP  0  0  0  0  0  0  0  0  0  0  0  0  # atno 17343 bound_to 10162
  156.9866  130.5547  149.5300 LP  0  0  0  0  0  0  0  0  0  0  0  0  # atno 17370 bound_to 10713
  156.0314  130.5405  150.8544 LP  0  0  0  0  0  0  0  0  0  0  0  0  # atno 17371 bound_to 10713
  139.9431  135.0188  156.8770 LP  0  0  0  0  0  0  0  0  0  0  0  0  # atno 17394 bound_to 11000
  140.5872  134.0296  155.7486 LP  0  0  0  0  0  0  0  0  0  0  0  0  # atno 17395 bound_to 11000

$$$$
