#       Name:                AV-unprocessed.smi:1043
#       Creating user name   scv26
#       Creation time:       Fri Mar 27 02:56:44 2020


#       File generated by GOLD software.
#

@<TRIPOS>MOLECULE
AV-unprocessed.smi:1043
    39    40     1
SMALL
NO_CHARGES


@<TRIPOS>ATOM
      1 ****        -1.7054   2.0482   0.4859 C.3            1 S1                 0.0000
      2 ****        -1.1366   0.6112   0.4419 C.3            1 S1                 0.0000
      3 ****         0.3329   0.6700   0.3939 N.am           1 S1                 0.0000
      4 ****         1.1218   1.2092  -0.5515 C.2            1 S1                 0.0000
      5 ****         0.7014   1.7610  -1.5684 O.2            1 S1                 0.0000
      6 ****         2.4195   1.0583  -0.2340 N.am           1 S1                 0.0000
      7 ****         3.5614   1.4749  -0.9682 C.2            1 S1                 0.0000
      8 ****         3.4979   2.0961  -2.1563 N.2            1 S1                 0.0000
      9 ****         4.7596   2.3915  -2.6563 N.2            1 S1                 0.0000
     10 ****         5.7236   1.9813  -1.8272 C.2            1 S1                 0.0000
     11 ****         5.1843   1.1937  -0.3545 S.3            1 S1                 0.0000
     12 ****        -1.5280  -0.0795   1.7707 C.3            1 S1                 0.0000
     13 ****        -1.1550  -1.5691   1.9068 C.3            1 S1                 0.0000
     14 ****        -2.1035  -2.4935   1.1272 C.3            1 S1                 0.0000
     15 ****        -1.7528  -2.7102  -0.3547 C.3            1 S1                 0.0000
     16 ****        -1.1218  -1.5200  -1.0971 C.3            1 S1                 0.0000
     17 ****        -1.7331  -0.1373  -0.7863 C.3            1 S1                 0.0000
     18 ****        -2.7890   2.0395   0.6082 H              1 S1                 0.0000
     19 ****        -1.4964   2.6044  -0.4278 H              1 S1                 0.0000
     20 ****        -1.2880   2.6170   1.3177 H              1 S1                 0.0000
     21 ****         0.8020   0.2414   1.1779 H              1 S1                 0.0000
     22 ****         2.6141   0.5881   0.6375 H              1 S1                 0.0000
     23 ****         6.7597   2.1432  -2.0849 H              1 S1                 0.0000
     24 ****        -1.0552   0.4610   2.5926 H              1 S1                 0.0000
     25 ****        -2.5996   0.0316   1.9422 H              1 S1                 0.0000
     26 ****        -0.1140  -1.7541   1.6409 H              1 S1                 0.0000
     27 ****        -1.2379  -1.8285   2.9627 H              1 S1                 0.0000
     28 ****        -2.1261  -3.4699   1.6124 H              1 S1                 0.0000
     29 ****        -3.1228  -2.1139   1.2061 H              1 S1                 0.0000
     30 ****        -1.0705  -3.5570  -0.4382 H              1 S1                 0.0000
     31 ****        -2.6603  -3.0170  -0.8759 H              1 S1                 0.0000
     32 ****        -0.0464  -1.5164  -0.9251 H              1 S1                 0.0000
     33 ****        -1.2278  -1.7105  -2.1657 H              1 S1                 0.0000
     34 ****        -2.8150  -0.2290  -0.6822 H              1 S1                 0.0000
     35 ****        -1.5930   0.4847  -1.6707 H              1 S1                 0.0000
     36 ****        -0.2831   1.8283  -1.7301 LP             1 S1                 0.0000
     37 ****         1.3444   2.1419  -2.2328 LP             1 S1                 0.0000
     38 ****         2.6437   2.3197  -2.6257 LP             1 S1                 0.0000
     39 ****         4.9256   2.8533  -3.5276 LP             1 S1                 0.0000
@<TRIPOS>BOND
    1    1    2 1     
    2    1   18 1     
    3    1   19 1     
    4    1   20 1     
    5    2   17 1     
    6    2    3 1     
    7    2   12 1     
    8    3    4 am    
    9    3   21 1     
   10    4    5 2     
   11    4    6 am    
   12    6    7 1     
   13    6   22 1     
   14    7   11 1     
   15    7    8 2     
   16    8    9 1     
   17    9   10 2     
   18   10   11 1     
   19   10   23 1     
   20   12   13 1     
   21   12   24 1     
   22   12   25 1     
   23   13   14 1     
   24   13   26 1     
   25   13   27 1     
   26   14   15 1     
   27   14   28 1     
   28   14   29 1     
   29   15   16 1     
   30   15   30 1     
   31   15   31 1     
   32   16   17 1     
   33   16   32 1     
   34   16   33 1     
   35   17   34 1     
   36   17   35 1     
   37    5   36 1     
   38    5   37 1     
   39    8   38 1     
   40    9   39 1     
@<TRIPOS>SUBSTRUCTURE
      1 S1             1
@<TRIPOS>SET
LONE_PAIRS      STATIC     ATOMS    <user>   **** ""
4 36 37 38 39
DONOR_HYDROGENS      STATIC     ATOMS    <user>   **** ""
2 21 22
ATOM$BLUE        STATIC     ATOMS    COLORGROUP SYSTEM
4 36 37 38 39
ATOM$RED        STATIC     ATOMS    COLORGROUP SYSTEM
2 21 22
