#       Name:                AV-unprocessed.smi:1897
#       Creating user name   scv26
#       Creation time:       Fri Mar 27 09:43:07 2020


#       File generated by GOLD software.
#

@<TRIPOS>MOLECULE
AV-unprocessed.smi:1897
    43    45     1
SMALL
NO_CHARGES


@<TRIPOS>ATOM
      1 ****        -4.4112   3.7542   0.2557 C.3            1 S1                 0.0000
      2 ****        -3.0220   3.6946  -0.2801 C.2            1 S1                 0.0000
      3 ****        -2.7536   3.6530  -1.5873 N.2            1 S1                 0.0000
      4 ****        -1.3908   3.6014  -1.8397 N.2            1 S1                 0.0000
      5 ****        -0.6493   3.5904  -0.7230 C.2            1 S1                 0.0000
      6 ****         0.6952   3.5305  -0.7481 N.pl3          1 S1                -1.0000
      7 ****         1.3760   2.3568  -0.6820 C.2            1 S1                 0.0000
      8 ****         2.6038   2.2837  -0.7071 O.2            1 S1                 0.0000
      9 ****         0.6593   1.2215  -0.5850 N.am           1 S1                 0.0000
     10 ****         1.2035  -0.1283  -0.5049 C.3            1 S1                 0.0000
     11 ****         1.6335  -0.7051  -1.8617 C.3            1 S1                 0.0000
     12 ****         1.2537  -2.1981  -1.8075 C.3            1 S1                 0.0000
     13 ****         0.6770  -2.4452  -0.4649 N.4            1 S1                 1.0000
     14 ****         1.6670  -3.0547   0.4652 C.3            1 S1                 0.0000
     15 ****         1.1564  -3.0919   1.9112 C.3            1 S1                 0.0000
     16 ****         0.8176  -1.6769   2.3860 C.3            1 S1                 0.0000
     17 ****        -0.2426  -1.0696   1.4615 C.3            1 S1                 0.0000
     18 ****         0.1476  -1.1293  -0.0326 C.3            1 S1                 0.0000
     19 ****        -1.6056   3.6642   0.7566 S.3            1 S1                 0.0000
     20 ****        -4.8527   2.7577   0.2565 H              1 S1                 0.0000
     21 ****        -5.0261   4.4114  -0.3598 H              1 S1                 0.0000
     22 ****        -4.4069   4.1373   1.2762 H              1 S1                 0.0000
     23 ****        -0.3462   1.3102  -0.5699 H              1 S1                 0.0000
     24 ****         2.0519  -0.1441   0.1816 H              1 S1                 0.0000
     25 ****         1.1038  -0.2200  -2.6833 H              1 S1                 0.0000
     26 ****         2.7011  -0.5604  -2.0301 H              1 S1                 0.0000
     27 ****         0.4888  -2.4086  -2.5558 H              1 S1                 0.0000
     28 ****         2.1023  -2.8490  -2.0225 H              1 S1                 0.0000
     29 ****         1.8948  -4.0662   0.1273 H              1 S1                 0.0000
     30 ****         2.6037  -2.4961   0.4284 H              1 S1                 0.0000
     31 ****         0.2759  -3.7321   1.9811 H              1 S1                 0.0000
     32 ****         1.9137  -3.5309   2.5614 H              1 S1                 0.0000
     33 ****         0.4505  -1.7008   3.4124 H              1 S1                 0.0000
     34 ****         1.7149  -1.0571   2.3902 H              1 S1                 0.0000
     35 ****        -1.1754  -1.6176   1.5999 H              1 S1                 0.0000
     36 ****        -0.4535  -0.0408   1.7555 H              1 S1                 0.0000
     37 ****        -0.7600  -0.9539  -0.6142 H              1 S1                 0.0000
     38 ****        -0.0947  -3.0916  -0.5463 H              1 S1                 0.0000
     39 ****        -3.4537   3.6585  -2.3013 LP             1 S1                 0.0000
     40 ****        -1.0013   3.5751  -2.7604 LP             1 S1                 0.0000
     41 ****         1.2130   4.3832  -0.8182 LP             1 S1                 0.0000
     42 ****         3.1528   3.1164  -0.7795 LP             1 S1                 0.0000
     43 ****         3.0527   1.3917  -0.6552 LP             1 S1                 0.0000
@<TRIPOS>BOND
    1    1    2 1     
    2    1   20 1     
    3    1   21 1     
    4    1   22 1     
    5    2   19 1     
    6    2    3 2     
    7    3    4 1     
    8    4    5 2     
    9    5    6 1     
   10    5   19 1     
   11    6    7 1     
   12    7    8 2     
   13    7    9 am    
   14    9   10 1     
   15    9   23 1     
   16   10   18 1     
   17   10   11 1     
   18   10   24 1     
   19   11   12 1     
   20   11   25 1     
   21   11   26 1     
   22   12   13 1     
   23   12   27 1     
   24   12   28 1     
   25   13   18 1     
   26   13   14 1     
   27   13   38 1     
   28   14   15 1     
   29   14   29 1     
   30   14   30 1     
   31   15   16 1     
   32   15   31 1     
   33   15   32 1     
   34   16   17 1     
   35   16   33 1     
   36   16   34 1     
   37   17   18 1     
   38   17   35 1     
   39   17   36 1     
   40   18   37 1     
   41    3   39 1     
   42    4   40 1     
   43    6   41 1     
   44    8   42 1     
   45    8   43 1     
@<TRIPOS>SUBSTRUCTURE
      1 S1             1
@<TRIPOS>SET
LONE_PAIRS      STATIC     ATOMS    <user>   **** ""
5 39 40 41 42 43
DONOR_HYDROGENS      STATIC     ATOMS    <user>   **** ""
2 23 38
ATOM$BLUE        STATIC     ATOMS    COLORGROUP SYSTEM
5 39 40 41 42 43
ATOM$RED        STATIC     ATOMS    COLORGROUP SYSTEM
2 23 38
