AV-unprocessed.smi:493|AV-procd|sdf|2712|dock8
  -GOLD-   2262023153D 1   1.00000     0.00000
 Structure written by MMmdl.
 46 47  0  0  0  0  0  0  0  0  1 V2000
  145.8695  136.9664  152.4979 C   0  0  0  0  0  0  0  0  0  0  0  0
  145.5756  135.4861  152.7986 C   0  0  0  0  0  0  0  0  0  0  0  0
  145.0423  135.3644  154.2416 C   0  0  0  0  0  0  0  0  0  0  0  0
  144.5306  134.9677  151.7881 C   0  0  0  0  0  0  0  0  0  0  0  0
  146.8433  134.7611  152.6511 N   0  0  0  0  0  0  0  0  0  0  0  0
  147.0907  133.4563  152.8630 C   0  0  0  0  0  0  0  0  0  0  0  0
  146.2420  132.6517  153.2488 O   0  0  0  0  0  0  0  0  0  0  0  0
  148.5369  133.0054  152.6132 C   0  0  0  0  0  0  0  0  0  0  0  0
  149.2019  132.4932  153.8227 N   0  0  0  0  0  0  0  0  0  0  0  0
  149.5441  133.4341  154.8130 C   0  0  0  0  0  0  0  0  0  0  0  0
  150.1285  133.0669  155.9653 C   0  0  0  0  0  0  0  0  0  0  0  0
  150.6819  134.3153  157.1545 S   0  0  0  0  0  0  0  0  0  0  0  0
  149.8934  134.1227  158.3812 O   0  0  0  0  0  0  0  0  0  0  0  0
  152.1513  134.2612  157.2110 O   0  0  0  0  0  0  0  0  0  0  0  0
  150.2502  135.8570  156.4941 N   0  0  0  0  0  0  0  0  0  0  0  0
  149.2774  136.6740  157.2321 C   0  0  0  0  0  0  0  0  0  0  0  0
  149.9502  138.0298  157.4422 C   0  0  0  0  0  0  0  0  0  0  0  0
  150.8516  138.1577  156.2239 C   0  0  0  0  0  0  0  0  0  0  0  0
  151.3269  136.7238  155.9912 C   0  0  0  0  0  0  0  0  0  0  0  0
  150.4659  131.6752  156.1520 C   0  0  0  0  0  0  0  0  0  0  0  0
  150.1560  130.7703  155.2024 C   0  0  0  0  0  0  0  0  0  0  0  0
  149.4760  131.1588  153.9608 C   0  0  0  0  0  0  0  0  0  0  0  0
  149.1740  130.3354  153.0966 O   0  0  0  0  0  0  0  0  0  0  0  0
  144.9688  137.5753  152.5844 H   0  0  0  0  0  0  0  0  0  0  0  0
  146.2576  137.0986  151.4870 H   0  0  0  0  0  0  0  0  0  0  0  0
  146.6081  137.3747  153.1890 H   0  0  0  0  0  0  0  0  0  0  0  0
  145.7849  135.6941  154.9690 H   0  0  0  0  0  0  0  0  0  0  0  0
  144.7665  134.3403  154.4927 H   0  0  0  0  0  0  0  0  0  0  0  0
  144.1514  135.9770  154.3833 H   0  0  0  0  0  0  0  0  0  0  0  0
  143.6195  135.5658  151.8247 H   0  0  0  0  0  0  0  0  0  0  0  0
  144.2416  133.9362  151.9899 H   0  0  0  0  0  0  0  0  0  0  0  0
  144.9095  135.0099  150.7662 H   0  0  0  0  0  0  0  0  0  0  0  0
  147.6257  135.3198  152.3425 H   0  0  0  0  0  0  0  0  0  0  0  0
  148.5511  132.2461  151.8289 H   0  0  0  0  0  0  0  0  0  0  0  0
  149.0884  133.8513  152.2008 H   0  0  0  0  0  0  0  0  0  0  0  0
  149.3063  134.4605  154.5742 H   0  0  0  0  0  0  0  0  0  0  0  0
  148.3764  136.7770  156.6267 H   0  0  0  0  0  0  0  0  0  0  0  0
  148.9986  136.2087  158.1785 H   0  0  0  0  0  0  0  0  0  0  0  0
  149.2356  138.8487  157.5304 H   0  0  0  0  0  0  0  0  0  0  0  0
  150.5544  138.0077  158.3504 H   0  0  0  0  0  0  0  0  0  0  0  0
  150.2701  138.5008  155.3671 H   0  0  0  0  0  0  0  0  0  0  0  0
  151.6743  138.8567  156.3759 H   0  0  0  0  0  0  0  0  0  0  0  0
  152.2402  136.5367  156.5573 H   0  0  0  0  0  0  0  0  0  0  0  0
  151.5319  136.5202  154.9400 H   0  0  0  0  0  0  0  0  0  0  0  0
  150.9647  131.3555  157.0549 H   0  0  0  0  0  0  0  0  0  0  0  0
  150.4122  129.7326  155.3577 H   0  0  0  0  0  0  0  0  0  0  0  0
  1  2  1  0  0  0  0
  1 24  1  0  0  0  0
  1 25  1  0  0  0  0
  1 26  1  0  0  0  0
  2  3  1  0  0  0  0
  2  4  1  0  0  0  0
  2  5  1  0  0  0  0
  3 27  1  0  0  0  0
  3 28  1  0  0  0  0
  3 29  1  0  0  0  0
  4 30  1  0  0  0  0
  4 31  1  0  0  0  0
  4 32  1  0  0  0  0
  5  6  1  0  0  0  0
  5 33  1  0  0  0  0
  6  7  2  0  0  0  0
  6  8  1  0  0  0  0
  8  9  1  0  0  0  0
  8 34  1  0  0  0  0
  8 35  1  0  0  0  0
  9 22  1  0  0  0  0
  9 10  1  0  0  0  0
 10 11  2  0  0  0  0
 10 36  1  0  0  0  0
 11 12  1  0  0  0  0
 11 20  1  0  0  0  0
 12 13  2  0  0  0  0
 12 14  2  0  0  0  0
 12 15  1  0  0  0  0
 15 19  1  0  0  0  0
 15 16  1  0  0  0  0
 16 17  1  0  0  0  0
 16 37  1  0  0  0  0
 16 38  1  0  0  0  0
 17 18  1  0  0  0  0
 17 39  1  0  0  0  0
 17 40  1  0  0  0  0
 18 19  1  0  0  0  0
 18 41  1  0  0  0  0
 18 42  1  0  0  0  0
 19 43  1  0  0  0  0
 19 44  1  0  0  0  0
 20 21  2  0  0  0  0
 20 45  1  0  0  0  0
 21 22  1  0  0  0  0
 21 46  1  0  0  0  0
 22 23  2  0  0  0  0
M  END
> <s_m_source_file>
AV-unprocessed.smi

> <i_m_source_file_index>
493

> <i_lp_mmshare_version>
43012

> <i_f3d_flags>
0

> <s_epik_input>
W0NIM11DKFtDSDNdKShbQ0gzXSlbTkhdQyg9TylbQ0gyXW4xW2NIXWMoW2NIXVtjSF1jMT1PKVMoPU8pKD1PKU4yW0NIMl1bQ0gyXVtDSDJdW0NIMl0y

> <s_epik_cmdline>
J2VwaWtfcHl0aG9uJywgJy1waCcsICc3LjAnLCAnLXRuJywgJzgnLCAnLW1hJywgJzIwMCcsICctbWV0YWxfYmluZGluZycsICctaW1hZScsICc8aW5maWxlLm1hZT4nLCAnLW9tYWUnLCAnPG91dGZpbGUubWFlPic=

> <r_lp_tautomer_probability>
1

> <r_epik_Ionization_Penalty>
3.47616e-08

> <r_epik_Ionization_Penalty_Charging>
1.01201e-08

> <r_epik_Ionization_Penalty_Neutral>
2.46415e-08

> <r_epik_State_Penalty>
-0

> <r_epik_Charging_Adjusted_Penalty>
1.01201e-08

> <i_epik_Tot_Q>
0

> <i_epik_Tot_abs_Q>
0

> <r_epik_Metal_State_Penalty>
-0

> <b_epik_Metal_Only>
0

> <s_lp_Force_Field>
OPLS_2005

> <r_lp_Energy>
19.4052

> <b_lp_Chiralities_Consistent>
1

> <s_lp_Variant>
AV-unprocessed.smi:493-1

> <Gold.Version>
5.8.1

> <Gold.Id.Protein>
6NUR|6NUR_protein|mol2

> <Gold.PLP.Fitness>
44.3800

> <Gold.PLP.PLP>
-34.9294

> <Gold.PLP.part.hbond>
-2.9254

> <Gold.PLP.part.metal>
0.0000

> <Gold.PLP.part.buried>
-3.9660

> <Gold.PLP.part.nonpolar>
-28.5236

> <Gold.PLP.part.repulsive>
0.3219

> <Gold.PLP.ligand.clash>
0.0000

> <Gold.PLP.ligand.torsion>
1.5987

> <Gold.PLP.Chemscore.Hbond>
2.3994

> <Gold.PLP.Chemscore.CHOScore>
0.9934

> <Gold.PLP.Chemscore.Metal>
0.0000

> <Gold.Chemscore.Hbonds>
donor molecule, donor type, donor heavy atom, donor atom, acceptor molecule, acceptor atom, score
      L1  H     5    33       P1  7948  1.00
      P1  H  6896  6907       L1    13  0.26

> <Gold.PLP.Chemscore.Internal.Correction>
2.4696

> <Gold.Rescore>
     Score         DG    S(hbond)    S(metal)    S(lipo)     H(rot)  DE(clash)    DE(int)     intcor
     15.72     -17.55       2.70        0.00      61.67       1.62       0.02       1.82       ----

> <Gold.Chemscore.Fitness>
15.7178

> <Gold.Chemscore.DG>
-17.5539

> <Gold.Chemscore.ZeroCoef>
-5.4800

> <Gold.Chemscore.Hbond>
2.6979

> <Gold.Chemscore.Metal>
0.0000

> <Gold.Chemscore.Lipo>
61.6739

> <Gold.Chemscore.Internal_Hbond>
0.0000

> <Gold.Chemscore.DEClash>
0.0186

> <Gold.Chemscore.DEInternal>
1.8174

> <Gold.Chemscore.Rot>
1.6222

> <Gold.Chemscore.Internal.Correction>
   9.000000E+99

> <Gold.Chemscore.Hbonds>
donor molecule, donor type, donor heavy atom, donor atom, acceptor molecule, acceptor atom, score
      L1  H     5    33       P1  7948  1.00
      P1  H  6896  6907       L1    13  0.16

> <Gold.Chemscore.Hbond.Weighted>
-9.0109

> <Gold.Chemscore.Metal.Weighted>
-0.0000

> <Gold.Chemscore.Lipo.Weighted>
-7.2158

> <Gold.Chemscore.Internal_Hbond.Weighted>
0.0000

> <Gold.Chemscore.DEClash.Weighted>
0.0186

> <Gold.Chemscore.DEInternal.Weighted>
1.8174

> <Gold.Chemscore.Rot.Weighted>
4.1528

> <Gold.Chemscore.Internal.Correction.Weighted>
   9.000000E+99

> <Gold.Protein.RotatedTorsions>
[ 6907 6896 6895 6894 ] final  -56.68 input  -60.11 | X-H torsion
[ 7974 7965 7964 7962 ] final  -17.09 input  175.53 | X-H torsion
[ 8008 7997 7996 7995 ] final  -36.74 input   59.86 | X-H torsion
[ 10167 10162 10161 10158 ] final  116.93 input  -65.29 | X-H torsion
[ 10718 10713 10712 10709 ] final -159.18 input   66.30 | X-H torsion
[ 10763 10752 10751 10750 ] final  110.45 input  -60.55 | X-H torsion
[ 11005 11000 10999 10996 ] final   -5.95 input  -57.11 | X-H torsion

> <Gold.Protein.ActiveResidues>
 VAL166  LYS551  ARG553  GLY616  TRP617  ASP618  TYR619  PRO620  LYS621  CYS622 
 ASP623  PHE694  ASN695  SER759  ASP760  ASP761  ALA762  ILE779  LEU786  VAL792 
 PHE793  MET794  SER795  GLU796  ALA797  LYS798  CYS799  TRP800  GLU811  SER814 

> <Gold.Protein.RotatedAtoms>
  150.8148  134.7323  159.6719 H   0  0  0  0  0  0  0  0  0  0  0  0  # atno 6907 bound_to 6896
  152.4267  134.5852  159.9969 H   0  0  0  0  0  0  0  0  0  0  0  0  # atno 6908 bound_to 6896
  151.6052  133.3315  159.3092 H   0  0  0  0  0  0  0  0  0  0  0  0  # atno 6909 bound_to 6896
  146.1957  140.3729  142.8441 H   0  0  0  0  0  0  0  0  0  0  0  0  # atno 7974 bound_to 7965
  154.4067  140.1622  156.2423 H   0  0  0  0  0  0  0  0  0  0  0  0  # atno 8008 bound_to 7997
  155.9190  140.3422  155.6135 H   0  0  0  0  0  0  0  0  0  0  0  0  # atno 8009 bound_to 7997
  155.7245  140.0772  157.2307 H   0  0  0  0  0  0  0  0  0  0  0  0  # atno 8010 bound_to 7997
  139.6213  144.7101  151.2628 H   0  0  0  0  0  0  0  0  0  0  0  0  # atno 10167 bound_to 10162
  156.5645  130.8661  151.2819 H   0  0  0  0  0  0  0  0  0  0  0  0  # atno 10718 bound_to 10713
  153.4491  135.3748  155.2273 H   0  0  0  0  0  0  0  0  0  0  0  0  # atno 10763 bound_to 10752
  154.8756  135.3881  154.4060 H   0  0  0  0  0  0  0  0  0  0  0  0  # atno 10764 bound_to 10752
  153.4616  135.7086  153.6110 H   0  0  0  0  0  0  0  0  0  0  0  0  # atno 10765 bound_to 10752
  140.6967  133.9025  155.8655 H   0  0  0  0  0  0  0  0  0  0  0  0  # atno 11005 bound_to 11000
  144.8577  140.7094  143.6128 LP  0  0  0  0  0  0  0  0  0  0  0  0  # atno 17320 bound_to 7965
  145.3649  139.1672  143.4363 LP  0  0  0  0  0  0  0  0  0  0  0  0  # atno 17321 bound_to 7965
  140.7384  143.6650  150.8131 LP  0  0  0  0  0  0  0  0  0  0  0  0  # atno 17342 bound_to 10162
  140.0261  143.5492  152.2780 LP  0  0  0  0  0  0  0  0  0  0  0  0  # atno 17343 bound_to 10162
  157.7361  130.9774  150.2120 LP  0  0  0  0  0  0  0  0  0  0  0  0  # atno 17370 bound_to 10713
  156.2769  130.3728  149.7974 LP  0  0  0  0  0  0  0  0  0  0  0  0  # atno 17371 bound_to 10713
  141.0197  134.0906  157.4133 LP  0  0  0  0  0  0  0  0  0  0  0  0  # atno 17394 bound_to 11000
  139.8908  135.0114  156.6757 LP  0  0  0  0  0  0  0  0  0  0  0  0  # atno 17395 bound_to 11000

$$$$
