AV-unprocessed.smi:2912|AV-procd|sdf|11181|dock4
  -GOLD-   2272016 73D 1   1.00000     0.00000
 Structure written by MMmdl.
 31 32  0  0  0  0  0  0  0  0  1 V2000
  145.9636  142.1626  154.3719 C   0  0  0  0  0  0  0  0  0  0  0  0
  147.2844  141.5737  154.4204 N   0  0  0  0  0  0  0  0  0  0  0  0
  148.3142  141.8413  155.2955 C   0  0  0  0  0  0  0  0  0  0  0  0
  149.3605  141.0289  154.9592 C   0  0  0  0  0  0  0  0  0  0  0  0
  150.7052  140.9019  155.6277 C   0  0  0  0  0  0  0  0  0  0  0  0
  150.6031  140.5831  157.1329 C   0  0  0  0  0  0  0  0  0  0  0  0
  151.6154  141.2952  157.9099 N   0  0  0  0  0  0  0  0  0  0  0  0
  151.3679  142.2306  158.8427 C   0  0  0  0  0  0  0  0  0  0  0  0
  150.2304  142.4968  159.2338 O   0  0  0  0  0  0  0  0  0  0  0  0
  152.5874  142.9876  159.3942 C   0  0  0  0  0  0  0  0  0  0  0  0
  153.7545  141.9037  160.2540 S   0  0  0  0  0  0  0  0  0  0  0  0
  152.9173  142.1442  161.8390 C   0  0  0  0  0  0  0  0  0  0  0  0
  152.6442  143.6429  162.0195 C   0  0  0  0  0  0  0  0  0  0  0  0
  152.0848  144.3756  160.4515 S   0  0  0  0  0  0  0  0  0  0  0  0
  148.8655  140.3007  153.8396 C   0  0  0  0  0  0  0  0  0  0  0  0
  147.6230  140.6266  153.5222 N   0  0  0  0  0  0  0  0  0  0  0  0
  145.8753  142.9451  155.1258 H   0  0  0  0  0  0  0  0  0  0  0  0
  145.2118  141.3970  154.5655 H   0  0  0  0  0  0  0  0  0  0  0  0
  145.7881  142.5969  153.3874 H   0  0  0  0  0  0  0  0  0  0  0  0
  148.2143  142.5692  156.0871 H   0  0  0  0  0  0  0  0  0  0  0  0
  151.3006  140.1276  155.1430 H   0  0  0  0  0  0  0  0  0  0  0  0
  151.2742  141.8241  155.5049 H   0  0  0  0  0  0  0  0  0  0  0  0
  149.6012  140.8207  157.4938 H   0  0  0  0  0  0  0  0  0  0  0  0
  150.7343  139.5126  157.2920 H   0  0  0  0  0  0  0  0  0  0  0  0
  152.5790  141.1312  157.6560 H   0  0  0  0  0  0  0  0  0  0  0  0
  153.1103  143.4021  158.5322 H   0  0  0  0  0  0  0  0  0  0  0  0
  151.9769  141.5922  161.8206 H   0  0  0  0  0  0  0  0  0  0  0  0
  153.5172  141.7425  162.6554 H   0  0  0  0  0  0  0  0  0  0  0  0
  151.9121  143.8261  162.8057 H   0  0  0  0  0  0  0  0  0  0  0  0
  153.5655  144.1471  162.3118 H   0  0  0  0  0  0  0  0  0  0  0  0
  149.3654  139.5377  153.2614 H   0  0  0  0  0  0  0  0  0  0  0  0
  1  2  1  0  0  0  0
  1 17  1  0  0  0  0
  1 18  1  0  0  0  0
  1 19  1  0  0  0  0
  2 16  1  0  0  0  0
  2  3  1  0  0  0  0
  3  4  2  0  0  0  0
  3 20  1  0  0  0  0
  4  5  1  0  0  0  0
  4 15  1  0  0  0  0
  5  6  1  0  0  0  0
  5 21  1  0  0  0  0
  5 22  1  0  0  0  0
  6  7  1  0  0  0  0
  6 23  1  0  0  0  0
  6 24  1  0  0  0  0
  7  8  1  0  0  0  0
  7 25  1  0  0  0  0
  8  9  2  0  0  0  0
  8 10  1  0  0  0  0
 10 14  1  0  0  0  0
 10 11  1  0  0  0  0
 10 26  1  0  0  0  0
 11 12  1  0  0  0  0
 12 13  1  0  0  0  0
 12 27  1  0  0  0  0
 12 28  1  0  0  0  0
 13 14  1  0  0  0  0
 13 29  1  0  0  0  0
 13 30  1  0  0  0  0
 15 16  2  0  0  0  0
 15 31  1  0  0  0  0
M  END
> <s_m_source_file>
AV-unprocessed.smi

> <i_m_source_file_index>
2912

> <i_lp_mmshare_version>
43012

> <i_f3d_flags>
0

> <s_epik_input>
W0NIM11uMVtjSF1jKFtjSF1uMSlbQ0gyXVtDSDJdW05IXUMoPU8pW0NIXTJTW0NIMl1bQ0gyXVMy

> <s_epik_cmdline>
J2VwaWtfcHl0aG9uJywgJy1waCcsICc3LjAnLCAnLXRuJywgJzgnLCAnLW1hJywgJzIwMCcsICctbWV0YWxfYmluZGluZycsICctaW1hZScsICc8aW5maWxlLm1hZT4nLCAnLW9tYWUnLCAnPG91dGZpbGUubWFlPic=

> <r_lp_tautomer_probability>
1

> <r_epik_Ionization_Penalty>
0.000416309

> <r_epik_Ionization_Penalty_Charging>
0

> <r_epik_Ionization_Penalty_Neutral>
0.000416309

> <r_epik_State_Penalty>
-0

> <r_epik_Charging_Adjusted_Penalty>
0

> <i_epik_Tot_Q>
0

> <i_epik_Tot_abs_Q>
0

> <r_epik_Metal_State_Penalty>
-0

> <b_epik_Metal_Only>
0

> <s_epik_Chemistry_Notes>
This compound contains an acetal/aminal-like group ( X-CH(R)-Y where X, Y are N, S, or O) that may be acid/base labile, releasing an aldehyde.

> <s_lp_Force_Field>
OPLS_2005

> <r_lp_Energy>
6.65343

> <b_lp_Chiralities_Consistent>
1

> <s_lp_Variant>
AV-unprocessed.smi:2912-1

> <Gold.Version>
5.8.1

> <Gold.Id.Protein>
6NUR|6NUR_protein|mol2

> <Gold.PLP.Fitness>
42.4216

> <Gold.PLP.PLP>
-38.6848

> <Gold.PLP.part.hbond>
-0.7819

> <Gold.PLP.part.metal>
0.0000

> <Gold.PLP.part.buried>
-0.6084

> <Gold.PLP.part.nonpolar>
-36.9583

> <Gold.PLP.part.repulsive>
0.8815

> <Gold.PLP.ligand.clash>
0.0000

> <Gold.PLP.ligand.torsion>
0.3632

> <Gold.PLP.Chemscore.Hbond>
0.0000

> <Gold.PLP.Chemscore.CHOScore>
1.4741

> <Gold.PLP.Chemscore.Metal>
0.0000

> <Gold.Chemscore.Hbonds>
donor molecule, donor type, donor heavy atom, donor atom, acceptor molecule, acceptor atom, score
      L1  C     3    20       P1  8028  0.76
      L1  C    15    31       P1  7957  0.69

> <Gold.PLP.Chemscore.Internal.Correction>
0.0409

> <Gold.Rescore>
     Score         DG    S(hbond)    S(metal)    S(lipo)     H(rot)  DE(clash)    DE(int)     intcor
     11.70     -12.19       0.00        0.00      91.13       1.54       0.06       0.43       ----

> <Gold.Chemscore.Fitness>
11.7048

> <Gold.Chemscore.DG>
-12.1918

> <Gold.Chemscore.ZeroCoef>
-5.4800

> <Gold.Chemscore.Hbond>
0.0003

> <Gold.Chemscore.Metal>
0.0000

> <Gold.Chemscore.Lipo>
91.1267

> <Gold.Chemscore.Internal_Hbond>
0.0000

> <Gold.Chemscore.DEClash>
0.0560

> <Gold.Chemscore.DEInternal>
0.4311

> <Gold.Chemscore.Rot>
1.5434

> <Gold.Chemscore.Internal.Correction>
   9.000000E+99

> <Gold.Chemscore.Hbond.Weighted>
-0.0011

> <Gold.Chemscore.Metal.Weighted>
-0.0000

> <Gold.Chemscore.Lipo.Weighted>
-10.6618

> <Gold.Chemscore.Internal_Hbond.Weighted>
0.0000

> <Gold.Chemscore.DEClash.Weighted>
0.0560

> <Gold.Chemscore.DEInternal.Weighted>
0.4311

> <Gold.Chemscore.Rot.Weighted>
3.9511

> <Gold.Chemscore.Internal.Correction.Weighted>
   9.000000E+99

> <Gold.Protein.RotatedTorsions>
[ 6907 6896 6895 6894 ] final  -59.31 input  -60.11 | X-H torsion
[ 7974 7965 7964 7962 ] final -164.91 input  175.53 | X-H torsion
[ 8008 7997 7996 7995 ] final   62.81 input   59.86 | X-H torsion
[ 10167 10162 10161 10158 ] final  -63.34 input  -65.29 | X-H torsion
[ 10718 10713 10712 10709 ] final -131.39 input   66.30 | X-H torsion
[ 10763 10752 10751 10750 ] final   45.41 input  -60.55 | X-H torsion
[ 11005 11000 10999 10996 ] final   73.01 input  -57.11 | X-H torsion

> <Gold.Protein.ActiveResidues>
 VAL166  LYS551  ARG553  GLY616  TRP617  ASP618  TYR619  PRO620  LYS621  CYS622 
 ASP623  PHE694  ASN695  SER759  ASP760  ASP761  ALA762  ILE779  LEU786  VAL792 
 PHE793  MET794  SER795  GLU796  ALA797  LYS798  CYS799  TRP800  GLU811  SER814 

> <Gold.Protein.RotatedAtoms>
  150.7940  134.6985  159.6536 H   0  0  0  0  0  0  0  0  0  0  0  0  # atno 6907 bound_to 6896
  152.4049  134.6220  160.0063 H   0  0  0  0  0  0  0  0  0  0  0  0  # atno 6908 bound_to 6896
  151.6480  133.3285  159.3181 H   0  0  0  0  0  0  0  0  0  0  0  0  # atno 6909 bound_to 6896
  144.7284  140.2892  143.6223 H   0  0  0  0  0  0  0  0  0  0  0  0  # atno 7974 bound_to 7965
  155.6202  140.3495  155.4649 H   0  0  0  0  0  0  0  0  0  0  0  0  # atno 8008 bound_to 7997
  156.0085  140.1228  157.0501 H   0  0  0  0  0  0  0  0  0  0  0  0  # atno 8009 bound_to 7997
  154.4272  140.1086  156.5783 H   0  0  0  0  0  0  0  0  0  0  0  0  # atno 8010 bound_to 7997
  140.5877  143.2336  151.6207 H   0  0  0  0  0  0  0  0  0  0  0  0  # atno 10167 bound_to 10162
  156.2239  130.6995  151.0786 H   0  0  0  0  0  0  0  0  0  0  0  0  # atno 10718 bound_to 10713
  152.9825  135.6040  154.3432 H   0  0  0  0  0  0  0  0  0  0  0  0  # atno 10763 bound_to 10752
  154.3127  135.2771  155.2560 H   0  0  0  0  0  0  0  0  0  0  0  0  # atno 10764 bound_to 10752
  154.4762  135.5929  153.6413 H   0  0  0  0  0  0  0  0  0  0  0  0  # atno 10765 bound_to 10752
  139.9461  134.7310  156.0975 H   0  0  0  0  0  0  0  0  0  0  0  0  # atno 11005 bound_to 11000
  145.7872  139.1913  143.2123 LP  0  0  0  0  0  0  0  0  0  0  0  0  # atno 17320 bound_to 7965
  146.0785  140.7790  142.9653 LP  0  0  0  0  0  0  0  0  0  0  0  0  # atno 17321 bound_to 7965
  139.5208  144.3212  152.0908 LP  0  0  0  0  0  0  0  0  0  0  0  0  # atno 17342 bound_to 10162
  140.2372  144.4307  150.6275 LP  0  0  0  0  0  0  0  0  0  0  0  0  # atno 17343 bound_to 10162
  157.7101  131.0738  150.6531 LP  0  0  0  0  0  0  0  0  0  0  0  0  # atno 17370 bound_to 10713
  156.6595  130.4508  149.5692 LP  0  0  0  0  0  0  0  0  0  0  0  0  # atno 17371 bound_to 10713
  141.1112  133.6642  156.2983 LP  0  0  0  0  0  0  0  0  0  0  0  0  # atno 17394 bound_to 11000
  140.5831  134.5726  157.5484 LP  0  0  0  0  0  0  0  0  0  0  0  0  # atno 17395 bound_to 11000

$$$$
