AV-unprocessed.smi:34|AV-procd|sdf|222|dock3
  -GOLD-   2262015543D 1   1.00000     0.00000
 Structure written by MMmdl.
 55 59  0  0  0  0  0  0  0  0  1 V2000
  152.3475  140.1184  159.3183 O   0  0  0  0  0  0  0  0  0  0  0  0
  152.1923  141.0596  158.5395 C   0  0  0  0  0  0  0  0  0  0  0  0
  152.0361  140.8615  157.1101 N   0  0  0  0  0  0  0  0  0  0  0  0
  152.1180  139.7023  156.4167 C   0  0  0  0  0  0  0  0  0  0  0  0
  152.7816  139.6062  155.2342 N   0  0  0  0  0  0  0  0  0  0  0  0
  152.8306  138.4400  154.5826 C   0  0  0  0  0  0  0  0  0  0  0  0
  152.2918  137.2680  154.9274 N   0  0  0  0  0  0  0  0  0  0  0  0
  151.6199  137.3612  156.1107 C   0  0  0  0  0  0  0  0  0  0  0  0
  151.4836  138.5315  156.9065 C   0  0  0  0  0  0  0  0  0  0  0  0
  150.7282  138.2447  158.0362 N   0  0  0  0  0  0  0  0  0  0  0  0
  150.4434  136.9757  157.9133 C   0  0  0  0  0  0  0  0  0  0  0  0
  150.9390  136.3675  156.7781 N   0  0  0  0  0  0  0  0  0  0  0  0
  150.8194  134.9427  156.3258 C   0  0  1  0  0  0  0  0  0  0  0  0
  150.1150  134.2280  157.2969 O   0  0  0  0  0  0  0  0  0  0  0  0
  148.7650  134.0792  156.8768 C   0  0  2  0  0  0  0  0  0  0  0  0
  148.0727  132.9471  157.6431 C   0  0  0  0  0  0  0  0  0  0  0  0
  147.5714  133.4655  158.8641 O   0  0  0  0  0  0  0  0  0  0  0  0
  146.9469  134.6581  158.8867 C   0  0  0  0  0  0  0  0  0  0  0  0
  146.4575  135.1911  157.8888 O   0  0  0  0  0  0  0  0  0  0  0  0
  146.9116  135.2678  160.2474 C   0  0  0  0  0  0  0  0  0  0  0  0
  147.4590  134.5558  161.3403 C   0  0  0  0  0  0  0  0  0  0  0  0
  147.4384  135.1051  162.6370 C   0  0  0  0  0  0  0  0  0  0  0  0
  146.8697  136.3731  162.8571 C   0  0  0  0  0  0  0  0  0  0  0  0
  146.3222  137.0919  161.7784 C   0  0  0  0  0  0  0  0  0  0  0  0
  146.3424  136.5446  160.4805 C   0  0  0  0  0  0  0  0  0  0  0  0
  148.9190  133.8371  155.3768 C   0  0  2  0  0  0  0  0  0  0  0  0
  149.3174  132.5846  155.1438 F   0  0  0  0  0  0  0  0  0  0  0  0
  150.0337  134.8018  154.9981 C   0  0  1  0  0  0  0  0  0  0  0  0
  149.4841  136.0102  154.5008 O   0  0  0  0  0  0  0  0  0  0  0  0
  152.0540  142.4725  159.0254 C   0  0  0  0  0  0  0  0  0  0  0  0
  152.2618  142.7746  160.3898 C   0  0  0  0  0  0  0  0  0  0  0  0
  152.1453  144.1001  160.8520 C   0  0  0  0  0  0  0  0  0  0  0  0
  151.8300  145.1356  159.9519 C   0  0  0  0  0  0  0  0  0  0  0  0
  151.6354  144.8455  158.5884 C   0  0  0  0  0  0  0  0  0  0  0  0
  151.7494  143.5199  158.1253 C   0  0  0  0  0  0  0  0  0  0  0  0
  151.8350  141.6890  156.5678 H   0  0  0  0  0  0  0  0  0  0  0  0
  153.3801  138.4480  153.6527 H   0  0  0  0  0  0  0  0  0  0  0  0
  149.8644  136.4514  158.6593 H   0  0  0  0  0  0  0  0  0  0  0  0
  151.8488  134.5864  156.2680 H   0  0  0  0  0  0  0  0  0  0  0  0
  148.2259  135.0159  157.0284 H   0  0  0  0  0  0  0  0  0  0  0  0
  147.2403  132.5557  157.0568 H   0  0  0  0  0  0  0  0  0  0  0  0
  148.7660  132.1247  157.8268 H   0  0  0  0  0  0  0  0  0  0  0  0
  147.9011  133.5802  161.1962 H   0  0  0  0  0  0  0  0  0  0  0  0
  147.8595  134.5518  163.4636 H   0  0  0  0  0  0  0  0  0  0  0  0
  146.8532  136.7940  163.8516 H   0  0  0  0  0  0  0  0  0  0  0  0
  145.8849  138.0653  161.9460 H   0  0  0  0  0  0  0  0  0  0  0  0
  145.9136  137.1232  159.6753 H   0  0  0  0  0  0  0  0  0  0  0  0
  147.9944  133.9893  154.8183 H   0  0  0  0  0  0  0  0  0  0  0  0
  150.6860  134.3797  154.2326 H   0  0  0  0  0  0  0  0  0  0  0  0
  149.3432  135.9125  153.5709 H   0  0  0  0  0  0  0  0  0  0  0  0
  152.5056  141.9909  161.0930 H   0  0  0  0  0  0  0  0  0  0  0  0
  152.2989  144.3224  161.8976 H   0  0  0  0  0  0  0  0  0  0  0  0
  151.7413  146.1519  160.3068 H   0  0  0  0  0  0  0  0  0  0  0  0
  151.4005  145.6404  157.8961 H   0  0  0  0  0  0  0  0  0  0  0  0
  151.6050  143.3197  157.0734 H   0  0  0  0  0  0  0  0  0  0  0  0
  1  2  2  0  0  0  0
  2  3  1  0  0  0  0
  2 30  1  0  0  0  0
  3  4  1  0  0  0  0
  3 36  1  0  0  0  0
  4  9  1  0  0  0  0
  4  5  2  0  0  0  0
  5  6  1  0  0  0  0
  6  7  2  0  0  0  0
  6 37  1  0  0  0  0
  7  8  1  0  0  0  0
  8 12  1  0  0  0  0
  8  9  2  0  0  0  0
  9 10  1  0  0  0  0
 10 11  2  0  0  0  0
 11 12  1  0  0  0  0
 11 38  1  0  0  0  0
 12 13  1  0  0  0  0
 13 28  1  0  0  0  0
 13 14  1  0  0  0  0
 13 39  1  0  0  0  0
 14 15  1  0  0  0  0
 15 16  1  0  0  0  0
 15 26  1  0  0  0  0
 15 40  1  0  0  0  0
 16 17  1  0  0  0  0
 16 41  1  0  0  0  0
 16 42  1  0  0  0  0
 17 18  1  0  0  0  0
 18 19  2  0  0  0  0
 18 20  1  0  0  0  0
 20 25  1  0  0  0  0
 20 21  2  0  0  0  0
 21 22  1  0  0  0  0
 21 43  1  0  0  0  0
 22 23  2  0  0  0  0
 22 44  1  0  0  0  0
 23 24  1  0  0  0  0
 23 45  1  0  0  0  0
 24 25  2  0  0  0  0
 24 46  1  0  0  0  0
 25 47  1  0  0  0  0
 26 27  1  0  0  0  0
 26 28  1  0  0  0  0
 26 48  1  0  0  0  0
 28 29  1  0  0  0  0
 28 49  1  0  0  0  0
 29 50  1  0  0  0  0
 30 35  1  0  0  0  0
 30 31  2  0  0  0  0
 31 32  1  0  0  0  0
 31 51  1  0  0  0  0
 32 33  2  0  0  0  0
 32 52  1  0  0  0  0
 33 34  1  0  0  0  0
 33 53  1  0  0  0  0
 34 35  2  0  0  0  0
 34 54  1  0  0  0  0
 35 55  1  0  0  0  0
M  END
> <s_m_source_file>
AV-unprocessed.smi

> <i_m_source_file_index>
34

> <i_lp_mmshare_version>
43012

> <i_f3d_flags>
0

> <s_epik_input>
W2NIXTFbY0hdW2NIXVtjSF1bY0hdYzFDKD1PKVtOSF1jKG5bY0hdbjIpYyhjMjMpbltjSF1uM1tDQEBIXTRPW0NASF0oW0NAQEhdKEYpW0NASF00W09IXSlbQ0gyXU9DKD1PKWM1W2NIXVtjSF1bY0hdW2NIXVtjSF01

> <s_epik_cmdline>
J2VwaWtfcHl0aG9uJywgJy1waCcsICc3LjAnLCAnLXRuJywgJzgnLCAnLW1hJywgJzIwMCcsICctbWV0YWxfYmluZGluZycsICctaW1hZScsICc8aW5maWxlLm1hZT4nLCAnLW9tYWUnLCAnPG91dGZpbGUubWFlPic=

> <r_lp_tautomer_probability>
1

> <r_epik_Ionization_Penalty>
0.00257489

> <r_epik_Ionization_Penalty_Charging>
0

> <r_epik_Ionization_Penalty_Neutral>
0.00257489

> <r_epik_State_Penalty>
0.00519398

> <r_epik_Charging_Adjusted_Penalty>
0.00519398

> <i_epik_Tot_Q>
0

> <i_epik_Tot_abs_Q>
0

> <r_epik_Metal_State_Penalty>
0.335891

> <b_epik_Metal_Only>
0

> <s_epik_Chemistry_Notes>
This compound has an ester and may undergo hydrolysis at high or low pH. This compound contains an acetal/aminal-like group ( X-CH(R)-Y where X, Y are N, S, or O) that may be acid/base labile, releasing an aldehyde.

> <s_lp_Force_Field>
OPLS_2005

> <r_lp_Energy>
48.7075

> <b_lp_Chiralities_Consistent>
1

> <s_lp_Variant>
AV-unprocessed.smi:34-8

> <Gold.Version>
5.8.1

> <Gold.Id.Protein>
6NUR|6NUR_protein|mol2

> <Gold.PLP.Fitness>
68.7688

> <Gold.PLP.PLP>
-59.4024

> <Gold.PLP.part.hbond>
-4.8723

> <Gold.PLP.part.metal>
0.0000

> <Gold.PLP.part.buried>
-7.8905

> <Gold.PLP.part.nonpolar>
-47.3989

> <Gold.PLP.part.repulsive>
0.2118

> <Gold.PLP.ligand.clash>
0.1188

> <Gold.PLP.ligand.torsion>
0.9880

> <Gold.PLP.Chemscore.Hbond>
3.6643

> <Gold.PLP.Chemscore.CHOScore>
0.0000

> <Gold.PLP.Chemscore.Metal>
0.0000

> <Gold.Chemscore.Hbonds>
donor molecule, donor type, donor heavy atom, donor atom, acceptor molecule, acceptor atom, score
      L1  H    29    50       P1  7948  1.00
      P1  H  6896  6907       L1    14  0.69
      P1  H  7989  7998       L1     5  0.03
      P1  H  7997  8009       L1     5  1.00
      P1  H 10752 10764       L1     7  0.74

> <Gold.PLP.Chemscore.Internal.Correction>
0.4682

> <Gold.Rescore>
     Score         DG    S(hbond)    S(metal)    S(lipo)     H(rot)  DE(clash)    DE(int)     intcor
     20.39     -23.81       3.03        0.00     129.62       2.72       0.03       3.39       ----

> <Gold.Chemscore.Fitness>
20.3875

> <Gold.Chemscore.DG>
-23.8062

> <Gold.Chemscore.ZeroCoef>
-5.4800

> <Gold.Chemscore.Hbond>
3.0321

> <Gold.Chemscore.Metal>
0.0000

> <Gold.Chemscore.Lipo>
129.6246

> <Gold.Chemscore.Internal_Hbond>
0.0000

> <Gold.Chemscore.DEClash>
0.0311

> <Gold.Chemscore.DEInternal>
3.3876

> <Gold.Chemscore.Rot>
2.7215

> <Gold.Chemscore.Internal.Correction>
   9.000000E+99

> <Gold.Chemscore.Hbonds>
donor molecule, donor type, donor heavy atom, donor atom, acceptor molecule, acceptor atom, score
      L1  H    29    50       P1  7948  0.60
      P1  H  6896  6907       L1    14  0.66
      P1  H  7989  7998       L1     5  0.01
      P1  H  7997  8009       L1     5  0.27
      P1  H 10752 10764       L1     7  0.70

> <Gold.Chemscore.Hbond.Weighted>
-10.1272

> <Gold.Chemscore.Metal.Weighted>
-0.0000

> <Gold.Chemscore.Lipo.Weighted>
-15.1661

> <Gold.Chemscore.Internal_Hbond.Weighted>
0.0000

> <Gold.Chemscore.DEClash.Weighted>
0.0311

> <Gold.Chemscore.DEInternal.Weighted>
3.3876

> <Gold.Chemscore.Rot.Weighted>
6.9670

> <Gold.Chemscore.Internal.Correction.Weighted>
   9.000000E+99

> <Gold.Protein.RotatedTorsions>
[ 6907 6896 6895 6894 ] final -116.19 input  -60.11 | X-H torsion
[ 7974 7965 7964 7962 ] final -125.00 input  175.53 | X-H torsion
[ 8008 7997 7996 7995 ] final -123.07 input   59.86 | X-H torsion
[ 10167 10162 10161 10158 ] final  -89.55 input  -65.29 | X-H torsion
[ 10718 10713 10712 10709 ] final -136.60 input   66.30 | X-H torsion
[ 10763 10752 10751 10750 ] final  -65.30 input  -60.55 | X-H torsion
[ 11005 11000 10999 10996 ] final  135.70 input  -57.11 | X-H torsion

> <Gold.Protein.ActiveResidues>
 VAL166  LYS551  ARG553  GLY616  TRP617  ASP618  TYR619  PRO620  LYS621  CYS622 
 ASP623  PHE694  ASN695  SER759  ASP760  ASP761  ALA762  ILE779  LEU786  VAL792 
 PHE793  MET794  SER795  GLU796  ALA797  LYS798  CYS799  TRP800  GLU811  SER814 

> <Gold.Protein.RotatedAtoms>
  150.8036  133.8552  159.3216 H   0  0  0  0  0  0  0  0  0  0  0  0  # atno 6907 bound_to 6896
  151.6357  135.1016  160.0140 H   0  0  0  0  0  0  0  0  0  0  0  0  # atno 6908 bound_to 6896
  152.4125  133.6947  159.6445 H   0  0  0  0  0  0  0  0  0  0  0  0  # atno 6909 bound_to 6896
  145.0021  140.7830  143.4489 H   0  0  0  0  0  0  0  0  0  0  0  0  # atno 7974 bound_to 7965
  155.1745  140.0409  157.2870 H   0  0  0  0  0  0  0  0  0  0  0  0  # atno 8008 bound_to 7997
  154.6246  140.2509  155.7480 H   0  0  0  0  0  0  0  0  0  0  0  0  # atno 8009 bound_to 7997
  156.2452  140.2888  156.0570 H   0  0  0  0  0  0  0  0  0  0  0  0  # atno 8010 bound_to 7997
  140.3637  143.2829  151.9584 H   0  0  0  0  0  0  0  0  0  0  0  0  # atno 10167 bound_to 10162
  156.2788  130.7308  151.1299 H   0  0  0  0  0  0  0  0  0  0  0  0  # atno 10718 bound_to 10713
  154.3429  135.6153  153.5605 H   0  0  0  0  0  0  0  0  0  0  0  0  # atno 10763 bound_to 10752
  152.9803  135.5774  154.4832 H   0  0  0  0  0  0  0  0  0  0  0  0  # atno 10764 bound_to 10752
  154.4539  135.2853  155.1738 H   0  0  0  0  0  0  0  0  0  0  0  0  # atno 10765 bound_to 10752
  139.9997  134.9483  157.0044 H   0  0  0  0  0  0  0  0  0  0  0  0  # atno 11005 bound_to 11000
  145.2138  139.2192  143.5129 LP  0  0  0  0  0  0  0  0  0  0  0  0  # atno 17320 bound_to 7965
  146.3454  140.1982  142.8589 LP  0  0  0  0  0  0  0  0  0  0  0  0  # atno 17321 bound_to 7965
  139.4811  144.5970  151.7673 LP  0  0  0  0  0  0  0  0  0  0  0  0  # atno 17342 bound_to 10162
  140.5102  144.1037  150.5993 LP  0  0  0  0  0  0  0  0  0  0  0  0  # atno 17343 bound_to 10162
  157.7308  131.0613  150.5710 LP  0  0  0  0  0  0  0  0  0  0  0  0  # atno 17370 bound_to 10713
  156.5813  130.4305  149.5976 LP  0  0  0  0  0  0  0  0  0  0  0  0  # atno 17371 bound_to 10713
  140.4751  134.1346  155.7208 LP  0  0  0  0  0  0  0  0  0  0  0  0  # atno 17394 bound_to 11000
  141.1632  133.8753  157.1789 LP  0  0  0  0  0  0  0  0  0  0  0  0  # atno 17395 bound_to 11000

$$$$
