AV-unprocessed.smi:1868|AV-procd|sdf|7588|dock3
  -GOLD-   22720 9303D 1   1.00000     0.00000
 Structure written by MMmdl.
 48 50  0  0  0  0  0  0  0  0  3 V2000
  145.4743  133.8864  153.1367 C   0  0  0  0  0  0  0  0  0  0  0  0
  144.2373  134.7140  153.2390 C   0  0  0  0  0  0  0  0  0  0  0  0
  143.0895  134.3612  153.8835 N   0  3  0  0  0  0  0  0  0  0  0  0
  142.1495  135.3864  153.7704 C   0  0  0  0  0  0  0  0  0  0  0  0
  140.8502  135.4897  154.2571 C   0  0  0  0  0  0  0  0  0  0  0  0
  140.1572  136.6822  153.9626 C   0  0  0  0  0  0  0  0  0  0  0  0
  140.7573  137.7141  153.2116 C   0  0  0  0  0  0  0  0  0  0  0  0
  142.0756  137.5979  152.7229 C   0  0  0  0  0  0  0  0  0  0  0  0
  142.7533  136.4155  153.0188 C   0  0  0  0  0  0  0  0  0  0  0  0
  144.0387  135.9563  152.7107 N   0  0  0  0  0  0  0  0  0  0  0  0
  144.9392  136.8133  151.9234 C   0  0  0  0  0  0  0  0  0  0  0  0
  145.9018  137.6449  152.7956 C   0  0  2  0  0  0  0  0  0  0  0  0
  145.1481  138.3715  153.7479 O   0  0  0  0  0  0  0  0  0  0  0  0
  146.7233  138.6306  151.9385 C   0  0  0  0  0  0  0  0  0  0  0  0
  147.6508  139.4735  152.7376 N   0  3  2  0  0  0  0  0  0  0  0  0
  148.3456  138.6914  153.7930 C   0  0  0  0  0  0  0  0  0  0  0  0
  149.4008  139.5446  154.5167 C   0  0  0  0  0  0  0  0  0  0  0  0
  148.7757  140.8137  155.1190 C   0  0  1  0  0  0  0  0  0  0  0  0
  149.8253  141.6887  155.8184 C   0  0  0  0  0  0  0  0  0  0  0  0
  148.0351  141.5847  154.0138 C   0  0  0  0  0  0  0  0  0  0  0  0
  147.0068  140.6906  153.3005 C   0  0  0  0  0  0  0  0  0  0  0  0
  145.3616  132.9575  153.6965 H   0  0  0  0  0  0  0  0  0  0  0  0
  146.3276  134.4317  153.5403 H   0  0  0  0  0  0  0  0  0  0  0  0
  145.6784  133.6404  152.0945 H   0  0  0  0  0  0  0  0  0  0  0  0
  140.3885  134.7014  154.8337 H   0  0  0  0  0  0  0  0  0  0  0  0
  139.1456  136.8084  154.3206 H   0  0  0  0  0  0  0  0  0  0  0  0
  140.1949  138.6139  153.0082 H   0  0  0  0  0  0  0  0  0  0  0  0
  142.5262  138.3944  152.1500 H   0  0  0  0  0  0  0  0  0  0  0  0
  145.4916  136.1808  151.2275 H   0  0  0  0  0  0  0  0  0  0  0  0
  144.3199  137.4702  151.3114 H   0  0  0  0  0  0  0  0  0  0  0  0
  146.5583  136.9621  153.3331 H   0  0  0  0  0  0  0  0  0  0  0  0
  144.5859  138.9817  153.2957 H   0  0  0  0  0  0  0  0  0  0  0  0
  147.2976  138.0914  151.1832 H   0  0  0  0  0  0  0  0  0  0  0  0
  146.0278  139.2680  151.3893 H   0  0  0  0  0  0  0  0  0  0  0  0
  147.6138  138.3105  154.5071 H   0  0  0  0  0  0  0  0  0  0  0  0
  148.8353  137.8243  153.3483 H   0  0  0  0  0  0  0  0  0  0  0  0
  149.8752  138.9531  155.3009 H   0  0  0  0  0  0  0  0  0  0  0  0
  150.1913  139.8172  153.8158 H   0  0  0  0  0  0  0  0  0  0  0  0
  148.0448  140.5100  155.8700 H   0  0  0  0  0  0  0  0  0  0  0  0
  150.5903  142.0275  155.1190 H   0  0  0  0  0  0  0  0  0  0  0  0
  150.3246  141.1403  156.6178 H   0  0  0  0  0  0  0  0  0  0  0  0
  149.3663  142.5720  156.2634 H   0  0  0  0  0  0  0  0  0  0  0  0
  147.5313  142.4536  154.4389 H   0  0  0  0  0  0  0  0  0  0  0  0
  148.7504  141.9697  153.2853 H   0  0  0  0  0  0  0  0  0  0  0  0
  146.5281  141.2702  152.5127 H   0  0  0  0  0  0  0  0  0  0  0  0
  146.2198  140.3983  153.9976 H   0  0  0  0  0  0  0  0  0  0  0  0
  148.3723  139.7855  152.1035 H   0  0  0  0  0  0  0  0  0  0  0  0
  142.9609  133.4814  154.3667 H   0  0  0  0  0  0  0  0  0  0  0  0
  1  2  1  0  0  0  0
  1 22  1  0  0  0  0
  1 23  1  0  0  0  0
  1 24  1  0  0  0  0
  2 10  1  0  0  0  0
  2  3  2  0  0  0  0
  3  4  1  0  0  0  0
  3 48  1  0  0  0  0
  4  9  2  0  0  0  0
  4  5  1  0  0  0  0
  5  6  2  0  0  0  0
  5 25  1  0  0  0  0
  6  7  1  0  0  0  0
  6 26  1  0  0  0  0
  7  8  2  0  0  0  0
  7 27  1  0  0  0  0
  8  9  1  0  0  0  0
  8 28  1  0  0  0  0
  9 10  1  0  0  0  0
 10 11  1  0  0  0  0
 11 12  1  0  0  0  0
 11 29  1  0  0  0  0
 11 30  1  0  0  0  0
 12 13  1  0  0  0  0
 12 14  1  0  0  0  0
 12 31  1  0  0  0  0
 13 32  1  0  0  0  0
 14 15  1  0  0  0  0
 14 33  1  0  0  0  0
 14 34  1  0  0  0  0
 15 21  1  0  0  0  0
 15 16  1  0  0  0  0
 15 47  1  0  0  0  0
 16 17  1  0  0  0  0
 16 35  1  0  0  0  0
 16 36  1  0  0  0  0
 17 18  1  0  0  0  0
 17 37  1  0  0  0  0
 17 38  1  0  0  0  0
 18 19  1  0  0  0  0
 18 20  1  0  0  0  0
 18 39  1  0  0  0  0
 19 40  1  0  0  0  0
 19 41  1  0  0  0  0
 19 42  1  0  0  0  0
 20 21  1  0  0  0  0
 20 43  1  0  0  0  0
 20 44  1  0  0  0  0
 21 45  1  0  0  0  0
 21 46  1  0  0  0  0
M  CHG  1   3   1
M  CHG  1  15   1
M  END
> <s_m_source_file>
AV-unprocessed.smi

> <i_m_source_file_index>
1868

> <i_lp_mmshare_version>
43012

> <i_f3d_flags>
0

> <s_epik_input>
W2NIXTFbY0hdW2NIXVtjSF1jKGMxMiluKGMobjIpW0NIM10pW0NIMl1bQ0BIXShbT0hdKVtDSDJdTjNbQ0gyXVtDSDJdW0NIXShbQ0gzXSlbQ0gyXVtDSDJdMw==

> <s_epik_cmdline>
J2VwaWtfcHl0aG9uJywgJy1waCcsICc3LjAnLCAnLXRuJywgJzgnLCAnLW1hJywgJzIwMCcsICctbWV0YWxfYmluZGluZycsICctaW1hZScsICc8aW5maWxlLm1hZT4nLCAnLW9tYWUnLCAnPG91dGZpbGUubWFlPic=

> <r_epik_Ionization_Penalty>
1.10901

> <r_epik_Ionization_Penalty_Charging>
1.10901

> <r_epik_Ionization_Penalty_Neutral>
6.90208e-07

> <r_epik_State_Penalty>
1.18788

> <r_epik_Charging_Adjusted_Penalty>
2.29689

> <i_epik_Tot_Q>
2

> <i_epik_Tot_abs_Q>
2

> <r_epik_Metal_State_Penalty>
5.19353

> <b_epik_Metal_Only>
0

> <s_lp_Force_Field>
OPLS_2005

> <r_lp_Energy>
30.2902

> <b_lp_Chiralities_Consistent>
1

> <s_lp_Variant>
AV-unprocessed.smi:1868-5

> <Gold.Version>
5.8.1

> <Gold.Id.Protein>
6NUR|6NUR_protein|mol2

> <Gold.PLP.Fitness>
47.5582

> <Gold.PLP.PLP>
-36.6597

> <Gold.PLP.part.hbond>
-3.0000

> <Gold.PLP.part.metal>
0.0000

> <Gold.PLP.part.buried>
1.1683

> <Gold.PLP.part.nonpolar>
-35.2260

> <Gold.PLP.part.repulsive>
0.0878

> <Gold.PLP.ligand.clash>
0.0000

> <Gold.PLP.ligand.torsion>
0.5729

> <Gold.PLP.Chemscore.Hbond>
4.0000

> <Gold.PLP.Chemscore.CHOScore>
0.0000

> <Gold.PLP.Chemscore.Metal>
0.0000

> <Gold.Chemscore.Hbonds>
donor molecule, donor type, donor heavy atom, donor atom, acceptor molecule, acceptor atom, score
      L1  H     3    48       P1 10957  2.00
      L1  H    13    32       P1 10175  1.00
      L1  H    15    47       P1  7957  1.00

> <Gold.PLP.Chemscore.Internal.Correction>
0.0443

> <Gold.Rescore>
     Score         DG    S(hbond)    S(metal)    S(lipo)     H(rot)  DE(clash)    DE(int)     intcor
     18.89     -21.64       2.95        0.00      97.35       1.99       2.14       0.61       ----

> <Gold.Chemscore.Fitness>
18.8890

> <Gold.Chemscore.DG>
-21.6385

> <Gold.Chemscore.ZeroCoef>
-5.4800

> <Gold.Chemscore.Hbond>
2.9502

> <Gold.Chemscore.Metal>
0.0000

> <Gold.Chemscore.Lipo>
97.3489

> <Gold.Chemscore.Internal_Hbond>
0.0000

> <Gold.Chemscore.DEClash>
2.1394

> <Gold.Chemscore.DEInternal>
0.6101

> <Gold.Chemscore.Rot>
1.9863

> <Gold.Chemscore.Internal.Correction>
   9.000000E+99

> <Gold.Chemscore.Hbonds>
donor molecule, donor type, donor heavy atom, donor atom, acceptor molecule, acceptor atom, score
      L1  H     3    48       P1 10957  1.00
      L1  H    13    32       P1 10175  1.00
      L1  H    15    47       P1  7957  0.96

> <Gold.Chemscore.Hbond.Weighted>
-9.8537

> <Gold.Chemscore.Metal.Weighted>
-0.0000

> <Gold.Chemscore.Lipo.Weighted>
-11.3898

> <Gold.Chemscore.Internal_Hbond.Weighted>
0.0000

> <Gold.Chemscore.DEClash.Weighted>
2.1394

> <Gold.Chemscore.DEInternal.Weighted>
0.6101

> <Gold.Chemscore.Rot.Weighted>
5.0850

> <Gold.Chemscore.Internal.Correction.Weighted>
   9.000000E+99

> <Gold.Protein.RotatedTorsions>
[ 6907 6896 6895 6894 ] final  -30.34 input  -60.11 | X-H torsion
[ 7974 7965 7964 7962 ] final   71.72 input  175.53 | X-H torsion
[ 8008 7997 7996 7995 ] final   88.88 input   59.86 | X-H torsion
[ 10167 10162 10161 10158 ] final -130.15 input  -65.29 | X-H torsion
[ 10718 10713 10712 10709 ] final  -59.07 input   66.30 | X-H torsion
[ 10763 10752 10751 10750 ] final  -53.44 input  -60.55 | X-H torsion
[ 11005 11000 10999 10996 ] final   99.61 input  -57.11 | X-H torsion

> <Gold.Protein.ActiveResidues>
 VAL166  LYS551  ARG553  GLY616  TRP617  ASP618  TYR619  PRO620  LYS621  CYS622 
 ASP623  PHE694  ASN695  SER759  ASP760  ASP761  ALA762  ILE779  LEU786  VAL792 
 PHE793  MET794  SER795  GLU796  ALA797  LYS798  CYS799  TRP800  GLU811  SER814 

> <Gold.Protein.RotatedAtoms>
  151.1068  135.0004  159.8474 H   0  0  0  0  0  0  0  0  0  0  0  0  # atno 6907 bound_to 6896
  152.5440  134.1883  159.8674 H   0  0  0  0  0  0  0  0  0  0  0  0  # atno 6908 bound_to 6896
  151.1931  133.4611  159.2628 H   0  0  0  0  0  0  0  0  0  0  0  0  # atno 6909 bound_to 6896
  145.7623  139.2806  143.1369 H   0  0  0  0  0  0  0  0  0  0  0  0  # atno 7974 bound_to 7965
  155.9932  140.3367  155.6773 H   0  0  0  0  0  0  0  0  0  0  0  0  # atno 8008 bound_to 7997
  155.6392  140.0693  157.2642 H   0  0  0  0  0  0  0  0  0  0  0  0  # atno 8009 bound_to 7997
  154.4226  140.1746  156.1542 H   0  0  0  0  0  0  0  0  0  0  0  0  # atno 8010 bound_to 7997
  139.9323  143.6258  152.2526 H   0  0  0  0  0  0  0  0  0  0  0  0  # atno 10167 bound_to 10162
  156.1089  130.4177  150.0664 H   0  0  0  0  0  0  0  0  0  0  0  0  # atno 10718 bound_to 10713
  154.1589  135.6478  153.4981 H   0  0  0  0  0  0  0  0  0  0  0  0  # atno 10763 bound_to 10752
  153.0116  135.5356  154.6731 H   0  0  0  0  0  0  0  0  0  0  0  0  # atno 10764 bound_to 10752
  154.6039  135.2946  155.0477 H   0  0  0  0  0  0  0  0  0  0  0  0  # atno 10765 bound_to 10752
  139.8770  134.9103  156.4631 H   0  0  0  0  0  0  0  0  0  0  0  0  # atno 11005 bound_to 11000
  146.0252  140.8311  142.9903 LP  0  0  0  0  0  0  0  0  0  0  0  0  # atno 17320 bound_to 7965
  144.6828  140.2687  143.7309 LP  0  0  0  0  0  0  0  0  0  0  0  0  # atno 17321 bound_to 7965
  139.6772  144.7658  151.1674 LP  0  0  0  0  0  0  0  0  0  0  0  0  # atno 17342 bound_to 10162
  140.7634  143.5777  150.8927 LP  0  0  0  0  0  0  0  0  0  0  0  0  # atno 17343 bound_to 10162
  156.8632  130.9499  151.3616 LP  0  0  0  0  0  0  0  0  0  0  0  0  # atno 17370 bound_to 10713
  157.6268  130.8698  149.9204 LP  0  0  0  0  0  0  0  0  0  0  0  0  # atno 17371 bound_to 10713
  140.8849  133.7890  155.9507 LP  0  0  0  0  0  0  0  0  0  0  0  0  # atno 17394 bound_to 11000
  140.8815  134.2606  157.5142 LP  0  0  0  0  0  0  0  0  0  0  0  0  # atno 17395 bound_to 11000

$$$$
