#       Name:                AV-unprocessed.smi:2252
#       Creating user name   scv26
#       Creation time:       Fri Mar 27 12:30:24 2020


#       File generated by GOLD software.
#

@<TRIPOS>MOLECULE
AV-unprocessed.smi:2252
    48    50     1
SMALL
NO_CHARGES


@<TRIPOS>ATOM
      1 ****        -4.3906   0.4640  -2.8223 C.3            1 S1                 0.0000
      2 ****        -4.8310   0.4452  -1.4261 N.pl3          1 S1                 0.0000
      3 ****        -6.1270   0.4151  -0.9787 C.2            1 S1                 0.0000
      4 ****        -6.0701   0.4007   0.3904 C.2            1 S1                 0.0000
      5 ****        -4.7427   0.4232   0.7221 N.pl3          1 S1                 1.0000
      6 ****        -3.9865   0.4565  -0.3815 C.2            1 S1                 0.0000
      7 ****        -2.4899   0.4743  -0.4066 C.3            1 S1                 0.0000
      8 ****        -1.8825  -0.9378  -0.3648 C.3            1 S1                 0.0000
      9 ****        -0.4259  -0.9056  -0.4221 N.am           1 S1                 0.0000
     10 ****         0.3775  -0.5652   0.5980 C.2            1 S1                 0.0000
     11 ****        -0.0451  -0.2302   1.7052 O.2            1 S1                 0.0000
     12 ****         1.8901  -0.6264   0.3353 C.3            1 S1                 0.0000
     13 ****         2.4309  -1.9682   0.8741 C.3            1 S1                 0.0000
     14 ****         3.5119  -2.7306   0.1390 C.3            1 S1                 0.0000
     15 ****         2.1066  -3.2734   0.1781 C.3            1 S1                 0.0000
     16 ****         2.6040   0.5328   0.9435 N.4            1 S1                 1.0000
     17 ****         4.0792   0.4836   0.8550 C.3            1 S1                 0.0000
     18 ****         4.5685   1.9217   1.0560 C.3            1 S1                 0.0000
     19 ****         3.3412   2.8105   0.8321 C.3            1 S1                 0.0000
     20 ****         2.2255   1.8569   0.4033 C.3            1 S1                 0.0000
     21 ****        -5.2526   0.3402  -3.4786 H              1 S1                 0.0000
     22 ****        -3.6884  -0.3524  -2.9937 H              1 S1                 0.0000
     23 ****        -3.9089   1.4188  -3.0348 H              1 S1                 0.0000
     24 ****        -6.9735   0.4044  -1.6503 H              1 S1                 0.0000
     25 ****        -6.8538   0.3749   1.1336 H              1 S1                 0.0000
     26 ****        -2.1767   1.0131  -1.3010 H              1 S1                 0.0000
     27 ****        -2.1718   1.0658   0.4528 H              1 S1                 0.0000
     28 ****        -2.2050  -1.4670   0.5336 H              1 S1                 0.0000
     29 ****        -2.2393  -1.5217  -1.2135 H              1 S1                 0.0000
     30 ****         0.0016  -1.1780  -1.2959 H              1 S1                 0.0000
     31 ****         2.0534  -0.5907  -0.7438 H              1 S1                 0.0000
     32 ****         2.4653  -2.0201   1.9613 H              1 S1                 0.0000
     33 ****         3.8652  -2.3296  -0.8088 H              1 S1                 0.0000
     34 ****         4.2643  -3.2369   0.7401 H              1 S1                 0.0000
     35 ****         1.9213  -4.1443   0.8037 H              1 S1                 0.0000
     36 ****         1.5309  -3.2321  -0.7444 H              1 S1                 0.0000
     37 ****         4.5063  -0.2005   1.5890 H              1 S1                 0.0000
     38 ****         4.3721   0.1385  -0.1380 H              1 S1                 0.0000
     39 ****         4.9504   2.0609   2.0682 H              1 S1                 0.0000
     40 ****         5.3769   2.1625   0.3646 H              1 S1                 0.0000
     41 ****         3.0706   3.3053   1.7658 H              1 S1                 0.0000
     42 ****         3.5200   3.5873   0.0877 H              1 S1                 0.0000
     43 ****         2.1855   1.8081  -0.6861 H              1 S1                 0.0000
     44 ****         1.2491   2.1854   0.7611 H              1 S1                 0.0000
     45 ****         2.3758   0.5462   1.9275 H              1 S1                 0.0000
     46 ****        -4.3817   0.4139   1.6679 H              1 S1                 0.0000
     47 ****        -1.0298  -0.2026   1.8772 LP             1 S1                 0.0000
     48 ****         0.5964   0.0143   2.4323 LP             1 S1                 0.0000
@<TRIPOS>BOND
    1    1    2 1     
    2    1   21 1     
    3    1   22 1     
    4    1   23 1     
    5    2    6 1     
    6    2    3 1     
    7    3    4 2     
    8    3   24 1     
    9    4    5 1     
   10    4   25 1     
   11    5    6 2     
   12    5   46 1     
   13    6    7 1     
   14    7    8 1     
   15    7   26 1     
   16    7   27 1     
   17    8    9 1     
   18    8   28 1     
   19    8   29 1     
   20    9   10 am    
   21    9   30 1     
   22   10   11 2     
   23   10   12 1     
   24   12   13 1     
   25   12   16 1     
   26   12   31 1     
   27   13   15 1     
   28   13   14 1     
   29   13   32 1     
   30   14   15 1     
   31   14   33 1     
   32   14   34 1     
   33   15   35 1     
   34   15   36 1     
   35   16   20 1     
   36   16   17 1     
   37   16   45 1     
   38   17   18 1     
   39   17   37 1     
   40   17   38 1     
   41   18   19 1     
   42   18   39 1     
   43   18   40 1     
   44   19   20 1     
   45   19   41 1     
   46   19   42 1     
   47   20   43 1     
   48   20   44 1     
   49   11   47 1     
   50   11   48 1     
@<TRIPOS>SUBSTRUCTURE
      1 S1             1
@<TRIPOS>SET
LONE_PAIRS      STATIC     ATOMS    <user>   **** ""
2 47 48
DONOR_HYDROGENS      STATIC     ATOMS    <user>   **** ""
3 46 30 45
ATOM$BLUE        STATIC     ATOMS    COLORGROUP SYSTEM
2 47 48
ATOM$RED        STATIC     ATOMS    COLORGROUP SYSTEM
3 46 30 45
