AV-unprocessed.smi:2054|AV-procd|sdf|8333|dock7
  -GOLD-   2272011 03D 1   1.00000     0.00000
 Structure written by MMmdl.
 43 44  0  0  0  0  0  0  0  0  2 V2000
  149.9405  132.7616  155.1991 C   0  0  0  0  0  0  0  0  0  0  0  0
  150.0823  133.5637  156.8495 S   0  0  0  0  0  0  0  0  0  0  0  0
  148.7240  133.6882  157.4007 O   0  0  0  0  0  0  0  0  0  0  0  0
  151.1310  132.8860  157.6270 O   0  0  0  0  0  0  0  0  0  0  0  0
  150.6519  135.1576  156.4679 N   0  0  0  0  0  0  0  0  0  0  0  0
  150.4482  135.6386  155.0865 C   0  0  0  0  0  0  0  0  0  0  0  0
  150.6177  137.1634  154.9863 C   0  0  0  0  0  0  0  0  0  0  0  0
  151.9837  137.6081  155.5335 C   0  0  0  0  0  0  0  0  0  0  0  0
  152.1541  139.1305  155.4449 C   0  0  0  0  0  0  0  0  0  0  0  0
  153.0842  139.6170  154.8006 O   0  0  0  0  0  0  0  0  0  0  0  0
  151.2472  139.8744  156.0973 N   0  0  0  0  0  0  0  0  0  0  0  0
  151.2274  141.3321  156.1243 C   0  0  0  0  0  0  0  0  0  0  0  0
  150.2623  141.8676  157.1955 C   0  0  0  0  0  0  0  0  0  0  0  0
  150.8960  142.9491  158.0482 C   0  0  0  0  0  0  0  0  0  0  0  0
  151.9185  142.6693  158.9806 C   0  0  0  0  0  0  0  0  0  0  0  0
  152.4579  143.7231  159.7478 C   0  0  0  0  0  0  0  0  0  0  0  0
  151.9642  145.0317  159.5669 C   0  0  0  0  0  0  0  0  0  0  0  0
  150.9415  145.2542  158.6224 C   0  0  0  0  0  0  0  0  0  0  0  0
  150.4500  144.2186  157.9072 N   0  3  0  0  0  0  0  0  0  0  0  0
  152.1010  137.1199  156.9858 C   0  0  0  0  0  0  0  0  0  0  0  0
  151.9217  135.5957  157.0820 C   0  0  0  0  0  0  0  0  0  0  0  0
  149.5100  131.7680  155.3198 H   0  0  0  0  0  0  0  0  0  0  0  0
  150.9236  132.6690  154.7402 H   0  0  0  0  0  0  0  0  0  0  0  0
  149.2926  133.3596  154.5587 H   0  0  0  0  0  0  0  0  0  0  0  0
  151.1588  135.1355  154.4295 H   0  0  0  0  0  0  0  0  0  0  0  0
  149.4532  135.3619  154.7411 H   0  0  0  0  0  0  0  0  0  0  0  0
  150.5103  137.4721  153.9456 H   0  0  0  0  0  0  0  0  0  0  0  0
  149.8109  137.6502  155.5370 H   0  0  0  0  0  0  0  0  0  0  0  0
  152.7679  137.1332  154.9409 H   0  0  0  0  0  0  0  0  0  0  0  0
  150.5138  139.3959  156.6005 H   0  0  0  0  0  0  0  0  0  0  0  0
  152.2365  141.7131  156.2896 H   0  0  0  0  0  0  0  0  0  0  0  0
  150.9205  141.6843  155.1391 H   0  0  0  0  0  0  0  0  0  0  0  0
  149.3633  142.2654  156.7225 H   0  0  0  0  0  0  0  0  0  0  0  0
  149.9331  141.0588  157.8493 H   0  0  0  0  0  0  0  0  0  0  0  0
  152.2848  141.6613  159.1097 H   0  0  0  0  0  0  0  0  0  0  0  0
  153.2406  143.5295  160.4668 H   0  0  0  0  0  0  0  0  0  0  0  0
  152.3639  145.8525  160.1448 H   0  0  0  0  0  0  0  0  0  0  0  0
  150.5052  146.2213  158.4189 H   0  0  0  0  0  0  0  0  0  0  0  0
  153.0717  137.3972  157.3984 H   0  0  0  0  0  0  0  0  0  0  0  0
  151.3508  137.6079  157.6103 H   0  0  0  0  0  0  0  0  0  0  0  0
  151.9474  135.3027  158.1312 H   0  0  0  0  0  0  0  0  0  0  0  0
  152.7484  135.0825  156.5892 H   0  0  0  0  0  0  0  0  0  0  0  0
  149.7097  144.4025  157.2292 H   0  0  0  0  0  0  0  0  0  0  0  0
  1  2  1  0  0  0  0
  1 22  1  0  0  0  0
  1 23  1  0  0  0  0
  1 24  1  0  0  0  0
  2  3  2  0  0  0  0
  2  4  2  0  0  0  0
  2  5  1  0  0  0  0
  5 21  1  0  0  0  0
  5  6  1  0  0  0  0
  6  7  1  0  0  0  0
  6 25  1  0  0  0  0
  6 26  1  0  0  0  0
  7  8  1  0  0  0  0
  7 27  1  0  0  0  0
  7 28  1  0  0  0  0
  8  9  1  0  0  0  0
  8 20  1  0  0  0  0
  8 29  1  0  0  0  0
  9 10  2  0  0  0  0
  9 11  1  0  0  0  0
 11 12  1  0  0  0  0
 11 30  1  0  0  0  0
 12 13  1  0  0  0  0
 12 31  1  0  0  0  0
 12 32  1  0  0  0  0
 13 14  1  0  0  0  0
 13 33  1  0  0  0  0
 13 34  1  0  0  0  0
 14 19  1  0  0  0  0
 14 15  2  0  0  0  0
 15 16  1  0  0  0  0
 15 35  1  0  0  0  0
 16 17  2  0  0  0  0
 16 36  1  0  0  0  0
 17 18  1  0  0  0  0
 17 37  1  0  0  0  0
 18 19  2  0  0  0  0
 18 38  1  0  0  0  0
 19 43  1  0  0  0  0
 20 21  1  0  0  0  0
 20 39  1  0  0  0  0
 20 40  1  0  0  0  0
 21 41  1  0  0  0  0
 21 42  1  0  0  0  0
M  CHG  1  19   1
M  END
> <s_m_source_file>
AV-unprocessed.smi

> <i_m_source_file_index>
2054

> <i_lp_mmshare_version>
43012

> <i_f3d_flags>
0

> <s_epik_input>
W0NIM11TKD1PKSg9TylOMVtDSDJdW0NIMl1bQ0hdKFtDSDJdW0NIMl0xKUMoPU8pW05IXVtDSDJdW0NIMl1jMltjSF1bY0hdW2NIXVtjSF1uMg==

> <s_epik_cmdline>
J2VwaWtfcHl0aG9uJywgJy1waCcsICc3LjAnLCAnLXRuJywgJzgnLCAnLW1hJywgJzIwMCcsICctbWV0YWxfYmluZGluZycsICctaW1hZScsICc8aW5maWxlLm1hZT4nLCAnLW9tYWUnLCAnPG91dGZpbGUubWFlPic=

> <r_epik_Ionization_Penalty>
1.82741

> <r_epik_Ionization_Penalty_Charging>
1.82741

> <r_epik_Ionization_Penalty_Neutral>
1.85342e-08

> <r_epik_State_Penalty>
1.94311

> <r_epik_Charging_Adjusted_Penalty>
3.77052

> <i_epik_Tot_Q>
1

> <i_epik_Tot_abs_Q>
1

> <r_epik_Metal_State_Penalty>
1.96983

> <b_epik_Metal_Only>
0

> <s_lp_Force_Field>
OPLS_2005

> <r_lp_Energy>
8.70127

> <b_lp_Chiralities_Consistent>
1

> <s_lp_Variant>
AV-unprocessed.smi:2054-2

> <Gold.Version>
5.8.1

> <Gold.Id.Protein>
6NUR|6NUR_protein|mol2

> <Gold.PLP.Fitness>
50.5827

> <Gold.PLP.PLP>
-39.2901

> <Gold.PLP.part.hbond>
-4.3556

> <Gold.PLP.part.metal>
0.0000

> <Gold.PLP.part.buried>
-5.1561

> <Gold.PLP.part.nonpolar>
-31.1493

> <Gold.PLP.part.repulsive>
0.2172

> <Gold.PLP.ligand.clash>
0.0000

> <Gold.PLP.ligand.torsion>
0.9619

> <Gold.PLP.Chemscore.Hbond>
4.1555

> <Gold.PLP.Chemscore.CHOScore>
0.0000

> <Gold.PLP.Chemscore.Metal>
0.0000

> <Gold.Chemscore.Hbonds>
donor molecule, donor type, donor heavy atom, donor atom, acceptor molecule, acceptor atom, score
      L1  H    19    43       P1  8028  2.00
      P1  H  6896  6908       L1     4  1.00
      P1  H  7989  7998       L1    10  0.10
      P1  H  7997  8009       L1    10  1.00

> <Gold.PLP.Chemscore.Internal.Correction>
0.7500

> <Gold.Rescore>
     Score         DG    S(hbond)    S(metal)    S(lipo)     H(rot)  DE(clash)    DE(int)     intcor
     20.11     -21.52       2.67        0.00     103.48       1.95       0.54       0.87       ----

> <Gold.Chemscore.Fitness>
20.1074

> <Gold.Chemscore.DG>
-21.5175

> <Gold.Chemscore.ZeroCoef>
-5.4800

> <Gold.Chemscore.Hbond>
2.6686

> <Gold.Chemscore.Metal>
0.0000

> <Gold.Chemscore.Lipo>
103.4845

> <Gold.Chemscore.Internal_Hbond>
0.0000

> <Gold.Chemscore.DEClash>
0.5429

> <Gold.Chemscore.DEInternal>
0.8673

> <Gold.Chemscore.Rot>
1.9466

> <Gold.Chemscore.Internal.Correction>
   9.000000E+99

> <Gold.Chemscore.Hbonds>
donor molecule, donor type, donor heavy atom, donor atom, acceptor molecule, acceptor atom, score
      L1  H    19    43       P1  8028  0.26
      P1  H  6896  6908       L1     4  0.92
      P1  H  7989  7998       L1    10  0.01
      P1  H  7997  8009       L1    10  0.94

> <Gold.Chemscore.Hbond.Weighted>
-8.9130

> <Gold.Chemscore.Metal.Weighted>
-0.0000

> <Gold.Chemscore.Lipo.Weighted>
-12.1077

> <Gold.Chemscore.Internal_Hbond.Weighted>
0.0000

> <Gold.Chemscore.DEClash.Weighted>
0.5429

> <Gold.Chemscore.DEInternal.Weighted>
0.8673

> <Gold.Chemscore.Rot.Weighted>
4.9832

> <Gold.Chemscore.Internal.Correction.Weighted>
   9.000000E+99

> <Gold.Protein.RotatedTorsions>
[ 6907 6896 6895 6894 ] final   78.49 input  -60.11 | X-H torsion
[ 7974 7965 7964 7962 ] final  154.23 input  175.53 | X-H torsion
[ 8008 7997 7996 7995 ] final -126.72 input   59.86 | X-H torsion
[ 10167 10162 10161 10158 ] final -177.77 input  -65.29 | X-H torsion
[ 10718 10713 10712 10709 ] final -157.16 input   66.30 | X-H torsion
[ 10763 10752 10751 10750 ] final  -74.02 input  -60.55 | X-H torsion
[ 11005 11000 10999 10996 ] final   61.97 input  -57.11 | X-H torsion

> <Gold.Protein.ActiveResidues>
 VAL166  LYS551  ARG553  GLY616  TRP617  ASP618  TYR619  PRO620  LYS621  CYS622 
 ASP623  PHE694  ASN695  SER759  ASP760  ASP761  ALA762  ILE779  LEU786  VAL792 
 PHE793  MET794  SER795  GLU796  ALA797  LYS798  CYS799  TRP800  GLU811  SER814 

> <Gold.Protein.RotatedAtoms>
  152.5161  134.3656  159.9299 H   0  0  0  0  0  0  0  0  0  0  0  0  # atno 6907 bound_to 6896
  151.3610  133.3883  159.2697 H   0  0  0  0  0  0  0  0  0  0  0  0  # atno 6908 bound_to 6896
  150.9652  134.9053  159.7813 H   0  0  0  0  0  0  0  0  0  0  0  0  # atno 6909 bound_to 6896
  144.8102  139.6906  143.6144 H   0  0  0  0  0  0  0  0  0  0  0  0  # atno 7974 bound_to 7965
  155.2343  140.0426  157.2966 H   0  0  0  0  0  0  0  0  0  0  0  0  # atno 8008 bound_to 7997
  154.5869  140.2416  155.7945 H   0  0  0  0  0  0  0  0  0  0  0  0  # atno 8009 bound_to 7997
  156.2232  140.2963  156.0011 H   0  0  0  0  0  0  0  0  0  0  0  0  # atno 8010 bound_to 7997
  139.5464  144.2224  152.0996 H   0  0  0  0  0  0  0  0  0  0  0  0  # atno 10167 bound_to 10162
  156.5364  130.8544  151.2734 H   0  0  0  0  0  0  0  0  0  0  0  0  # atno 10718 bound_to 10713
  154.4674  135.5878  153.6297 H   0  0  0  0  0  0  0  0  0  0  0  0  # atno 10763 bound_to 10752
  152.9830  135.6058  154.3410 H   0  0  0  0  0  0  0  0  0  0  0  0  # atno 10764 bound_to 10752
  154.3288  135.2843  155.2461 H   0  0  0  0  0  0  0  0  0  0  0  0  # atno 10765 bound_to 10752
  140.0124  134.6276  155.9760 H   0  0  0  0  0  0  0  0  0  0  0  0  # atno 11005 bound_to 11000
  146.2400  139.5982  142.9498 LP  0  0  0  0  0  0  0  0  0  0  0  0  # atno 17320 bound_to 7965
  145.5341  141.0425  143.2366 LP  0  0  0  0  0  0  0  0  0  0  0  0  # atno 17321 bound_to 7965
  140.1711  144.4934  150.6579 LP  0  0  0  0  0  0  0  0  0  0  0  0  # atno 17342 bound_to 10162
  140.6714  143.2287  151.5617 LP  0  0  0  0  0  0  0  0  0  0  0  0  # atno 17343 bound_to 10162
  157.7413  130.9867  150.2435 LP  0  0  0  0  0  0  0  0  0  0  0  0  # atno 17370 bound_to 10713
  156.3012  130.3759  149.7749 LP  0  0  0  0  0  0  0  0  0  0  0  0  # atno 17371 bound_to 10713
  141.1720  133.6538  156.4686 LP  0  0  0  0  0  0  0  0  0  0  0  0  # atno 17394 bound_to 11000
  140.4531  134.6910  157.5049 LP  0  0  0  0  0  0  0  0  0  0  0  0  # atno 17395 bound_to 11000

$$$$
