AV-unprocessed.smi:2320|AV-procd|sdf|9279|dock4
  -GOLD-   2272012503D 1   1.00000     0.00000
 Structure written by MMmdl.
 41 42  0  0  0  0  0  0  0  0  1 V2000
  152.6042  143.1236  162.1519 C   0  0  0  0  0  0  0  0  0  0  0  0
  152.6726  142.2255  160.9339 C   0  0  0  0  0  0  0  0  0  0  0  0
  153.3737  141.0044  160.9854 C   0  0  0  0  0  0  0  0  0  0  0  0
  153.4346  140.1769  159.8479 C   0  0  0  0  0  0  0  0  0  0  0  0
  152.8003  140.5524  158.6458 C   0  0  0  0  0  0  0  0  0  0  0  0
  152.9120  139.6829  157.5823 O   0  0  0  0  0  0  0  0  0  0  0  0
  152.0914  139.9028  156.4407 C   0  0  0  0  0  0  0  0  0  0  0  0
  152.3911  138.8451  155.3646 C   0  0  2  0  0  0  0  0  0  0  0  0
  153.7767  138.8891  155.0878 O   0  0  0  0  0  0  0  0  0  0  0  0
  151.5728  139.0519  154.0702 C   0  0  0  0  0  0  0  0  0  0  0  0
  150.1818  139.4481  154.3460 N   0  0  0  0  0  0  0  0  0  0  0  0
  149.3568  138.4658  154.9178 C   0  0  0  0  0  0  0  0  0  0  0  0
  148.1178  138.7011  155.2023 N   0  0  0  0  0  0  0  0  0  0  0  0
  147.5692  139.9601  154.9410 C   0  0  0  0  0  0  0  0  0  0  0  0
  146.1065  140.1281  155.3121 C   0  0  0  0  0  0  0  0  0  0  0  0
  148.3159  140.9563  154.3911 C   0  0  0  0  0  0  0  0  0  0  0  0
  147.7732  142.3468  154.0859 C   0  0  0  0  0  0  0  0  0  0  0  0
  149.7297  140.7051  154.0675 C   0  0  0  0  0  0  0  0  0  0  0  0
  150.4670  141.5642  153.5805 O   0  0  0  0  0  0  0  0  0  0  0  0
  152.0967  141.7825  158.6007 C   0  0  0  0  0  0  0  0  0  0  0  0
  152.0358  142.6112  159.7381 C   0  0  0  0  0  0  0  0  0  0  0  0
  152.9251  142.5968  163.0509 H   0  0  0  0  0  0  0  0  0  0  0  0
  151.5838  143.4734  162.3109 H   0  0  0  0  0  0  0  0  0  0  0  0
  153.2483  143.9923  162.0153 H   0  0  0  0  0  0  0  0  0  0  0  0
  153.8675  140.6974  161.8957 H   0  0  0  0  0  0  0  0  0  0  0  0
  153.9749  139.2429  159.8983 H   0  0  0  0  0  0  0  0  0  0  0  0
  151.0330  139.8878  156.7071 H   0  0  0  0  0  0  0  0  0  0  0  0
  152.3148  140.8882  156.0286 H   0  0  0  0  0  0  0  0  0  0  0  0
  152.1783  137.8662  155.7960 H   0  0  0  0  0  0  0  0  0  0  0  0
  154.0834  138.0073  154.9429 H   0  0  0  0  0  0  0  0  0  0  0  0
  152.0397  139.8365  153.4718 H   0  0  0  0  0  0  0  0  0  0  0  0
  151.6299  138.1639  153.4367 H   0  0  0  0  0  0  0  0  0  0  0  0
  149.8335  137.5022  155.1056 H   0  0  0  0  0  0  0  0  0  0  0  0
  145.5128  140.3627  154.4283 H   0  0  0  0  0  0  0  0  0  0  0  0
  145.9860  140.9326  156.0379 H   0  0  0  0  0  0  0  0  0  0  0  0
  145.7018  139.2169  155.7543 H   0  0  0  0  0  0  0  0  0  0  0  0
  148.3085  143.0954  154.6707 H   0  0  0  0  0  0  0  0  0  0  0  0
  146.7128  142.4523  154.3082 H   0  0  0  0  0  0  0  0  0  0  0  0
  147.9096  142.5813  153.0297 H   0  0  0  0  0  0  0  0  0  0  0  0
  151.5952  142.1146  157.7047 H   0  0  0  0  0  0  0  0  0  0  0  0
  151.4974  143.5464  159.6894 H   0  0  0  0  0  0  0  0  0  0  0  0
  1  2  1  0  0  0  0
  1 22  1  0  0  0  0
  1 23  1  0  0  0  0
  1 24  1  0  0  0  0
  2 21  1  0  0  0  0
  2  3  2  0  0  0  0
  3  4  1  0  0  0  0
  3 25  1  0  0  0  0
  4  5  2  0  0  0  0
  4 26  1  0  0  0  0
  5  6  1  0  0  0  0
  5 20  1  0  0  0  0
  6  7  1  0  0  0  0
  7  8  1  0  0  0  0
  7 27  1  0  0  0  0
  7 28  1  0  0  0  0
  8  9  1  0  0  0  0
  8 10  1  0  0  0  0
  8 29  1  0  0  0  0
  9 30  1  0  0  0  0
 10 11  1  0  0  0  0
 10 31  1  0  0  0  0
 10 32  1  0  0  0  0
 11 18  1  0  0  0  0
 11 12  1  0  0  0  0
 12 13  2  0  0  0  0
 12 33  1  0  0  0  0
 13 14  1  0  0  0  0
 14 15  1  0  0  0  0
 14 16  2  0  0  0  0
 15 34  1  0  0  0  0
 15 35  1  0  0  0  0
 15 36  1  0  0  0  0
 16 17  1  0  0  0  0
 16 18  1  0  0  0  0
 17 37  1  0  0  0  0
 17 38  1  0  0  0  0
 17 39  1  0  0  0  0
 18 19  2  0  0  0  0
 20 21  2  0  0  0  0
 20 40  1  0  0  0  0
 21 41  1  0  0  0  0
M  END
> <s_m_source_file>
AV-unprocessed.smi

> <i_m_source_file_index>
2320

> <i_lp_mmshare_version>
43012

> <i_f3d_flags>
0

> <s_epik_input>
W0NIM11jMVtjSF1bY0hdYyhbY0hdW2NIXTEpT1tDSDJdW0NASF0oW09IXSlbQ0gyXW4yW2NIXW5jKFtDSDNdKWMoW0NIM10pYzI9Tw==

> <s_epik_cmdline>
J2VwaWtfcHl0aG9uJywgJy1waCcsICc3LjAnLCAnLXRuJywgJzgnLCAnLW1hJywgJzIwMCcsICctbWV0YWxfYmluZGluZycsICctaW1hZScsICc8aW5maWxlLm1hZT4nLCAnLW9tYWUnLCAnPG91dGZpbGUubWFlPic=

> <r_lp_tautomer_probability>
1

> <r_epik_Ionization_Penalty>
3.74127e-05

> <r_epik_Ionization_Penalty_Charging>
8.43242e-08

> <r_epik_Ionization_Penalty_Neutral>
3.73284e-05

> <r_epik_State_Penalty>
-0

> <r_epik_Charging_Adjusted_Penalty>
8.43242e-08

> <i_epik_Tot_Q>
0

> <i_epik_Tot_abs_Q>
0

> <r_epik_Metal_State_Penalty>
-0

> <b_epik_Metal_Only>
0

> <s_lp_Force_Field>
OPLS_2005

> <r_lp_Energy>
24.611

> <b_lp_Chiralities_Consistent>
1

> <s_lp_Variant>
AV-unprocessed.smi:2320-1

> <Gold.Version>
5.8.1

> <Gold.Id.Protein>
6NUR|6NUR_protein|mol2

> <Gold.PLP.Fitness>
46.0455

> <Gold.PLP.PLP>
-38.7940

> <Gold.PLP.part.hbond>
-4.0000

> <Gold.PLP.part.metal>
0.0000

> <Gold.PLP.part.buried>
-4.2197

> <Gold.PLP.part.nonpolar>
-31.5714

> <Gold.PLP.part.repulsive>
1.5304

> <Gold.PLP.ligand.clash>
0.0000

> <Gold.PLP.ligand.torsion>
0.3840

> <Gold.PLP.Chemscore.Hbond>
2.6400

> <Gold.PLP.Chemscore.CHOScore>
0.0000

> <Gold.PLP.Chemscore.Metal>
0.0000

> <Gold.Chemscore.Hbonds>
donor molecule, donor type, donor heavy atom, donor atom, acceptor molecule, acceptor atom, score
      P1  H  7997  8009       L1     6  1.00
      P1  H  7997  8010       L1     9  0.37
      P1  H  8011  8017       L1    19  0.53

> <Gold.PLP.Chemscore.Internal.Correction>
0.0994

> <Gold.Rescore>
     Score         DG    S(hbond)    S(metal)    S(lipo)     H(rot)  DE(clash)    DE(int)     intcor
     15.81     -17.77       1.95        0.00     100.81       2.35       1.40       0.57       ----

> <Gold.Chemscore.Fitness>
15.8066

> <Gold.Chemscore.DG>
-17.7724

> <Gold.Chemscore.ZeroCoef>
-5.4800

> <Gold.Chemscore.Hbond>
1.9495

> <Gold.Chemscore.Metal>
0.0000

> <Gold.Chemscore.Lipo>
100.8084

> <Gold.Chemscore.Internal_Hbond>
0.0000

> <Gold.Chemscore.DEClash>
1.3969

> <Gold.Chemscore.DEInternal>
0.5689

> <Gold.Chemscore.Rot>
2.3490

> <Gold.Chemscore.Internal.Correction>
   9.000000E+99

> <Gold.Chemscore.Hbonds>
donor molecule, donor type, donor heavy atom, donor atom, acceptor molecule, acceptor atom, score
      P1  H  7997  8009       L1     6  0.13
      P1  H  7997  8010       L1     9  0.37
      P1  H  8011  8017       L1    19  0.48

> <Gold.Chemscore.Hbond.Weighted>
-6.5113

> <Gold.Chemscore.Metal.Weighted>
-0.0000

> <Gold.Chemscore.Lipo.Weighted>
-11.7946

> <Gold.Chemscore.Internal_Hbond.Weighted>
0.0000

> <Gold.Chemscore.DEClash.Weighted>
1.3969

> <Gold.Chemscore.DEInternal.Weighted>
0.5689

> <Gold.Chemscore.Rot.Weighted>
6.0136

> <Gold.Chemscore.Internal.Correction.Weighted>
   9.000000E+99

> <Gold.Protein.RotatedTorsions>
[ 6907 6896 6895 6894 ] final  -17.18 input  -60.11 | X-H torsion
[ 7974 7965 7964 7962 ] final -100.07 input  175.53 | X-H torsion
[ 8008 7997 7996 7995 ] final  151.07 input   59.86 | X-H torsion
[ 10167 10162 10161 10158 ] final  151.99 input  -65.29 | X-H torsion
[ 10718 10713 10712 10709 ] final  -11.62 input   66.30 | X-H torsion
[ 10763 10752 10751 10750 ] final   72.86 input  -60.55 | X-H torsion
[ 11005 11000 10999 10996 ] final -113.80 input  -57.11 | X-H torsion

> <Gold.Protein.ActiveResidues>
 VAL166  LYS551  ARG553  GLY616  TRP617  ASP618  TYR619  PRO620  LYS621  CYS622 
 ASP623  PHE694  ASN695  SER759  ASP760  ASP761  ALA762  ILE779  LEU786  VAL792 
 PHE793  MET794  SER795  GLU796  ALA797  LYS798  CYS799  TRP800  GLU811  SER814 

> <Gold.Protein.RotatedAtoms>
  151.2972  135.0758  159.9225 H   0  0  0  0  0  0  0  0  0  0  0  0  # atno 6907 bound_to 6896
  152.5305  133.9870  159.7843 H   0  0  0  0  0  0  0  0  0  0  0  0  # atno 6908 bound_to 6896
  151.0151  133.5878  159.2708 H   0  0  0  0  0  0  0  0  0  0  0  0  # atno 6909 bound_to 6896
  145.2993  140.9373  143.2832 H   0  0  0  0  0  0  0  0  0  0  0  0  # atno 7974 bound_to 7965
  156.2689  140.2058  156.6117 H   0  0  0  0  0  0  0  0  0  0  0  0  # atno 8008 bound_to 7997
  154.6826  140.0538  157.0306 H   0  0  0  0  0  0  0  0  0  0  0  0  # atno 8009 bound_to 7997
  155.0978  140.3203  155.4558 H   0  0  0  0  0  0  0  0  0  0  0  0  # atno 8010 bound_to 7997
  139.4836  144.5395  151.7588 H   0  0  0  0  0  0  0  0  0  0  0  0  # atno 10167 bound_to 10162
  156.6563  130.4969  149.6045 H   0  0  0  0  0  0  0  0  0  0  0  0  # atno 10718 bound_to 10713
  153.0485  135.5084  154.7808 H   0  0  0  0  0  0  0  0  0  0  0  0  # atno 10763 bound_to 10752
  154.6688  135.2950  154.9771 H   0  0  0  0  0  0  0  0  0  0  0  0  # atno 10764 bound_to 10752
  154.0596  135.6692  153.4863 H   0  0  0  0  0  0  0  0  0  0  0  0  # atno 10765 bound_to 10752
  141.0592  133.9563  157.2698 H   0  0  0  0  0  0  0  0  0  0  0  0  # atno 11005 bound_to 11000
  144.9107  139.4533  143.6588 LP  0  0  0  0  0  0  0  0  0  0  0  0  # atno 17320 bound_to 7965
  146.3157  139.7913  142.8985 LP  0  0  0  0  0  0  0  0  0  0  0  0  # atno 17321 bound_to 7965
  140.4932  144.1279  150.5954 LP  0  0  0  0  0  0  0  0  0  0  0  0  # atno 17342 bound_to 10162
  140.4147  143.2640  151.9790 LP  0  0  0  0  0  0  0  0  0  0  0  0  # atno 17343 bound_to 10162
  156.2045  130.6640  151.1203 LP  0  0  0  0  0  0  0  0  0  0  0  0  # atno 17370 bound_to 10713
  157.7124  131.0727  150.6452 LP  0  0  0  0  0  0  0  0  0  0  0  0  # atno 17371 bound_to 10713
  139.9417  135.0190  156.8729 LP  0  0  0  0  0  0  0  0  0  0  0  0  # atno 17394 bound_to 11000
  140.5903  134.0268  155.7497 LP  0  0  0  0  0  0  0  0  0  0  0  0  # atno 17395 bound_to 11000

$$$$
