#       Name:                AV-unprocessed.smi:3263
#       Creating user name   scv26
#       Creation time:       Fri Mar 27 18:38:35 2020


#       File generated by GOLD software.
#

@<TRIPOS>MOLECULE
AV-unprocessed.smi:3263
    44    46     1
SMALL
NO_CHARGES


@<TRIPOS>ATOM
      1 ****        -0.0958   2.0586   1.1766 O.2            1 S1                 0.0000
      2 ****        -0.5117   0.9338   1.4537 C.2            1 S1                 0.0000
      3 ****        -2.0172   0.6578   1.4915 C.3            1 S1                 0.0000
      4 ****        -2.7407   1.0957   0.1980 C.3            1 S1                 0.0000
      5 ****        -4.2363   0.7152   0.1533 C.3            1 S1                 0.0000
      6 ****        -4.3775   0.0298  -1.2193 C.3            1 S1                 0.0000
      7 ****        -3.7264  -1.3643  -1.1578 C.3            1 S1                 0.0000
      8 ****        -2.2232  -1.0337  -1.1234 C.3            1 S1                 0.0000
      9 ****        -2.2118   0.5089  -1.1358 C.3            1 S1                 0.0000
     10 ****        -3.3791   0.8053  -2.0714 C.3            1 S1                 0.0000
     11 ****         0.2931  -0.1060   1.7200 N.am           1 S1                 0.0000
     12 ****         1.7495  -0.0712   1.6670 C.3            1 S1                 0.0000
     13 ****         2.2607  -0.1925   0.2213 C.3            1 S1                 0.0000
     14 ****         3.7755  -0.1963   0.1446 C.ar           1 S1                 0.0000
     15 ****         4.4858  -1.4031  -0.0318 C.ar           1 S1                 0.0000
     16 ****         5.8919  -1.3511  -0.0913 C.ar           1 S1                 0.0000
     17 ****         6.5302  -0.1014   0.0273 C.ar           1 S1                 0.0000
     18 ****         5.7306   1.0457   0.2014 C.ar           1 S1                 0.0000
     19 ****         4.3819   1.0068   0.2598 N.ar           1 S1                 0.0000
     20 ****        -2.1973  -0.3989   1.6932 H              1 S1                 0.0000
     21 ****        -2.4373   1.1979   2.3403 H              1 S1                 0.0000
     22 ****        -2.6725   2.1833   0.1307 H              1 S1                 0.0000
     23 ****        -4.5336   0.0547   0.9688 H              1 S1                 0.0000
     24 ****        -4.8590   1.6089   0.2100 H              1 S1                 0.0000
     25 ****        -5.3993   0.0183  -1.5995 H              1 S1                 0.0000
     26 ****        -4.0477  -1.9336  -0.2849 H              1 S1                 0.0000
     27 ****        -3.9692  -1.9482  -2.0465 H              1 S1                 0.0000
     28 ****        -1.7155  -1.4640  -0.2611 H              1 S1                 0.0000
     29 ****        -1.7304  -1.4236  -2.0150 H              1 S1                 0.0000
     30 ****        -1.2599   0.9351  -1.4548 H              1 S1                 0.0000
     31 ****        -3.2493   0.3902  -3.0725 H              1 S1                 0.0000
     32 ****        -3.6131   1.8683  -2.1533 H              1 S1                 0.0000
     33 ****        -0.1349  -0.9929   1.9435 H              1 S1                 0.0000
     34 ****         2.1197   0.8442   2.1319 H              1 S1                 0.0000
     35 ****         2.1301  -0.8998   2.2650 H              1 S1                 0.0000
     36 ****         1.8763  -1.1070  -0.2325 H              1 S1                 0.0000
     37 ****         1.8826   0.6318  -0.3854 H              1 S1                 0.0000
     38 ****         3.9678  -2.3470  -0.1194 H              1 S1                 0.0000
     39 ****         6.4704  -2.2533  -0.2249 H              1 S1                 0.0000
     40 ****         7.6066  -0.0235  -0.0138 H              1 S1                 0.0000
     41 ****         6.1863   2.0203   0.2970 H              1 S1                 0.0000
     42 ****        -0.7417   2.7950   0.9754 LP             1 S1                 0.0000
     43 ****         0.8880   2.2361   1.1526 LP             1 S1                 0.0000
     44 ****         3.8476   1.8429   0.3845 LP             1 S1                 0.0000
@<TRIPOS>BOND
    1    1    2 2     
    2    2    3 1     
    3    2   11 am    
    4    3    4 1     
    5    3   20 1     
    6    3   21 1     
    7    4    9 1     
    8    4    5 1     
    9    4   22 1     
   10    5    6 1     
   11    5   23 1     
   12    5   24 1     
   13    6   10 1     
   14    6    7 1     
   15    6   25 1     
   16    7    8 1     
   17    7   26 1     
   18    7   27 1     
   19    8    9 1     
   20    8   28 1     
   21    8   29 1     
   22    9   10 1     
   23    9   30 1     
   24   10   31 1     
   25   10   32 1     
   26   11   12 1     
   27   11   33 1     
   28   12   13 1     
   29   12   34 1     
   30   12   35 1     
   31   13   14 1     
   32   13   36 1     
   33   13   37 1     
   34   14   19 ar    
   35   14   15 ar    
   36   15   16 ar    
   37   15   38 1     
   38   16   17 ar    
   39   16   39 1     
   40   17   18 ar    
   41   17   40 1     
   42   18   19 ar    
   43   18   41 1     
   44    1   42 1     
   45    1   43 1     
   46   19   44 1     
@<TRIPOS>SUBSTRUCTURE
      1 S1             1
@<TRIPOS>SET
LONE_PAIRS      STATIC     ATOMS    <user>   **** ""
3 42 43 44
DONOR_HYDROGENS      STATIC     ATOMS    <user>   **** ""
1 33
ATOM$BLUE        STATIC     ATOMS    COLORGROUP SYSTEM
3 42 43 44
ATOM$RED        STATIC     ATOMS    COLORGROUP SYSTEM
1 33
