AV-unprocessed.smi:435|AV-procd|sdf|2557|dock5
  -GOLD-   2262022523D 1   1.00000     0.00000
 Structure written by MMmdl.
 44 45  0  0  0  0  0  0  0  0  1 V2000
  147.1660  141.0776  157.3359 C   0  0  0  0  0  0  0  0  0  0  0  0
  148.2035  140.0582  157.7222 C   0  0  0  0  0  0  0  0  0  0  0  0
  147.7703  138.8865  158.0544 N   0  0  0  0  0  0  0  0  0  0  0  0
  148.6375  137.8792  158.4315 N   0  0  0  0  0  0  0  0  0  0  0  0
  147.9745  136.6170  158.7904 C   0  0  0  0  0  0  0  0  0  0  0  0
  147.8824  136.3967  160.3070 C   0  0  0  0  0  0  0  0  0  0  0  0
  148.0616  137.3317  161.0887 O   0  0  0  0  0  0  0  0  0  0  0  0
  147.5761  135.1521  160.7033 N   0  0  0  0  0  0  0  0  0  0  0  0
  147.4192  134.7142  162.0892 C   0  0  2  0  0  0  0  0  0  0  0  0
  146.7604  133.3222  162.1381 C   0  0  0  0  0  0  0  0  0  0  0  0
  145.2785  133.3612  161.7235 C   0  0  0  0  0  0  0  0  0  0  0  0
  144.4773  134.3743  162.5632 C   0  0  2  0  0  0  0  0  0  0  0  0
  143.0026  134.4114  162.1380 C   0  0  0  0  0  0  0  0  0  0  0  0
  145.1233  135.7709  162.4830 C   0  0  0  0  0  0  0  0  0  0  0  0
  146.6029  135.7370  162.9062 C   0  0  0  0  0  0  0  0  0  0  0  0
  149.9951  138.0030  158.4856 C   0  0  0  0  0  0  0  0  0  0  0  0
  150.7319  137.0748  158.8230 O   0  0  0  0  0  0  0  0  0  0  0  0
  150.4788  139.3325  158.1070 C   0  0  0  0  0  0  0  0  0  0  0  0
  151.8947  139.5062  158.1561 C   0  0  0  0  0  0  0  0  0  0  0  0
  153.0442  139.6428  158.1761 N   0  0  0  0  0  0  0  0  0  0  0  0
  149.6376  140.3299  157.7362 C   0  0  0  0  0  0  0  0  0  0  0  0
  150.0902  141.7272  157.3347 C   0  0  0  0  0  0  0  0  0  0  0  0
  147.2791  141.3669  156.2909 H   0  0  0  0  0  0  0  0  0  0  0  0
  147.2574  141.9752  157.9478 H   0  0  0  0  0  0  0  0  0  0  0  0
  146.1522  140.6950  157.4647 H   0  0  0  0  0  0  0  0  0  0  0  0
  146.9609  136.5926  158.3864 H   0  0  0  0  0  0  0  0  0  0  0  0
  148.4949  135.7785  158.3233 H   0  0  0  0  0  0  0  0  0  0  0  0
  147.4403  134.4504  159.9901 H   0  0  0  0  0  0  0  0  0  0  0  0
  148.4110  134.6253  162.5363 H   0  0  0  0  0  0  0  0  0  0  0  0
  147.3073  132.6231  161.5040 H   0  0  0  0  0  0  0  0  0  0  0  0
  146.8340  132.9295  163.1528 H   0  0  0  0  0  0  0  0  0  0  0  0
  145.1997  133.6148  160.6655 H   0  0  0  0  0  0  0  0  0  0  0  0
  144.8464  132.3657  161.8311 H   0  0  0  0  0  0  0  0  0  0  0  0
  144.5103  134.0485  163.6040 H   0  0  0  0  0  0  0  0  0  0  0  0
  142.8970  134.7304  161.1006 H   0  0  0  0  0  0  0  0  0  0  0  0
  142.4318  135.1025  162.7584 H   0  0  0  0  0  0  0  0  0  0  0  0
  142.5423  133.4275  162.2327 H   0  0  0  0  0  0  0  0  0  0  0  0
  145.0418  136.1583  161.4663 H   0  0  0  0  0  0  0  0  0  0  0  0
  144.5800  136.4695  163.1201 H   0  0  0  0  0  0  0  0  0  0  0  0
  146.6631  135.4768  163.9637 H   0  0  0  0  0  0  0  0  0  0  0  0
  147.0400  136.7321  162.8171 H   0  0  0  0  0  0  0  0  0  0  0  0
  151.1755  141.8123  157.2903 H   0  0  0  0  0  0  0  0  0  0  0  0
  149.7306  142.4645  158.0532 H   0  0  0  0  0  0  0  0  0  0  0  0
  149.7044  141.9897  156.3491 H   0  0  0  0  0  0  0  0  0  0  0  0
  1  2  1  0  0  0  0
  1 23  1  0  0  0  0
  1 24  1  0  0  0  0
  1 25  1  0  0  0  0
  2 21  1  0  0  0  0
  2  3  2  0  0  0  0
  3  4  1  0  0  0  0
  4  5  1  0  0  0  0
  4 16  1  0  0  0  0
  5  6  1  0  0  0  0
  5 26  1  0  0  0  0
  5 27  1  0  0  0  0
  6  7  2  0  0  0  0
  6  8  1  0  0  0  0
  8  9  1  0  0  0  0
  8 28  1  0  0  0  0
  9 15  1  0  0  0  0
  9 10  1  0  0  0  0
  9 29  1  0  0  0  0
 10 11  1  0  0  0  0
 10 30  1  0  0  0  0
 10 31  1  0  0  0  0
 11 12  1  0  0  0  0
 11 32  1  0  0  0  0
 11 33  1  0  0  0  0
 12 13  1  0  0  0  0
 12 14  1  0  0  0  0
 12 34  1  0  0  0  0
 13 35  1  0  0  0  0
 13 36  1  0  0  0  0
 13 37  1  0  0  0  0
 14 15  1  0  0  0  0
 14 38  1  0  0  0  0
 14 39  1  0  0  0  0
 15 40  1  0  0  0  0
 15 41  1  0  0  0  0
 16 17  2  0  0  0  0
 16 18  1  0  0  0  0
 18 19  1  0  0  0  0
 18 21  2  0  0  0  0
 19 20  3  0  0  0  0
 21 22  1  0  0  0  0
 22 42  1  0  0  0  0
 22 43  1  0  0  0  0
 22 44  1  0  0  0  0
M  END
> <s_m_source_file>
AV-unprocessed.smi

> <i_m_source_file_index>
435

> <i_lp_mmshare_version>
43012

> <i_f3d_flags>
0

> <s_epik_input>
TiNDYyhjMVtDSDNdKWMoPU8pbihuYzFbQ0gzXSlbQ0gyXUMoPU8pW05IXVtDQEBIXTJbQ0gyXVtDSDJdW0NAQEhdKFtDSDNdKVtDSDJdW0NIMl0y

> <s_epik_cmdline>
J2VwaWtfcHl0aG9uJywgJy1waCcsICc3LjAnLCAnLXRuJywgJzgnLCAnLW1hJywgJzIwMCcsICctbWV0YWxfYmluZGluZycsICctaW1hZScsICc8aW5maWxlLm1hZT4nLCAnLW9tYWUnLCAnPG91dGZpbGUubWFlPic=

> <r_lp_tautomer_probability>
1

> <r_epik_Ionization_Penalty>
1.90703e-08

> <r_epik_Ionization_Penalty_Charging>
2.32563e-11

> <r_epik_Ionization_Penalty_Neutral>
1.90471e-08

> <r_epik_State_Penalty>
-0

> <r_epik_Charging_Adjusted_Penalty>
2.32563e-11

> <i_epik_Tot_Q>
0

> <i_epik_Tot_abs_Q>
0

> <r_epik_Metal_State_Penalty>
-0

> <b_epik_Metal_Only>
0

> <s_lp_Force_Field>
OPLS_2005

> <r_lp_Energy>
22.9488

> <b_lp_Chiralities_Consistent>
1

> <s_lp_Variant>
AV-unprocessed.smi:435-2

> <Gold.Version>
5.8.1

> <Gold.Id.Protein>
6NUR|6NUR_protein|mol2

> <Gold.PLP.Fitness>
43.9548

> <Gold.PLP.PLP>
-34.6002

> <Gold.PLP.part.hbond>
-4.1252

> <Gold.PLP.part.metal>
0.0000

> <Gold.PLP.part.buried>
-5.5734

> <Gold.PLP.part.nonpolar>
-25.0454

> <Gold.PLP.part.repulsive>
0.0646

> <Gold.PLP.ligand.clash>
0.0000

> <Gold.PLP.ligand.torsion>
0.6175

> <Gold.PLP.Chemscore.Hbond>
3.5273

> <Gold.PLP.Chemscore.CHOScore>
0.0000

> <Gold.PLP.Chemscore.Metal>
0.0000

> <Gold.Chemscore.Hbonds>
donor molecule, donor type, donor heavy atom, donor atom, acceptor molecule, acceptor atom, score
      P1  H  6896  6908       L1    17  0.37
      P1  H  6931  6943       L1     7  0.91
      P1  H  6934  6947       L1     7  0.66
      P1  H  7997  8008       L1    20  1.00

> <Gold.PLP.Chemscore.Internal.Correction>
0.0078

> <Gold.Rescore>
     Score         DG    S(hbond)    S(metal)    S(lipo)     H(rot)  DE(clash)    DE(int)     intcor
     19.79     -21.19       3.51        0.00      66.00       1.46       0.07       1.33       ----

> <Gold.Chemscore.Fitness>
19.7887

> <Gold.Chemscore.DG>
-21.1899

> <Gold.Chemscore.ZeroCoef>
-5.4800

> <Gold.Chemscore.Hbond>
3.5118

> <Gold.Chemscore.Metal>
0.0000

> <Gold.Chemscore.Lipo>
65.9987

> <Gold.Chemscore.Internal_Hbond>
0.0000

> <Gold.Chemscore.DEClash>
0.0718

> <Gold.Chemscore.DEInternal>
1.3295

> <Gold.Chemscore.Rot>
1.4615

> <Gold.Chemscore.Internal.Correction>
   9.000000E+99

> <Gold.Chemscore.Hbonds>
donor molecule, donor type, donor heavy atom, donor atom, acceptor molecule, acceptor atom, score
      P1  H  6896  6908       L1    17  0.36
      P1  H  6931  6943       L1     7  0.87
      P1  H  6934  6947       L1     7  0.66
      P1  H  7997  8008       L1    20  0.92

> <Gold.Chemscore.Hbond.Weighted>
-11.7295

> <Gold.Chemscore.Metal.Weighted>
-0.0000

> <Gold.Chemscore.Lipo.Weighted>
-7.7218

> <Gold.Chemscore.Internal_Hbond.Weighted>
0.0000

> <Gold.Chemscore.DEClash.Weighted>
0.0718

> <Gold.Chemscore.DEInternal.Weighted>
1.3295

> <Gold.Chemscore.Rot.Weighted>
3.7414

> <Gold.Chemscore.Internal.Correction.Weighted>
   9.000000E+99

> <Gold.Protein.RotatedTorsions>
[ 6907 6896 6895 6894 ] final -153.17 input  -60.11 | X-H torsion
[ 7974 7965 7964 7962 ] final -125.29 input  175.53 | X-H torsion
[ 8008 7997 7996 7995 ] final  -98.22 input   59.86 | X-H torsion
[ 10167 10162 10161 10158 ] final -113.49 input  -65.29 | X-H torsion
[ 10718 10713 10712 10709 ] final  -20.96 input   66.30 | X-H torsion
[ 10763 10752 10751 10750 ] final  -70.81 input  -60.55 | X-H torsion
[ 11005 11000 10999 10996 ] final  -10.30 input  -57.11 | X-H torsion

> <Gold.Protein.ActiveResidues>
 VAL166  LYS551  ARG553  GLY616  TRP617  ASP618  TYR619  PRO620  LYS621  CYS622 
 ASP623  PHE694  ASN695  SER759  ASP760  ASP761  ALA762  ILE779  LEU786  VAL792 
 PHE793  MET794  SER795  GLU796  ALA797  LYS798  CYS799  TRP800  GLU811  SER814 

> <Gold.Protein.RotatedAtoms>
  151.2386  133.4411  159.2606 H   0  0  0  0  0  0  0  0  0  0  0  0  # atno 6907 bound_to 6896
  151.0726  134.9808  159.8326 H   0  0  0  0  0  0  0  0  0  0  0  0  # atno 6908 bound_to 6896
  152.5414  134.2331  159.8885 H   0  0  0  0  0  0  0  0  0  0  0  0  # atno 6909 bound_to 6896
  144.9991  140.7804  143.4507 H   0  0  0  0  0  0  0  0  0  0  0  0  # atno 7974 bound_to 7965
  154.7983  140.0457  157.1253 H   0  0  0  0  0  0  0  0  0  0  0  0  # atno 8008 bound_to 7997
  154.9509  140.3065  155.5056 H   0  0  0  0  0  0  0  0  0  0  0  0  # atno 8009 bound_to 7997
  156.2958  140.2288  156.4586 H   0  0  0  0  0  0  0  0  0  0  0  0  # atno 8010 bound_to 7997
  140.1113  143.4525  152.1751 H   0  0  0  0  0  0  0  0  0  0  0  0  # atno 10167 bound_to 10162
  156.5247  130.4641  149.6578 H   0  0  0  0  0  0  0  0  0  0  0  0  # atno 10718 bound_to 10713
  154.4229  135.5982  153.6021 H   0  0  0  0  0  0  0  0  0  0  0  0  # atno 10763 bound_to 10752
  152.9795  135.5956  154.3933 H   0  0  0  0  0  0  0  0  0  0  0  0  # atno 10764 bound_to 10752
  154.3761  135.2841  155.2217 H   0  0  0  0  0  0  0  0  0  0  0  0  # atno 10765 bound_to 10752
  140.7433  133.8652  155.8985 H   0  0  0  0  0  0  0  0  0  0  0  0  # atno 11005 bound_to 11000
  145.2178  139.2173  143.5109 LP  0  0  0  0  0  0  0  0  0  0  0  0  # atno 17320 bound_to 7965
  146.3448  140.2030  142.8589 LP  0  0  0  0  0  0  0  0  0  0  0  0  # atno 17321 bound_to 7965
  139.5618  144.7410  151.4134 LP  0  0  0  0  0  0  0  0  0  0  0  0  # atno 17342 bound_to 10162
  140.6924  143.7830  150.7275 LP  0  0  0  0  0  0  0  0  0  0  0  0  # atno 17343 bound_to 10162
  156.3116  130.7232  151.2126 LP  0  0  0  0  0  0  0  0  0  0  0  0  # atno 17370 bound_to 10713
  157.7431  131.0479  150.4971 LP  0  0  0  0  0  0  0  0  0  0  0  0  # atno 17371 bound_to 10713
  140.9817  134.1397  157.4488 LP  0  0  0  0  0  0  0  0  0  0  0  0  # atno 17394 bound_to 11000
  139.8802  135.0012  156.6057 LP  0  0  0  0  0  0  0  0  0  0  0  0  # atno 17395 bound_to 11000

$$$$
