AV-unprocessed.smi:3349|AV-procd|sdf|12938|dock8
  -GOLD-   2272019373D 1   1.00000     0.00000
 Structure written by MMmdl.
 41 42  0  0  0  0  0  0  0  0  2 V2000
  146.9215  136.5403  154.4098 C   0  0  0  0  0  0  0  0  0  0  0  0
  147.8291  135.3668  154.8560 C   0  0  1  0  0  0  0  0  0  0  0  0
  147.3635  134.8054  156.2265 C   0  0  0  0  0  0  0  0  0  0  0  0
  147.7879  135.6306  157.3551 N   0  0  0  0  0  0  0  0  0  0  0  0
  148.5904  135.2349  158.3566 C   0  0  0  0  0  0  0  0  0  0  0  0
  149.0544  134.0972  158.4382 O   0  0  0  0  0  0  0  0  0  0  0  0
  148.9075  136.2908  159.4274 C   0  0  1  0  0  0  0  0  0  0  0  0
  148.7664  137.7319  158.9045 C   0  0  0  0  0  0  0  0  0  0  0  0
  148.0833  136.0855  160.6105 N   0  0  0  0  0  0  0  0  0  0  0  0
  147.2259  135.1103  160.9265 C   0  0  0  0  0  0  0  0  0  0  0  0
  146.6330  135.2758  162.1004 N   0  0  0  0  0  0  0  0  0  0  0  0
  147.1998  136.4603  162.4768 C   0  0  0  0  0  0  0  0  0  0  0  0
  148.0712  136.9901  161.6185 N   0  0  0  0  0  0  0  0  0  0  0  0
  147.9100  134.2649  153.8395 N   0  3  0  0  0  0  0  0  0  0  0  0
  148.7633  133.1046  154.2214 C   0  0  0  0  0  0  0  0  0  0  0  0
  148.7980  132.0440  153.1072 C   0  0  0  0  0  0  0  0  0  0  0  0
  147.4785  131.6225  152.7985 O   0  0  0  0  0  0  0  0  0  0  0  0
  146.6900  132.7009  152.3196 C   0  0  0  0  0  0  0  0  0  0  0  0
  146.5696  133.7737  153.4140 C   0  0  0  0  0  0  0  0  0  0  0  0
  146.8668  137.3228  155.1654 H   0  0  0  0  0  0  0  0  0  0  0  0
  145.9028  136.2035  154.2139 H   0  0  0  0  0  0  0  0  0  0  0  0
  147.2981  137.0356  153.5149 H   0  0  0  0  0  0  0  0  0  0  0  0
  148.8330  135.7775  154.9764 H   0  0  0  0  0  0  0  0  0  0  0  0
  146.2807  134.6695  156.2238 H   0  0  0  0  0  0  0  0  0  0  0  0
  147.7856  133.8203  156.4146 H   0  0  0  0  0  0  0  0  0  0  0  0
  147.4552  136.5844  157.3705 H   0  0  0  0  0  0  0  0  0  0  0  0
  149.9511  136.1500  159.7163 H   0  0  0  0  0  0  0  0  0  0  0  0
  149.3820  137.8943  158.0189 H   0  0  0  0  0  0  0  0  0  0  0  0
  149.0856  138.4509  159.6596 H   0  0  0  0  0  0  0  0  0  0  0  0
  147.7343  137.9680  158.6421 H   0  0  0  0  0  0  0  0  0  0  0  0
  147.0320  134.2630  160.2850 H   0  0  0  0  0  0  0  0  0  0  0  0
  146.9618  136.9477  163.4109 H   0  0  0  0  0  0  0  0  0  0  0  0
  149.7916  133.4179  154.3984 H   0  0  0  0  0  0  0  0  0  0  0  0
  148.3890  132.6636  155.1467 H   0  0  0  0  0  0  0  0  0  0  0  0
  149.2881  132.4336  152.2134 H   0  0  0  0  0  0  0  0  0  0  0  0
  149.3757  131.1786  153.4328 H   0  0  0  0  0  0  0  0  0  0  0  0
  147.1263  133.1163  151.4096 H   0  0  0  0  0  0  0  0  0  0  0  0
  145.7023  132.3231  152.0549 H   0  0  0  0  0  0  0  0  0  0  0  0
  146.0421  133.3621  154.2760 H   0  0  0  0  0  0  0  0  0  0  0  0
  145.9553  134.5829  153.0252 H   0  0  0  0  0  0  0  0  0  0  0  0
  148.3469  134.6680  153.0226 H   0  0  0  0  0  0  0  0  0  0  0  0
  1  2  1  0  0  0  0
  1 20  1  0  0  0  0
  1 21  1  0  0  0  0
  1 22  1  0  0  0  0
  2  3  1  0  0  0  0
  2 14  1  0  0  0  0
  2 23  1  0  0  0  0
  3  4  1  0  0  0  0
  3 24  1  0  0  0  0
  3 25  1  0  0  0  0
  4  5  1  0  0  0  0
  4 26  1  0  0  0  0
  5  6  2  0  0  0  0
  5  7  1  0  0  0  0
  7  8  1  0  0  0  0
  7  9  1  0  0  0  0
  7 27  1  0  0  0  0
  8 28  1  0  0  0  0
  8 29  1  0  0  0  0
  8 30  1  0  0  0  0
  9 13  1  0  0  0  0
  9 10  1  0  0  0  0
 10 11  2  0  0  0  0
 10 31  1  0  0  0  0
 11 12  1  0  0  0  0
 12 13  2  0  0  0  0
 12 32  1  0  0  0  0
 14 19  1  0  0  0  0
 14 15  1  0  0  0  0
 14 41  1  0  0  0  0
 15 16  1  0  0  0  0
 15 33  1  0  0  0  0
 15 34  1  0  0  0  0
 16 17  1  0  0  0  0
 16 35  1  0  0  0  0
 16 36  1  0  0  0  0
 17 18  1  0  0  0  0
 18 19  1  0  0  0  0
 18 37  1  0  0  0  0
 18 38  1  0  0  0  0
 19 39  1  0  0  0  0
 19 40  1  0  0  0  0
M  CHG  1  14   1
M  END
> <s_m_source_file>
AV-unprocessed.smi

> <i_m_source_file_index>
3349

> <i_lp_mmshare_version>
43012

> <i_f3d_flags>
0

> <s_epik_input>
W0NIMl0xW0NIMl1PW0NIMl1bQ0gyXU4xW0NASF0oW0NIM10pW0NIMl1bTkhdQyg9TylbQ0BIXShbQ0gzXSluMltjSF1uW2NIXW4y

> <s_epik_cmdline>
J2VwaWtfcHl0aG9uJywgJy1waCcsICc3LjAnLCAnLXRuJywgJzgnLCAnLW1hJywgJzIwMCcsICctbWV0YWxfYmluZGluZycsICctaW1hZScsICc8aW5maWxlLm1hZT4nLCAnLW9tYWUnLCAnPG91dGZpbGUubWFlPic=

> <r_lp_tautomer_probability>
1

> <r_epik_Ionization_Penalty>
0.71326

> <r_epik_Ionization_Penalty_Charging>
0.713252

> <r_epik_Ionization_Penalty_Neutral>
8.10337e-06

> <r_epik_State_Penalty>
0.737017

> <r_epik_Charging_Adjusted_Penalty>
1.45027

> <i_epik_Tot_Q>
1

> <i_epik_Tot_abs_Q>
1

> <r_epik_Metal_State_Penalty>
0.73702

> <b_epik_Metal_Only>
0

> <s_lp_Force_Field>
OPLS_2005

> <r_lp_Energy>
26.9228

> <b_lp_Chiralities_Consistent>
1

> <s_lp_Variant>
AV-unprocessed.smi:3349-8

> <Gold.Version>
5.8.1

> <Gold.Id.Protein>
6NUR|6NUR_protein|mol2

> <Gold.PLP.Fitness>
35.7356

> <Gold.PLP.PLP>
-24.1116

> <Gold.PLP.part.hbond>
-3.8774

> <Gold.PLP.part.metal>
0.0000

> <Gold.PLP.part.buried>
-1.6106

> <Gold.PLP.part.nonpolar>
-18.1844

> <Gold.PLP.part.repulsive>
0.5237

> <Gold.PLP.ligand.clash>
0.0000

> <Gold.PLP.ligand.torsion>
1.0747

> <Gold.PLP.Chemscore.Hbond>
4.5512

> <Gold.PLP.Chemscore.CHOScore>
0.0000

> <Gold.PLP.Chemscore.Metal>
0.0000

> <Gold.Chemscore.Hbonds>
donor molecule, donor type, donor heavy atom, donor atom, acceptor molecule, acceptor atom, score
      L1  H    14    41       P1  7948  2.00
      P1  H  6896  6907       L1     6  1.00
      P1  H  6931  6943       L1    13  1.00
      P1  H  6934  6947       L1    13  0.19

> <Gold.PLP.Chemscore.Internal.Correction>
0.1199

> <Gold.Rescore>
     Score         DG    S(hbond)    S(metal)    S(lipo)     H(rot)  DE(clash)    DE(int)     intcor
     11.21     -12.29       2.95        0.00      31.64       2.63       0.12       0.96       ----

> <Gold.Chemscore.Fitness>
11.2096

> <Gold.Chemscore.DG>
-12.2933

> <Gold.Chemscore.ZeroCoef>
-5.4800

> <Gold.Chemscore.Hbond>
2.9496

> <Gold.Chemscore.Metal>
0.0000

> <Gold.Chemscore.Lipo>
31.6401

> <Gold.Chemscore.Internal_Hbond>
0.0000

> <Gold.Chemscore.DEClash>
0.1229

> <Gold.Chemscore.DEInternal>
0.9608

> <Gold.Chemscore.Rot>
2.6329

> <Gold.Chemscore.Internal.Correction>
   9.000000E+99

> <Gold.Chemscore.Hbonds>
donor molecule, donor type, donor heavy atom, donor atom, acceptor molecule, acceptor atom, score
      L1  H    14    41       P1  7948  0.52
      P1  H  6896  6907       L1     6  0.82
      P1  H  6931  6943       L1    13  0.99
      P1  H  6934  6947       L1    13  0.09

> <Gold.Chemscore.Hbond.Weighted>
-9.8517

> <Gold.Chemscore.Metal.Weighted>
-0.0000

> <Gold.Chemscore.Lipo.Weighted>
-3.7019

> <Gold.Chemscore.Internal_Hbond.Weighted>
0.0000

> <Gold.Chemscore.DEClash.Weighted>
0.1229

> <Gold.Chemscore.DEInternal.Weighted>
0.9608

> <Gold.Chemscore.Rot.Weighted>
6.7403

> <Gold.Chemscore.Internal.Correction.Weighted>
   9.000000E+99

> <Gold.Protein.RotatedTorsions>
[ 6907 6896 6895 6894 ] final -101.16 input  -60.11 | X-H torsion
[ 7974 7965 7964 7962 ] final  154.68 input  175.53 | X-H torsion
[ 8008 7997 7996 7995 ] final -143.60 input   59.86 | X-H torsion
[ 10167 10162 10161 10158 ] final  -52.11 input  -65.29 | X-H torsion
[ 10718 10713 10712 10709 ] final  169.89 input   66.30 | X-H torsion
[ 10763 10752 10751 10750 ] final -158.47 input  -60.55 | X-H torsion
[ 11005 11000 10999 10996 ] final  105.65 input  -57.11 | X-H torsion

> <Gold.Protein.ActiveResidues>
 VAL166  LYS551  ARG553  GLY616  TRP617  ASP618  TYR619  PRO620  LYS621  CYS622 
 ASP623  PHE694  ASN695  SER759  ASP760  ASP761  ALA762  ILE779  LEU786  VAL792 
 PHE793  MET794  SER795  GLU796  ALA797  LYS798  CYS799  TRP800  GLU811  SER814 

> <Gold.Protein.RotatedAtoms>
  150.7144  134.0776  159.3886 H   0  0  0  0  0  0  0  0  0  0  0  0  # atno 6907 bound_to 6896
  151.8760  135.0469  160.0493 H   0  0  0  0  0  0  0  0  0  0  0  0  # atno 6908 bound_to 6896
  152.2605  133.5258  159.5416 H   0  0  0  0  0  0  0  0  0  0  0  0  # atno 6909 bound_to 6896
  144.8073  139.6966  143.6156 H   0  0  0  0  0  0  0  0  0  0  0  0  # atno 7974 bound_to 7965
  155.5133  140.0585  157.2920 H   0  0  0  0  0  0  0  0  0  0  0  0  # atno 8008 bound_to 7997
  154.4544  140.1965  156.0371 H   0  0  0  0  0  0  0  0  0  0  0  0  # atno 8009 bound_to 7997
  156.0769  140.3252  155.7649 H   0  0  0  0  0  0  0  0  0  0  0  0  # atno 8010 bound_to 7997
  140.6554  143.2595  151.4601 H   0  0  0  0  0  0  0  0  0  0  0  0  # atno 10167 bound_to 10162
  157.0160  131.0218  151.2789 H   0  0  0  0  0  0  0  0  0  0  0  0  # atno 10718 bound_to 10713
  154.7554  135.3103  154.8480 H   0  0  0  0  0  0  0  0  0  0  0  0  # atno 10763 bound_to 10752
  153.9256  135.6791  153.4751 H   0  0  0  0  0  0  0  0  0  0  0  0  # atno 10764 bound_to 10752
  153.1151  135.4848  154.9031 H   0  0  0  0  0  0  0  0  0  0  0  0  # atno 10765 bound_to 10752
  139.8804  134.9343  156.5546 H   0  0  0  0  0  0  0  0  0  0  0  0  # atno 11005 bound_to 11000
  146.2366  139.5918  142.9519 LP  0  0  0  0  0  0  0  0  0  0  0  0  # atno 17320 bound_to 7965
  145.5408  141.0421  143.2332 LP  0  0  0  0  0  0  0  0  0  0  0  0  # atno 17321 bound_to 7965
  139.5776  144.1784  152.1924 LP  0  0  0  0  0  0  0  0  0  0  0  0  # atno 17342 bound_to 10162
  140.1099  144.5466  150.6932 LP  0  0  0  0  0  0  0  0  0  0  0  0  # atno 17343 bound_to 10162
  157.5285  130.8043  149.7889 LP  0  0  0  0  0  0  0  0  0  0  0  0  # atno 17370 bound_to 10713
  156.0119  130.3830  150.2237 LP  0  0  0  0  0  0  0  0  0  0  0  0  # atno 17371 bound_to 10713
  140.8214  133.8350  155.8899 LP  0  0  0  0  0  0  0  0  0  0  0  0  # atno 17394 bound_to 11000
  140.9414  134.1895  157.4794 LP  0  0  0  0  0  0  0  0  0  0  0  0  # atno 17395 bound_to 11000

$$$$
