#       Name:                AV-unprocessed.smi:1525
#       Creating user name   scv26
#       Creation time:       Fri Mar 27 06:29:12 2020


#       File generated by GOLD software.
#

@<TRIPOS>MOLECULE
AV-unprocessed.smi:1525
    55    57     1
SMALL
NO_CHARGES


@<TRIPOS>ATOM
      1 ****         0.1528   1.8958   0.5261 O.2            1 S1                 0.0000
      2 ****        -0.3310   0.7811   0.2981 C.2            1 S1                 0.0000
      3 ****         0.3238  -0.4061   0.1965 N.pl3          1 S1                -1.0000
      4 ****         1.7697  -0.5768   0.3270 C.3            1 S1                 0.0000
      5 ****         2.4517  -0.3667  -1.0404 C.3            1 S1                 0.0000
      6 ****         3.9282  -0.5181  -0.9567 N.4            1 S1                 1.0000
      7 ****         4.4112  -1.8916  -1.2575 C.3            1 S1                 0.0000
      8 ****         5.9366  -1.9731  -1.0843 C.3            1 S1                 0.0000
      9 ****         6.5646  -1.0115  -1.9235 O.3            1 S1                 0.0000
     10 ****         6.1763   0.3165  -1.5947 C.3            1 S1                 0.0000
     11 ****         4.6583   0.4742  -1.7825 C.3            1 S1                 0.0000
     12 ****        -1.6558   0.6380   0.1304 N.am           1 S1                 0.0000
     13 ****        -2.6757   1.6235   0.2313 C.ar           1 S1                 0.0000
     14 ****        -2.4874   2.9401  -0.2587 C.ar           1 S1                 0.0000
     15 ****        -3.5375   3.8751  -0.1741 C.ar           1 S1                 0.0000
     16 ****        -4.7644   3.4758   0.3870 C.ar           1 S1                 0.0000
     17 ****        -4.9184   2.2100   0.8290 N.pl3          1 S1                 1.0000
     18 ****        -3.9433   1.2746   0.7757 C.ar           1 S1                 0.0000
     19 ****        -4.2847   0.0103   1.2860 N.3            1 S1                 0.0000
     20 ****        -3.4930  -0.4743   2.4130 C.3            1 S1                 0.0000
     21 ****        -3.0153  -1.8801   2.0368 C.3            1 S1                 0.0000
     22 ****        -4.0544  -2.3442   1.0220 C.3            1 S1                 0.0000
     23 ****        -4.4222  -1.0508   0.2960 C.3            1 S1                 0.0000
     24 ****         2.2054   0.1098   1.0544 H              1 S1                 0.0000
     25 ****         2.0112  -1.5748   0.6929 H              1 S1                 0.0000
     26 ****         2.0459  -1.0486  -1.7896 H              1 S1                 0.0000
     27 ****         2.2095   0.6389  -1.3884 H              1 S1                 0.0000
     28 ****         3.9305  -2.6159  -0.5990 H              1 S1                 0.0000
     29 ****         4.1388  -2.1603  -2.2794 H              1 S1                 0.0000
     30 ****         6.2200  -1.8080  -0.0435 H              1 S1                 0.0000
     31 ****         6.2926  -2.9664  -1.3577 H              1 S1                 0.0000
     32 ****         6.4679   0.5506  -0.5695 H              1 S1                 0.0000
     33 ****         6.7090   1.0116  -2.2437 H              1 S1                 0.0000
     34 ****         4.3931   0.3432  -2.8328 H              1 S1                 0.0000
     35 ****         4.3595   1.4839  -1.4976 H              1 S1                 0.0000
     36 ****        -1.9766  -0.3154   0.0448 H              1 S1                 0.0000
     37 ****        -1.5551   3.2409  -0.7125 H              1 S1                 0.0000
     38 ****        -3.4043   4.8821  -0.5414 H              1 S1                 0.0000
     39 ****        -5.6232   4.1231   0.4890 H              1 S1                 0.0000
     40 ****        -2.6582   0.1811   2.6650 H              1 S1                 0.0000
     41 ****        -4.1449  -0.5202   3.2857 H              1 S1                 0.0000
     42 ****        -2.0353  -1.8260   1.5612 H              1 S1                 0.0000
     43 ****        -2.9322  -2.5439   2.8977 H              1 S1                 0.0000
     44 ****        -3.6809  -3.1176   0.3502 H              1 S1                 0.0000
     45 ****        -4.9280  -2.7393   1.5424 H              1 S1                 0.0000
     46 ****        -5.4398  -1.0890  -0.0932 H              1 S1                 0.0000
     47 ****        -3.7513  -0.8864  -0.5478 H              1 S1                 0.0000
     48 ****         4.1735  -0.3191   0.0029 H              1 S1                 0.0000
     49 ****        -5.8193   1.9437   1.2269 H              1 S1                 0.0000
     50 ****         1.1388   1.9950   0.6602 LP             1 S1                 0.0000
     51 ****        -0.4418   2.6982   0.5764 LP             1 S1                 0.0000
     52 ****        -0.2245  -1.2234   0.0193 LP             1 S1                 0.0000
     53 ****         6.3107  -1.1965  -2.8729 LP             1 S1                 0.0000
     54 ****         7.5561  -1.0926  -1.8218 LP             1 S1                 0.0000
     55 ****        -5.1949   0.2215   1.6422 LP             1 S1                 0.0000
@<TRIPOS>BOND
    1    1    2 2     
    2    2    3 1     
    3    2   12 am    
    4    3    4 1     
    5    4    5 1     
    6    4   24 1     
    7    4   25 1     
    8    5    6 1     
    9    5   26 1     
   10    5   27 1     
   11    6   11 1     
   12    6    7 1     
   13    6   48 1     
   14    7    8 1     
   15    7   28 1     
   16    7   29 1     
   17    8    9 1     
   18    8   30 1     
   19    8   31 1     
   20    9   10 1     
   21   10   11 1     
   22   10   32 1     
   23   10   33 1     
   24   11   34 1     
   25   11   35 1     
   26   12   13 1     
   27   12   36 1     
   28   13   18 ar    
   29   13   14 ar    
   30   14   15 ar    
   31   14   37 1     
   32   15   16 ar    
   33   15   38 1     
   34   16   17 ar    
   35   16   39 1     
   36   17   18 ar    
   37   17   49 1     
   38   18   19 1     
   39   19   23 1     
   40   19   20 1     
   41   20   21 1     
   42   20   40 1     
   43   20   41 1     
   44   21   22 1     
   45   21   42 1     
   46   21   43 1     
   47   22   23 1     
   48   22   44 1     
   49   22   45 1     
   50   23   46 1     
   51   23   47 1     
   52    1   50 1     
   53    1   51 1     
   54    3   52 1     
   55    9   53 1     
   56    9   54 1     
   57   19   55 1     
@<TRIPOS>SUBSTRUCTURE
      1 S1             1
@<TRIPOS>SET
LONE_PAIRS      STATIC     ATOMS    <user>   **** ""
6 50 51 52 53 54 55
DONOR_HYDROGENS      STATIC     ATOMS    <user>   **** ""
3 48 36 49
ATOM$BLUE        STATIC     ATOMS    COLORGROUP SYSTEM
6 50 51 52 53 54 55
ATOM$RED        STATIC     ATOMS    COLORGROUP SYSTEM
3 48 36 49
