AV-unprocessed.smi:713|AV-procd|sdf|3478|dock4
  -GOLD-   22720 0473D 1   1.00000     0.00000
 Structure written by MMmdl.
 41 42  0  0  0  0  0  0  0  0  1 V2000
  150.7846  145.2961  159.9102 C   0  0  0  0  0  0  0  0  0  0  0  0
  151.9275  144.4436  159.3224 C   0  0  2  0  0  0  0  0  0  0  0  0
  151.4833  143.6471  158.0861 C   0  0  0  0  0  0  0  0  0  0  0  0
  151.5848  144.1321  156.9586 O   0  0  0  0  0  0  0  0  0  0  0  0
  150.9886  142.4200  158.3147 N   0  0  0  0  0  0  0  0  0  0  0  0
  150.5008  141.5012  157.2907 C   0  0  2  0  0  0  0  0  0  0  0  0
  149.3864  140.6182  157.8817 C   0  0  0  0  0  0  0  0  0  0  0  0
  148.8793  139.5932  156.8557 C   0  0  0  0  0  0  0  0  0  0  0  0
  150.0303  138.7337  156.3109 C   0  0  0  0  0  0  0  0  0  0  0  0
  151.1447  139.6070  155.7070 C   0  0  2  0  0  0  0  0  0  0  0  0
  152.5234  138.5336  155.0978 S   0  0  0  0  0  0  0  0  0  0  0  0
  153.1462  137.7546  156.6456 C   0  0  0  0  0  0  0  0  0  0  0  0
  151.9539  137.4715  154.2542 O   0  0  0  0  0  0  0  0  0  0  0  0
  153.5804  139.4015  154.5568 O   0  0  0  0  0  0  0  0  0  0  0  0
  151.6515  140.6335  156.7392 C   0  0  0  0  0  0  0  0  0  0  0  0
  152.5220  143.5492  160.3097 N   0  0  0  0  0  0  0  0  0  0  0  0
  153.4566  142.5558  160.0978 C   0  0  0  0  0  0  0  0  0  0  0  0
  153.6895  141.9467  161.2974 C   0  0  0  0  0  0  0  0  0  0  0  0
  152.8293  142.6341  162.1975 C   0  0  0  0  0  0  0  0  0  0  0  0
  152.1261  143.5839  161.6039 N   0  0  0  0  0  0  0  0  0  0  0  0
  150.4001  145.9990  159.1703 H   0  0  0  0  0  0  0  0  0  0  0  0
  151.1349  145.8790  160.7625 H   0  0  0  0  0  0  0  0  0  0  0  0
  149.9469  144.6859  160.2502 H   0  0  0  0  0  0  0  0  0  0  0  0
  152.7111  145.1352  159.0078 H   0  0  0  0  0  0  0  0  0  0  0  0
  150.9417  142.1002  159.2713 H   0  0  0  0  0  0  0  0  0  0  0  0
  150.0742  142.0844  156.4721 H   0  0  0  0  0  0  0  0  0  0  0  0
  149.7585  140.0919  158.7621 H   0  0  0  0  0  0  0  0  0  0  0  0
  148.5562  141.2393  158.2208 H   0  0  0  0  0  0  0  0  0  0  0  0
  148.1227  138.9539  157.3117 H   0  0  0  0  0  0  0  0  0  0  0  0
  148.3888  140.1124  156.0314 H   0  0  0  0  0  0  0  0  0  0  0  0
  150.4392  138.1197  157.1145 H   0  0  0  0  0  0  0  0  0  0  0  0
  149.6469  138.0430  155.5595 H   0  0  0  0  0  0  0  0  0  0  0  0
  150.7471  140.1353  154.8396 H   0  0  0  0  0  0  0  0  0  0  0  0
  154.0321  137.1625  156.4174 H   0  0  0  0  0  0  0  0  0  0  0  0
  152.3841  137.1018  157.0691 H   0  0  0  0  0  0  0  0  0  0  0  0
  153.4073  138.5293  157.3664 H   0  0  0  0  0  0  0  0  0  0  0  0
  152.4067  141.2738  156.2849 H   0  0  0  0  0  0  0  0  0  0  0  0
  152.1424  140.1138  157.5632 H   0  0  0  0  0  0  0  0  0  0  0  0
  153.8747  142.3664  159.1201 H   0  0  0  0  0  0  0  0  0  0  0  0
  154.3669  141.1307  161.5002 H   0  0  0  0  0  0  0  0  0  0  0  0
  152.6919  142.4694  163.2562 H   0  0  0  0  0  0  0  0  0  0  0  0
  1  2  1  0  0  0  0
  1 21  1  0  0  0  0
  1 22  1  0  0  0  0
  1 23  1  0  0  0  0
  2  3  1  0  0  0  0
  2 16  1  0  0  0  0
  2 24  1  0  0  0  0
  3  4  2  0  0  0  0
  3  5  1  0  0  0  0
  5  6  1  0  0  0  0
  5 25  1  0  0  0  0
  6 15  1  0  0  0  0
  6  7  1  0  0  0  0
  6 26  1  0  0  0  0
  7  8  1  0  0  0  0
  7 27  1  0  0  0  0
  7 28  1  0  0  0  0
  8  9  1  0  0  0  0
  8 29  1  0  0  0  0
  8 30  1  0  0  0  0
  9 10  1  0  0  0  0
  9 31  1  0  0  0  0
  9 32  1  0  0  0  0
 10 11  1  0  0  0  0
 10 15  1  0  0  0  0
 10 33  1  0  0  0  0
 11 12  1  0  0  0  0
 11 13  2  0  0  0  0
 11 14  2  0  0  0  0
 12 34  1  0  0  0  0
 12 35  1  0  0  0  0
 12 36  1  0  0  0  0
 15 37  1  0  0  0  0
 15 38  1  0  0  0  0
 16 20  1  0  0  0  0
 16 17  1  0  0  0  0
 17 18  2  0  0  0  0
 17 39  1  0  0  0  0
 18 19  1  0  0  0  0
 18 40  1  0  0  0  0
 19 20  2  0  0  0  0
 19 41  1  0  0  0  0
M  END
> <s_m_source_file>
AV-unprocessed.smi

> <i_m_source_file_index>
713

> <i_lp_mmshare_version>
43012

> <i_f3d_flags>
0

> <s_epik_input>
bjFbY0hdW2NIXVtjSF1uMVtDQEhdKFtDSDNdKUMoPU8pW05IXVtDQEBIXTJbQ0gyXVtDSDJdW0NIMl1bQ0BIXShbQ0gyXTIpUyg9TykoPU8pW0NIM10=

> <s_epik_cmdline>
J2VwaWtfcHl0aG9uJywgJy1waCcsICc3LjAnLCAnLXRuJywgJzgnLCAnLW1hJywgJzIwMCcsICctbWV0YWxfYmluZGluZycsICctaW1hZScsICc8aW5maWxlLm1hZT4nLCAnLW9tYWUnLCAnPG91dGZpbGUubWFlPic=

> <r_lp_tautomer_probability>
1

> <r_epik_Ionization_Penalty>
4.07816e-05

> <r_epik_Ionization_Penalty_Charging>
0

> <r_epik_Ionization_Penalty_Neutral>
4.07816e-05

> <r_epik_State_Penalty>
-0

> <r_epik_Charging_Adjusted_Penalty>
0

> <i_epik_Tot_Q>
0

> <i_epik_Tot_abs_Q>
0

> <r_epik_Metal_State_Penalty>
-0

> <b_epik_Metal_Only>
0

> <s_lp_Force_Field>
OPLS_2005

> <r_lp_Energy>
7.47495

> <b_lp_Chiralities_Consistent>
1

> <s_lp_Variant>
AV-unprocessed.smi:713-5

> <Gold.Version>
5.8.1

> <Gold.Id.Protein>
6NUR|6NUR_protein|mol2

> <Gold.PLP.Fitness>
46.2765

> <Gold.PLP.PLP>
-42.8479

> <Gold.PLP.part.hbond>
-2.5589

> <Gold.PLP.part.metal>
0.0000

> <Gold.PLP.part.buried>
-7.8636

> <Gold.PLP.part.nonpolar>
-35.2580

> <Gold.PLP.part.repulsive>
0.9522

> <Gold.PLP.ligand.clash>
0.0000

> <Gold.PLP.ligand.torsion>
1.3437

> <Gold.PLP.Chemscore.Hbond>
1.9600

> <Gold.PLP.Chemscore.CHOScore>
0.0000

> <Gold.PLP.Chemscore.Metal>
0.0000

> <Gold.Chemscore.Hbonds>
donor molecule, donor type, donor heavy atom, donor atom, acceptor molecule, acceptor atom, score
      P1  H  7997  8008       L1    14  1.00
      P1  H 10752 10765       L1    13  0.89

> <Gold.PLP.Chemscore.Internal.Correction>
0.2361

> <Gold.Rescore>
     Score         DG    S(hbond)    S(metal)    S(lipo)     H(rot)  DE(clash)    DE(int)     intcor
     14.86     -17.29       1.87        0.00      85.27       1.72       1.25       1.18       ----

> <Gold.Chemscore.Fitness>
14.8611

> <Gold.Chemscore.DG>
-17.2856

> <Gold.Chemscore.ZeroCoef>
-5.4800

> <Gold.Chemscore.Hbond>
1.8698

> <Gold.Chemscore.Metal>
0.0000

> <Gold.Chemscore.Lipo>
85.2670

> <Gold.Chemscore.Internal_Hbond>
0.0000

> <Gold.Chemscore.DEClash>
1.2481

> <Gold.Chemscore.DEInternal>
1.1764

> <Gold.Chemscore.Rot>
1.7249

> <Gold.Chemscore.Internal.Correction>
   9.000000E+99

> <Gold.Chemscore.Hbonds>
donor molecule, donor type, donor heavy atom, donor atom, acceptor molecule, acceptor atom, score
      P1  H  7997  8008       L1    14  0.82
      P1  H 10752 10765       L1    13  0.76

> <Gold.Chemscore.Hbond.Weighted>
-6.2451

> <Gold.Chemscore.Metal.Weighted>
-0.0000

> <Gold.Chemscore.Lipo.Weighted>
-9.9762

> <Gold.Chemscore.Internal_Hbond.Weighted>
0.0000

> <Gold.Chemscore.DEClash.Weighted>
1.2481

> <Gold.Chemscore.DEInternal.Weighted>
1.1764

> <Gold.Chemscore.Rot.Weighted>
4.4157

> <Gold.Chemscore.Internal.Correction.Weighted>
   9.000000E+99

> <Gold.Protein.RotatedTorsions>
[ 6907 6896 6895 6894 ] final -164.87 input  -60.11 | X-H torsion
[ 7974 7965 7964 7962 ] final -142.65 input  175.53 | X-H torsion
[ 8008 7997 7996 7995 ] final  -13.14 input   59.86 | X-H torsion
[ 10167 10162 10161 10158 ] final  147.69 input  -65.29 | X-H torsion
[ 10718 10713 10712 10709 ] final  108.82 input   66.30 | X-H torsion
[ 10763 10752 10751 10750 ] final  160.24 input  -60.55 | X-H torsion
[ 11005 11000 10999 10996 ] final  -38.71 input  -57.11 | X-H torsion

> <Gold.Protein.ActiveResidues>
 VAL166  LYS551  ARG553  GLY616  TRP617  ASP618  TYR619  PRO620  LYS621  CYS622 
 ASP623  PHE694  ASN695  SER759  ASP760  ASP761  ALA762  ILE779  LEU786  VAL792 
 PHE793  MET794  SER795  GLU796  ALA797  LYS798  CYS799  TRP800  GLU811  SER814 

> <Gold.Protein.RotatedAtoms>
  151.4186  133.3705  159.2752 H   0  0  0  0  0  0  0  0  0  0  0  0  # atno 6907 bound_to 6896
  150.9310  134.8726  159.7561 H   0  0  0  0  0  0  0  0  0  0  0  0  # atno 6908 bound_to 6896
  152.5028  134.4131  159.9507 H   0  0  0  0  0  0  0  0  0  0  0  0  # atno 6909 bound_to 6896
  144.8427  140.5931  143.5441 H   0  0  0  0  0  0  0  0  0  0  0  0  # atno 7974 bound_to 7965
  154.5317  140.2257  155.8792 H   0  0  0  0  0  0  0  0  0  0  0  0  # atno 8008 bound_to 7997
  156.1771  140.3109  155.9042 H   0  0  0  0  0  0  0  0  0  0  0  0  # atno 8009 bound_to 7997
  155.3437  140.0452  157.3036 H   0  0  0  0  0  0  0  0  0  0  0  0  # atno 8010 bound_to 7997
  139.4886  144.5736  151.7007 H   0  0  0  0  0  0  0  0  0  0  0  0  # atno 10167 bound_to 10162
  157.6569  131.0901  150.6362 H   0  0  0  0  0  0  0  0  0  0  0  0  # atno 10718 bound_to 10713
  154.2442  135.2773  155.2842 H   0  0  0  0  0  0  0  0  0  0  0  0  # atno 10763 bound_to 10752
  154.5519  135.5672  153.6933 H   0  0  0  0  0  0  0  0  0  0  0  0  # atno 10764 bound_to 10752
  152.9993  135.6276  154.2587 H   0  0  0  0  0  0  0  0  0  0  0  0  # atno 10765 bound_to 10752
  141.0048  133.6937  156.2089 H   0  0  0  0  0  0  0  0  0  0  0  0  # atno 11005 bound_to 11000
  145.4660  139.1508  143.3840 LP  0  0  0  0  0  0  0  0  0  0  0  0  # atno 17320 bound_to 7965
  146.2717  140.4792  142.8812 LP  0  0  0  0  0  0  0  0  0  0  0  0  # atno 17321 bound_to 7965
  140.5328  144.0703  150.6060 LP  0  0  0  0  0  0  0  0  0  0  0  0  # atno 17342 bound_to 10162
  140.3699  143.2860  152.0290 LP  0  0  0  0  0  0  0  0  0  0  0  0  # atno 17343 bound_to 10162
  156.6668  130.4528  149.5670 LP  0  0  0  0  0  0  0  0  0  0  0  0  # atno 17370 bound_to 10713
  156.2027  130.6630  151.1184 LP  0  0  0  0  0  0  0  0  0  0  0  0  # atno 17371 bound_to 10713
  140.6831  134.4746  157.5589 LP  0  0  0  0  0  0  0  0  0  0  0  0  # atno 17394 bound_to 11000
  139.9057  134.8454  156.1715 LP  0  0  0  0  0  0  0  0  0  0  0  0  # atno 17395 bound_to 11000

$$$$
