AV-unprocessed.smi:249|AV-procd|sdf|1904|dock3
  -GOLD-   2262020583D 1   1.00000     0.00000
 Structure written by MMmdl.
 64 67  0  0  0  0  0  0  0  0  2 V2000
  144.5042  134.2659  150.5112 C   0  0  0  0  0  0  0  0  0  0  0  0
  143.8418  133.2037  151.4040 C   0  0  0  0  0  0  0  0  0  0  0  0
  144.5171  133.0253  152.7224 N   0  3  2  0  0  0  0  0  0  0  0  0
  144.8226  134.3340  153.3695 C   0  0  0  0  0  0  0  0  0  0  0  0
  145.4475  134.1632  154.7633 C   0  0  0  0  0  0  0  0  0  0  0  0
  146.7413  133.3257  154.7050 C   0  0  2  0  0  0  0  0  0  0  0  0
  147.8448  133.9895  153.9913 N   0  0  0  0  0  0  0  0  0  0  0  0
  148.8239  133.1354  153.3263 C   0  0  0  0  0  0  0  0  0  0  0  0
  148.4688  134.9776  154.6707 C   0  0  0  0  0  0  0  0  0  0  0  0
  149.7858  134.8075  154.9432 N   0  0  0  0  0  0  0  0  0  0  0  0
  150.4575  135.7564  155.6033 C   0  0  0  0  0  0  0  0  0  0  0  0
  150.0108  136.9249  156.0698 N   0  0  0  0  0  0  0  0  0  0  0  0
  148.6837  137.0917  155.8024 C   0  0  0  0  0  0  0  0  0  0  0  0
  147.8407  136.1744  155.1159 C   0  0  0  0  0  0  0  0  0  0  0  0
  146.5501  136.6829  155.0350 N   0  0  0  0  0  0  0  0  0  0  0  0
  146.6264  137.8392  155.6364 C   0  0  0  0  0  0  0  0  0  0  0  0
  147.8731  138.1661  156.1202 N   0  0  0  0  0  0  0  0  0  0  0  0
  148.2449  139.3825  156.8200 C   0  0  0  0  0  0  0  0  0  0  0  0
  149.0918  140.3489  155.9552 C   0  0  1  0  0  0  0  0  0  0  0  0
  148.2266  141.2405  155.0314 C   0  0  0  0  0  0  0  0  0  0  0  0
  149.0238  142.1268  154.2727 O   0  0  0  0  0  0  0  0  0  0  0  0
  150.0746  141.1739  156.8238 C   0  0  2  0  0  0  0  0  0  0  0  0
  151.0546  140.3498  157.6403 C   0  0  0  0  0  0  0  0  0  0  0  0
  151.5182  141.3516  158.6917 C   0  0  0  0  0  0  0  0  0  0  0  0
  150.3965  142.1904  158.9410 O   0  0  0  0  0  0  0  0  0  0  0  0
  149.4081  141.9940  157.9345 C   0  0  0  0  0  0  0  0  0  0  0  0
  146.3578  131.9776  154.0677 C   0  0  0  0  0  0  0  0  0  0  0  0
  145.7238  132.1360  152.6661 C   0  0  1  0  0  0  0  0  0  0  0  0
  145.4153  130.7318  152.1058 C   0  0  0  0  0  0  0  0  0  0  0  0
  143.8791  134.4740  149.6425 H   0  0  0  0  0  0  0  0  0  0  0  0
  145.4723  133.9425  150.1300 H   0  0  0  0  0  0  0  0  0  0  0  0
  144.6431  135.2047  151.0480 H   0  0  0  0  0  0  0  0  0  0  0  0
  142.8164  133.5361  151.5476 H   0  0  0  0  0  0  0  0  0  0  0  0
  143.7891  132.2477  150.8811 H   0  0  0  0  0  0  0  0  0  0  0  0
  145.4851  134.9130  152.7245 H   0  0  0  0  0  0  0  0  0  0  0  0
  143.9138  134.9208  153.4907 H   0  0  0  0  0  0  0  0  0  0  0  0
  145.6204  135.1382  155.2191 H   0  0  0  0  0  0  0  0  0  0  0  0
  144.7284  133.6660  155.4157 H   0  0  0  0  0  0  0  0  0  0  0  0
  147.0764  133.1325  155.7244 H   0  0  0  0  0  0  0  0  0  0  0  0
  149.7354  133.6783  153.0696 H   0  0  0  0  0  0  0  0  0  0  0  0
  148.4106  132.7413  152.3979 H   0  0  0  0  0  0  0  0  0  0  0  0
  149.0991  132.2943  153.9638 H   0  0  0  0  0  0  0  0  0  0  0  0
  151.5027  135.5512  155.7822 H   0  0  0  0  0  0  0  0  0  0  0  0
  145.7724  138.4935  155.7370 H   0  0  0  0  0  0  0  0  0  0  0  0
  147.3344  139.8783  157.1587 H   0  0  0  0  0  0  0  0  0  0  0  0
  148.7896  139.0917  157.7186 H   0  0  0  0  0  0  0  0  0  0  0  0
  149.6983  139.7286  155.2936 H   0  0  0  0  0  0  0  0  0  0  0  0
  147.6329  140.6326  154.3494 H   0  0  0  0  0  0  0  0  0  0  0  0
  147.5093  141.8231  155.6097 H   0  0  0  0  0  0  0  0  0  0  0  0
  148.8782  143.0061  154.5871 H   0  0  0  0  0  0  0  0  0  0  0  0
  150.6430  141.8546  156.1876 H   0  0  0  0  0  0  0  0  0  0  0  0
  150.5445  139.5129  158.1202 H   0  0  0  0  0  0  0  0  0  0  0  0
  151.8822  139.9542  157.0510 H   0  0  0  0  0  0  0  0  0  0  0  0
  151.8672  140.8687  159.6044 H   0  0  0  0  0  0  0  0  0  0  0  0
  152.3301  141.9654  158.3000 H   0  0  0  0  0  0  0  0  0  0  0  0
  149.0244  142.9486  157.5735 H   0  0  0  0  0  0  0  0  0  0  0  0
  148.5772  141.4435  158.3775 H   0  0  0  0  0  0  0  0  0  0  0  0
  147.2250  131.3188  154.0220 H   0  0  0  0  0  0  0  0  0  0  0  0
  145.6486  131.4687  154.7225 H   0  0  0  0  0  0  0  0  0  0  0  0
  146.4564  132.6049  152.0071 H   0  0  0  0  0  0  0  0  0  0  0  0
  146.2713  130.0674  152.2284 H   0  0  0  0  0  0  0  0  0  0  0  0
  145.2002  130.7471  151.0382 H   0  0  0  0  0  0  0  0  0  0  0  0
  144.5699  130.2737  152.6205 H   0  0  0  0  0  0  0  0  0  0  0  0
  143.8529  132.5567  153.3218 H   0  0  0  0  0  0  0  0  0  0  0  0
  1  2  1  0  0  0  0
  1 30  1  0  0  0  0
  1 31  1  0  0  0  0
  1 32  1  0  0  0  0
  2  3  1  0  0  0  0
  2 33  1  0  0  0  0
  2 34  1  0  0  0  0
  3 28  1  0  0  0  0
  3  4  1  0  0  0  0
  3 64  1  0  0  0  0
  4  5  1  0  0  0  0
  4 35  1  0  0  0  0
  4 36  1  0  0  0  0
  5  6  1  0  0  0  0
  5 37  1  0  0  0  0
  5 38  1  0  0  0  0
  6  7  1  0  0  0  0
  6 27  1  0  0  0  0
  6 39  1  0  0  0  0
  7  8  1  0  0  0  0
  7  9  1  0  0  0  0
  8 40  1  0  0  0  0
  8 41  1  0  0  0  0
  8 42  1  0  0  0  0
  9 14  1  0  0  0  0
  9 10  2  0  0  0  0
 10 11  1  0  0  0  0
 11 12  2  0  0  0  0
 11 43  1  0  0  0  0
 12 13  1  0  0  0  0
 13 17  1  0  0  0  0
 13 14  2  0  0  0  0
 14 15  1  0  0  0  0
 15 16  2  0  0  0  0
 16 17  1  0  0  0  0
 16 44  1  0  0  0  0
 17 18  1  0  0  0  0
 18 19  1  0  0  0  0
 18 45  1  0  0  0  0
 18 46  1  0  0  0  0
 19 20  1  0  0  0  0
 19 22  1  0  0  0  0
 19 47  1  0  0  0  0
 20 21  1  0  0  0  0
 20 48  1  0  0  0  0
 20 49  1  0  0  0  0
 21 50  1  0  0  0  0
 22 26  1  0  0  0  0
 22 23  1  0  0  0  0
 22 51  1  0  0  0  0
 23 24  1  0  0  0  0
 23 52  1  0  0  0  0
 23 53  1  0  0  0  0
 24 25  1  0  0  0  0
 24 54  1  0  0  0  0
 24 55  1  0  0  0  0
 25 26  1  0  0  0  0
 26 56  1  0  0  0  0
 26 57  1  0  0  0  0
 27 28  1  0  0  0  0
 27 58  1  0  0  0  0
 27 59  1  0  0  0  0
 28 29  1  0  0  0  0
 28 60  1  0  0  0  0
 29 61  1  0  0  0  0
 29 62  1  0  0  0  0
 29 63  1  0  0  0  0
M  CHG  1   3   1
M  END
> <s_m_source_file>
AV-unprocessed.smi

> <i_m_source_file_index>
249

> <i_lp_mmshare_version>
43012

> <i_f3d_flags>
0

> <s_epik_input>
W0NIM11bQ0gyXU4xW0NIMl1bQ0gyXVtDQEhdKFtDSDJdW0NASF0xW0NIM10pTihbQ0gzXSljKG5bY0hdbjIpYyhjMjMpbltjSF1uM1tDSDJdW0NASF0oW0NIMl1bT0hdKVtDQEBIXTRbQ0gyXVtDSDJdT1tDSDJdNA==

> <s_epik_cmdline>
J2VwaWtfcHl0aG9uJywgJy1waCcsICc3LjAnLCAnLXRuJywgJzgnLCAnLW1hJywgJzIwMCcsICctbWV0YWxfYmluZGluZycsICctaW1hZScsICc8aW5maWxlLm1hZT4nLCAnLW9tYWUnLCAnPG91dGZpbGUubWFlPic=

> <r_lp_tautomer_probability>
1

> <r_epik_Ionization_Penalty>
0.00294688

> <r_epik_Ionization_Penalty_Charging>
0.00169971

> <r_epik_Ionization_Penalty_Neutral>
0.00124717

> <r_epik_State_Penalty>
-0

> <r_epik_Charging_Adjusted_Penalty>
0.00169971

> <i_epik_Tot_Q>
1

> <i_epik_Tot_abs_Q>
1

> <r_epik_Metal_State_Penalty>
-0

> <b_epik_Metal_Only>
0

> <s_lp_Force_Field>
OPLS_2005

> <r_lp_Energy>
56.7452

> <b_lp_Chiralities_Consistent>
1

> <s_lp_Variant>
AV-unprocessed.smi:249-7

> <Gold.Version>
5.8.1

> <Gold.Id.Protein>
6NUR|6NUR_protein|mol2

> <Gold.PLP.Fitness>
39.4021

> <Gold.PLP.PLP>
-31.5398

> <Gold.PLP.part.hbond>
-3.6694

> <Gold.PLP.part.metal>
0.0000

> <Gold.PLP.part.buried>
-6.1137

> <Gold.PLP.part.nonpolar>
-22.6947

> <Gold.PLP.part.repulsive>
0.3744

> <Gold.PLP.ligand.clash>
0.0000

> <Gold.PLP.ligand.torsion>
1.4266

> <Gold.PLP.Chemscore.Hbond>
3.3016

> <Gold.PLP.Chemscore.CHOScore>
0.0000

> <Gold.PLP.Chemscore.Metal>
0.0000

> <Gold.Chemscore.Hbonds>
donor molecule, donor type, donor heavy atom, donor atom, acceptor molecule, acceptor atom, score
      L1  H     3    64       P1 10957  2.00
      L1  H    21    50       P1  8028  1.00
      P1  H  8011  8017       L1    21  0.27

> <Gold.PLP.Chemscore.Internal.Correction>
0.8106

> <Gold.Rescore>
     Score         DG    S(hbond)    S(metal)    S(lipo)     H(rot)  DE(clash)    DE(int)     intcor
     10.45     -13.46       2.12        0.00      71.07       2.90       0.17       2.84       ----

> <Gold.Chemscore.Fitness>
10.4456

> <Gold.Chemscore.DG>
-13.4613

> <Gold.Chemscore.ZeroCoef>
-5.4800

> <Gold.Chemscore.Hbond>
2.1233

> <Gold.Chemscore.Metal>
0.0000

> <Gold.Chemscore.Lipo>
71.0688

> <Gold.Chemscore.Internal_Hbond>
0.0000

> <Gold.Chemscore.DEClash>
0.1745

> <Gold.Chemscore.DEInternal>
2.8411

> <Gold.Chemscore.Rot>
2.9006

> <Gold.Chemscore.Internal.Correction>
   9.000000E+99

> <Gold.Chemscore.Hbonds>
donor molecule, donor type, donor heavy atom, donor atom, acceptor molecule, acceptor atom, score
      L1  H     3    64       P1 10957  0.24
      L1  H    21    50       P1  8028  0.96
      P1  H  8011  8017       L1    21  0.10

> <Gold.Chemscore.Hbond.Weighted>
-7.0919

> <Gold.Chemscore.Metal.Weighted>
-0.0000

> <Gold.Chemscore.Lipo.Weighted>
-8.3150

> <Gold.Chemscore.Internal_Hbond.Weighted>
0.0000

> <Gold.Chemscore.DEClash.Weighted>
0.1745

> <Gold.Chemscore.DEInternal.Weighted>
2.8411

> <Gold.Chemscore.Rot.Weighted>
7.4256

> <Gold.Chemscore.Internal.Correction.Weighted>
   9.000000E+99

> <Gold.Protein.RotatedTorsions>
[ 6907 6896 6895 6894 ] final  -55.21 input  -60.11 | X-H torsion
[ 7974 7965 7964 7962 ] final  133.43 input  175.53 | X-H torsion
[ 8008 7997 7996 7995 ] final  -44.19 input   59.86 | X-H torsion
[ 10167 10162 10161 10158 ] final  -86.25 input  -65.29 | X-H torsion
[ 10718 10713 10712 10709 ] final   91.10 input   66.30 | X-H torsion
[ 10763 10752 10751 10750 ] final  -35.32 input  -60.55 | X-H torsion
[ 11005 11000 10999 10996 ] final   40.76 input  -57.11 | X-H torsion

> <Gold.Protein.ActiveResidues>
 VAL166  LYS551  ARG553  GLY616  TRP617  ASP618  TYR619  PRO620  LYS621  CYS622 
 ASP623  PHE694  ASN695  SER759  ASP760  ASP761  ALA762  ILE779  LEU786  VAL792 
 PHE793  MET794  SER795  GLU796  ALA797  LYS798  CYS799  TRP800  GLU811  SER814 

> <Gold.Protein.RotatedAtoms>
  150.8271  134.7507  159.6821 H   0  0  0  0  0  0  0  0  0  0  0  0  # atno 6907 bound_to 6896
  152.4380  134.5644  159.9913 H   0  0  0  0  0  0  0  0  0  0  0  0  # atno 6908 bound_to 6896
  151.5814  133.3340  159.3045 H   0  0  0  0  0  0  0  0  0  0  0  0  # atno 6909 bound_to 6896
  144.9866  139.4449  143.5360 H   0  0  0  0  0  0  0  0  0  0  0  0  # atno 7974 bound_to 7965
  154.3997  140.1428  156.3643 H   0  0  0  0  0  0  0  0  0  0  0  0  # atno 8008 bound_to 7997
  155.8152  140.3471  155.5460 H   0  0  0  0  0  0  0  0  0  0  0  0  # atno 8009 bound_to 7997
  155.8345  140.0917  157.1762 H   0  0  0  0  0  0  0  0  0  0  0  0  # atno 8010 bound_to 7997
  140.3959  143.2684  151.9204 H   0  0  0  0  0  0  0  0  0  0  0  0  # atno 10167 bound_to 10162
  157.6960  131.0395  150.3677 H   0  0  0  0  0  0  0  0  0  0  0  0  # atno 10718 bound_to 10713
  153.8613  135.6839  153.4782 H   0  0  0  0  0  0  0  0  0  0  0  0  # atno 10763 bound_to 10752
  153.1340  135.4686  154.9391 H   0  0  0  0  0  0  0  0  0  0  0  0  # atno 10764 bound_to 10752
  154.7757  135.3252  154.8046 H   0  0  0  0  0  0  0  0  0  0  0  0  # atno 10765 bound_to 10752
  140.1900  134.3998  155.8152 H   0  0  0  0  0  0  0  0  0  0  0  0  # atno 11005 bound_to 11000
  146.3421  139.9172  142.8772 LP  0  0  0  0  0  0  0  0  0  0  0  0  # atno 17320 bound_to 7965
  145.2344  140.9985  143.3972 LP  0  0  0  0  0  0  0  0  0  0  0  0  # atno 17321 bound_to 7965
  139.4786  144.5681  151.8132 LP  0  0  0  0  0  0  0  0  0  0  0  0  # atno 17342 bound_to 10162
  140.4791  144.1476  150.5929 LP  0  0  0  0  0  0  0  0  0  0  0  0  # atno 17343 bound_to 10162
  156.4106  130.3933  149.6894 LP  0  0  0  0  0  0  0  0  0  0  0  0  # atno 17370 bound_to 10713
  156.4180  130.7754  151.2770 LP  0  0  0  0  0  0  0  0  0  0  0  0  # atno 17371 bound_to 10713
  141.2226  133.7042  156.8079 LP  0  0  0  0  0  0  0  0  0  0  0  0  # atno 17394 bound_to 11000
  140.2170  134.8785  157.3337 LP  0  0  0  0  0  0  0  0  0  0  0  0  # atno 17395 bound_to 11000

$$$$
