AV-unprocessed.smi:266|AV-procd|sdf|2036|dock8
  -GOLD-   2262021253D 1   1.00000     0.00000
 Structure written by MMmdl.
 52 55  0  0  0  0  0  0  0  0  1 V2000
  144.3029  131.0727  149.3155 C   0  0  0  0  0  0  0  0  0  0  0  0
  144.5161  131.8053  150.6498 C   0  0  1  0  0  0  0  0  0  0  0  0
  144.7172  130.8653  151.6965 O   0  0  0  0  0  0  0  0  0  0  0  0
  145.3493  131.5490  152.7624 C   0  0  0  0  0  0  0  0  0  0  0  0
  146.4062  132.3744  152.0422 C   0  0  0  0  0  0  0  0  0  0  0  0
  145.7187  132.7840  150.7337 C   0  0  1  0  0  0  0  0  0  0  0  0
  146.6341  132.5815  149.6705 O   0  0  0  0  0  0  0  0  0  0  0  0
  145.2413  134.2599  150.7023 C   0  0  0  0  0  0  0  0  0  0  0  0
  146.3123  135.2437  150.7809 N   0  0  0  0  0  0  0  0  0  0  0  0
  147.2363  135.5324  149.8027 C   0  0  0  0  0  0  0  0  0  0  0  0
  148.1057  136.4538  150.1131 N   0  0  0  0  0  0  0  0  0  0  0  0
  147.7738  136.8166  151.4137 C   0  0  0  0  0  0  0  0  0  0  0  0
  148.2991  137.7460  152.3600 C   0  0  0  0  0  0  0  0  0  0  0  0
  149.3669  138.5574  152.1603 N   0  0  0  0  0  0  0  0  0  0  0  0
  150.0062  138.3524  150.8669 C   0  0  0  0  0  0  0  0  0  0  0  0
  150.2265  138.9139  153.2889 C   0  0  0  0  0  0  0  0  0  0  0  0
  151.7342  138.9626  152.9408 C   0  0  1  0  0  0  0  0  0  0  0  0
  152.4974  139.8451  153.9495 C   0  0  0  0  0  0  0  0  0  0  0  0
  152.7382  139.0522  155.2422 C   0  0  0  0  0  0  0  0  0  0  0  0
  152.8535  137.2927  154.7407 S   0  0  0  0  0  0  0  0  0  0  0  0
  154.2539  136.8481  154.8043 O   0  0  0  0  0  0  0  0  0  0  0  0
  151.7869  136.5358  155.4136 O   0  0  0  0  0  0  0  0  0  0  0  0
  152.3899  137.5718  152.9907 C   0  0  0  0  0  0  0  0  0  0  0  0
  147.6748  137.8385  153.5618 N   0  0  0  0  0  0  0  0  0  0  0  0
  146.6234  137.0623  153.8376 C   0  0  0  0  0  0  0  0  0  0  0  0
  146.0378  136.1464  153.0645 N   0  0  0  0  0  0  0  0  0  0  0  0
  146.6462  136.0616  151.8472 C   0  0  0  0  0  0  0  0  0  0  0  0
  144.1590  131.7798  148.4981 H   0  0  0  0  0  0  0  0  0  0  0  0
  143.4192  130.4361  149.3624 H   0  0  0  0  0  0  0  0  0  0  0  0
  145.1523  130.4356  149.0675 H   0  0  0  0  0  0  0  0  0  0  0  0
  143.5972  132.3411  150.8938 H   0  0  0  0  0  0  0  0  0  0  0  0
  144.6283  132.1899  153.2724 H   0  0  0  0  0  0  0  0  0  0  0  0
  145.7756  130.8569  153.4891 H   0  0  0  0  0  0  0  0  0  0  0  0
  146.7613  133.2060  152.6485 H   0  0  0  0  0  0  0  0  0  0  0  0
  147.2665  131.7326  151.8430 H   0  0  0  0  0  0  0  0  0  0  0  0
  146.4598  131.7393  149.2789 H   0  0  0  0  0  0  0  0  0  0  0  0
  144.6735  134.4491  149.7900 H   0  0  0  0  0  0  0  0  0  0  0  0
  144.5553  134.4472  151.5297 H   0  0  0  0  0  0  0  0  0  0  0  0
  147.2429  135.0385  148.8417 H   0  0  0  0  0  0  0  0  0  0  0  0
  149.3408  138.6481  150.0552 H   0  0  0  0  0  0  0  0  0  0  0  0
  150.2740  137.3041  150.7291 H   0  0  0  0  0  0  0  0  0  0  0  0
  150.9159  138.9471  150.7810 H   0  0  0  0  0  0  0  0  0  0  0  0
  149.8988  139.8675  153.7020 H   0  0  0  0  0  0  0  0  0  0  0  0
  150.0670  138.1841  154.0831 H   0  0  0  0  0  0  0  0  0  0  0  0
  151.8632  139.3857  151.9449 H   0  0  0  0  0  0  0  0  0  0  0  0
  153.4648  140.1043  153.5176 H   0  0  0  0  0  0  0  0  0  0  0  0
  151.9831  140.7869  154.1442 H   0  0  0  0  0  0  0  0  0  0  0  0
  153.6469  139.3558  155.7616 H   0  0  0  0  0  0  0  0  0  0  0  0
  151.8954  139.1542  155.9260 H   0  0  0  0  0  0  0  0  0  0  0  0
  151.7497  136.7640  152.6353 H   0  0  0  0  0  0  0  0  0  0  0  0
  153.3062  137.5637  152.4000 H   0  0  0  0  0  0  0  0  0  0  0  0
  146.1893  137.1943  154.8177 H   0  0  0  0  0  0  0  0  0  0  0  0
  1  2  1  0  0  0  0
  1 28  1  0  0  0  0
  1 29  1  0  0  0  0
  1 30  1  0  0  0  0
  2  6  1  0  0  0  0
  2  3  1  0  0  0  0
  2 31  1  0  0  0  0
  3  4  1  0  0  0  0
  4  5  1  0  0  0  0
  4 32  1  0  0  0  0
  4 33  1  0  0  0  0
  5  6  1  0  0  0  0
  5 34  1  0  0  0  0
  5 35  1  0  0  0  0
  6  7  1  0  0  0  0
  6  8  1  0  0  0  0
  7 36  1  0  0  0  0
  8  9  1  0  0  0  0
  8 37  1  0  0  0  0
  8 38  1  0  0  0  0
  9 27  1  0  0  0  0
  9 10  1  0  0  0  0
 10 11  2  0  0  0  0
 10 39  1  0  0  0  0
 11 12  1  0  0  0  0
 12 27  2  0  0  0  0
 12 13  1  0  0  0  0
 13 14  1  0  0  0  0
 13 24  2  0  0  0  0
 14 15  1  0  0  0  0
 14 16  1  0  0  0  0
 15 40  1  0  0  0  0
 15 41  1  0  0  0  0
 15 42  1  0  0  0  0
 16 17  1  0  0  0  0
 16 43  1  0  0  0  0
 16 44  1  0  0  0  0
 17 23  1  0  0  0  0
 17 18  1  0  0  0  0
 17 45  1  0  0  0  0
 18 19  1  0  0  0  0
 18 46  1  0  0  0  0
 18 47  1  0  0  0  0
 19 20  1  0  0  0  0
 19 48  1  0  0  0  0
 19 49  1  0  0  0  0
 20 21  2  0  0  0  0
 20 22  2  0  0  0  0
 20 23  1  0  0  0  0
 23 50  1  0  0  0  0
 23 51  1  0  0  0  0
 24 25  1  0  0  0  0
 25 26  2  0  0  0  0
 25 52  1  0  0  0  0
 26 27  1  0  0  0  0
M  END
> <s_m_source_file>
AV-unprocessed.smi

> <i_m_source_file_index>
266

> <i_lp_mmshare_version>
43012

> <i_f3d_flags>
0

> <s_epik_input>
W0NIMl0xW0NIMl1PW0NAQEhdKFtDSDNdKVtDQEBdMShbT0hdKVtDSDJdbihbY0hdbjIpYyhjMjMpbltjSF1uYzNOKFtDSDNdKVtDSDJdW0NAQEhdKFtDSDJdNClbQ0gyXVtDSDJdUzQoPU8pPU8=

> <s_epik_cmdline>
J2VwaWtfcHl0aG9uJywgJy1waCcsICc3LjAnLCAnLXRuJywgJzgnLCAnLW1hJywgJzIwMCcsICctbWV0YWxfYmluZGluZycsICctaW1hZScsICc8aW5maWxlLm1hZT4nLCAnLW9tYWUnLCAnPG91dGZpbGUubWFlPic=

> <r_lp_tautomer_probability>
1

> <r_epik_Ionization_Penalty>
0.00155497

> <r_epik_Ionization_Penalty_Charging>
0

> <r_epik_Ionization_Penalty_Neutral>
0.00155497

> <r_epik_State_Penalty>
-0

> <r_epik_Charging_Adjusted_Penalty>
0

> <i_epik_Tot_Q>
0

> <i_epik_Tot_abs_Q>
0

> <r_epik_Metal_State_Penalty>
-0

> <b_epik_Metal_Only>
0

> <s_lp_Force_Field>
OPLS_2005

> <r_lp_Energy>
31.7584

> <b_lp_Chiralities_Consistent>
1

> <s_lp_Variant>
AV-unprocessed.smi:266-6

> <Gold.Version>
5.8.1

> <Gold.Id.Protein>
6NUR|6NUR_protein|mol2

> <Gold.PLP.Fitness>
43.0467

> <Gold.PLP.PLP>
-34.0885

> <Gold.PLP.part.hbond>
-3.0000

> <Gold.PLP.part.metal>
0.0000

> <Gold.PLP.part.buried>
-5.0899

> <Gold.PLP.part.nonpolar>
-27.0416

> <Gold.PLP.part.repulsive>
0.4787

> <Gold.PLP.ligand.clash>
0.0000

> <Gold.PLP.ligand.torsion>
0.7336

> <Gold.PLP.Chemscore.Hbond>
2.2884

> <Gold.PLP.Chemscore.CHOScore>
1.0000

> <Gold.PLP.Chemscore.Metal>
0.0000

> <Gold.Chemscore.Hbonds>
donor molecule, donor type, donor heavy atom, donor atom, acceptor molecule, acceptor atom, score
      P1  H  7954  7966       L1    11  0.02

> <Gold.PLP.Chemscore.Internal.Correction>
0.5602

> <Gold.Rescore>
     Score         DG    S(hbond)    S(metal)    S(lipo)     H(rot)  DE(clash)    DE(int)     intcor
     13.35     -16.57       2.61        0.00      73.90       2.45       0.14       3.08       ----

> <Gold.Chemscore.Fitness>
13.3481

> <Gold.Chemscore.DG>
-16.5676

> <Gold.Chemscore.ZeroCoef>
-5.4800

> <Gold.Chemscore.Hbond>
2.6064

> <Gold.Chemscore.Metal>
0.0000

> <Gold.Chemscore.Lipo>
73.9033

> <Gold.Chemscore.Internal_Hbond>
0.0000

> <Gold.Chemscore.DEClash>
0.1438

> <Gold.Chemscore.DEInternal>
3.0757

> <Gold.Chemscore.Rot>
2.4471

> <Gold.Chemscore.Internal.Correction>
   9.000000E+99

> <Gold.Chemscore.Hbond.Weighted>
-8.7054

> <Gold.Chemscore.Metal.Weighted>
-0.0000

> <Gold.Chemscore.Lipo.Weighted>
-8.6467

> <Gold.Chemscore.Internal_Hbond.Weighted>
0.0000

> <Gold.Chemscore.DEClash.Weighted>
0.1438

> <Gold.Chemscore.DEInternal.Weighted>
3.0757

> <Gold.Chemscore.Rot.Weighted>
6.2645

> <Gold.Chemscore.Internal.Correction.Weighted>
   9.000000E+99

> <Gold.Protein.RotatedTorsions>
[ 6907 6896 6895 6894 ] final  -29.39 input  -60.11 | X-H torsion
[ 7974 7965 7964 7962 ] final  113.09 input  175.53 | X-H torsion
[ 8008 7997 7996 7995 ] final   -4.10 input   59.86 | X-H torsion
[ 10167 10162 10161 10158 ] final -174.92 input  -65.29 | X-H torsion
[ 10718 10713 10712 10709 ] final   63.02 input   66.30 | X-H torsion
[ 10763 10752 10751 10750 ] final -177.28 input  -60.55 | X-H torsion
[ 11005 11000 10999 10996 ] final  111.71 input  -57.11 | X-H torsion

> <Gold.Protein.ActiveResidues>
 VAL166  LYS551  ARG553  GLY616  TRP617  ASP618  TYR619  PRO620  LYS621  CYS622 
 ASP623  PHE694  ASN695  SER759  ASP760  ASP761  ALA762  ILE779  LEU786  VAL792 
 PHE793  MET794  SER795  GLU796  ALA797  LYS798  CYS799  TRP800  GLU811  SER814 

> <Gold.Protein.RotatedAtoms>
  151.1198  135.0073  159.8533 H   0  0  0  0  0  0  0  0  0  0  0  0  # atno 6907 bound_to 6896
  152.5447  134.1736  159.8617 H   0  0  0  0  0  0  0  0  0  0  0  0  # atno 6908 bound_to 6896
  151.1793  133.4690  159.2627 H   0  0  0  0  0  0  0  0  0  0  0  0  # atno 6909 bound_to 6896
  145.2213  139.2861  143.4217 H   0  0  0  0  0  0  0  0  0  0  0  0  # atno 7974 bound_to 7965
  154.6179  140.2492  155.7586 H   0  0  0  0  0  0  0  0  0  0  0  0  # atno 8008 bound_to 7997
  156.2409  140.2933  156.0392 H   0  0  0  0  0  0  0  0  0  0  0  0  # atno 8009 bound_to 7997
  155.1945  140.0392  157.2896 H   0  0  0  0  0  0  0  0  0  0  0  0  # atno 8010 bound_to 7997
  139.5608  144.1874  152.1236 H   0  0  0  0  0  0  0  0  0  0  0  0  # atno 10167 bound_to 10162
  157.5942  130.9082  149.9662 H   0  0  0  0  0  0  0  0  0  0  0  0  # atno 10718 bound_to 10713
  154.5620  135.2821  155.0910 H   0  0  0  0  0  0  0  0  0  0  0  0  # atno 10763 bound_to 10752
  154.2315  135.6373  153.5180 H   0  0  0  0  0  0  0  0  0  0  0  0  # atno 10764 bound_to 10752
  153.0032  135.5538  154.6217 H   0  0  0  0  0  0  0  0  0  0  0  0  # atno 10765 bound_to 10752
  139.8910  134.9514  156.6474 H   0  0  0  0  0  0  0  0  0  0  0  0  # atno 11005 bound_to 11000
  146.3375  140.2520  142.8599 LP  0  0  0  0  0  0  0  0  0  0  0  0  # atno 17320 bound_to 7965
  144.9763  140.8417  143.5425 LP  0  0  0  0  0  0  0  0  0  0  0  0  # atno 17321 bound_to 7965
  140.1387  144.5222  150.6757 LP  0  0  0  0  0  0  0  0  0  0  0  0  # atno 17342 bound_to 10162
  140.6888  143.2364  151.5189 LP  0  0  0  0  0  0  0  0  0  0  0  0  # atno 17343 bound_to 10162
  156.1001  130.3656  150.0234 LP  0  0  0  0  0  0  0  0  0  0  0  0  # atno 17370 bound_to 10713
  156.8350  130.9406  151.3635 LP  0  0  0  0  0  0  0  0  0  0  0  0  # atno 17371 bound_to 10713
  140.7547  133.8868  155.8373 LP  0  0  0  0  0  0  0  0  0  0  0  0  # atno 17394 bound_to 11000
  140.9971  134.1200  157.4353 LP  0  0  0  0  0  0  0  0  0  0  0  0  # atno 17395 bound_to 11000

$$$$
