AV-unprocessed.smi:41|AV-procd|sdf|384|dock1
  -GOLD-   2262016243D 1   1.00000     0.00000
 Structure written by MMmdl.
 26 27  0  0  0  0  0  0  0  0  1 V2000
  149.9468  138.8566  153.3249 N   0  0  0  0  0  0  0  0  0  0  0  0
  150.1618  139.6733  154.3663 C   0  0  0  0  0  0  0  0  0  0  0  0
  151.2061  139.4600  155.1429 N   0  0  0  0  0  0  0  0  0  0  0  0
  151.5062  140.2373  156.2309 C   0  0  0  0  0  0  0  0  0  0  0  0
  152.4817  139.9732  156.9325 O   0  0  0  0  0  0  0  0  0  0  0  0
  150.6576  141.3408  156.5038 N   0  0  0  0  0  0  0  0  0  0  0  0
  150.8676  142.1653  157.6917 C   0  0  1  0  0  0  0  0  0  0  0  0
  151.2585  141.3732  158.9576 C   0  0  0  0  0  0  0  0  0  0  0  0
  152.1825  142.5076  160.0076 S   0  0  0  0  0  0  0  0  0  0  0  0
  152.2425  143.7130  158.6615 C   0  0  2  0  0  0  0  0  0  0  0  0
  151.3454  144.9352  158.9345 C   0  0  0  0  0  0  0  0  0  0  0  0
  150.7871  145.4161  157.7299 O   0  0  0  0  0  0  0  0  0  0  0  0
  151.8722  143.0964  157.4371 O   0  0  0  0  0  0  0  0  0  0  0  0
  149.5381  141.5514  155.7075 C   0  0  0  0  0  0  0  0  0  0  0  0
  149.2598  140.7669  154.6443 C   0  0  0  0  0  0  0  0  0  0  0  0
  148.1766  140.9924  153.8808 F   0  0  0  0  0  0  0  0  0  0  0  0
  149.9609  142.7301  157.9107 H   0  0  0  0  0  0  0  0  0  0  0  0
  153.2728  144.0525  158.5489 H   0  0  0  0  0  0  0  0  0  0  0  0
  149.1468  139.0044  152.7262 H   0  0  0  0  0  0  0  0  0  0  0  0
  150.5833  138.0940  153.1430 H   0  0  0  0  0  0  0  0  0  0  0  0
  150.3650  140.9981  159.4571 H   0  0  0  0  0  0  0  0  0  0  0  0
  151.9034  140.5271  158.7317 H   0  0  0  0  0  0  0  0  0  0  0  0
  150.5268  144.6575  159.5991 H   0  0  0  0  0  0  0  0  0  0  0  0
  151.8988  145.7387  159.4213 H   0  0  0  0  0  0  0  0  0  0  0  0
  149.8637  145.5652  157.8649 H   0  0  0  0  0  0  0  0  0  0  0  0
  148.8471  142.3498  155.9327 H   0  0  0  0  0  0  0  0  0  0  0  0
  1  2  1  0  0  0  0
  1 19  1  0  0  0  0
  1 20  1  0  0  0  0
  2 15  1  0  0  0  0
  2  3  2  0  0  0  0
  3  4  1  0  0  0  0
  4  5  2  0  0  0  0
  4  6  1  0  0  0  0
  6  7  1  0  0  0  0
  6 14  1  0  0  0  0
  7 17  1  0  0  0  0
  7 13  1  0  0  0  0
  7  8  1  0  0  0  0
  8  9  1  0  0  0  0
  8 21  1  0  0  0  0
  8 22  1  0  0  0  0
  9 10  1  0  0  0  0
 10 18  1  0  0  0  0
 10 11  1  0  0  0  0
 10 13  1  0  0  0  0
 11 12  1  0  0  0  0
 11 23  1  0  0  0  0
 11 24  1  0  0  0  0
 12 25  1  0  0  0  0
 14 15  2  0  0  0  0
 14 26  1  0  0  0  0
 15 16  1  0  0  0  0
M  END
> <s_m_source_file>
AV-unprocessed.smi

> <i_m_source_file_index>
41

> <i_lp_mmshare_version>
43012

> <i_f3d_flags>
0

> <s_epik_input>
W05IMl1jMW5jKD1PKW4oW2NIXWMxRilbQ0BASF0yW0NIMl1TW0NAQEhdKE8yKVtDSDJdW09IXQ==

> <s_epik_cmdline>
J2VwaWtfcHl0aG9uJywgJy1waCcsICc3LjAnLCAnLXRuJywgJzgnLCAnLW1hJywgJzIwMCcsICctbWV0YWxfYmluZGluZycsICctaW1hZScsICc8aW5maWxlLm1hZT4nLCAnLW9tYWUnLCAnPG91dGZpbGUubWFlPic=

> <r_lp_tautomer_probability>
1

> <r_epik_Ionization_Penalty>
0.000101883

> <r_epik_Ionization_Penalty_Charging>
1.48607e-08

> <r_epik_Ionization_Penalty_Neutral>
0.000101868

> <r_epik_State_Penalty>
-0

> <r_epik_Charging_Adjusted_Penalty>
1.48607e-08

> <i_epik_Tot_Q>
0

> <i_epik_Tot_abs_Q>
0

> <r_epik_Metal_State_Penalty>
-0

> <b_epik_Metal_Only>
0

> <s_epik_Chemistry_Notes>
This compound contains an acetal/aminal-like group ( X-CH(R)-Y where X, Y are N, S, or O) that may be acid/base labile, releasing an aldehyde.

> <s_lp_Force_Field>
OPLS_2005

> <r_lp_Energy>
13.4753

> <b_lp_Chiralities_Consistent>
1

> <s_lp_Variant>
AV-unprocessed.smi:41-2

> <Gold.Version>
5.8.1

> <Gold.Id.Protein>
6NUR|6NUR_protein|mol2

> <Gold.PLP.Fitness>
38.1113

> <Gold.PLP.PLP>
-30.6989

> <Gold.PLP.part.hbond>
-5.4745

> <Gold.PLP.part.metal>
0.0000

> <Gold.PLP.part.buried>
2.9926

> <Gold.PLP.part.nonpolar>
-28.8884

> <Gold.PLP.part.repulsive>
0.2164

> <Gold.PLP.ligand.clash>
0.0334

> <Gold.PLP.ligand.torsion>
0.9629

> <Gold.PLP.Chemscore.Hbond>
2.1073

> <Gold.PLP.Chemscore.CHOScore>
1.0000

> <Gold.PLP.Chemscore.Metal>
0.0000

> <Gold.Chemscore.Hbonds>
donor molecule, donor type, donor heavy atom, donor atom, acceptor molecule, acceptor atom, score
      L1  H     1    19       P1  7957  0.24
      L1  H    12    25       P1  8029  0.73
      P1  H  7997  8009       L1     5  1.00
      L1  C    14    26       P1  8028  1.00

> <Gold.PLP.Chemscore.Internal.Correction>
0.0496

> <Gold.Rescore>
     Score         DG    S(hbond)    S(metal)    S(lipo)     H(rot)  DE(clash)    DE(int)     intcor
      8.78     -11.43       1.63        0.00      52.29       2.19       0.30       2.35       ----

> <Gold.Chemscore.Fitness>
8.7796

> <Gold.Chemscore.DG>
-11.4302

> <Gold.Chemscore.ZeroCoef>
-5.4800

> <Gold.Chemscore.Hbond>
1.6304

> <Gold.Chemscore.Metal>
0.0000

> <Gold.Chemscore.Lipo>
52.2931

> <Gold.Chemscore.Internal_Hbond>
0.0000

> <Gold.Chemscore.DEClash>
0.3040

> <Gold.Chemscore.DEInternal>
2.3466

> <Gold.Chemscore.Rot>
2.1929

> <Gold.Chemscore.Internal.Correction>
   9.000000E+99

> <Gold.Chemscore.Hbonds>
donor molecule, donor type, donor heavy atom, donor atom, acceptor molecule, acceptor atom, score
      L1  H     1    19       P1  7957  0.24
      L1  H    12    25       P1  8029  0.10
      P1  H  7997  8009       L1     5  0.99

> <Gold.Chemscore.Hbond.Weighted>
-5.4456

> <Gold.Chemscore.Metal.Weighted>
-0.0000

> <Gold.Chemscore.Lipo.Weighted>
-6.1183

> <Gold.Chemscore.Internal_Hbond.Weighted>
0.0000

> <Gold.Chemscore.DEClash.Weighted>
0.3040

> <Gold.Chemscore.DEInternal.Weighted>
2.3466

> <Gold.Chemscore.Rot.Weighted>
5.6137

> <Gold.Chemscore.Internal.Correction.Weighted>
   9.000000E+99

> <Gold.Protein.RotatedTorsions>
[ 6907 6896 6895 6894 ] final -160.47 input  -60.11 | X-H torsion
[ 7974 7965 7964 7962 ] final -104.04 input  175.53 | X-H torsion
[ 8008 7997 7996 7995 ] final -179.86 input   59.86 | X-H torsion
[ 10167 10162 10161 10158 ] final  -21.53 input  -65.29 | X-H torsion
[ 10718 10713 10712 10709 ] final -171.39 input   66.30 | X-H torsion
[ 10763 10752 10751 10750 ] final  160.28 input  -60.55 | X-H torsion
[ 11005 11000 10999 10996 ] final  165.06 input  -57.11 | X-H torsion

> <Gold.Protein.ActiveResidues>
 VAL166  LYS551  ARG553  GLY616  TRP617  ASP618  TYR619  PRO620  LYS621  CYS622 
 ASP623  PHE694  ASN695  SER759  ASP760  ASP761  ALA762  ILE779  LEU786  VAL792 
 PHE793  MET794  SER795  GLU796  ALA797  LYS798  CYS799  TRP800  GLU811  SER814 

> <Gold.Protein.RotatedAtoms>
  151.3495  133.3931  159.2678 H   0  0  0  0  0  0  0  0  0  0  0  0  # atno 6907 bound_to 6896
  150.9812  134.9168  159.7856 H   0  0  0  0  0  0  0  0  0  0  0  0  # atno 6908 bound_to 6896
  152.5217  134.3459  159.9286 H   0  0  0  0  0  0  0  0  0  0  0  0  # atno 6909 bound_to 6896
  145.2482  140.9229  143.3110 H   0  0  0  0  0  0  0  0  0  0  0  0  # atno 7974 bound_to 7965
  156.0353  140.1291  157.0214 H   0  0  0  0  0  0  0  0  0  0  0  0  # atno 8008 bound_to 7997
  154.4367  140.1041  156.6229 H   0  0  0  0  0  0  0  0  0  0  0  0  # atno 8009 bound_to 7997
  155.5746  140.3467  155.4526 H   0  0  0  0  0  0  0  0  0  0  0  0  # atno 8010 bound_to 7997
  140.7282  143.4619  151.0368 H   0  0  0  0  0  0  0  0  0  0  0  0  # atno 10167 bound_to 10162
  156.7402  130.9339  151.3109 H   0  0  0  0  0  0  0  0  0  0  0  0  # atno 10718 bound_to 10713
  154.2450  135.2773  155.2839 H   0  0  0  0  0  0  0  0  0  0  0  0  # atno 10763 bound_to 10752
  154.5513  135.5674  153.6928 H   0  0  0  0  0  0  0  0  0  0  0  0  # atno 10764 bound_to 10752
  152.9992  135.6275  154.2595 H   0  0  0  0  0  0  0  0  0  0  0  0  # atno 10765 bound_to 10752
  140.2523  134.7967  157.3513 H   0  0  0  0  0  0  0  0  0  0  0  0  # atno 11005 bound_to 11000
  144.9527  139.4065  143.6394 LP  0  0  0  0  0  0  0  0  0  0  0  0  # atno 17320 bound_to 7965
  146.3310  139.8542  142.8868 LP  0  0  0  0  0  0  0  0  0  0  0  0  # atno 17321 bound_to 7965
  139.8304  143.7699  152.3179 LP  0  0  0  0  0  0  0  0  0  0  0  0  # atno 17342 bound_to 10162
  139.7812  144.7443  151.0085 LP  0  0  0  0  0  0  0  0  0  0  0  0  # atno 17343 bound_to 10162
  157.6822  130.9150  150.0295 LP  0  0  0  0  0  0  0  0  0  0  0  0  # atno 17370 bound_to 10713
  156.1470  130.3642  149.9496 LP  0  0  0  0  0  0  0  0  0  0  0  0  # atno 17371 bound_to 10713
  140.1546  134.4806  155.7937 LP  0  0  0  0  0  0  0  0  0  0  0  0  # atno 17394 bound_to 11000
  141.2200  133.6876  156.7438 LP  0  0  0  0  0  0  0  0  0  0  0  0  # atno 17395 bound_to 11000

$$$$
