AV-unprocessed.smi:1041|AV-procd|sdf|4529|dock9
  -GOLD-   22720 2553D 1   1.00000     0.00000
 Structure written by MMmdl.
 53 54  0  0  0  0  0  0  0  0  2 V2000
  144.7297  132.4619  149.7302 C   0  0  0  0  0  0  0  0  0  0  0  0
  145.5867  131.4900  150.3038 O   0  0  0  0  0  0  0  0  0  0  0  0
  145.1095  131.0110  151.5501 C   0  0  0  0  0  0  0  0  0  0  0  0
  146.1203  129.9987  152.1107 C   0  0  0  0  0  0  0  0  0  0  0  0
  147.3996  130.6379  152.5103 N   0  3  2  0  0  0  0  0  0  0  0  0
  148.1522  129.8222  153.4982 C   0  0  0  0  0  0  0  0  0  0  0  0
  149.5313  130.4382  153.8014 C   0  0  0  0  0  0  0  0  0  0  0  0
  149.4271  131.9007  154.2731 C   0  0  2  0  0  0  0  0  0  0  0  0
  148.9017  132.0065  155.7244 C   0  0  0  0  0  0  0  0  0  0  0  0
  148.7089  133.3938  156.1320 N   0  0  0  0  0  0  0  0  0  0  0  0
  149.3056  133.9902  157.1759 C   0  0  0  0  0  0  0  0  0  0  0  0
  150.1514  133.4428  157.8824 O   0  0  0  0  0  0  0  0  0  0  0  0
  148.8461  135.4128  157.4906 C   0  0  0  0  0  0  0  0  0  0  0  0
  148.5126  135.6628  158.9599 C   0  0  0  0  0  0  0  0  0  0  0  0
  149.2111  136.5318  159.7485 C   0  0  0  0  0  0  0  0  0  0  0  0
  150.3864  137.3486  159.2399 C   0  0  0  0  0  0  0  0  0  0  0  0
  148.8797  136.7289  161.0962 N   0  0  0  0  0  0  0  0  0  0  0  0
  147.8895  136.0669  161.5971 C   0  0  0  0  0  0  0  0  0  0  0  0
  147.4304  136.1920  163.0346 C   0  0  0  0  0  0  0  0  0  0  0  0
  147.1410  135.1597  160.8493 N   0  0  0  0  0  0  0  0  0  0  0  0
  147.3901  134.9043  159.5455 C   0  0  0  0  0  0  0  0  0  0  0  0
  146.7117  134.0817  158.9321 O   0  0  0  0  0  0  0  0  0  0  0  0
  148.6058  132.6941  153.2349 C   0  0  0  0  0  0  0  0  0  0  0  0
  147.2386  132.0441  152.9657 C   0  0  0  0  0  0  0  0  0  0  0  0
  146.3810  134.6669  161.2952 H   0  0  0  0  0  0  0  0  0  0  0  0
  145.1374  132.7916  148.7747 H   0  0  0  0  0  0  0  0  0  0  0  0
  144.6379  133.3362  150.3762 H   0  0  0  0  0  0  0  0  0  0  0  0
  143.7346  132.0535  149.5490 H   0  0  0  0  0  0  0  0  0  0  0  0
  144.9400  131.8357  152.2427 H   0  0  0  0  0  0  0  0  0  0  0  0
  144.1478  130.5170  151.4033 H   0  0  0  0  0  0  0  0  0  0  0  0
  145.6958  129.4645  152.9619 H   0  0  0  0  0  0  0  0  0  0  0  0
  146.3063  129.2490  151.3403 H   0  0  0  0  0  0  0  0  0  0  0  0
  147.5653  129.7187  154.4116 H   0  0  0  0  0  0  0  0  0  0  0  0
  148.2957  128.8152  153.1047 H   0  0  0  0  0  0  0  0  0  0  0  0
  150.0543  129.8364  154.5454 H   0  0  0  0  0  0  0  0  0  0  0  0
  150.1420  130.3970  152.8984 H   0  0  0  0  0  0  0  0  0  0  0  0
  150.4358  132.3166  154.2763 H   0  0  0  0  0  0  0  0  0  0  0  0
  147.9842  131.4319  155.8540 H   0  0  0  0  0  0  0  0  0  0  0  0
  149.6275  131.5634  156.4069 H   0  0  0  0  0  0  0  0  0  0  0  0
  148.0280  133.9291  155.6119 H   0  0  0  0  0  0  0  0  0  0  0  0
  149.6280  136.1009  157.1697 H   0  0  0  0  0  0  0  0  0  0  0  0
  147.9888  135.6635  156.8636 H   0  0  0  0  0  0  0  0  0  0  0  0
  150.0684  138.0259  158.4470 H   0  0  0  0  0  0  0  0  0  0  0  0
  151.1688  136.6982  158.8501 H   0  0  0  0  0  0  0  0  0  0  0  0
  150.8232  137.9521  160.0363 H   0  0  0  0  0  0  0  0  0  0  0  0
  148.2398  135.9190  163.7121 H   0  0  0  0  0  0  0  0  0  0  0  0
  146.5769  135.5453  163.2435 H   0  0  0  0  0  0  0  0  0  0  0  0
  147.1382  137.2208  163.2461 H   0  0  0  0  0  0  0  0  0  0  0  0
  148.4760  133.7318  153.5418 H   0  0  0  0  0  0  0  0  0  0  0  0
  149.1637  132.7362  152.2985 H   0  0  0  0  0  0  0  0  0  0  0  0
  146.7189  132.6303  152.2092 H   0  0  0  0  0  0  0  0  0  0  0  0
  146.6179  132.0727  153.8621 H   0  0  0  0  0  0  0  0  0  0  0  0
  147.9726  130.6628  151.6786 H   0  0  0  0  0  0  0  0  0  0  0  0
  1  2  1  0  0  0  0
  1 26  1  0  0  0  0
  1 27  1  0  0  0  0
  1 28  1  0  0  0  0
  2  3  1  0  0  0  0
  3  4  1  0  0  0  0
  3 29  1  0  0  0  0
  3 30  1  0  0  0  0
  4  5  1  0  0  0  0
  4 31  1  0  0  0  0
  4 32  1  0  0  0  0
  5 24  1  0  0  0  0
  5  6  1  0  0  0  0
  5 53  1  0  0  0  0
  6  7  1  0  0  0  0
  6 33  1  0  0  0  0
  6 34  1  0  0  0  0
  7  8  1  0  0  0  0
  7 35  1  0  0  0  0
  7 36  1  0  0  0  0
  8  9  1  0  0  0  0
  8 23  1  0  0  0  0
  8 37  1  0  0  0  0
  9 10  1  0  0  0  0
  9 38  1  0  0  0  0
  9 39  1  0  0  0  0
 10 11  1  0  0  0  0
 10 40  1  0  0  0  0
 11 12  2  0  0  0  0
 11 13  1  0  0  0  0
 13 14  1  0  0  0  0
 13 41  1  0  0  0  0
 13 42  1  0  0  0  0
 14 21  1  0  0  0  0
 14 15  2  0  0  0  0
 15 16  1  0  0  0  0
 15 17  1  0  0  0  0
 16 43  1  0  0  0  0
 16 44  1  0  0  0  0
 16 45  1  0  0  0  0
 17 18  2  0  0  0  0
 18 19  1  0  0  0  0
 18 20  1  0  0  0  0
 19 46  1  0  0  0  0
 19 47  1  0  0  0  0
 19 48  1  0  0  0  0
 20 25  1  0  0  0  0
 20 21  1  0  0  0  0
 21 22  2  0  0  0  0
 23 24  1  0  0  0  0
 23 49  1  0  0  0  0
 23 50  1  0  0  0  0
 24 51  1  0  0  0  0
 24 52  1  0  0  0  0
M  CHG  1   5   1
M  END
> <s_m_source_file>
AV-unprocessed.smi

> <i_m_source_file_index>
1041

> <i_lp_mmshare_version>
43012

> <i_f3d_flags>
0

> <s_epik_input>
W0NIM11PW0NIMl1bQ0gyXU4xW0NIMl1bQ0gyXVtDSF0oW0NIMl1bQ0gyXTEpW0NIMl1bTkhdQyg9TylbQ0gyXWMyYyhbQ0gzXSluYyhbQ0gzXSlbbkhdYzI9Tw==

> <s_epik_cmdline>
J2VwaWtfcHl0aG9uJywgJy1waCcsICc3LjAnLCAnLXRuJywgJzgnLCAnLW1hJywgJzIwMCcsICctbWV0YWxfYmluZGluZycsICctaW1hZScsICc8aW5maWxlLm1hZT4nLCAnLW9tYWUnLCAnPG91dGZpbGUubWFlPic=

> <r_lp_tautomer_probability>
0.839158

> <r_epik_Ionization_Penalty>
0.00964357

> <r_epik_Ionization_Penalty_Charging>
0.00961423

> <r_epik_Ionization_Penalty_Neutral>
2.93415e-05

> <r_epik_State_Penalty>
0.0972512

> <r_epik_Charging_Adjusted_Penalty>
0.106865

> <i_epik_Tot_Q>
1

> <i_epik_Tot_abs_Q>
1

> <r_epik_Metal_State_Penalty>
0.270886

> <b_epik_Metal_Only>
0

> <s_lp_Force_Field>
OPLS_2005

> <r_lp_Energy>
21.6557

> <b_lp_Chiralities_Consistent>
1

> <s_lp_Variant>
AV-unprocessed.smi:1041-2

> <Gold.Version>
5.8.1

> <Gold.Id.Protein>
6NUR|6NUR_protein|mol2

> <Gold.PLP.Fitness>
46.3883

> <Gold.PLP.PLP>
-38.2658

> <Gold.PLP.part.hbond>
-3.0000

> <Gold.PLP.part.metal>
0.0000

> <Gold.PLP.part.buried>
-6.6682

> <Gold.PLP.part.nonpolar>
-30.2289

> <Gold.PLP.part.repulsive>
0.1811

> <Gold.PLP.ligand.clash>
0.0000

> <Gold.PLP.ligand.torsion>
0.4907

> <Gold.PLP.Chemscore.Hbond>
2.9920

> <Gold.PLP.Chemscore.CHOScore>
0.0000

> <Gold.PLP.Chemscore.Metal>
0.0000

> <Gold.Chemscore.Hbonds>
donor molecule, donor type, donor heavy atom, donor atom, acceptor molecule, acceptor atom, score
      L1  H     5    53       P1 10747  1.00
      P1  H  6896  6909       L1    12  1.00
      P1  H  6931  6943       L1    17  1.00

> <Gold.PLP.Chemscore.Internal.Correction>
0.1280

> <Gold.Rescore>
     Score         DG    S(hbond)    S(metal)    S(lipo)     H(rot)  DE(clash)    DE(int)     intcor
     18.55     -19.15       2.90        0.00      87.08       2.43       0.11       0.49       ----

> <Gold.Chemscore.Fitness>
18.5469

> <Gold.Chemscore.DG>
-19.1517

> <Gold.Chemscore.ZeroCoef>
-5.4800

> <Gold.Chemscore.Hbond>
2.9049

> <Gold.Chemscore.Metal>
0.0000

> <Gold.Chemscore.Lipo>
87.0754

> <Gold.Chemscore.Internal_Hbond>
0.0000

> <Gold.Chemscore.DEClash>
0.1124

> <Gold.Chemscore.DEInternal>
0.4925

> <Gold.Chemscore.Rot>
2.4291

> <Gold.Chemscore.Internal.Correction>
   9.000000E+99

> <Gold.Chemscore.Hbonds>
donor molecule, donor type, donor heavy atom, donor atom, acceptor molecule, acceptor atom, score
      L1  H     5    53       P1 10747  1.00
      P1  H  6896  6909       L1    12  0.95
      P1  H  6931  6943       L1    17  0.76

> <Gold.Chemscore.Hbond.Weighted>
-9.7025

> <Gold.Chemscore.Metal.Weighted>
-0.0000

> <Gold.Chemscore.Lipo.Weighted>
-10.1878

> <Gold.Chemscore.Internal_Hbond.Weighted>
0.0000

> <Gold.Chemscore.DEClash.Weighted>
0.1124

> <Gold.Chemscore.DEInternal.Weighted>
0.4925

> <Gold.Chemscore.Rot.Weighted>
6.2186

> <Gold.Chemscore.Internal.Correction.Weighted>
   9.000000E+99

> <Gold.Protein.RotatedTorsions>
[ 6907 6896 6895 6894 ] final    1.89 input  -60.11 | X-H torsion
[ 7974 7965 7964 7962 ] final -175.76 input  175.53 | X-H torsion
[ 8008 7997 7996 7995 ] final   37.85 input   59.86 | X-H torsion
[ 10167 10162 10161 10158 ] final  -76.63 input  -65.29 | X-H torsion
[ 10718 10713 10712 10709 ] final   93.71 input   66.30 | X-H torsion
[ 10763 10752 10751 10750 ] final   82.50 input  -60.55 | X-H torsion
[ 11005 11000 10999 10996 ] final   36.13 input  -57.11 | X-H torsion

> <Gold.Protein.ActiveResidues>
 VAL166  LYS551  ARG553  GLY616  TRP617  ASP618  TYR619  PRO620  LYS621  CYS622 
 ASP623  PHE694  ASN695  SER759  ASP760  ASP761  ALA762  ILE779  LEU786  VAL792 
 PHE793  MET794  SER795  GLU796  ALA797  LYS798  CYS799  TRP800  GLU811  SER814 

> <Gold.Protein.RotatedAtoms>
  151.5999  135.1048  160.0057 H   0  0  0  0  0  0  0  0  0  0  0  0  # atno 6907 bound_to 6896
  152.4263  133.7197  159.6537 H   0  0  0  0  0  0  0  0  0  0  0  0  # atno 6908 bound_to 6896
  150.8152  133.8278  159.3186 H   0  0  0  0  0  0  0  0  0  0  0  0  # atno 6909 bound_to 6896
  144.7127  140.1273  143.6401 H   0  0  0  0  0  0  0  0  0  0  0  0  # atno 7974 bound_to 7965
  155.2106  140.3323  155.4329 H   0  0  0  0  0  0  0  0  0  0  0  0  # atno 8008 bound_to 7997
  156.2372  140.1878  156.7136 H   0  0  0  0  0  0  0  0  0  0  0  0  # atno 8009 bound_to 7997
  154.6080  140.0613  156.9443 H   0  0  0  0  0  0  0  0  0  0  0  0  # atno 8010 bound_to 7997
  140.4840  143.2395  151.8013 H   0  0  0  0  0  0  0  0  0  0  0  0  # atno 10167 bound_to 10162
  157.6953  131.0487  150.4075 H   0  0  0  0  0  0  0  0  0  0  0  0  # atno 10718 bound_to 10713
  153.1208  135.4726  154.9192 H   0  0  0  0  0  0  0  0  0  0  0  0  # atno 10763 bound_to 10752
  154.7574  135.3122  154.8447 H   0  0  0  0  0  0  0  0  0  0  0  0  # atno 10764 bound_to 10752
  153.9012  135.6875  153.4809 H   0  0  0  0  0  0  0  0  0  0  0  0  # atno 10765 bound_to 10752
  140.2356  134.3475  155.7946 H   0  0  0  0  0  0  0  0  0  0  0  0  # atno 11005 bound_to 11000
  145.9318  139.2611  143.1320 LP  0  0  0  0  0  0  0  0  0  0  0  0  # atno 17320 bound_to 7965
  145.9515  140.8905  143.0257 LP  0  0  0  0  0  0  0  0  0  0  0  0  # atno 17321 bound_to 7965
  139.4838  144.4736  151.9395 LP  0  0  0  0  0  0  0  0  0  0  0  0  # atno 17342 bound_to 10162
  140.3822  144.2722  150.5907 LP  0  0  0  0  0  0  0  0  0  0  0  0  # atno 17343 bound_to 10162
  156.4462  130.4002  149.6665 LP  0  0  0  0  0  0  0  0  0  0  0  0  # atno 17370 bound_to 10713
  156.3830  130.7589  151.2583 LP  0  0  0  0  0  0  0  0  0  0  0  0  # atno 17371 bound_to 10713
  141.2214  133.7270  156.8803 LP  0  0  0  0  0  0  0  0  0  0  0  0  # atno 17394 bound_to 11000
  140.1705  134.9103  157.2828 LP  0  0  0  0  0  0  0  0  0  0  0  0  # atno 17395 bound_to 11000

$$$$
