AV-unprocessed.smi:2279|AV-procd|sdf|9184|dock2
  -GOLD-   2272012403D 1   1.00000     0.00000
 Structure written by MMmdl.
 58 60  0  0  0  0  0  0  0  0  3 V2000
  154.0205  140.8339  161.5351 C   0  0  0  0  0  0  0  0  0  0  0  0
  153.1087  141.5877  160.5897 C   0  0  0  0  0  0  0  0  0  0  0  0
  152.7357  142.9194  160.8542 C   0  0  0  0  0  0  0  0  0  0  0  0
  151.8832  143.5653  159.9376 C   0  0  0  0  0  0  0  0  0  0  0  0
  151.4469  144.9986  160.1564 C   0  0  0  0  0  0  0  0  0  0  0  0
  151.4074  142.9658  158.8253 N   0  0  0  0  0  0  0  0  0  0  0  0
  151.7603  141.6835  158.5601 C   0  0  0  0  0  0  0  0  0  0  0  0
  151.3252  140.9703  157.4112 N   0  0  0  0  0  0  0  0  0  0  0  0
  150.1458  141.0702  156.7726 C   0  0  0  0  0  0  0  0  0  0  0  0
  149.2004  141.7738  157.1297 O   0  0  0  0  0  0  0  0  0  0  0  0
  150.1099  140.2843  155.6859 N   0  0  0  0  0  0  0  0  0  0  0  0
  148.9647  140.1472  154.7902 C   0  0  2  0  0  0  0  0  0  0  0  0
  148.5566  141.5185  154.2174 C   0  0  0  0  0  0  0  0  0  0  0  0
  147.2585  141.4174  153.3906 C   0  0  0  0  0  0  0  0  0  0  0  0
  146.1368  140.8187  154.1721 N   0  3  2  0  0  0  0  0  0  0  0  0
  145.5391  141.7210  155.2160 C   0  0  2  0  0  0  0  0  0  0  0  0
  144.3624  141.0628  155.9813 C   0  0  0  0  0  0  0  0  0  0  0  0
  143.7025  142.0215  156.9872 C   0  0  0  0  0  0  0  0  0  0  0  0
  143.2340  143.2582  156.3207 N   0  3  1  0  0  0  0  0  0  0  0  0
  142.4899  144.1470  157.2393 C   0  0  0  0  0  0  0  0  0  0  0  0
  144.3455  143.9557  155.6340 C   0  0  0  0  0  0  0  0  0  0  0  0
  145.0180  143.0415  154.5954 C   0  0  0  0  0  0  0  0  0  0  0  0
  146.5337  139.4580  154.6363 C   0  0  0  0  0  0  0  0  0  0  0  0
  147.7827  139.5056  155.5367 C   0  0  0  0  0  0  0  0  0  0  0  0
  152.6159  140.9650  159.4252 C   0  0  0  0  0  0  0  0  0  0  0  0
  154.4193  141.4912  162.3082 H   0  0  0  0  0  0  0  0  0  0  0  0
  154.8600  140.4022  160.9900 H   0  0  0  0  0  0  0  0  0  0  0  0
  153.4735  140.0261  162.0217 H   0  0  0  0  0  0  0  0  0  0  0  0
  153.0937  143.4322  161.7351 H   0  0  0  0  0  0  0  0  0  0  0  0
  151.9955  145.4571  160.9797 H   0  0  0  0  0  0  0  0  0  0  0  0
  150.3827  145.0381  160.3903 H   0  0  0  0  0  0  0  0  0  0  0  0
  151.6247  145.5922  159.2592 H   0  0  0  0  0  0  0  0  0  0  0  0
  151.9912  140.3147  157.0305 H   0  0  0  0  0  0  0  0  0  0  0  0
  150.9320  139.7417  155.4651 H   0  0  0  0  0  0  0  0  0  0  0  0
  149.2286  139.4879  153.9606 H   0  0  0  0  0  0  0  0  0  0  0  0
  148.4320  142.2418  155.0237 H   0  0  0  0  0  0  0  0  0  0  0  0
  149.3577  141.9079  153.5878 H   0  0  0  0  0  0  0  0  0  0  0  0
  146.9971  142.3854  152.9695 H   0  0  0  0  0  0  0  0  0  0  0  0
  147.4436  140.7794  152.5249 H   0  0  0  0  0  0  0  0  0  0  0  0
  146.3081  141.9664  155.9487 H   0  0  0  0  0  0  0  0  0  0  0  0
  143.6128  140.7040  155.2741 H   0  0  0  0  0  0  0  0  0  0  0  0
  144.7023  140.1969  156.5482 H   0  0  0  0  0  0  0  0  0  0  0  0
  142.8576  141.5223  157.4635 H   0  0  0  0  0  0  0  0  0  0  0  0
  144.4075  142.2771  157.7802 H   0  0  0  0  0  0  0  0  0  0  0  0
  143.1302  144.4985  158.0494 H   0  0  0  0  0  0  0  0  0  0  0  0
  141.6399  143.6229  157.6779 H   0  0  0  0  0  0  0  0  0  0  0  0
  142.1037  145.0165  156.7062 H   0  0  0  0  0  0  0  0  0  0  0  0
  143.9629  144.8486  155.1379 H   0  0  0  0  0  0  0  0  0  0  0  0
  145.0783  144.2917  156.3697 H   0  0  0  0  0  0  0  0  0  0  0  0
  145.8264  143.6127  154.1428 H   0  0  0  0  0  0  0  0  0  0  0  0
  144.3105  142.8188  153.7951 H   0  0  0  0  0  0  0  0  0  0  0  0
  145.7146  138.9317  155.1224 H   0  0  0  0  0  0  0  0  0  0  0  0
  146.7580  138.8535  153.7562 H   0  0  0  0  0  0  0  0  0  0  0  0
  148.0487  138.4944  155.8472 H   0  0  0  0  0  0  0  0  0  0  0  0
  147.5648  140.0589  156.4509 H   0  0  0  0  0  0  0  0  0  0  0  0
  152.8907  139.9440  159.2020 H   0  0  0  0  0  0  0  0  0  0  0  0
  145.3927  140.6636  153.5065 H   0  0  0  0  0  0  0  0  0  0  0  0
  142.5787  142.9757  155.6055 H   0  0  0  0  0  0  0  0  0  0  0  0
  1  2  1  0  0  0  0
  1 26  1  0  0  0  0
  1 27  1  0  0  0  0
  1 28  1  0  0  0  0
  2 25  1  0  0  0  0
  2  3  2  0  0  0  0
  3  4  1  0  0  0  0
  3 29  1  0  0  0  0
  4  5  1  0  0  0  0
  4  6  2  0  0  0  0
  5 30  1  0  0  0  0
  5 31  1  0  0  0  0
  5 32  1  0  0  0  0
  6  7  1  0  0  0  0
  7  8  1  0  0  0  0
  7 25  2  0  0  0  0
  8  9  1  0  0  0  0
  8 33  1  0  0  0  0
  9 10  2  0  0  0  0
  9 11  1  0  0  0  0
 11 12  1  0  0  0  0
 11 34  1  0  0  0  0
 12 24  1  0  0  0  0
 12 13  1  0  0  0  0
 12 35  1  0  0  0  0
 13 14  1  0  0  0  0
 13 36  1  0  0  0  0
 13 37  1  0  0  0  0
 14 15  1  0  0  0  0
 14 38  1  0  0  0  0
 14 39  1  0  0  0  0
 15 16  1  0  0  0  0
 15 23  1  0  0  0  0
 15 57  1  0  0  0  0
 16 22  1  0  0  0  0
 16 17  1  0  0  0  0
 16 40  1  0  0  0  0
 17 18  1  0  0  0  0
 17 41  1  0  0  0  0
 17 42  1  0  0  0  0
 18 19  1  0  0  0  0
 18 43  1  0  0  0  0
 18 44  1  0  0  0  0
 19 20  1  0  0  0  0
 19 21  1  0  0  0  0
 19 58  1  0  0  0  0
 20 45  1  0  0  0  0
 20 46  1  0  0  0  0
 20 47  1  0  0  0  0
 21 22  1  0  0  0  0
 21 48  1  0  0  0  0
 21 49  1  0  0  0  0
 22 50  1  0  0  0  0
 22 51  1  0  0  0  0
 23 24  1  0  0  0  0
 23 52  1  0  0  0  0
 23 53  1  0  0  0  0
 24 54  1  0  0  0  0
 24 55  1  0  0  0  0
 25 56  1  0  0  0  0
M  CHG  1  15   1
M  CHG  1  19   1
M  END
> <s_m_source_file>
AV-unprocessed.smi

> <i_m_source_file_index>
2279

> <i_lp_mmshare_version>
43012

> <i_f3d_flags>
0

> <s_epik_input>
W0NIM11jMVtjSF1jKFtDSDNdKW5jKFtjSF0xKVtOSF1DKD1PKVtOSF1bQ0hdMltDSDJdW0NIMl1OKFtDSDJdW0NIMl0yKVtDSF0zW0NIMl1bQ0gyXU4oW0NIM10pW0NIMl1bQ0gyXTM=

> <s_epik_cmdline>
J2VwaWtfcHl0aG9uJywgJy1waCcsICc3LjAnLCAnLXRuJywgJzgnLCAnLW1hJywgJzIwMCcsICctbWV0YWxfYmluZGluZycsICctaW1hZScsICc8aW5maWxlLm1hZT4nLCAnLW9tYWUnLCAnPG91dGZpbGUubWFlPic=

> <r_epik_Ionization_Penalty>
0.180973

> <r_epik_Ionization_Penalty_Charging>
0.180787

> <r_epik_Ionization_Penalty_Neutral>
0.000186186

> <r_epik_State_Penalty>
0.153592

> <r_epik_Charging_Adjusted_Penalty>
0.334379

> <i_epik_Tot_Q>
2

> <i_epik_Tot_abs_Q>
2

> <r_epik_Metal_State_Penalty>
0.153604

> <b_epik_Metal_Only>
0

> <s_lp_Force_Field>
OPLS_2005

> <r_lp_Energy>
44.6219

> <b_lp_Chiralities_Consistent>
1

> <s_lp_Variant>
AV-unprocessed.smi:2279-2

> <Gold.Version>
5.8.1

> <Gold.Id.Protein>
6NUR|6NUR_protein|mol2

> <Gold.PLP.Fitness>
48.8260

> <Gold.PLP.PLP>
-43.2984

> <Gold.PLP.part.hbond>
-1.0000

> <Gold.PLP.part.metal>
0.0000

> <Gold.PLP.part.buried>
-7.3939

> <Gold.PLP.part.nonpolar>
-35.8693

> <Gold.PLP.part.repulsive>
0.5577

> <Gold.PLP.ligand.clash>
0.0000

> <Gold.PLP.ligand.torsion>
0.2707

> <Gold.PLP.Chemscore.Hbond>
2.0000

> <Gold.PLP.Chemscore.CHOScore>
0.0000

> <Gold.PLP.Chemscore.Metal>
0.0000

> <Gold.Chemscore.Hbonds>
donor molecule, donor type, donor heavy atom, donor atom, acceptor molecule, acceptor atom, score
      L1  H    15    57       P1 10175  2.00

> <Gold.PLP.Chemscore.Internal.Correction>
0.0689

> <Gold.Rescore>
     Score         DG    S(hbond)    S(metal)    S(lipo)     H(rot)  DE(clash)    DE(int)     intcor
     16.16     -18.52       0.98        0.00     109.94       1.21       0.05       2.31       ----

> <Gold.Chemscore.Fitness>
16.1609

> <Gold.Chemscore.DG>
-18.5217

> <Gold.Chemscore.ZeroCoef>
-5.4800

> <Gold.Chemscore.Hbond>
0.9807

> <Gold.Chemscore.Metal>
0.0000

> <Gold.Chemscore.Lipo>
109.9366

> <Gold.Chemscore.Internal_Hbond>
0.0000

> <Gold.Chemscore.DEClash>
0.0506

> <Gold.Chemscore.DEInternal>
2.3103

> <Gold.Chemscore.Rot>
1.2095

> <Gold.Chemscore.Internal.Correction>
   9.000000E+99

> <Gold.Chemscore.Hbonds>
donor molecule, donor type, donor heavy atom, donor atom, acceptor molecule, acceptor atom, score
      L1  H    15    57       P1 10175  0.89

> <Gold.Chemscore.Hbond.Weighted>
-3.2754

> <Gold.Chemscore.Metal.Weighted>
-0.0000

> <Gold.Chemscore.Lipo.Weighted>
-12.8626

> <Gold.Chemscore.Internal_Hbond.Weighted>
0.0000

> <Gold.Chemscore.DEClash.Weighted>
0.0506

> <Gold.Chemscore.DEInternal.Weighted>
2.3103

> <Gold.Chemscore.Rot.Weighted>
3.0963

> <Gold.Chemscore.Internal.Correction.Weighted>
   9.000000E+99

> <Gold.Protein.RotatedTorsions>
[ 6907 6896 6895 6894 ] final  -39.34 input  -60.11 | X-H torsion
[ 7974 7965 7964 7962 ] final  -11.72 input  175.53 | X-H torsion
[ 8008 7997 7996 7995 ] final   10.06 input   59.86 | X-H torsion
[ 10167 10162 10161 10158 ] final  -40.14 input  -65.29 | X-H torsion
[ 10718 10713 10712 10709 ] final  157.22 input   66.30 | X-H torsion
[ 10763 10752 10751 10750 ] final -119.42 input  -60.55 | X-H torsion
[ 11005 11000 10999 10996 ] final -142.28 input  -57.11 | X-H torsion

> <Gold.Protein.ActiveResidues>
 VAL166  LYS551  ARG553  GLY616  TRP617  ASP618  TYR619  PRO620  LYS621  CYS622 
 ASP623  PHE694  ASN695  SER759  ASP760  ASP761  ALA762  ILE779  LEU786  VAL792 
 PHE793  MET794  SER795  GLU796  ALA797  LYS798  CYS799  TRP800  GLU811  SER814 

> <Gold.Protein.RotatedAtoms>
  150.9915  134.9249  159.7902 H   0  0  0  0  0  0  0  0  0  0  0  0  # atno 6907 bound_to 6896
  152.5252  134.3275  159.9180 H   0  0  0  0  0  0  0  0  0  0  0  0  # atno 6908 bound_to 6896
  151.3280  133.3971  159.2694 H   0  0  0  0  0  0  0  0  0  0  0  0  # atno 6909 bound_to 6896
  146.2178  140.2952  142.8371 H   0  0  0  0  0  0  0  0  0  0  0  0  # atno 7974 bound_to 7965
  154.7883  140.2831  155.6011 H   0  0  0  0  0  0  0  0  0  0  0  0  # atno 8008 bound_to 7997
  156.2960  140.2609  156.2653 H   0  0  0  0  0  0  0  0  0  0  0  0  # atno 8009 bound_to 7997
  154.9700  140.0376  157.2220 H   0  0  0  0  0  0  0  0  0  0  0  0  # atno 8010 bound_to 7997
  140.7043  143.3171  151.2883 H   0  0  0  0  0  0  0  0  0  0  0  0  # atno 10167 bound_to 10162
  157.1944  131.0662  151.2061 H   0  0  0  0  0  0  0  0  0  0  0  0  # atno 10718 bound_to 10713
  154.8616  135.4239  154.2296 H   0  0  0  0  0  0  0  0  0  0  0  0  # atno 10763 bound_to 10752
  153.3283  135.6986  153.6975 H   0  0  0  0  0  0  0  0  0  0  0  0  # atno 10764 bound_to 10752
  153.6002  135.3538  155.2916 H   0  0  0  0  0  0  0  0  0  0  0  0  # atno 10765 bound_to 10752
  140.8241  134.2596  157.4887 H   0  0  0  0  0  0  0  0  0  0  0  0  # atno 11005 bound_to 11000
  144.9098  140.7743  143.5815 LP  0  0  0  0  0  0  0  0  0  0  0  0  # atno 17320 bound_to 7965
  145.2882  139.1893  143.4754 LP  0  0  0  0  0  0  0  0  0  0  0  0  # atno 17321 bound_to 7965
  139.6613  144.0184  152.2694 LP  0  0  0  0  0  0  0  0  0  0  0  0  # atno 17342 bound_to 10162
  139.9752  144.6466  150.7951 LP  0  0  0  0  0  0  0  0  0  0  0  0  # atno 17343 bound_to 10162
  157.3829  130.7241  149.6643 LP  0  0  0  0  0  0  0  0  0  0  0  0  # atno 17370 bound_to 10713
  155.9708  130.4167  150.4245 LP  0  0  0  0  0  0  0  0  0  0  0  0  # atno 17371 bound_to 10713
  139.8707  134.9551  156.4196 LP  0  0  0  0  0  0  0  0  0  0  0  0  # atno 17394 bound_to 11000
  140.9068  133.7740  155.9745 LP  0  0  0  0  0  0  0  0  0  0  0  0  # atno 17395 bound_to 11000

$$$$
