AV-unprocessed.smi:431|AV-procd|sdf|2548|dock9
  -GOLD-   2262022513D 1   1.00000     0.00000
 Structure written by MMmdl.
 43 44  0  0  0  0  0  0  0  0  1 V2000
  144.1413  134.5720  151.4045 C   0  0  0  0  0  0  0  0  0  0  0  0
  144.9619  135.8166  151.0315 C   0  0  0  0  0  0  0  0  0  0  0  0
  145.1124  136.8434  152.1757 C   0  0  1  0  0  0  0  0  0  0  0  0
  145.5978  136.1621  153.4667 C   0  0  0  0  0  0  0  0  0  0  0  0
  146.0645  137.9890  151.7999 C   0  0  0  0  0  0  0  0  0  0  0  0
  146.6437  137.9817  150.7133 O   0  0  0  0  0  0  0  0  0  0  0  0
  146.2204  138.9610  152.7124 N   0  0  0  0  0  0  0  0  0  0  0  0
  147.1017  140.1171  152.5825 C   0  0  0  0  0  0  0  0  0  0  0  0
  148.1463  140.1882  153.6838 C   0  0  0  0  0  0  0  0  0  0  0  0
  148.4841  141.4190  154.2793 C   0  0  0  0  0  0  0  0  0  0  0  0
  149.4517  141.4414  155.3019 C   0  0  0  0  0  0  0  0  0  0  0  0
  150.0650  140.2292  155.7007 C   0  0  0  0  0  0  0  0  0  0  0  0
  151.0358  140.2250  156.7264 N   0  0  0  0  0  0  0  0  0  0  0  0
  150.9222  141.2283  157.7841 C   0  0  0  0  0  0  0  0  0  0  0  0
  152.2079  141.2674  158.6270 C   0  0  0  0  0  0  0  0  0  0  0  0
  152.4901  139.9667  159.1318 O   0  0  0  0  0  0  0  0  0  0  0  0
  152.7079  139.0283  158.0836 C   0  0  0  0  0  0  0  0  0  0  0  0
  151.4418  138.9100  157.2176 C   0  0  0  0  0  0  0  0  0  0  0  0
  149.7361  139.0470  155.1232 N   0  0  0  0  0  0  0  0  0  0  0  0
  148.8080  139.0310  154.1438 C   0  0  0  0  0  0  0  0  0  0  0  0
  144.1224  133.8613  150.5783 H   0  0  0  0  0  0  0  0  0  0  0  0
  143.1078  134.8251  151.6415 H   0  0  0  0  0  0  0  0  0  0  0  0
  144.5699  134.0638  152.2685 H   0  0  0  0  0  0  0  0  0  0  0  0
  145.9538  135.4890  150.7184 H   0  0  0  0  0  0  0  0  0  0  0  0
  144.5177  136.2927  150.1561 H   0  0  0  0  0  0  0  0  0  0  0  0
  144.1275  137.2667  152.3806 H   0  0  0  0  0  0  0  0  0  0  0  0
  145.7104  136.8824  154.2783 H   0  0  0  0  0  0  0  0  0  0  0  0
  146.5602  135.6689  153.3231 H   0  0  0  0  0  0  0  0  0  0  0  0
  144.8866  135.4060  153.8001 H   0  0  0  0  0  0  0  0  0  0  0  0
  145.7004  138.8835  153.5744 H   0  0  0  0  0  0  0  0  0  0  0  0
  147.6054  140.1233  151.6145 H   0  0  0  0  0  0  0  0  0  0  0  0
  146.4824  141.0143  152.6061 H   0  0  0  0  0  0  0  0  0  0  0  0
  148.0050  142.3351  153.9664 H   0  0  0  0  0  0  0  0  0  0  0  0
  149.6967  142.3799  155.7756 H   0  0  0  0  0  0  0  0  0  0  0  0
  150.7443  142.2148  157.3539 H   0  0  0  0  0  0  0  0  0  0  0  0
  150.0669  140.9887  158.4174 H   0  0  0  0  0  0  0  0  0  0  0  0
  153.0498  141.6307  158.0353 H   0  0  0  0  0  0  0  0  0  0  0  0
  152.0873  141.9549  159.4643 H   0  0  0  0  0  0  0  0  0  0  0  0
  153.5642  139.3331  157.4797 H   0  0  0  0  0  0  0  0  0  0  0  0
  152.9553  138.0607  158.5200 H   0  0  0  0  0  0  0  0  0  0  0  0
  150.6262  138.4883  157.8063 H   0  0  0  0  0  0  0  0  0  0  0  0
  151.6366  138.2142  156.4031 H   0  0  0  0  0  0  0  0  0  0  0  0
  148.5895  138.0632  153.7177 H   0  0  0  0  0  0  0  0  0  0  0  0
  1  2  1  0  0  0  0
  1 21  1  0  0  0  0
  1 22  1  0  0  0  0
  1 23  1  0  0  0  0
  2  3  1  0  0  0  0
  2 24  1  0  0  0  0
  2 25  1  0  0  0  0
  3  4  1  0  0  0  0
  3  5  1  0  0  0  0
  3 26  1  0  0  0  0
  4 27  1  0  0  0  0
  4 28  1  0  0  0  0
  4 29  1  0  0  0  0
  5  6  2  0  0  0  0
  5  7  1  0  0  0  0
  7  8  1  0  0  0  0
  7 30  1  0  0  0  0
  8  9  1  0  0  0  0
  8 31  1  0  0  0  0
  8 32  1  0  0  0  0
  9 20  1  0  0  0  0
  9 10  2  0  0  0  0
 10 11  1  0  0  0  0
 10 33  1  0  0  0  0
 11 12  2  0  0  0  0
 11 34  1  0  0  0  0
 12 13  1  0  0  0  0
 12 19  1  0  0  0  0
 13 18  1  0  0  0  0
 13 14  1  0  0  0  0
 14 15  1  0  0  0  0
 14 35  1  0  0  0  0
 14 36  1  0  0  0  0
 15 16  1  0  0  0  0
 15 37  1  0  0  0  0
 15 38  1  0  0  0  0
 16 17  1  0  0  0  0
 17 18  1  0  0  0  0
 17 39  1  0  0  0  0
 17 40  1  0  0  0  0
 18 41  1  0  0  0  0
 18 42  1  0  0  0  0
 19 20  2  0  0  0  0
 20 43  1  0  0  0  0
M  END
> <s_m_source_file>
AV-unprocessed.smi

> <i_m_source_file_index>
431

> <i_lp_mmshare_version>
43012

> <i_f3d_flags>
0

> <s_epik_input>
W0NIM11bQ0gyXVtDQEhdKFtDSDNdKUMoPU8pW05IXVtDSDJdYzFbY0hdW2NIXWMobltjSF0xKU4yW0NIMl1bQ0gyXU9bQ0gyXVtDSDJdMg==

> <s_epik_cmdline>
J2VwaWtfcHl0aG9uJywgJy1waCcsICc3LjAnLCAnLXRuJywgJzgnLCAnLW1hJywgJzIwMCcsICctbWV0YWxfYmluZGluZycsICctaW1hZScsICc8aW5maWxlLm1hZT4nLCAnLW9tYWUnLCAnPG91dGZpbGUubWFlPic=

> <r_lp_tautomer_probability>
1

> <r_epik_Ionization_Penalty>
0.00513882

> <r_epik_Ionization_Penalty_Charging>
0

> <r_epik_Ionization_Penalty_Neutral>
0.00513882

> <r_epik_State_Penalty>
0.00374265

> <r_epik_Charging_Adjusted_Penalty>
0.00374265

> <i_epik_Tot_Q>
0

> <i_epik_Tot_abs_Q>
0

> <r_epik_Metal_State_Penalty>
-0

> <b_epik_Metal_Only>
0

> <s_lp_Force_Field>
OPLS_2005

> <r_lp_Energy>
17.352

> <b_lp_Chiralities_Consistent>
1

> <s_lp_Variant>
AV-unprocessed.smi:431-2

> <Gold.Version>
5.8.1

> <Gold.Id.Protein>
6NUR|6NUR_protein|mol2

> <Gold.PLP.Fitness>
34.9241

> <Gold.PLP.PLP>
-30.0967

> <Gold.PLP.part.hbond>
-1.6857

> <Gold.PLP.part.metal>
0.0000

> <Gold.PLP.part.buried>
1.3508

> <Gold.PLP.part.nonpolar>
-31.5045

> <Gold.PLP.part.repulsive>
1.5251

> <Gold.PLP.ligand.clash>
0.0000

> <Gold.PLP.ligand.torsion>
0.7746

> <Gold.PLP.Chemscore.Hbond>
1.0000

> <Gold.PLP.Chemscore.CHOScore>
0.9948

> <Gold.PLP.Chemscore.Metal>
0.0000

> <Gold.Chemscore.Hbonds>
donor molecule, donor type, donor heavy atom, donor atom, acceptor molecule, acceptor atom, score
      P1  H  7954  7966       L1     6  1.00
      L1  C    20    43       P1  7948  0.78

> <Gold.PLP.Chemscore.Internal.Correction>
0.3922

> <Gold.Rescore>
     Score         DG    S(hbond)    S(metal)    S(lipo)     H(rot)  DE(clash)    DE(int)     intcor
     11.28     -13.58       1.00        0.00      76.72       1.64       1.57       0.73       ----

> <Gold.Chemscore.Fitness>
11.2806

> <Gold.Chemscore.DG>
-13.5813

> <Gold.Chemscore.ZeroCoef>
-5.4800

> <Gold.Chemscore.Hbond>
0.9955

> <Gold.Chemscore.Metal>
0.0000

> <Gold.Chemscore.Lipo>
76.7224

> <Gold.Chemscore.Internal_Hbond>
0.0000

> <Gold.Chemscore.DEClash>
1.5683

> <Gold.Chemscore.DEInternal>
0.7324

> <Gold.Chemscore.Rot>
1.6407

> <Gold.Chemscore.Internal.Correction>
   9.000000E+99

> <Gold.Chemscore.Hbonds>
donor molecule, donor type, donor heavy atom, donor atom, acceptor molecule, acceptor atom, score
      P1  H  7954  7966       L1     6  0.98

> <Gold.Chemscore.Hbond.Weighted>
-3.3249

> <Gold.Chemscore.Metal.Weighted>
-0.0000

> <Gold.Chemscore.Lipo.Weighted>
-8.9765

> <Gold.Chemscore.Internal_Hbond.Weighted>
0.0000

> <Gold.Chemscore.DEClash.Weighted>
1.5683

> <Gold.Chemscore.DEInternal.Weighted>
0.7324

> <Gold.Chemscore.Rot.Weighted>
4.2001

> <Gold.Chemscore.Internal.Correction.Weighted>
   9.000000E+99

> <Gold.Protein.RotatedTorsions>
[ 6907 6896 6895 6894 ] final  -97.64 input  -60.11 | X-H torsion
[ 7974 7965 7964 7962 ] final  -27.59 input  175.53 | X-H torsion
[ 8008 7997 7996 7995 ] final   55.18 input   59.86 | X-H torsion
[ 10167 10162 10161 10158 ] final  165.08 input  -65.29 | X-H torsion
[ 10718 10713 10712 10709 ] final -115.20 input   66.30 | X-H torsion
[ 10763 10752 10751 10750 ] final  -81.96 input  -60.55 | X-H torsion
[ 11005 11000 10999 10996 ] final  108.83 input  -57.11 | X-H torsion

> <Gold.Protein.ActiveResidues>
 VAL166  LYS551  ARG553  GLY616  TRP617  ASP618  TYR619  PRO620  LYS621  CYS622 
 ASP623  PHE694  ASN695  SER759  ASP760  ASP761  ALA762  ILE779  LEU786  VAL792 
 PHE793  MET794  SER795  GLU796  ALA797  LYS798  CYS799  TRP800  GLU811  SER814 

> <Gold.Protein.RotatedAtoms>
  150.7022  134.1317  159.4071 H   0  0  0  0  0  0  0  0  0  0  0  0  # atno 6907 bound_to 6896
  151.9303  135.0257  160.0538 H   0  0  0  0  0  0  0  0  0  0  0  0  # atno 6908 bound_to 6896
  152.2181  133.4927  159.5184 H   0  0  0  0  0  0  0  0  0  0  0  0  # atno 6909 bound_to 6896
  146.1347  140.5171  142.8678 H   0  0  0  0  0  0  0  0  0  0  0  0  # atno 7974 bound_to 7965
  155.4969  140.3473  155.4364 H   0  0  0  0  0  0  0  0  0  0  0  0  # atno 8008 bound_to 7997
  156.0940  140.1418  156.9583 H   0  0  0  0  0  0  0  0  0  0  0  0  # atno 8009 bound_to 7997
  154.4652  140.0920  156.6978 H   0  0  0  0  0  0  0  0  0  0  0  0  # atno 8010 bound_to 7997
  139.4900  144.4169  151.9233 H   0  0  0  0  0  0  0  0  0  0  0  0  # atno 10167 bound_to 10162
  156.0880  130.6068  150.8875 H   0  0  0  0  0  0  0  0  0  0  0  0  # atno 10718 bound_to 10713
  154.5700  135.5608  153.7086 H   0  0  0  0  0  0  0  0  0  0  0  0  # atno 10763 bound_to 10752
  153.0045  135.6294  154.2128 H   0  0  0  0  0  0  0  0  0  0  0  0  # atno 10764 bound_to 10752
  154.2067  135.2875  155.2952 H   0  0  0  0  0  0  0  0  0  0  0  0  # atno 10765 bound_to 10752
  139.8851  134.9441  156.6033 H   0  0  0  0  0  0  0  0  0  0  0  0  # atno 11005 bound_to 11000
  144.7727  140.5673  143.6659 LP  0  0  0  0  0  0  0  0  0  0  0  0  # atno 17320 bound_to 7965
  145.5182  139.1477  143.3567 LP  0  0  0  0  0  0  0  0  0  0  0  0  # atno 17321 bound_to 7965
  140.3611  144.2971  150.5933 LP  0  0  0  0  0  0  0  0  0  0  0  0  # atno 17342 bound_to 10162
  140.5401  143.2225  151.8098 LP  0  0  0  0  0  0  0  0  0  0  0  0  # atno 17343 bound_to 10162
  157.6021  131.0941  150.8943 LP  0  0  0  0  0  0  0  0  0  0  0  0  # atno 17370 bound_to 10713
  156.9098  130.5276  149.5280 LP  0  0  0  0  0  0  0  0  0  0  0  0  # atno 17371 bound_to 10713
  140.7867  133.8616  155.8612 LP  0  0  0  0  0  0  0  0  0  0  0  0  # atno 17394 bound_to 11000
  140.9713  134.1527  157.4574 LP  0  0  0  0  0  0  0  0  0  0  0  0  # atno 17395 bound_to 11000

$$$$
