AV-unprocessed.smi:65|AV-procd|sdf|614|dock7
  -GOLD-   2262016503D 1   1.00000     0.00000
 Structure written by MMmdl.
 25 26  0  0  0  0  0  0  0  0  1 V2000
  142.7930  132.7265  147.9920 N   0  0  0  0  0  0  0  0  0  0  0  0
  143.9077  132.7504  148.7937 C   0  0  0  0  0  0  0  0  0  0  0  0
  144.9028  131.9269  148.4583 N   0  0  0  0  0  0  0  0  0  0  0  0
  145.9980  131.9470  149.2486 C   0  0  0  0  0  0  0  0  0  0  0  0
  146.0888  132.7946  150.3714 C   0  0  0  0  0  0  0  0  0  0  0  0
  144.9784  133.6280  150.6233 C   0  0  0  0  0  0  0  0  0  0  0  0
  144.9926  134.4816  151.7371 N   0  0  0  0  0  0  0  0  0  0  0  0
  143.9140  134.2255  152.6881 C   0  0  0  0  0  0  0  0  0  0  0  0
  143.1907  135.5582  152.8974 C   0  0  0  0  0  0  0  0  0  0  0  0
  144.2830  136.5793  152.6035 C   0  0  2  0  0  0  0  0  0  0  0  0
  143.7634  137.8411  152.2422 O   0  0  0  0  0  0  0  0  0  0  0  0
  145.0473  135.9149  151.4603 C   0  0  0  0  0  0  0  0  0  0  0  0
  143.8816  133.5939  149.8276 N   0  0  0  0  0  0  0  0  0  0  0  0
  142.0057  133.3253  148.1936 H   0  0  0  0  0  0  0  0  0  0  0  0
  142.7491  132.1062  147.1966 H   0  0  0  0  0  0  0  0  0  0  0  0
  146.8065  131.2814  148.9852 H   0  0  0  0  0  0  0  0  0  0  0  0
  146.9649  132.8040  151.0031 H   0  0  0  0  0  0  0  0  0  0  0  0
  143.2250  133.4488  152.3525 H   0  0  0  0  0  0  0  0  0  0  0  0
  144.3603  133.8867  153.6236 H   0  0  0  0  0  0  0  0  0  0  0  0
  142.3828  135.6508  152.1695 H   0  0  0  0  0  0  0  0  0  0  0  0
  142.7622  135.6600  153.8948 H   0  0  0  0  0  0  0  0  0  0  0  0
  144.9329  136.6857  153.4736 H   0  0  0  0  0  0  0  0  0  0  0  0
  143.8391  137.9402  151.3054 H   0  0  0  0  0  0  0  0  0  0  0  0
  146.0796  136.2628  151.4172 H   0  0  0  0  0  0  0  0  0  0  0  0
  144.5780  136.1541  150.5053 H   0  0  0  0  0  0  0  0  0  0  0  0
  1  2  1  0  0  0  0
  1 14  1  0  0  0  0
  1 15  1  0  0  0  0
  2 13  1  0  0  0  0
  2  3  2  0  0  0  0
  3  4  1  0  0  0  0
  4  5  2  0  0  0  0
  4 16  1  0  0  0  0
  5  6  1  0  0  0  0
  5 17  1  0  0  0  0
  6  7  1  0  0  0  0
  6 13  2  0  0  0  0
  7 12  1  0  0  0  0
  7  8  1  0  0  0  0
  8  9  1  0  0  0  0
  8 18  1  0  0  0  0
  8 19  1  0  0  0  0
  9 10  1  0  0  0  0
  9 20  1  0  0  0  0
  9 21  1  0  0  0  0
 10 11  1  0  0  0  0
 10 12  1  0  0  0  0
 10 22  1  0  0  0  0
 11 23  1  0  0  0  0
 12 24  1  0  0  0  0
 12 25  1  0  0  0  0
M  END
> <s_m_source_file>
AV-unprocessed.smi

> <i_m_source_file_index>
65

> <i_lp_mmshare_version>
43012

> <i_f3d_flags>
0

> <s_epik_input>
W05IMl1jMW5bY0hdW2NIXWMobjEpTjJbQ0gyXVtDSDJdW0NAQEhdKFtPSF0pW0NIMl0y

> <s_epik_cmdline>
J2VwaWtfcHl0aG9uJywgJy1waCcsICc3LjAnLCAnLXRuJywgJzgnLCAnLW1hJywgJzIwMCcsICctbWV0YWxfYmluZGluZycsICctaW1hZScsICc8aW5maWxlLm1hZT4nLCAnLW9tYWUnLCAnPG91dGZpbGUubWFlPic=

> <r_lp_tautomer_probability>
1

> <r_epik_Ionization_Penalty>
0.99295

> <r_epik_Ionization_Penalty_Charging>
0

> <r_epik_Ionization_Penalty_Neutral>
0.99295

> <r_epik_State_Penalty>
0.750885

> <r_epik_Charging_Adjusted_Penalty>
0.750885

> <i_epik_Tot_Q>
0

> <i_epik_Tot_abs_Q>
0

> <r_epik_Metal_State_Penalty>
0.338511

> <b_epik_Metal_Only>
0

> <s_lp_Force_Field>
OPLS_2005

> <r_lp_Energy>
21.5088

> <b_lp_Chiralities_Consistent>
1

> <s_lp_Variant>
AV-unprocessed.smi:65-4

> <Gold.Version>
5.8.1

> <Gold.Id.Protein>
6NUR|6NUR_protein|mol2

> <Gold.PLP.Fitness>
35.9713

> <Gold.PLP.PLP>
-26.8758

> <Gold.PLP.part.hbond>
-6.0000

> <Gold.PLP.part.metal>
0.0000

> <Gold.PLP.part.buried>
-5.3308

> <Gold.PLP.part.nonpolar>
-18.1251

> <Gold.PLP.part.repulsive>
1.6649

> <Gold.PLP.ligand.clash>
0.0000

> <Gold.PLP.ligand.torsion>
0.0708

> <Gold.PLP.Chemscore.Hbond>
2.0780

> <Gold.PLP.Chemscore.CHOScore>
0.9791

> <Gold.PLP.Chemscore.Metal>
0.0000

> <Gold.Chemscore.Hbonds>
donor molecule, donor type, donor heavy atom, donor atom, acceptor molecule, acceptor atom, score
      L1  H     1    14       P1 10186  0.99
      L1  H     1    15       P1 10195  0.10
      L1  H    11    23       P1 10171  1.00
      L1  C     4    16       P1 10747  0.98

> <Gold.PLP.Chemscore.Internal.Correction>
0.0659

> <Gold.Rescore>
     Score         DG    S(hbond)    S(metal)    S(lipo)     H(rot)  DE(clash)    DE(int)     intcor
     12.84     -12.95       2.07        0.00      38.59       1.55       0.07       0.04       ----

> <Gold.Chemscore.Fitness>
12.8416

> <Gold.Chemscore.DG>
-12.9507

> <Gold.Chemscore.ZeroCoef>
-5.4800

> <Gold.Chemscore.Hbond>
2.0725

> <Gold.Chemscore.Metal>
0.0000

> <Gold.Chemscore.Lipo>
38.5943

> <Gold.Chemscore.Internal_Hbond>
0.0000

> <Gold.Chemscore.DEClash>
0.0659

> <Gold.Chemscore.DEInternal>
0.0432

> <Gold.Chemscore.Rot>
1.5496

> <Gold.Chemscore.Internal.Correction>
   9.000000E+99

> <Gold.Chemscore.Hbonds>
donor molecule, donor type, donor heavy atom, donor atom, acceptor molecule, acceptor atom, score
      L1  H     1    14       P1 10186  0.91
      L1  H     1    15       P1 10195  0.10
      L1  H    11    23       P1 10171  0.99

> <Gold.Chemscore.Hbond.Weighted>
-6.9222

> <Gold.Chemscore.Metal.Weighted>
-0.0000

> <Gold.Chemscore.Lipo.Weighted>
-4.5155

> <Gold.Chemscore.Internal_Hbond.Weighted>
0.0000

> <Gold.Chemscore.DEClash.Weighted>
0.0659

> <Gold.Chemscore.DEInternal.Weighted>
0.0432

> <Gold.Chemscore.Rot.Weighted>
3.9670

> <Gold.Chemscore.Internal.Correction.Weighted>
   9.000000E+99

> <Gold.Protein.RotatedTorsions>
[ 6907 6896 6895 6894 ] final  -53.18 input  -60.11 | X-H torsion
[ 7974 7965 7964 7962 ] final -138.53 input  175.53 | X-H torsion
[ 8008 7997 7996 7995 ] final -163.46 input   59.86 | X-H torsion
[ 10167 10162 10161 10158 ] final   36.40 input  -65.29 | X-H torsion
[ 10718 10713 10712 10709 ] final -135.92 input   66.30 | X-H torsion
[ 10763 10752 10751 10750 ] final  -20.54 input  -60.55 | X-H torsion
[ 11005 11000 10999 10996 ] final  -98.40 input  -57.11 | X-H torsion

> <Gold.Protein.ActiveResidues>
 VAL166  LYS551  ARG553  GLY616  TRP617  ASP618  TYR619  PRO620  LYS621  CYS622 
 ASP623  PHE694  ASN695  SER759  ASP760  ASP761  ALA762  ILE779  LEU786  VAL792 
 PHE793  MET794  SER795  GLU796  ALA797  LYS798  CYS799  TRP800  GLU811  SER814 

> <Gold.Protein.RotatedAtoms>
  150.8450  134.7755  159.6962 H   0  0  0  0  0  0  0  0  0  0  0  0  # atno 6907 bound_to 6896
  152.4528  134.5352  159.9832 H   0  0  0  0  0  0  0  0  0  0  0  0  # atno 6908 bound_to 6896
  151.5485  133.3383  159.2984 H   0  0  0  0  0  0  0  0  0  0  0  0  # atno 6909 bound_to 6896
  144.8751  140.6424  143.5242 H   0  0  0  0  0  0  0  0  0  0  0  0  # atno 7974 bound_to 7965
  155.8217  140.0920  157.1845 H   0  0  0  0  0  0  0  0  0  0  0  0  # atno 8008 bound_to 7997
  154.3979  140.1435  156.3567 H   0  0  0  0  0  0  0  0  0  0  0  0  # atno 8009 bound_to 7997
  155.8260  140.3444  155.5545 H   0  0  0  0  0  0  0  0  0  0  0  0  # atno 8010 bound_to 7997
  140.4131  144.1564  150.6141 H   0  0  0  0  0  0  0  0  0  0  0  0  # atno 10167 bound_to 10162
  156.2714  130.7267  151.1236 H   0  0  0  0  0  0  0  0  0  0  0  0  # atno 10718 bound_to 10713
  153.6220  135.6992  153.5307 H   0  0  0  0  0  0  0  0  0  0  0  0  # atno 10763 bound_to 10752
  153.2929  135.4151  155.1183 H   0  0  0  0  0  0  0  0  0  0  0  0  # atno 10764 bound_to 10752
  154.8541  135.3630  154.5761 H   0  0  0  0  0  0  0  0  0  0  0  0  # atno 10765 bound_to 10752
  141.1346  133.8243  157.0835 H   0  0  0  0  0  0  0  0  0  0  0  0  # atno 11005 bound_to 11000
  145.4058  139.1589  143.4152 LP  0  0  0  0  0  0  0  0  0  0  0  0  # atno 17320 bound_to 7965
  146.2957  140.4158  142.8723 LP  0  0  0  0  0  0  0  0  0  0  0  0  # atno 17321 bound_to 7965
  140.4616  143.2447  151.9212 LP  0  0  0  0  0  0  0  0  0  0  0  0  # atno 17342 bound_to 10162
  139.4782  144.5462  151.8455 LP  0  0  0  0  0  0  0  0  0  0  0  0  # atno 17343 bound_to 10162
  157.7285  131.0631  150.5817 LP  0  0  0  0  0  0  0  0  0  0  0  0  # atno 17370 bound_to 10713
  156.5914  130.4330  149.5935 LP  0  0  0  0  0  0  0  0  0  0  0  0  # atno 17371 bound_to 10713
  140.0437  134.9841  157.1008 LP  0  0  0  0  0  0  0  0  0  0  0  0  # atno 17394 bound_to 11000
  140.4096  134.1995  155.7163 LP  0  0  0  0  0  0  0  0  0  0  0  0  # atno 17395 bound_to 11000

$$$$
