AV-unprocessed.smi:1389|AV-procd|sdf|5647|dock2
  -GOLD-   22720 5263D 1   1.00000     0.00000
 Structure written by MMmdl.
 51 53  0  0  0  0  0  0  0  0  1 V2000
  147.0024  141.7822  154.1561 C   0  0  0  0  0  0  0  0  0  0  0  0
  147.6622  140.3868  154.2411 C   0  0  1  0  0  0  0  0  0  0  0  0
  147.3222  139.6064  152.9447 C   0  0  0  0  0  0  0  0  0  0  0  0
  145.9139  139.2193  152.8945 N   0  0  0  0  0  0  0  0  0  0  0  0
  145.4464  137.9639  152.9329 C   0  0  0  0  0  0  0  0  0  0  0  0
  146.1660  136.9655  152.9646 O   0  0  0  0  0  0  0  0  0  0  0  0
  144.1040  137.9496  152.9641 N   0  0  0  0  0  0  0  0  0  0  0  0
  143.2425  136.8194  153.0439 C   0  0  0  0  0  0  0  0  0  0  0  0
  143.7082  135.5005  152.8244 C   0  0  0  0  0  0  0  0  0  0  0  0
  142.8004  134.4297  152.9049 C   0  0  0  0  0  0  0  0  0  0  0  0
  141.4549  134.7167  153.1937 C   0  0  0  0  0  0  0  0  0  0  0  0
  140.9928  135.9685  153.3882 N   0  0  0  0  0  0  0  0  0  0  0  0
  141.8606  137.0075  153.3168 C   0  0  0  0  0  0  0  0  0  0  0  0
  141.3428  138.3072  153.4957 N   0  0  0  0  0  0  0  0  0  0  0  0
  139.9151  138.4158  153.2104 C   0  0  0  0  0  0  0  0  0  0  0  0
  139.3611  139.4583  154.1824 C   0  0  0  0  0  0  0  0  0  0  0  0
  140.2932  139.3347  155.3815 C   0  0  0  0  0  0  0  0  0  0  0  0
  141.6415  139.0386  154.7265 C   0  0  0  0  0  0  0  0  0  0  0  0
  149.1082  140.4363  154.5518 N   0  0  0  0  0  0  0  0  0  0  0  0
  149.3918  141.1585  155.7956 C   0  0  0  0  0  0  0  0  0  0  0  0
  150.8936  141.1975  156.1268 C   0  0  0  0  0  0  0  0  0  0  0  0
  151.4015  139.8719  156.2025 O   0  0  0  0  0  0  0  0  0  0  0  0
  151.2080  139.1525  154.9919 C   0  0  0  0  0  0  0  0  0  0  0  0
  149.7084  139.1025  154.6526 C   0  0  0  0  0  0  0  0  0  0  0  0
  145.9752  141.7128  153.7969 H   0  0  0  0  0  0  0  0  0  0  0  0
  147.5439  142.4406  153.4760 H   0  0  0  0  0  0  0  0  0  0  0  0
  146.9526  142.2709  155.1286 H   0  0  0  0  0  0  0  0  0  0  0  0
  147.1633  139.8596  155.0557 H   0  0  0  0  0  0  0  0  0  0  0  0
  147.5491  140.1949  152.0569 H   0  0  0  0  0  0  0  0  0  0  0  0
  147.9704  138.7326  152.8600 H   0  0  0  0  0  0  0  0  0  0  0  0
  145.2425  139.9729  152.8774 H   0  0  0  0  0  0  0  0  0  0  0  0
  143.6502  138.8475  153.0477 H   0  0  0  0  0  0  0  0  0  0  0  0
  144.7402  135.2960  152.5829 H   0  0  0  0  0  0  0  0  0  0  0  0
  143.1280  133.4133  152.7442 H   0  0  0  0  0  0  0  0  0  0  0  0
  140.7281  133.9210  153.2619 H   0  0  0  0  0  0  0  0  0  0  0  0
  139.7411  138.7079  152.1747 H   0  0  0  0  0  0  0  0  0  0  0  0
  139.4257  137.4540  153.3748 H   0  0  0  0  0  0  0  0  0  0  0  0
  139.4497  140.4549  153.7474 H   0  0  0  0  0  0  0  0  0  0  0  0
  138.3137  139.2900  154.4338 H   0  0  0  0  0  0  0  0  0  0  0  0
  140.3110  140.2291  156.0049 H   0  0  0  0  0  0  0  0  0  0  0  0
  139.9891  138.4914  156.0032 H   0  0  0  0  0  0  0  0  0  0  0  0
  142.3167  138.5227  155.4090 H   0  0  0  0  0  0  0  0  0  0  0  0
  142.1298  139.9720  154.4454 H   0  0  0  0  0  0  0  0  0  0  0  0
  149.0457  142.1887  155.7269 H   0  0  0  0  0  0  0  0  0  0  0  0
  148.8505  140.6975  156.6233 H   0  0  0  0  0  0  0  0  0  0  0  0
  151.4416  141.7627  155.3712 H   0  0  0  0  0  0  0  0  0  0  0  0
  151.0580  141.6966  157.0819 H   0  0  0  0  0  0  0  0  0  0  0  0
  151.7708  139.6237  154.1847 H   0  0  0  0  0  0  0  0  0  0  0  0
  151.6033  138.1436  155.1109 H   0  0  0  0  0  0  0  0  0  0  0  0
  149.1857  138.5182  155.4116 H   0  0  0  0  0  0  0  0  0  0  0  0
  149.6057  138.5631  153.7127 H   0  0  0  0  0  0  0  0  0  0  0  0
  1  2  1  0  0  0  0
  1 25  1  0  0  0  0
  1 26  1  0  0  0  0
  1 27  1  0  0  0  0
  2  3  1  0  0  0  0
  2 19  1  0  0  0  0
  2 28  1  0  0  0  0
  3  4  1  0  0  0  0
  3 29  1  0  0  0  0
  3 30  1  0  0  0  0
  4  5  1  0  0  0  0
  4 31  1  0  0  0  0
  5  6  2  0  0  0  0
  5  7  1  0  0  0  0
  7  8  1  0  0  0  0
  7 32  1  0  0  0  0
  8 13  1  0  0  0  0
  8  9  2  0  0  0  0
  9 10  1  0  0  0  0
  9 33  1  0  0  0  0
 10 11  2  0  0  0  0
 10 34  1  0  0  0  0
 11 12  1  0  0  0  0
 11 35  1  0  0  0  0
 12 13  2  0  0  0  0
 13 14  1  0  0  0  0
 14 18  1  0  0  0  0
 14 15  1  0  0  0  0
 15 16  1  0  0  0  0
 15 36  1  0  0  0  0
 15 37  1  0  0  0  0
 16 17  1  0  0  0  0
 16 38  1  0  0  0  0
 16 39  1  0  0  0  0
 17 18  1  0  0  0  0
 17 40  1  0  0  0  0
 17 41  1  0  0  0  0
 18 42  1  0  0  0  0
 18 43  1  0  0  0  0
 19 24  1  0  0  0  0
 19 20  1  0  0  0  0
 20 21  1  0  0  0  0
 20 44  1  0  0  0  0
 20 45  1  0  0  0  0
 21 22  1  0  0  0  0
 21 46  1  0  0  0  0
 21 47  1  0  0  0  0
 22 23  1  0  0  0  0
 23 24  1  0  0  0  0
 23 48  1  0  0  0  0
 23 49  1  0  0  0  0
 24 50  1  0  0  0  0
 24 51  1  0  0  0  0
M  END
> <s_m_source_file>
AV-unprocessed.smi

> <i_m_source_file_index>
1389

> <i_lp_mmshare_version>
43012

> <i_f3d_flags>
0

> <s_epik_input>
W0NIMl0xW0NIMl1PW0NIMl1bQ0gyXU4xW0NASF0oW0NIM10pW0NIMl1bTkhdQyg9TylbTkhdYzJbY0hdW2NIXVtjSF1uYzJOM1tDSDJdW0NIMl1bQ0gyXVtDSDJdMw==

> <s_epik_cmdline>
J2VwaWtfcHl0aG9uJywgJy1waCcsICc3LjAnLCAnLXRuJywgJzgnLCAnLW1hJywgJzIwMCcsICctbWV0YWxfYmluZGluZycsICctaW1hZScsICc8aW5maWxlLm1hZT4nLCAnLW9tYWUnLCAnPG91dGZpbGUubWFlPic=

> <r_lp_tautomer_probability>
1

> <r_epik_Ionization_Penalty>
0.365229

> <r_epik_Ionization_Penalty_Charging>
0

> <r_epik_Ionization_Penalty_Neutral>
0.365229

> <r_epik_State_Penalty>
0.350519

> <r_epik_Charging_Adjusted_Penalty>
0.350519

> <i_epik_Tot_Q>
0

> <i_epik_Tot_abs_Q>
0

> <r_epik_Metal_State_Penalty>
0.33386

> <b_epik_Metal_Only>
0

> <s_lp_Force_Field>
OPLS_2005

> <r_lp_Energy>
61.7302

> <b_lp_Chiralities_Consistent>
1

> <s_lp_Variant>
AV-unprocessed.smi:1389-2

> <Gold.Version>
5.8.1

> <Gold.Id.Protein>
6NUR|6NUR_protein|mol2

> <Gold.PLP.Fitness>
41.7952

> <Gold.PLP.PLP>
-37.0069

> <Gold.PLP.part.hbond>
-2.5935

> <Gold.PLP.part.metal>
0.0000

> <Gold.PLP.part.buried>
-3.2288

> <Gold.PLP.part.nonpolar>
-32.6158

> <Gold.PLP.part.repulsive>
1.4060

> <Gold.PLP.ligand.clash>
0.0000

> <Gold.PLP.ligand.torsion>
0.6405

> <Gold.PLP.Chemscore.Hbond>
1.9520

> <Gold.PLP.Chemscore.CHOScore>
0.0000

> <Gold.PLP.Chemscore.Metal>
0.0000

> <Gold.Chemscore.Hbonds>
donor molecule, donor type, donor heavy atom, donor atom, acceptor molecule, acceptor atom, score
      L1  H     4    31       P1 10175  0.94
      L1  H     7    32       P1 10175  0.88

> <Gold.PLP.Chemscore.Internal.Correction>
0.2134

> <Gold.Rescore>
     Score         DG    S(hbond)    S(metal)    S(lipo)     H(rot)  DE(clash)    DE(int)     intcor
     14.57     -17.61       1.88        0.00      84.51       1.57       1.20       1.83       ----

> <Gold.Chemscore.Fitness>
14.5701

> <Gold.Chemscore.DG>
-17.6086

> <Gold.Chemscore.ZeroCoef>
-5.4800

> <Gold.Chemscore.Hbond>
1.8756

> <Gold.Chemscore.Metal>
0.0000

> <Gold.Chemscore.Lipo>
84.5126

> <Gold.Chemscore.Internal_Hbond>
0.0000

> <Gold.Chemscore.DEClash>
1.2041

> <Gold.Chemscore.DEInternal>
1.8344

> <Gold.Chemscore.Rot>
1.5718

> <Gold.Chemscore.Internal.Correction>
   9.000000E+99

> <Gold.Chemscore.Hbonds>
donor molecule, donor type, donor heavy atom, donor atom, acceptor molecule, acceptor atom, score
      L1  H     4    31       P1 10175  0.91
      L1  H     7    32       P1 10175  0.86

> <Gold.Chemscore.Hbond.Weighted>
-6.2645

> <Gold.Chemscore.Metal.Weighted>
-0.0000

> <Gold.Chemscore.Lipo.Weighted>
-9.8880

> <Gold.Chemscore.Internal_Hbond.Weighted>
0.0000

> <Gold.Chemscore.DEClash.Weighted>
1.2041

> <Gold.Chemscore.DEInternal.Weighted>
1.8344

> <Gold.Chemscore.Rot.Weighted>
4.0239

> <Gold.Chemscore.Internal.Correction.Weighted>
   9.000000E+99

> <Gold.Protein.RotatedTorsions>
[ 6907 6896 6895 6894 ] final  -73.62 input  -60.11 | X-H torsion
[ 7974 7965 7964 7962 ] final -147.32 input  175.53 | X-H torsion
[ 8008 7997 7996 7995 ] final  -61.42 input   59.86 | X-H torsion
[ 10167 10162 10161 10158 ] final -109.08 input  -65.29 | X-H torsion
[ 10718 10713 10712 10709 ] final  139.28 input   66.30 | X-H torsion
[ 10763 10752 10751 10750 ] final -137.56 input  -60.55 | X-H torsion
[ 11005 11000 10999 10996 ] final   45.02 input  -57.11 | X-H torsion

> <Gold.Protein.ActiveResidues>
 VAL166  LYS551  ARG553  GLY616  TRP617  ASP618  TYR619  PRO620  LYS621  CYS622 
 ASP623  PHE694  ASN695  SER759  ASP760  ASP761  ALA762  ILE779  LEU786  VAL792 
 PHE793  MET794  SER795  GLU796  ALA797  LYS798  CYS799  TRP800  GLU811  SER814 

> <Gold.Protein.RotatedAtoms>
  150.7123  134.4989  159.5551 H   0  0  0  0  0  0  0  0  0  0  0  0  # atno 6907 bound_to 6896
  152.2590  134.8050  160.0443 H   0  0  0  0  0  0  0  0  0  0  0  0  # atno 6908 bound_to 6896
  151.8771  133.3452  159.3791 H   0  0  0  0  0  0  0  0  0  0  0  0  # atno 6909 bound_to 6896
  144.8101  140.5342  143.5648 H   0  0  0  0  0  0  0  0  0  0  0  0  # atno 7974 bound_to 7965
  154.4447  140.1018  156.6427 H   0  0  0  0  0  0  0  0  0  0  0  0  # atno 8008 bound_to 7997
  155.5483  140.3485  155.4444 H   0  0  0  0  0  0  0  0  0  0  0  0  # atno 8009 bound_to 7997
  156.0547  140.1312  156.9999 H   0  0  0  0  0  0  0  0  0  0  0  0  # atno 8010 bound_to 7997
  140.1592  143.4134  152.1438 H   0  0  0  0  0  0  0  0  0  0  0  0  # atno 10167 bound_to 10162
  157.4161  131.1033  151.0403 H   0  0  0  0  0  0  0  0  0  0  0  0  # atno 10718 bound_to 10713
  154.8659  135.3638  154.5242 H   0  0  0  0  0  0  0  0  0  0  0  0  # atno 10763 bound_to 10752
  153.5871  135.7016  153.5443 H   0  0  0  0  0  0  0  0  0  0  0  0  # atno 10764 bound_to 10752
  153.3406  135.4099  155.1530 H   0  0  0  0  0  0  0  0  0  0  0  0  # atno 10765 bound_to 10752
  140.1498  134.4477  155.8390 H   0  0  0  0  0  0  0  0  0  0  0  0  # atno 11005 bound_to 11000
  145.5344  139.1475  143.3482 LP  0  0  0  0  0  0  0  0  0  0  0  0  # atno 17320 bound_to 7965
  146.2398  140.5484  142.8939 LP  0  0  0  0  0  0  0  0  0  0  0  0  # atno 17321 bound_to 7965
  139.5389  144.7237  151.4799 LP  0  0  0  0  0  0  0  0  0  0  0  0  # atno 17342 bound_to 10162
  140.6654  143.8409  150.6935 LP  0  0  0  0  0  0  0  0  0  0  0  0  # atno 17343 bound_to 10162
  157.1350  130.6118  149.5539 LP  0  0  0  0  0  0  0  0  0  0  0  0  # atno 17370 bound_to 10713
  155.9865  130.4901  150.7084 LP  0  0  0  0  0  0  0  0  0  0  0  0  # atno 17371 bound_to 10713
  141.2197  133.6867  156.7400 LP  0  0  0  0  0  0  0  0  0  0  0  0  # atno 17394 bound_to 11000
  140.2619  134.8460  157.3766 LP  0  0  0  0  0  0  0  0  0  0  0  0  # atno 17395 bound_to 11000

$$$$
