AV-unprocessed.smi:676|AV-procd|sdf|3308|dock1
  -GOLD-   22720 0273D 1   1.00000     0.00000
 Structure written by MMmdl.
 42 43  0  0  0  0  0  0  0  0  1 V2000
  152.7448  141.1344  158.6607 C   0  0  0  0  0  0  0  0  0  0  0  0
  152.5091  140.4694  157.4258 O   0  0  0  0  0  0  0  0  0  0  0  0
  151.1616  140.4503  156.9349 C   0  0  2  0  0  0  0  0  0  0  0  0
  150.9067  141.6508  156.0147 C   0  0  0  0  0  0  0  0  0  0  0  0
  150.1802  140.1597  158.0863 C   0  0  0  0  0  0  0  0  0  0  0  0
  150.4878  138.6784  157.8778 C   0  0  1  0  0  0  0  0  0  0  0  0
  149.3124  137.8314  158.0467 N   0  0  0  0  0  0  0  0  0  0  0  0
  149.3013  136.6785  158.7309 C   0  0  0  0  0  0  0  0  0  0  0  0
  150.2859  136.2365  159.3239 O   0  0  0  0  0  0  0  0  0  0  0  0
  147.9684  135.9187  158.7541 C   0  0  0  0  0  0  0  0  0  0  0  0
  147.7263  135.2322  160.0334 N   0  0  0  0  0  0  0  0  0  0  0  0
  147.6499  133.8254  160.0053 C   0  0  0  0  0  0  0  0  0  0  0  0
  147.4287  133.1041  161.1156 C   0  0  0  0  0  0  0  0  0  0  0  0
  147.2667  133.8077  162.3656 C   0  0  0  0  0  0  0  0  0  0  0  0
  147.3357  135.1532  162.4036 C   0  0  0  0  0  0  0  0  0  0  0  0
  147.5764  135.9458  161.1922 C   0  0  0  0  0  0  0  0  0  0  0  0
  147.6394  137.1755  161.2175 O   0  0  0  0  0  0  0  0  0  0  0  0
  150.8488  139.0119  156.4065 C   0  0  0  0  0  0  0  0  0  0  0  0
  149.7113  138.9059  155.3725 C   0  0  0  0  0  0  0  0  0  0  0  0
  152.0250  138.2305  155.8107 C   0  0  0  0  0  0  0  0  0  0  0  0
  153.7670  140.9348  158.9817 H   0  0  0  0  0  0  0  0  0  0  0  0
  152.0780  140.7932  159.4519 H   0  0  0  0  0  0  0  0  0  0  0  0
  152.6454  142.2150  158.5604 H   0  0  0  0  0  0  0  0  0  0  0  0
  149.9228  141.6027  155.5491 H   0  0  0  0  0  0  0  0  0  0  0  0
  151.6452  141.6998  155.2144 H   0  0  0  0  0  0  0  0  0  0  0  0
  150.9365  142.5950  156.5575 H   0  0  0  0  0  0  0  0  0  0  0  0
  150.4626  140.5408  159.0670 H   0  0  0  0  0  0  0  0  0  0  0  0
  149.1514  140.4314  157.8435 H   0  0  0  0  0  0  0  0  0  0  0  0
  151.3512  138.3596  158.4663 H   0  0  0  0  0  0  0  0  0  0  0  0
  148.4604  138.1288  157.5939 H   0  0  0  0  0  0  0  0  0  0  0  0
  147.1701  136.6300  158.5387 H   0  0  0  0  0  0  0  0  0  0  0  0
  147.9382  135.1975  157.9348 H   0  0  0  0  0  0  0  0  0  0  0  0
  147.7745  133.3760  159.0309 H   0  0  0  0  0  0  0  0  0  0  0  0
  147.3698  132.0265  161.0743 H   0  0  0  0  0  0  0  0  0  0  0  0
  147.0875  133.2527  163.2744 H   0  0  0  0  0  0  0  0  0  0  0  0
  147.2104  135.6621  163.3479 H   0  0  0  0  0  0  0  0  0  0  0  0
  149.4381  137.8680  155.1783 H   0  0  0  0  0  0  0  0  0  0  0  0
  149.9986  139.3450  154.4166 H   0  0  0  0  0  0  0  0  0  0  0  0
  148.8057  139.4157  155.7012 H   0  0  0  0  0  0  0  0  0  0  0  0
  151.7333  137.2186  155.5271 H   0  0  0  0  0  0  0  0  0  0  0  0
  152.8485  138.1300  156.5176 H   0  0  0  0  0  0  0  0  0  0  0  0
  152.4193  138.7219  154.9207 H   0  0  0  0  0  0  0  0  0  0  0  0
  1  2  1  0  0  0  0
  1 21  1  0  0  0  0
  1 22  1  0  0  0  0
  1 23  1  0  0  0  0
  2  3  1  0  0  0  0
  3 18  1  0  0  0  0
  3  4  1  0  0  0  0
  3  5  1  0  0  0  0
  4 24  1  0  0  0  0
  4 25  1  0  0  0  0
  4 26  1  0  0  0  0
  5  6  1  0  0  0  0
  5 27  1  0  0  0  0
  5 28  1  0  0  0  0
  6  7  1  0  0  0  0
  6 18  1  0  0  0  0
  6 29  1  0  0  0  0
  7  8  1  0  0  0  0
  7 30  1  0  0  0  0
  8  9  2  0  0  0  0
  8 10  1  0  0  0  0
 10 11  1  0  0  0  0
 10 31  1  0  0  0  0
 10 32  1  0  0  0  0
 11 16  1  0  0  0  0
 11 12  1  0  0  0  0
 12 13  2  0  0  0  0
 12 33  1  0  0  0  0
 13 14  1  0  0  0  0
 13 34  1  0  0  0  0
 14 15  2  0  0  0  0
 14 35  1  0  0  0  0
 15 16  1  0  0  0  0
 15 36  1  0  0  0  0
 16 17  2  0  0  0  0
 18 19  1  0  0  0  0
 18 20  1  0  0  0  0
 19 37  1  0  0  0  0
 19 38  1  0  0  0  0
 19 39  1  0  0  0  0
 20 40  1  0  0  0  0
 20 41  1  0  0  0  0
 20 42  1  0  0  0  0
M  END
> <s_m_source_file>
AV-unprocessed.smi

> <i_m_source_file_index>
676

> <i_lp_mmshare_version>
43012

> <i_f3d_flags>
0

> <s_epik_input>
W0NIM11PW0NAQF0xKFtDSDNdKVtDSDJdW0NASF0oQzEoW0NIM10pW0NIM10pW05IXUMoPU8pW0NIMl1uMltjSF1bY0hdW2NIXVtjSF1jMj1P

> <s_epik_cmdline>
J2VwaWtfcHl0aG9uJywgJy1waCcsICc3LjAnLCAnLXRuJywgJzgnLCAnLW1hJywgJzIwMCcsICctbWV0YWxfYmluZGluZycsICctaW1hZScsICc8aW5maWxlLm1hZT4nLCAnLW9tYWUnLCAnPG91dGZpbGUubWFlPic=

> <r_lp_tautomer_probability>
1

> <r_epik_Ionization_Penalty>
4.09771e-07

> <r_epik_Ionization_Penalty_Charging>
3.90712e-07

> <r_epik_Ionization_Penalty_Neutral>
1.90591e-08

> <r_epik_State_Penalty>
-0

> <r_epik_Charging_Adjusted_Penalty>
3.90712e-07

> <i_epik_Tot_Q>
0

> <i_epik_Tot_abs_Q>
0

> <r_epik_Metal_State_Penalty>
-0

> <b_epik_Metal_Only>
0

> <s_lp_Force_Field>
OPLS_2005

> <r_lp_Energy>
31.4736

> <b_lp_Chiralities_Consistent>
1

> <s_lp_Variant>
AV-unprocessed.smi:676-2

> <Gold.Version>
5.8.1

> <Gold.Id.Protein>
6NUR|6NUR_protein|mol2

> <Gold.PLP.Fitness>
41.0836

> <Gold.PLP.PLP>
-31.9252

> <Gold.PLP.part.hbond>
-4.0000

> <Gold.PLP.part.metal>
0.0000

> <Gold.PLP.part.buried>
-1.9960

> <Gold.PLP.part.nonpolar>
-23.9413

> <Gold.PLP.part.repulsive>
0.1026

> <Gold.PLP.ligand.clash>
0.0000

> <Gold.PLP.ligand.torsion>
1.0640

> <Gold.PLP.Chemscore.Hbond>
3.6350

> <Gold.PLP.Chemscore.CHOScore>
0.0000

> <Gold.PLP.Chemscore.Metal>
0.0000

> <Gold.Chemscore.Hbonds>
donor molecule, donor type, donor heavy atom, donor atom, acceptor molecule, acceptor atom, score
      P1  H  6896  6908       L1     9  0.91
      P1  H  6931  6943       L1    17  0.94
      P1  H  6934  6947       L1    17  0.88
      P1  H  7997  8009       L1     2  0.86

> <Gold.PLP.Chemscore.Internal.Correction>
0.3813

> <Gold.Rescore>
     Score         DG    S(hbond)    S(metal)    S(lipo)     H(rot)  DE(clash)    DE(int)     intcor
     18.94     -21.38       3.53        0.00      70.41       1.62       0.02       2.42       ----

> <Gold.Chemscore.Fitness>
18.9407

> <Gold.Chemscore.DG>
-21.3757

> <Gold.Chemscore.ZeroCoef>
-5.4800

> <Gold.Chemscore.Hbond>
3.5323

> <Gold.Chemscore.Metal>
0.0000

> <Gold.Chemscore.Lipo>
70.4150

> <Gold.Chemscore.Internal_Hbond>
0.0000

> <Gold.Chemscore.DEClash>
0.0173

> <Gold.Chemscore.DEInternal>
2.4178

> <Gold.Chemscore.Rot>
1.6175

> <Gold.Chemscore.Internal.Correction>
   9.000000E+99

> <Gold.Chemscore.Hbonds>
donor molecule, donor type, donor heavy atom, donor atom, acceptor molecule, acceptor atom, score
      P1  H  6896  6908       L1     9  0.87
      P1  H  6931  6943       L1    17  0.91
      P1  H  6934  6947       L1    17  0.86
      P1  H  7997  8009       L1     2  0.35

> <Gold.Chemscore.Hbond.Weighted>
-11.7979

> <Gold.Chemscore.Metal.Weighted>
-0.0000

> <Gold.Chemscore.Lipo.Weighted>
-8.2386

> <Gold.Chemscore.Internal_Hbond.Weighted>
0.0000

> <Gold.Chemscore.DEClash.Weighted>
0.0173

> <Gold.Chemscore.DEInternal.Weighted>
2.4178

> <Gold.Chemscore.Rot.Weighted>
4.1408

> <Gold.Chemscore.Internal.Correction.Weighted>
   9.000000E+99

> <Gold.Protein.RotatedTorsions>
[ 6907 6896 6895 6894 ] final -153.97 input  -60.11 | X-H torsion
[ 7974 7965 7964 7962 ] final -139.69 input  175.53 | X-H torsion
[ 8008 7997 7996 7995 ] final  177.43 input   59.86 | X-H torsion
[ 10167 10162 10161 10158 ] final -170.50 input  -65.29 | X-H torsion
[ 10718 10713 10712 10709 ] final  128.47 input   66.30 | X-H torsion
[ 10763 10752 10751 10750 ] final  106.51 input  -60.55 | X-H torsion
[ 11005 11000 10999 10996 ] final   13.95 input  -57.11 | X-H torsion

> <Gold.Protein.ActiveResidues>
 VAL166  LYS551  ARG553  GLY616  TRP617  ASP618  TYR619  PRO620  LYS621  CYS622 
 ASP623  PHE694  ASN695  SER759  ASP760  ASP761  ALA762  ILE779  LEU786  VAL792 
 PHE793  MET794  SER795  GLU796  ALA797  LYS798  CYS799  TRP800  GLU811  SER814 

> <Gold.Protein.RotatedAtoms>
  151.2506  133.4352  159.2611 H   0  0  0  0  0  0  0  0  0  0  0  0  # atno 6907 bound_to 6896
  151.0621  134.9744  159.8276 H   0  0  0  0  0  0  0  0  0  0  0  0  # atno 6908 bound_to 6896
  152.5400  134.2455  159.8931 H   0  0  0  0  0  0  0  0  0  0  0  0  # atno 6909 bound_to 6896
  144.8656  140.6288  143.5300 H   0  0  0  0  0  0  0  0  0  0  0  0  # atno 7974 bound_to 7965
  156.0658  140.1359  156.9888 H   0  0  0  0  0  0  0  0  0  0  0  0  # atno 8008 bound_to 7997
  154.4505  140.0982  156.6656 H   0  0  0  0  0  0  0  0  0  0  0  0  # atno 8009 bound_to 7997
  155.5306  140.3458  155.4428 H   0  0  0  0  0  0  0  0  0  0  0  0  # atno 8010 bound_to 7997
  139.5858  144.1322  152.1573 H   0  0  0  0  0  0  0  0  0  0  0  0  # atno 10167 bound_to 10162
  157.5241  131.1098  150.9109 H   0  0  0  0  0  0  0  0  0  0  0  0  # atno 10718 bound_to 10713
  153.3940  135.3874  155.1943 H   0  0  0  0  0  0  0  0  0  0  0  0  # atno 10763 bound_to 10752
  154.8722  135.3755  154.4701 H   0  0  0  0  0  0  0  0  0  0  0  0  # atno 10764 bound_to 10752
  153.5191  135.7087  153.5802 H   0  0  0  0  0  0  0  0  0  0  0  0  # atno 10765 bound_to 10752
  140.4749  134.0993  155.7739 H   0  0  0  0  0  0  0  0  0  0  0  0  # atno 11005 bound_to 11000
  145.4228  139.1561  143.4065 LP  0  0  0  0  0  0  0  0  0  0  0  0  # atno 17320 bound_to 7965
  146.2893  140.4339  142.8745 LP  0  0  0  0  0  0  0  0  0  0  0  0  # atno 17321 bound_to 7965
  140.0885  144.5641  150.7071 LP  0  0  0  0  0  0  0  0  0  0  0  0  # atno 17342 bound_to 10162
  140.7130  143.2520  151.4523 LP  0  0  0  0  0  0  0  0  0  0  0  0  # atno 17343 bound_to 10162
  156.9710  130.5491  149.5290 LP  0  0  0  0  0  0  0  0  0  0  0  0  # atno 17370 bound_to 10713
  156.0374  130.5460  150.8688 LP  0  0  0  0  0  0  0  0  0  0  0  0  # atno 17371 bound_to 10713
  141.1559  133.8884  157.1978 LP  0  0  0  0  0  0  0  0  0  0  0  0  # atno 17394 bound_to 11000
  139.9862  135.0081  156.9867 LP  0  0  0  0  0  0  0  0  0  0  0  0  # atno 17395 bound_to 11000

$$$$
