AV-unprocessed.smi:3303|AV-procd|sdf|12672|dock4
  -GOLD-   2272019 03D 1   1.00000     0.00000
 Structure written by MMmdl.
 45 46  0  0  0  0  0  0  0  0  3 V2000
  149.9014  131.2414  154.6981 C   0  0  0  0  0  0  0  0  0  0  0  0
  149.0541  131.4744  153.4344 C   0  0  1  0  0  0  0  0  0  0  0  0
  148.0272  130.3356  153.2676 C   0  0  0  0  0  0  0  0  0  0  0  0
  147.1892  130.5042  152.0517 N   0  3  1  0  0  0  0  0  0  0  0  0
  146.3176  129.3224  151.8424 C   0  0  0  0  0  0  0  0  0  0  0  0
  146.4582  131.8066  152.0555 C   0  0  2  0  0  0  0  0  0  0  0  0
  145.6048  132.0132  150.7888 C   0  0  0  0  0  0  0  0  0  0  0  0
  147.4554  132.9744  152.2028 C   0  0  0  0  0  0  0  0  0  0  0  0
  148.3343  132.8395  153.4562 C   0  0  2  0  0  0  0  0  0  0  0  0
  149.3090  133.9539  153.4988 N   0  3  0  0  0  0  0  0  0  0  0  0
  149.5577  134.5079  154.8445 C   0  0  0  0  0  0  0  0  0  0  0  0
  151.0131  134.9729  154.9871 C   0  0  0  0  0  0  0  0  0  0  0  0
  151.1742  136.4501  154.6854 C   0  0  0  0  0  0  0  0  0  0  0  0
  150.0480  137.2960  154.6007 C   0  0  0  0  0  0  0  0  0  0  0  0
  150.2539  138.6582  154.3080 C   0  0  0  0  0  0  0  0  0  0  0  0
  151.5703  139.1184  154.1128 C   0  0  0  0  0  0  0  0  0  0  0  0
  152.6272  138.1924  154.2178 C   0  0  0  0  0  0  0  0  0  0  0  0
  152.4405  136.8833  154.4949 N   0  0  0  0  0  0  0  0  0  0  0  0
  149.2898  131.2810  155.6001 H   0  0  0  0  0  0  0  0  0  0  0  0
  150.6897  131.9878  154.7985 H   0  0  0  0  0  0  0  0  0  0  0  0
  150.3863  130.2651  154.6702 H   0  0  0  0  0  0  0  0  0  0  0  0
  149.7252  131.4495  152.5739 H   0  0  0  0  0  0  0  0  0  0  0  0
  148.5567  129.3834  153.2075 H   0  0  0  0  0  0  0  0  0  0  0  0
  147.3806  130.2788  154.1451 H   0  0  0  0  0  0  0  0  0  0  0  0
  145.5245  129.2826  152.5901 H   0  0  0  0  0  0  0  0  0  0  0  0
  146.8936  128.3989  151.9113 H   0  0  0  0  0  0  0  0  0  0  0  0
  145.8621  129.3303  150.8527 H   0  0  0  0  0  0  0  0  0  0  0  0
  145.7881  131.8151  152.9172 H   0  0  0  0  0  0  0  0  0  0  0  0
  145.1638  133.0103  150.7751 H   0  0  0  0  0  0  0  0  0  0  0  0
  144.7751  131.3085  150.7341 H   0  0  0  0  0  0  0  0  0  0  0  0
  146.2017  131.9056  149.8826 H   0  0  0  0  0  0  0  0  0  0  0  0
  148.0880  133.0245  151.3146 H   0  0  0  0  0  0  0  0  0  0  0  0
  146.9106  133.9188  152.2437 H   0  0  0  0  0  0  0  0  0  0  0  0
  147.6870  132.8824  154.3345 H   0  0  0  0  0  0  0  0  0  0  0  0
  150.1873  133.6224  153.1255 H   0  0  0  0  0  0  0  0  0  0  0  0
  148.8762  135.3419  155.0182 H   0  0  0  0  0  0  0  0  0  0  0  0
  149.3378  133.7469  155.5946 H   0  0  0  0  0  0  0  0  0  0  0  0
  151.3719  134.7736  155.9978 H   0  0  0  0  0  0  0  0  0  0  0  0
  151.6570  134.4034  154.3149 H   0  0  0  0  0  0  0  0  0  0  0  0
  149.0494  136.9141  154.7545 H   0  0  0  0  0  0  0  0  0  0  0  0
  149.4174  139.3374  154.2333 H   0  0  0  0  0  0  0  0  0  0  0  0
  151.7656  140.1562  153.8871 H   0  0  0  0  0  0  0  0  0  0  0  0
  153.6490  138.5106  154.0736 H   0  0  0  0  0  0  0  0  0  0  0  0
  148.9719  134.6997  152.9065 H   0  0  0  0  0  0  0  0  0  0  0  0
  147.8245  130.5285  151.2665 H   0  0  0  0  0  0  0  0  0  0  0  0
  1  2  1  0  0  0  0
  1 19  1  0  0  0  0
  1 20  1  0  0  0  0
  1 21  1  0  0  0  0
  2  9  1  0  0  0  0
  2  3  1  0  0  0  0
  2 22  1  0  0  0  0
  3  4  1  0  0  0  0
  3 23  1  0  0  0  0
  3 24  1  0  0  0  0
  4  5  1  0  0  0  0
  4  6  1  0  0  0  0
  4 45  1  0  0  0  0
  5 25  1  0  0  0  0
  5 26  1  0  0  0  0
  5 27  1  0  0  0  0
  6  7  1  0  0  0  0
  6  8  1  0  0  0  0
  6 28  1  0  0  0  0
  7 29  1  0  0  0  0
  7 30  1  0  0  0  0
  7 31  1  0  0  0  0
  8  9  1  0  0  0  0
  8 32  1  0  0  0  0
  8 33  1  0  0  0  0
  9 10  1  0  0  0  0
  9 34  1  0  0  0  0
 10 11  1  0  0  0  0
 10 35  1  0  0  0  0
 10 44  1  0  0  0  0
 11 12  1  0  0  0  0
 11 36  1  0  0  0  0
 11 37  1  0  0  0  0
 12 13  1  0  0  0  0
 12 38  1  0  0  0  0
 12 39  1  0  0  0  0
 13 18  1  0  0  0  0
 13 14  2  0  0  0  0
 14 15  1  0  0  0  0
 14 40  1  0  0  0  0
 15 16  2  0  0  0  0
 15 41  1  0  0  0  0
 16 17  1  0  0  0  0
 16 42  1  0  0  0  0
 17 18  2  0  0  0  0
 17 43  1  0  0  0  0
M  CHG  1   4   1
M  CHG  1  10   1
M  END
> <s_m_source_file>
AV-unprocessed.smi

> <i_m_source_file_index>
3303

> <i_lp_mmshare_version>
43012

> <i_f3d_flags>
0

> <s_epik_input>
W0NIM11bQ0BASF0xW0NIMl1OKFtDSDNdKVtDQEBIXShbQ0gzXSlbQ0gyXVtDQEhdMVtOSF1bQ0gyXVtDSDJdYzJbY0hdW2NIXVtjSF1bY0hdbjI=

> <s_epik_cmdline>
J2VwaWtfcHl0aG9uJywgJy1waCcsICc3LjAnLCAnLXRuJywgJzgnLCAnLW1hJywgJzIwMCcsICctbWV0YWxfYmluZGluZycsICctaW1hZScsICc8aW5maWxlLm1hZT4nLCAnLW9tYWUnLCAnPG91dGZpbGUubWFlPic=

> <r_epik_Ionization_Penalty>
0.0769462

> <r_epik_Ionization_Penalty_Charging>
0.0759813

> <r_epik_Ionization_Penalty_Neutral>
0.000964829

> <r_epik_State_Penalty>
0.0654373

> <r_epik_Charging_Adjusted_Penalty>
0.141419

> <i_epik_Tot_Q>
2

> <i_epik_Tot_abs_Q>
2

> <r_epik_Metal_State_Penalty>
0.0656439

> <b_epik_Metal_Only>
0

> <s_lp_Force_Field>
OPLS_2005

> <r_lp_Energy>
29.1913

> <b_lp_Chiralities_Consistent>
1

> <s_lp_Variant>
AV-unprocessed.smi:3303-16

> <Gold.Version>
5.8.1

> <Gold.Id.Protein>
6NUR|6NUR_protein|mol2

> <Gold.PLP.Fitness>
46.3664

> <Gold.PLP.PLP>
-36.6700

> <Gold.PLP.part.hbond>
-3.0000

> <Gold.PLP.part.metal>
0.0000

> <Gold.PLP.part.buried>
-2.6155

> <Gold.PLP.part.nonpolar>
-30.8182

> <Gold.PLP.part.repulsive>
0.1181

> <Gold.PLP.ligand.clash>
0.0000

> <Gold.PLP.ligand.torsion>
1.1528

> <Gold.PLP.Chemscore.Hbond>
3.9920

> <Gold.PLP.Chemscore.CHOScore>
0.0000

> <Gold.PLP.Chemscore.Metal>
0.0000

> <Gold.Chemscore.Hbonds>
donor molecule, donor type, donor heavy atom, donor atom, acceptor molecule, acceptor atom, score
      L1  H     4    45       P1 10747  1.00
      L1  H    10    44       P1  7948  1.10
      P1  H 10752 10764       L1    18  0.26

> <Gold.PLP.Chemscore.Internal.Correction>
0.0261

> <Gold.Rescore>
     Score         DG    S(hbond)    S(metal)    S(lipo)     H(rot)  DE(clash)    DE(int)     intcor
     18.90     -20.24       2.31        0.00      90.44       1.37       0.00       1.35       ----

> <Gold.Chemscore.Fitness>
18.8964

> <Gold.Chemscore.DG>
-20.2447

> <Gold.Chemscore.ZeroCoef>
-5.4800

> <Gold.Chemscore.Hbond>
2.3060

> <Gold.Chemscore.Metal>
0.0000

> <Gold.Chemscore.Lipo>
90.4369

> <Gold.Chemscore.Internal_Hbond>
0.0000

> <Gold.Chemscore.DEClash>
0.0000

> <Gold.Chemscore.DEInternal>
1.3483

> <Gold.Chemscore.Rot>
1.3744

> <Gold.Chemscore.Internal.Correction>
   9.000000E+99

> <Gold.Chemscore.Hbonds>
donor molecule, donor type, donor heavy atom, donor atom, acceptor molecule, acceptor atom, score
      L1  H     4    45       P1 10747  0.94
      L1  H    10    44       P1  7948  0.03
      P1  H 10752 10764       L1    18  0.02

> <Gold.Chemscore.Hbond.Weighted>
-7.7021

> <Gold.Chemscore.Metal.Weighted>
-0.0000

> <Gold.Chemscore.Lipo.Weighted>
-10.5811

> <Gold.Chemscore.Internal_Hbond.Weighted>
0.0000

> <Gold.Chemscore.DEClash.Weighted>
0.0000

> <Gold.Chemscore.DEInternal.Weighted>
1.3483

> <Gold.Chemscore.Rot.Weighted>
3.5185

> <Gold.Chemscore.Internal.Correction.Weighted>
   9.000000E+99

> <Gold.Protein.RotatedTorsions>
[ 6907 6896 6895 6894 ] final  -22.33 input  -60.11 | X-H torsion
[ 7974 7965 7964 7962 ] final   -5.53 input  175.53 | X-H torsion
[ 8008 7997 7996 7995 ] final  138.19 input   59.86 | X-H torsion
[ 10167 10162 10161 10158 ] final -161.22 input  -65.29 | X-H torsion
[ 10718 10713 10712 10709 ] final  162.61 input   66.30 | X-H torsion
[ 10763 10752 10751 10750 ] final  -59.04 input  -60.55 | X-H torsion
[ 11005 11000 10999 10996 ] final   69.23 input  -57.11 | X-H torsion

> <Gold.Protein.ActiveResidues>
 VAL166  LYS551  ARG553  GLY616  TRP617  ASP618  TYR619  PRO620  LYS621  CYS622 
 ASP623  PHE694  ASN695  SER759  ASP760  ASP761  ALA762  ILE779  LEU786  VAL792 
 PHE793  MET794  SER795  GLU796  ALA797  LYS798  CYS799  TRP800  GLU811  SER814 

> <Gold.Protein.RotatedAtoms>
  151.2201  135.0515  159.8946 H   0  0  0  0  0  0  0  0  0  0  0  0  # atno 6907 bound_to 6896
  152.5416  134.0650  159.8179 H   0  0  0  0  0  0  0  0  0  0  0  0  # atno 6908 bound_to 6896
  151.0815  133.5338  159.2652 H   0  0  0  0  0  0  0  0  0  0  0  0  # atno 6909 bound_to 6896
  146.2351  140.2035  142.8334 H   0  0  0  0  0  0  0  0  0  0  0  0  # atno 7974 bound_to 7965
  156.2999  140.2400  156.4033 H   0  0  0  0  0  0  0  0  0  0  0  0  # atno 8008 bound_to 7997
  154.8508  140.0424  157.1622 H   0  0  0  0  0  0  0  0  0  0  0  0  # atno 8009 bound_to 7997
  154.9001  140.2975  155.5326 H   0  0  0  0  0  0  0  0  0  0  0  0  # atno 8010 bound_to 7997
  139.6481  144.0134  152.2142 H   0  0  0  0  0  0  0  0  0  0  0  0  # atno 10167 bound_to 10162
  157.1201  131.0490  151.2419 H   0  0  0  0  0  0  0  0  0  0  0  0  # atno 10718 bound_to 10713
  154.2475  135.6332  153.5228 H   0  0  0  0  0  0  0  0  0  0  0  0  # atno 10763 bound_to 10752
  152.9918  135.5557  154.5844 H   0  0  0  0  0  0  0  0  0  0  0  0  # atno 10764 bound_to 10752
  154.5363  135.2892  155.1110 H   0  0  0  0  0  0  0  0  0  0  0  0  # atno 10765 bound_to 10752
  139.9665  134.6972  156.0534 H   0  0  0  0  0  0  0  0  0  0  0  0  # atno 11005 bound_to 11000
  144.9763  140.8417  143.5424 LP  0  0  0  0  0  0  0  0  0  0  0  0  # atno 17320 bound_to 7965
  145.2022  139.2246  143.5187 LP  0  0  0  0  0  0  0  0  0  0  0  0  # atno 17321 bound_to 7965
  139.9841  144.6408  150.7874 LP  0  0  0  0  0  0  0  0  0  0  0  0  # atno 17342 bound_to 10162
  140.7525  143.2991  151.3128 LP  0  0  0  0  0  0  0  0  0  0  0  0  # atno 17343 bound_to 10162
  157.4484  130.7584  149.7129 LP  0  0  0  0  0  0  0  0  0  0  0  0  # atno 17370 bound_to 10713
  155.9830  130.4004  150.3384 LP  0  0  0  0  0  0  0  0  0  0  0  0  # atno 17371 bound_to 10713
  141.1345  133.6578  156.3555 LP  0  0  0  0  0  0  0  0  0  0  0  0  # atno 17394 bound_to 11000
  140.5385  134.6144  157.5372 LP  0  0  0  0  0  0  0  0  0  0  0  0  # atno 17395 bound_to 11000

$$$$
