AV-unprocessed.smi:1492|AV-procd|sdf|6046|dock9
  -GOLD-   22720 6163D 1   1.00000     0.00000
 Structure written by MMmdl.
 52 53  0  0  0  0  0  0  0  0  3 V2000
  143.6056  136.5128  152.9098 C   0  0  0  0  0  0  0  0  0  0  0  0
  144.7328  136.6472  153.9503 C   0  0  0  0  0  0  0  0  0  0  0  0
  146.1929  136.8309  153.4131 C   0  0  1  0  0  0  0  0  0  0  0  0
  146.2185  138.0334  152.4376 C   0  0  0  0  0  0  0  0  0  0  0  0
  147.1447  137.1469  154.6096 C   0  0  0  0  0  0  0  0  0  0  0  0
  148.3591  137.8188  154.1633 N   0  0  0  0  0  0  0  0  0  0  0  0
  149.6149  137.5325  154.5354 C   0  0  0  0  0  0  0  0  0  0  0  0
  149.9343  136.5108  155.1413 O   0  0  0  0  0  0  0  0  0  0  0  0
  150.6554  138.6128  154.2348 C   0  0  0  0  0  0  0  0  0  0  0  0
  151.1519  139.3503  155.4794 C   0  0  0  0  0  0  0  0  0  0  0  0
  150.5813  140.4910  155.9635 C   0  0  0  0  0  0  0  0  0  0  0  0
  149.4257  141.1978  155.2771 C   0  0  0  0  0  0  0  0  0  0  0  0
  151.0218  141.0677  157.1666 N   0  0  0  0  0  0  0  0  0  0  0  0
  151.9528  140.5002  157.8341 C   0  0  0  0  0  0  0  0  0  0  0  0
  152.4064  141.1157  159.1404 C   0  0  0  0  0  0  0  0  0  0  0  0
  152.5802  139.3392  157.4421 N   0  5  0  0  0  0  0  0  0  0  0  0
  152.2398  138.7434  156.2651 C   0  0  0  0  0  0  0  0  0  0  0  0
  152.7954  137.7220  155.8640 O   0  0  0  0  0  0  0  0  0  0  0  0
  146.6459  135.5636  152.7181 N   0  3  0  0  0  0  0  0  0  0  0  0
  146.7716  134.3477  153.5756 C   0  0  0  0  0  0  0  0  0  0  0  0
  147.3514  133.1598  152.7849 C   0  0  0  0  0  0  0  0  0  0  0  0
  146.5744  132.9099  151.6234 O   0  0  0  0  0  0  0  0  0  0  0  0
  146.5653  134.0328  150.7553 C   0  0  0  0  0  0  0  0  0  0  0  0
  145.8988  135.2131  151.4758 C   0  0  0  0  0  0  0  0  0  0  0  0
  142.6601  136.2977  153.4080 H   0  0  0  0  0  0  0  0  0  0  0  0
  143.7893  135.7030  152.2049 H   0  0  0  0  0  0  0  0  0  0  0  0
  143.4589  137.4328  152.3445 H   0  0  0  0  0  0  0  0  0  0  0  0
  144.4766  137.4790  154.6085 H   0  0  0  0  0  0  0  0  0  0  0  0
  144.6829  135.7505  154.5684 H   0  0  0  0  0  0  0  0  0  0  0  0
  145.8606  138.9444  152.9158 H   0  0  0  0  0  0  0  0  0  0  0  0
  145.5904  137.8631  151.5635 H   0  0  0  0  0  0  0  0  0  0  0  0
  147.2253  138.2575  152.0855 H   0  0  0  0  0  0  0  0  0  0  0  0
  146.6452  137.7200  155.3898 H   0  0  0  0  0  0  0  0  0  0  0  0
  147.4417  136.2291  155.1157 H   0  0  0  0  0  0  0  0  0  0  0  0
  148.2231  138.6746  153.6442 H   0  0  0  0  0  0  0  0  0  0  0  0
  151.5020  138.1683  153.7092 H   0  0  0  0  0  0  0  0  0  0  0  0
  150.2172  139.3148  153.5264 H   0  0  0  0  0  0  0  0  0  0  0  0
  149.7282  141.5520  154.2915 H   0  0  0  0  0  0  0  0  0  0  0  0
  149.0925  142.0612  155.8541 H   0  0  0  0  0  0  0  0  0  0  0  0
  148.5742  140.5276  155.1604 H   0  0  0  0  0  0  0  0  0  0  0  0
  153.4934  141.0823  159.2253 H   0  0  0  0  0  0  0  0  0  0  0  0
  151.9764  140.5700  159.9807 H   0  0  0  0  0  0  0  0  0  0  0  0
  152.0932  142.1584  159.2109 H   0  0  0  0  0  0  0  0  0  0  0  0
  147.4418  134.5151  154.4167 H   0  0  0  0  0  0  0  0  0  0  0  0
  145.7970  134.0775  153.9828 H   0  0  0  0  0  0  0  0  0  0  0  0
  148.3882  133.3425  152.5049 H   0  0  0  0  0  0  0  0  0  0  0  0
  147.3513  132.2641  153.4064 H   0  0  0  0  0  0  0  0  0  0  0  0
  147.5775  134.2848  150.4361 H   0  0  0  0  0  0  0  0  0  0  0  0
  146.0029  133.7773  149.8570 H   0  0  0  0  0  0  0  0  0  0  0  0
  144.8713  134.9397  151.7161 H   0  0  0  0  0  0  0  0  0  0  0  0
  145.8516  136.0481  150.7815 H   0  0  0  0  0  0  0  0  0  0  0  0
  147.5898  135.7618  152.4157 H   0  0  0  0  0  0  0  0  0  0  0  0
  1  2  1  0  0  0  0
  1 25  1  0  0  0  0
  1 26  1  0  0  0  0
  1 27  1  0  0  0  0
  2  3  1  0  0  0  0
  2 28  1  0  0  0  0
  2 29  1  0  0  0  0
  3  4  1  0  0  0  0
  3  5  1  0  0  0  0
  3 19  1  0  0  0  0
  4 30  1  0  0  0  0
  4 31  1  0  0  0  0
  4 32  1  0  0  0  0
  5  6  1  0  0  0  0
  5 33  1  0  0  0  0
  5 34  1  0  0  0  0
  6  7  1  0  0  0  0
  6 35  1  0  0  0  0
  7  8  2  0  0  0  0
  7  9  1  0  0  0  0
  9 10  1  0  0  0  0
  9 36  1  0  0  0  0
  9 37  1  0  0  0  0
 10 17  1  0  0  0  0
 10 11  2  0  0  0  0
 11 12  1  0  0  0  0
 11 13  1  0  0  0  0
 12 38  1  0  0  0  0
 12 39  1  0  0  0  0
 12 40  1  0  0  0  0
 13 14  2  0  0  0  0
 14 15  1  0  0  0  0
 14 16  1  0  0  0  0
 15 41  1  0  0  0  0
 15 42  1  0  0  0  0
 15 43  1  0  0  0  0
 16 17  1  0  0  0  0
 17 18  2  0  0  0  0
 19 24  1  0  0  0  0
 19 20  1  0  0  0  0
 19 52  1  0  0  0  0
 20 21  1  0  0  0  0
 20 44  1  0  0  0  0
 20 45  1  0  0  0  0
 21 22  1  0  0  0  0
 21 46  1  0  0  0  0
 21 47  1  0  0  0  0
 22 23  1  0  0  0  0
 23 24  1  0  0  0  0
 23 48  1  0  0  0  0
 23 49  1  0  0  0  0
 24 50  1  0  0  0  0
 24 51  1  0  0  0  0
M  CHG  1  16  -1
M  CHG  1  19   1
M  END
> <s_m_source_file>
AV-unprocessed.smi

> <i_m_source_file_index>
1492

> <i_lp_mmshare_version>
43012

> <i_f3d_flags>
0

> <s_epik_input>
W0NIMl0xW0NIMl1PW0NIMl1bQ0gyXU4xW0NAQF0oW0NIM10pKFtDSDJdW0NIM10pW0NIMl1bTkhdQyg9TylbQ0gyXWMyYyhbQ0gzXSluYyhbQ0gzXSlbbkhdYzI9Tw==

> <s_epik_cmdline>
J2VwaWtfcHl0aG9uJywgJy1waCcsICc3LjAnLCAnLXRuJywgJzgnLCAnLW1hJywgJzIwMCcsICctbWV0YWxfYmluZGluZycsICctaW1hZScsICc8aW5maWxlLm1hZT4nLCAnLW9tYWUnLCAnPG91dGZpbGUubWFlPic=

> <r_lp_tautomer_probability>
0.839158

> <r_epik_Ionization_Penalty>
6.90614

> <r_epik_Ionization_Penalty_Charging>
0.570079

> <r_epik_Ionization_Penalty_Neutral>
6.33607

> <r_epik_State_Penalty>
4.81716

> <r_epik_Charging_Adjusted_Penalty>
5.38724

> <i_epik_Tot_Q>
0

> <i_epik_Tot_abs_Q>
2

> <r_epik_Metal_State_Penalty>
1.25629

> <b_epik_Metal_Only>
1

> <s_lp_Force_Field>
OPLS_2005

> <r_lp_Energy>
28.2979

> <b_lp_Chiralities_Consistent>
1

> <s_lp_Variant>
AV-unprocessed.smi:1492-11

> <Gold.Version>
5.8.1

> <Gold.Id.Protein>
6NUR|6NUR_protein|mol2

> <Gold.PLP.Fitness>
44.4095

> <Gold.PLP.PLP>
-34.1205

> <Gold.PLP.part.hbond>
-4.0000

> <Gold.PLP.part.metal>
0.0000

> <Gold.PLP.part.buried>
-3.0557

> <Gold.PLP.part.nonpolar>
-26.8719

> <Gold.PLP.part.repulsive>
0.3428

> <Gold.PLP.ligand.clash>
0.0000

> <Gold.PLP.ligand.torsion>
0.9403

> <Gold.PLP.Chemscore.Hbond>
4.0000

> <Gold.PLP.Chemscore.CHOScore>
0.0000

> <Gold.PLP.Chemscore.Metal>
0.0000

> <Gold.Chemscore.Hbonds>
donor molecule, donor type, donor heavy atom, donor atom, acceptor molecule, acceptor atom, score
      L1  H    19    52       P1  7948  1.98
      P1  H  7997  8008       L1    16  0.86

> <Gold.PLP.Chemscore.Internal.Correction>
0.1696

> <Gold.Rescore>
     Score         DG    S(hbond)    S(metal)    S(lipo)     H(rot)  DE(clash)    DE(int)     intcor
     12.29     -14.53       1.80        0.00      72.41       2.12       1.35       0.89       ----

> <Gold.Chemscore.Fitness>
12.2940

> <Gold.Chemscore.DG>
-14.5324

> <Gold.Chemscore.ZeroCoef>
-5.4800

> <Gold.Chemscore.Hbond>
1.8013

> <Gold.Chemscore.Metal>
0.0000

> <Gold.Chemscore.Lipo>
72.4109

> <Gold.Chemscore.Internal_Hbond>
0.0000

> <Gold.Chemscore.DEClash>
1.3471

> <Gold.Chemscore.DEInternal>
0.8913

> <Gold.Chemscore.Rot>
2.1235

> <Gold.Chemscore.Internal.Correction>
   9.000000E+99

> <Gold.Chemscore.Hbonds>
donor molecule, donor type, donor heavy atom, donor atom, acceptor molecule, acceptor atom, score
      L1  H    19    52       P1  7948  0.92
      P1  H  7997  8008       L1    16  0.01

> <Gold.Chemscore.Hbond.Weighted>
-6.0164

> <Gold.Chemscore.Metal.Weighted>
-0.0000

> <Gold.Chemscore.Lipo.Weighted>
-8.4721

> <Gold.Chemscore.Internal_Hbond.Weighted>
0.0000

> <Gold.Chemscore.DEClash.Weighted>
1.3471

> <Gold.Chemscore.DEInternal.Weighted>
0.8913

> <Gold.Chemscore.Rot.Weighted>
5.4360

> <Gold.Chemscore.Internal.Correction.Weighted>
   9.000000E+99

> <Gold.Protein.RotatedTorsions>
[ 6907 6896 6895 6894 ] final  142.77 input  -60.11 | X-H torsion
[ 7974 7965 7964 7962 ] final   95.78 input  175.53 | X-H torsion
[ 8008 7997 7996 7995 ] final  -55.36 input   59.86 | X-H torsion
[ 10167 10162 10161 10158 ] final   83.81 input  -65.29 | X-H torsion
[ 10718 10713 10712 10709 ] final -140.85 input   66.30 | X-H torsion
[ 10763 10752 10751 10750 ] final  123.34 input  -60.55 | X-H torsion
[ 11005 11000 10999 10996 ] final  155.19 input  -57.11 | X-H torsion

> <Gold.Protein.ActiveResidues>
 VAL166  LYS551  ARG553  GLY616  TRP617  ASP618  TYR619  PRO620  LYS621  CYS622 
 ASP623  PHE694  ASN695  SER759  ASP760  ASP761  ALA762  ILE779  LEU786  VAL792 
 PHE793  MET794  SER795  GLU796  ALA797  LYS798  CYS799  TRP800  GLU811  SER814 

> <Gold.Protein.RotatedAtoms>
  152.2146  133.4937  159.5128 H   0  0  0  0  0  0  0  0  0  0  0  0  # atno 6907 bound_to 6896
  150.6998  134.1422  159.4118 H   0  0  0  0  0  0  0  0  0  0  0  0  # atno 6908 bound_to 6896
  151.9342  135.0242  160.0582 H   0  0  0  0  0  0  0  0  0  0  0  0  # atno 6909 bound_to 6896
  145.4476  139.2296  143.3057 H   0  0  0  0  0  0  0  0  0  0  0  0  # atno 7974 bound_to 7965
  154.4192  140.1155  156.5464 H   0  0  0  0  0  0  0  0  0  0  0  0  # atno 8008 bound_to 7997
  155.6455  140.3496  155.4710 H   0  0  0  0  0  0  0  0  0  0  0  0  # atno 8009 bound_to 7997
  155.9836  140.1165  157.0694 H   0  0  0  0  0  0  0  0  0  0  0  0  # atno 8010 bound_to 7997
  139.9146  144.6251  150.8502 H   0  0  0  0  0  0  0  0  0  0  0  0  # atno 10167 bound_to 10162
  156.3271  130.7566  151.1676 H   0  0  0  0  0  0  0  0  0  0  0  0  # atno 10718 bound_to 10713
  153.6439  135.3374  155.3080 H   0  0  0  0  0  0  0  0  0  0  0  0  # atno 10763 bound_to 10752
  154.8553  135.4325  154.1975 H   0  0  0  0  0  0  0  0  0  0  0  0  # atno 10764 bound_to 10752
  153.2901  135.7016  153.7375 H   0  0  0  0  0  0  0  0  0  0  0  0  # atno 10765 bound_to 10752
  140.1558  134.8643  157.2512 H   0  0  0  0  0  0  0  0  0  0  0  0  # atno 11005 bound_to 11000
  146.2522  140.5232  142.8888 LP  0  0  0  0  0  0  0  0  0  0  0  0  # atno 17320 bound_to 7965
  144.8082  140.6337  143.6433 LP  0  0  0  0  0  0  0  0  0  0  0  0  # atno 17321 bound_to 7965
  140.7677  143.3341  151.2347 LP  0  0  0  0  0  0  0  0  0  0  0  0  # atno 17342 bound_to 10162
  139.6913  143.9687  152.2861 LP  0  0  0  0  0  0  0  0  0  0  0  0  # atno 17343 bound_to 10162
  157.7423  131.0491  150.5031 LP  0  0  0  0  0  0  0  0  0  0  0  0  # atno 17370 bound_to 10713
  156.5192  130.4158  149.6259 LP  0  0  0  0  0  0  0  0  0  0  0  0  # atno 17371 bound_to 10713
  140.2549  134.3639  155.7428 LP  0  0  0  0  0  0  0  0  0  0  0  0  # atno 17394 bound_to 11000
  141.2204  133.7337  156.8992 LP  0  0  0  0  0  0  0  0  0  0  0  0  # atno 17395 bound_to 11000

$$$$
