#       Name:                AV-unprocessed.smi:1551
#       Creating user name   scv26
#       Creation time:       Fri Mar 27 06:41:18 2020


#       File generated by GOLD software.
#

@<TRIPOS>MOLECULE
AV-unprocessed.smi:1551
    45    46     1
SMALL
NO_CHARGES


@<TRIPOS>ATOM
      1 ****        -3.4315  -4.2625  -0.3719 C.3            1 S1                 0.0000
      2 ****        -2.7904  -2.9915  -0.3557 O.3            1 S1                 0.0000
      3 ****        -3.5768  -1.8553  -0.3775 C.ar           1 S1                 0.0000
      4 ****        -4.9251  -2.0040  -0.4142 N.ar           1 S1                 0.0000
      5 ****        -5.6934  -0.8958  -0.4434 C.ar           1 S1                 0.0000
      6 ****        -5.1655   0.4083  -0.4438 C.ar           1 S1                 0.0000
      7 ****        -3.7680   0.5652  -0.4041 C.ar           1 S1                 0.0000
      8 ****        -2.9481  -0.5884  -0.3585 C.ar           1 S1                 0.0000
      9 ****        -1.5271  -0.5403  -0.3427 N.am           1 S1                 0.0000
     10 ****        -0.7293   0.4582   0.0721 C.2            1 S1                 0.0000
     11 ****        -1.1152   1.5070   0.5880 O.2            1 S1                 0.0000
     12 ****         0.5616   0.1567  -0.1281 N.am           1 S1                 0.0000
     13 ****         1.7023   1.0052   0.2069 C.3            1 S1                 0.0000
     14 ****         2.5744   1.2160  -1.0459 C.3            1 S1                 0.0000
     15 ****         3.8409   2.0252  -0.7229 C.3            1 S1                 0.0000
     16 ****         4.6481   1.3610   0.4056 C.3            1 S1                 0.0000
     17 ****         5.7683   2.1607   0.7195 O.3            1 S1                 0.0000
     18 ****         3.7837   1.1687   1.6635 C.3            1 S1                 0.0000
     19 ****         2.5161   0.3590   1.3450 C.3            1 S1                 0.0000
     20 ****        -2.6754  -5.0473  -0.3549 H              1 S1                 0.0000
     21 ****        -4.0280  -4.3979  -1.2753 H              1 S1                 0.0000
     22 ****        -4.0693  -4.3991   0.5025 H              1 S1                 0.0000
     23 ****        -6.7613  -1.0530  -0.4753 H              1 S1                 0.0000
     24 ****        -5.8172   1.2687  -0.4800 H              1 S1                 0.0000
     25 ****        -3.3542   1.5613  -0.4270 H              1 S1                 0.0000
     26 ****        -1.0645  -1.3859  -0.6434 H              1 S1                 0.0000
     27 ****         0.7744  -0.7339  -0.5531 H              1 S1                 0.0000
     28 ****         1.3606   1.9850   0.5461 H              1 S1                 0.0000
     29 ****         2.8623   0.2499  -1.4630 H              1 S1                 0.0000
     30 ****         1.9999   1.7273  -1.8192 H              1 S1                 0.0000
     31 ****         4.4557   2.1204  -1.6188 H              1 S1                 0.0000
     32 ****         3.5582   3.0380  -0.4321 H              1 S1                 0.0000
     33 ****         5.0138   0.3911   0.0662 H              1 S1                 0.0000
     34 ****         5.4620   3.0036   1.0176 H              1 S1                 0.0000
     35 ****         4.3584   0.6633   2.4404 H              1 S1                 0.0000
     36 ****         3.4988   2.1398   2.0708 H              1 S1                 0.0000
     37 ****         1.9012   0.2719   2.2417 H              1 S1                 0.0000
     38 ****         2.7998  -0.6567   1.0656 H              1 S1                 0.0000
     39 ****        -2.1928  -2.9522  -1.1566 LP             1 S1                 0.0000
     40 ****        -2.2364  -2.9510   0.4758 LP             1 S1                 0.0000
     41 ****        -5.3395  -2.9141  -0.4195 LP             1 S1                 0.0000
     42 ****        -2.0927   1.6660   0.7264 LP             1 S1                 0.0000
     43 ****        -0.4512   2.2001   0.8687 LP             1 S1                 0.0000
     44 ****         6.3378   2.2774  -0.0942 LP             1 S1                 0.0000
     45 ****         6.3040   1.7222   1.4411 LP             1 S1                 0.0000
@<TRIPOS>BOND
    1    1    2 1     
    2    1   20 1     
    3    1   21 1     
    4    1   22 1     
    5    2    3 1     
    6    3    8 ar    
    7    3    4 ar    
    8    4    5 ar    
    9    5    6 ar    
   10    5   23 1     
   11    6    7 ar    
   12    6   24 1     
   13    7    8 ar    
   14    7   25 1     
   15    8    9 1     
   16    9   10 am    
   17    9   26 1     
   18   10   11 2     
   19   10   12 am    
   20   12   13 1     
   21   12   27 1     
   22   13   19 1     
   23   13   14 1     
   24   13   28 1     
   25   14   15 1     
   26   14   29 1     
   27   14   30 1     
   28   15   16 1     
   29   15   31 1     
   30   15   32 1     
   31   16   17 1     
   32   16   18 1     
   33   16   33 1     
   34   17   34 1     
   35   18   19 1     
   36   18   35 1     
   37   18   36 1     
   38   19   37 1     
   39   19   38 1     
   40    2   39 1     
   41    2   40 1     
   42    4   41 1     
   43   11   42 1     
   44   11   43 1     
   45   17   44 1     
   46   17   45 1     
@<TRIPOS>SUBSTRUCTURE
      1 S1             1
@<TRIPOS>SET
LONE_PAIRS      STATIC     ATOMS    <user>   **** ""
7 39 40 41 42 43 44 45
DONOR_HYDROGENS      STATIC     ATOMS    <user>   **** ""
3 26 27 34
ATOM$BLUE        STATIC     ATOMS    COLORGROUP SYSTEM
7 39 40 41 42 43 44 45
ATOM$RED        STATIC     ATOMS    COLORGROUP SYSTEM
3 26 27 34
