AV-unprocessed.smi:1591|AV-procd|sdf|6399|dock3
  -GOLD-   22720 7 33D 1   1.00000     0.00000
 Structure written by MMmdl.
 51 54  0  0  0  0  0  0  0  0  2 V2000
  152.1490  144.9803  159.6151 C   0  0  0  0  0  0  0  0  0  0  0  0
  151.8186  143.9334  158.5402 C   0  0  0  0  0  0  0  0  0  0  0  0
  151.6853  142.4914  159.0903 C   0  0  2  0  0  0  0  0  0  0  0  0
  153.0200  141.9831  159.4161 N   0  0  0  0  0  0  0  0  0  0  0  0
  153.5572  141.8847  160.6422 C   0  0  0  0  0  0  0  0  0  0  0  0
  153.0097  142.2988  161.6636 O   0  0  0  0  0  0  0  0  0  0  0  0
  154.9217  141.1948  160.7201 C   0  0  0  0  0  0  0  0  0  0  0  0
  154.7652  139.7326  160.7368 N   0  0  0  0  0  0  0  0  0  0  0  0
  153.8061  139.2009  161.6176 C   0  0  0  0  0  0  0  0  0  0  0  0
  153.6071  137.8748  161.7371 C   0  0  0  0  0  0  0  0  0  0  0  0
  154.4190  136.9800  160.9223 C   0  0  0  0  0  0  0  0  0  0  0  0
  154.2521  135.7657  161.0189 O   0  0  0  0  0  0  0  0  0  0  0  0
  155.3360  137.5433  160.0823 N   0  5  0  0  0  0  0  0  0  0  0  0
  155.5293  138.8947  159.9730 C   0  0  0  0  0  0  0  0  0  0  0  0
  156.3666  139.3795  159.2118 O   0  0  0  0  0  0  0  0  0  0  0  0
  150.9272  141.4826  158.1602 C   0  0  0  0  0  0  0  0  0  0  0  0
  149.4138  141.8251  158.0316 C   0  0  0  0  0  0  0  0  0  0  0  0
  148.7055  140.8245  157.0920 C   0  0  1  0  0  0  0  0  0  0  0  0
  149.3406  140.8902  155.6881 C   0  0  0  0  0  0  0  0  0  0  0  0
  150.8330  140.5163  155.7908 C   0  0  2  0  0  0  0  0  0  0  0  0
  150.9787  139.0874  156.3484 C   0  0  0  0  0  0  0  0  0  0  0  0
  150.3397  139.0294  157.7492 C   0  0  2  0  0  0  0  0  0  0  0  0
  148.8438  139.3947  157.6548 C   0  0  0  0  0  0  0  0  0  0  0  0
  151.0531  140.0242  158.6898 C   0  0  0  0  0  0  0  0  0  0  0  0
  151.5455  141.5117  156.7281 C   0  0  0  0  0  0  0  0  0  0  0  0
  152.1585  145.9827  159.1864 H   0  0  0  0  0  0  0  0  0  0  0  0
  153.1287  144.8069  160.0611 H   0  0  0  0  0  0  0  0  0  0  0  0
  151.4082  144.9689  160.4152 H   0  0  0  0  0  0  0  0  0  0  0  0
  150.8875  144.2436  158.0694 H   0  0  0  0  0  0  0  0  0  0  0  0
  152.5835  143.9760  157.7648 H   0  0  0  0  0  0  0  0  0  0  0  0
  151.1019  142.5729  160.0092 H   0  0  0  0  0  0  0  0  0  0  0  0
  153.5588  141.6174  158.6448 H   0  0  0  0  0  0  0  0  0  0  0  0
  155.5429  141.4968  159.8751 H   0  0  0  0  0  0  0  0  0  0  0  0
  155.4523  141.5509  161.6044 H   0  0  0  0  0  0  0  0  0  0  0  0
  153.2538  139.9318  162.1900 H   0  0  0  0  0  0  0  0  0  0  0  0
  152.8686  137.4836  162.4210 H   0  0  0  0  0  0  0  0  0  0  0  0
  148.9299  141.8013  159.0080 H   0  0  0  0  0  0  0  0  0  0  0  0
  149.2770  142.8367  157.6477 H   0  0  0  0  0  0  0  0  0  0  0  0
  147.6486  141.0836  157.0216 H   0  0  0  0  0  0  0  0  0  0  0  0
  148.8263  140.2109  155.0073 H   0  0  0  0  0  0  0  0  0  0  0  0
  149.2297  141.8910  155.2685 H   0  0  0  0  0  0  0  0  0  0  0  0
  151.2863  140.5652  154.8001 H   0  0  0  0  0  0  0  0  0  0  0  0
  150.4990  138.3695  155.6819 H   0  0  0  0  0  0  0  0  0  0  0  0
  152.0311  138.8063  156.4002 H   0  0  0  0  0  0  0  0  0  0  0  0
  150.4398  138.0198  158.1489 H   0  0  0  0  0  0  0  0  0  0  0  0
  148.3744  139.3269  158.6369 H   0  0  0  0  0  0  0  0  0  0  0  0
  148.3211  138.6839  157.0134 H   0  0  0  0  0  0  0  0  0  0  0  0
  152.1036  139.7494  158.7949 H   0  0  0  0  0  0  0  0  0  0  0  0
  150.6090  139.9273  159.6797 H   0  0  0  0  0  0  0  0  0  0  0  0
  151.4712  142.5060  156.2874 H   0  0  0  0  0  0  0  0  0  0  0  0
  152.6109  141.2809  156.7724 H   0  0  0  0  0  0  0  0  0  0  0  0
  1  2  1  0  0  0  0
  1 26  1  0  0  0  0
  1 27  1  0  0  0  0
  1 28  1  0  0  0  0
  2  3  1  0  0  0  0
  2 29  1  0  0  0  0
  2 30  1  0  0  0  0
  3  4  1  0  0  0  0
  3 16  1  0  0  0  0
  3 31  1  0  0  0  0
  4  5  1  0  0  0  0
  4 32  1  0  0  0  0
  5  6  2  0  0  0  0
  5  7  1  0  0  0  0
  7  8  1  0  0  0  0
  7 33  1  0  0  0  0
  7 34  1  0  0  0  0
  8 14  1  0  0  0  0
  8  9  1  0  0  0  0
  9 10  2  0  0  0  0
  9 35  1  0  0  0  0
 10 11  1  0  0  0  0
 10 36  1  0  0  0  0
 11 12  2  0  0  0  0
 11 13  1  0  0  0  0
 13 14  1  0  0  0  0
 14 15  2  0  0  0  0
 16 24  1  0  0  0  0
 16 25  1  0  0  0  0
 16 17  1  0  0  0  0
 17 18  1  0  0  0  0
 17 37  1  0  0  0  0
 17 38  1  0  0  0  0
 18 23  1  0  0  0  0
 18 19  1  0  0  0  0
 18 39  1  0  0  0  0
 19 20  1  0  0  0  0
 19 40  1  0  0  0  0
 19 41  1  0  0  0  0
 20 21  1  0  0  0  0
 20 25  1  0  0  0  0
 20 42  1  0  0  0  0
 21 22  1  0  0  0  0
 21 43  1  0  0  0  0
 21 44  1  0  0  0  0
 22 23  1  0  0  0  0
 22 24  1  0  0  0  0
 22 45  1  0  0  0  0
 23 46  1  0  0  0  0
 23 47  1  0  0  0  0
 24 48  1  0  0  0  0
 24 49  1  0  0  0  0
 25 50  1  0  0  0  0
 25 51  1  0  0  0  0
M  CHG  1  13  -1
M  END
> <s_m_source_file>
AV-unprocessed.smi

> <i_m_source_file_index>
1591

> <i_lp_mmshare_version>
43012

> <i_f3d_flags>
0

> <s_epik_input>
W0NIMl0xW0NASF0oW0NIMl0yKVtDSDJdW0NASF0oW0NIMl0zKVtDSDJdW0NAQEhdMVtDSDJdQzIzW0NASF0oW0NIMl1bQ0gzXSlbTkhdQyg9TylbQ0gyXW40W2NIXVtjSF1jKD1PKVtuSF1jND1P

> <s_epik_cmdline>
J2VwaWtfcHl0aG9uJywgJy1waCcsICc3LjAnLCAnLXRuJywgJzgnLCAnLW1hJywgJzIwMCcsICctbWV0YWxfYmluZGluZycsICctaW1hZScsICc8aW5maWxlLm1hZT4nLCAnLW9tYWUnLCAnPG91dGZpbGUubWFlPic=

> <r_lp_tautomer_probability>
0.999537

> <r_epik_Ionization_Penalty>
3.13902

> <r_epik_Ionization_Penalty_Charging>
2.97334e-08

> <r_epik_Ionization_Penalty_Neutral>
3.13902

> <r_epik_State_Penalty>
3.13814

> <r_epik_Charging_Adjusted_Penalty>
3.13814

> <i_epik_Tot_Q>
-1

> <i_epik_Tot_abs_Q>
1

> <r_epik_Metal_State_Penalty>
0.465244

> <b_epik_Metal_Only>
1

> <s_lp_Force_Field>
OPLS_2005

> <r_lp_Energy>
48.864

> <b_lp_Chiralities_Consistent>
1

> <s_lp_Variant>
AV-unprocessed.smi:1591-3

> <Gold.Version>
5.8.1

> <Gold.Id.Protein>
6NUR|6NUR_protein|mol2

> <Gold.PLP.Fitness>
44.1771

> <Gold.PLP.PLP>
-39.9679

> <Gold.PLP.part.hbond>
-1.8295

> <Gold.PLP.part.metal>
0.0000

> <Gold.PLP.part.buried>
-6.2738

> <Gold.PLP.part.nonpolar>
-32.0334

> <Gold.PLP.part.repulsive>
0.1530

> <Gold.PLP.ligand.clash>
0.0000

> <Gold.PLP.ligand.torsion>
0.9474

> <Gold.PLP.Chemscore.Hbond>
2.0000

> <Gold.PLP.Chemscore.CHOScore>
0.0000

> <Gold.PLP.Chemscore.Metal>
0.0000

> <Gold.Chemscore.Hbonds>
donor molecule, donor type, donor heavy atom, donor atom, acceptor molecule, acceptor atom, score
      P1  H  6896  6907       L1    12  0.26
      P1  H  7997  8009       L1    15  0.68

> <Gold.PLP.Chemscore.Internal.Correction>
0.1039

> <Gold.Rescore>
     Score         DG    S(hbond)    S(metal)    S(lipo)     H(rot)  DE(clash)    DE(int)     intcor
     17.86     -18.79       1.97        0.00     100.88       1.99       0.15       0.78       ----

> <Gold.Chemscore.Fitness>
17.8594

> <Gold.Chemscore.DG>
-18.7950

> <Gold.Chemscore.ZeroCoef>
-5.4800

> <Gold.Chemscore.Hbond>
1.9747

> <Gold.Chemscore.Metal>
0.0000

> <Gold.Chemscore.Lipo>
100.8823

> <Gold.Chemscore.Internal_Hbond>
0.0000

> <Gold.Chemscore.DEClash>
0.1534

> <Gold.Chemscore.DEInternal>
0.7821

> <Gold.Chemscore.Rot>
1.9858

> <Gold.Chemscore.Internal.Correction>
   9.000000E+99

> <Gold.Chemscore.Hbonds>
donor molecule, donor type, donor heavy atom, donor atom, acceptor molecule, acceptor atom, score
      P1  H  6896  6907       L1    12  0.26
      P1  H  7997  8009       L1    15  0.52

> <Gold.Chemscore.Hbond.Weighted>
-6.5954

> <Gold.Chemscore.Metal.Weighted>
-0.0000

> <Gold.Chemscore.Lipo.Weighted>
-11.8032

> <Gold.Chemscore.Internal_Hbond.Weighted>
0.0000

> <Gold.Chemscore.DEClash.Weighted>
0.1534

> <Gold.Chemscore.DEInternal.Weighted>
0.7821

> <Gold.Chemscore.Rot.Weighted>
5.0836

> <Gold.Chemscore.Internal.Correction.Weighted>
   9.000000E+99

> <Gold.Protein.RotatedTorsions>
[ 6907 6896 6895 6894 ] final   57.60 input  -60.11 | X-H torsion
[ 7974 7965 7964 7962 ] final   86.51 input  175.53 | X-H torsion
[ 8008 7997 7996 7995 ] final  101.75 input   59.86 | X-H torsion
[ 10167 10162 10161 10158 ] final  168.32 input  -65.29 | X-H torsion
[ 10718 10713 10712 10709 ] final   44.57 input   66.30 | X-H torsion
[ 10763 10752 10751 10750 ] final  142.21 input  -60.55 | X-H torsion
[ 11005 11000 10999 10996 ] final -144.16 input  -57.11 | X-H torsion

> <Gold.Protein.ActiveResidues>
 VAL166  LYS551  ARG553  GLY616  TRP617  ASP618  TYR619  PRO620  LYS621  CYS622 
 ASP623  PHE694  ASN695  SER759  ASP760  ASP761  ALA762  ILE779  LEU786  VAL792 
 PHE793  MET794  SER795  GLU796  ALA797  LYS798  CYS799  TRP800  GLU811  SER814 

> <Gold.Protein.RotatedAtoms>
  152.3747  134.6682  160.0163 H   0  0  0  0  0  0  0  0  0  0  0  0  # atno 6907 bound_to 6896
  151.6964  133.3305  159.3263 H   0  0  0  0  0  0  0  0  0  0  0  0  # atno 6908 bound_to 6896
  150.7700  134.6589  159.6373 H   0  0  0  0  0  0  0  0  0  0  0  0  # atno 6909 bound_to 6896
  145.5713  139.2314  143.2405 H   0  0  0  0  0  0  0  0  0  0  0  0  # atno 7974 bound_to 7965
  156.1329  140.3192  155.8376 H   0  0  0  0  0  0  0  0  0  0  0  0  # atno 8008 bound_to 7997
  155.4298  140.0518  157.3036 H   0  0  0  0  0  0  0  0  0  0  0  0  # atno 8009 bound_to 7997
  154.4913  140.2093  155.9554 H   0  0  0  0  0  0  0  0  0  0  0  0  # atno 8010 bound_to 7997
  139.4965  144.3827  151.9604 H   0  0  0  0  0  0  0  0  0  0  0  0  # atno 10167 bound_to 10162
  157.4282  130.8009  149.7578 H   0  0  0  0  0  0  0  0  0  0  0  0  # atno 10718 bound_to 10713
  153.9520  135.2969  155.3438 H   0  0  0  0  0  0  0  0  0  0  0  0  # atno 10763 bound_to 10752
  154.7421  135.5020  153.9144 H   0  0  0  0  0  0  0  0  0  0  0  0  # atno 10764 bound_to 10752
  153.0989  135.6729  153.9819 H   0  0  0  0  0  0  0  0  0  0  0  0  # atno 10765 bound_to 10752
  140.8053  134.2809  157.4963 H   0  0  0  0  0  0  0  0  0  0  0  0  # atno 11005 bound_to 11000
  146.1782  140.6539  142.9201 LP  0  0  0  0  0  0  0  0  0  0  0  0  # atno 17320 bound_to 7965
  144.7437  140.5010  143.6851 LP  0  0  0  0  0  0  0  0  0  0  0  0  # atno 17321 bound_to 7965
  140.3264  144.3368  150.5997 LP  0  0  0  0  0  0  0  0  0  0  0  0  # atno 17342 bound_to 10162
  140.5681  143.2184  151.7647 LP  0  0  0  0  0  0  0  0  0  0  0  0  # atno 17343 bound_to 10162
  155.9904  130.3945  150.3030 LP  0  0  0  0  0  0  0  0  0  0  0  0  # atno 17370 bound_to 10713
  157.1185  131.0240  151.3019 LP  0  0  0  0  0  0  0  0  0  0  0  0  # atno 17371 bound_to 10713
  139.8718  134.9452  156.3904 LP  0  0  0  0  0  0  0  0  0  0  0  0  # atno 17394 bound_to 11000
  140.9253  133.7616  155.9957 LP  0  0  0  0  0  0  0  0  0  0  0  0  # atno 17395 bound_to 11000

$$$$
