AV-unprocessed.smi:2668|AV-procd|sdf|10338|dock3
  -GOLD-   2272014363D 1   1.00000     0.00000
 Structure written by MMmdl.
 54 55  0  0  0  0  0  0  0  0  3 V2000
  145.5482  135.3956  150.7218 C   0  0  0  0  0  0  0  0  0  0  0  0
  144.7537  136.3426  151.5435 N   0  3  0  0  0  0  0  0  0  0  0  0
  143.7102  135.6086  152.3024 C   0  0  0  0  0  0  0  0  0  0  0  0
  145.5872  137.2516  152.3949 C   0  0  2  0  0  0  0  0  0  0  0  0
  144.7874  137.8385  153.5804 C   0  0  0  0  0  0  0  0  0  0  0  0
  145.6233  138.8143  154.4256 C   0  0  0  0  0  0  0  0  0  0  0  0
  146.1497  139.9407  153.6009 N   0  3  1  0  0  0  0  0  0  0  0  0
  146.7632  141.0821  154.3748 C   0  0  0  0  0  0  0  0  0  0  0  0
  146.7717  142.3659  153.5061 C   0  0  0  0  0  0  0  0  0  0  0  0
  145.8786  141.4112  155.6049 C   0  0  0  0  0  0  0  0  0  0  0  0
  148.2180  140.7429  154.8195 C   0  0  0  0  0  0  0  0  0  0  0  0
  148.8671  141.8208  155.5647 N   0  0  0  0  0  0  0  0  0  0  0  0
  149.7335  141.6561  156.5749 C   0  0  0  0  0  0  0  0  0  0  0  0
  150.0717  140.5531  157.0035 O   0  0  0  0  0  0  0  0  0  0  0  0
  150.1780  142.8392  157.0314 N   0  0  0  0  0  0  0  0  0  0  0  0
  151.0944  143.0934  158.0876 C   0  0  0  0  0  0  0  0  0  0  0  0
  151.6086  144.3733  158.4089 C   0  0  0  0  0  0  0  0  0  0  0  0
  152.5268  144.4902  159.4702 C   0  0  0  0  0  0  0  0  0  0  0  0
  152.9031  143.3250  160.1662 C   0  0  0  0  0  0  0  0  0  0  0  0
  152.4319  142.0974  159.8623 N   0  0  0  0  0  0  0  0  0  0  0  0
  151.5524  141.9929  158.8435 C   0  0  0  0  0  0  0  0  0  0  0  0
  146.9758  139.4044  152.4807 C   0  0  0  0  0  0  0  0  0  0  0  0
  146.1685  138.4402  151.5949 C   0  0  0  0  0  0  0  0  0  0  0  0
  146.2177  134.8014  151.3451 H   0  0  0  0  0  0  0  0  0  0  0  0
  146.1392  135.9122  149.9668 H   0  0  0  0  0  0  0  0  0  0  0  0
  144.8982  134.7092  150.1779 H   0  0  0  0  0  0  0  0  0  0  0  0
  144.1489  135.0452  153.1270 H   0  0  0  0  0  0  0  0  0  0  0  0
  143.1799  134.9054  151.6593 H   0  0  0  0  0  0  0  0  0  0  0  0
  142.9530  136.2812  152.7027 H   0  0  0  0  0  0  0  0  0  0  0  0
  146.4179  136.6662  152.7933 H   0  0  0  0  0  0  0  0  0  0  0  0
  143.8957  138.3478  153.2116 H   0  0  0  0  0  0  0  0  0  0  0  0
  144.4422  137.0489  154.2465 H   0  0  0  0  0  0  0  0  0  0  0  0
  144.9832  139.1703  155.2300 H   0  0  0  0  0  0  0  0  0  0  0  0
  146.4462  138.2733  154.8936 H   0  0  0  0  0  0  0  0  0  0  0  0
  147.0114  143.2510  154.0966 H   0  0  0  0  0  0  0  0  0  0  0  0
  145.7981  142.5434  153.0476 H   0  0  0  0  0  0  0  0  0  0  0  0
  147.5172  142.3285  152.7122 H   0  0  0  0  0  0  0  0  0  0  0  0
  146.1570  142.3613  156.0623 H   0  0  0  0  0  0  0  0  0  0  0  0
  145.9658  140.6646  156.3937 H   0  0  0  0  0  0  0  0  0  0  0  0
  144.8264  141.4897  155.3292 H   0  0  0  0  0  0  0  0  0  0  0  0
  148.2450  139.8247  155.4067 H   0  0  0  0  0  0  0  0  0  0  0  0
  148.8464  140.5556  153.9494 H   0  0  0  0  0  0  0  0  0  0  0  0
  148.6496  142.7647  155.2792 H   0  0  0  0  0  0  0  0  0  0  0  0
  149.8685  143.6561  156.5250 H   0  0  0  0  0  0  0  0  0  0  0  0
  151.3327  145.2595  157.8594 H   0  0  0  0  0  0  0  0  0  0  0  0
  152.9378  145.4516  159.7408 H   0  0  0  0  0  0  0  0  0  0  0  0
  153.6064  143.3799  160.9839 H   0  0  0  0  0  0  0  0  0  0  0  0
  151.1989  140.9950  158.6273 H   0  0  0  0  0  0  0  0  0  0  0  0
  147.3419  140.2001  151.8356 H   0  0  0  0  0  0  0  0  0  0  0  0
  147.8518  138.8880  152.8745 H   0  0  0  0  0  0  0  0  0  0  0  0
  146.8353  138.0908  150.8074 H   0  0  0  0  0  0  0  0  0  0  0  0
  145.3627  138.9867  151.1024 H   0  0  0  0  0  0  0  0  0  0  0  0
  144.2587  136.9304  150.8876 H   0  0  0  0  0  0  0  0  0  0  0  0
  145.3377  140.3491  153.1604 H   0  0  0  0  0  0  0  0  0  0  0  0
  1  2  1  0  0  0  0
  1 24  1  0  0  0  0
  1 25  1  0  0  0  0
  1 26  1  0  0  0  0
  2  3  1  0  0  0  0
  2  4  1  0  0  0  0
  2 53  1  0  0  0  0
  3 27  1  0  0  0  0
  3 28  1  0  0  0  0
  3 29  1  0  0  0  0
  4 23  1  0  0  0  0
  4  5  1  0  0  0  0
  4 30  1  0  0  0  0
  5  6  1  0  0  0  0
  5 31  1  0  0  0  0
  5 32  1  0  0  0  0
  6  7  1  0  0  0  0
  6 33  1  0  0  0  0
  6 34  1  0  0  0  0
  7  8  1  0  0  0  0
  7 22  1  0  0  0  0
  7 54  1  0  0  0  0
  8  9  1  0  0  0  0
  8 10  1  0  0  0  0
  8 11  1  0  0  0  0
  9 35  1  0  0  0  0
  9 36  1  0  0  0  0
  9 37  1  0  0  0  0
 10 38  1  0  0  0  0
 10 39  1  0  0  0  0
 10 40  1  0  0  0  0
 11 12  1  0  0  0  0
 11 41  1  0  0  0  0
 11 42  1  0  0  0  0
 12 13  1  0  0  0  0
 12 43  1  0  0  0  0
 13 14  2  0  0  0  0
 13 15  1  0  0  0  0
 15 16  1  0  0  0  0
 15 44  1  0  0  0  0
 16 21  1  0  0  0  0
 16 17  2  0  0  0  0
 17 18  1  0  0  0  0
 17 45  1  0  0  0  0
 18 19  2  0  0  0  0
 18 46  1  0  0  0  0
 19 20  1  0  0  0  0
 19 47  1  0  0  0  0
 20 21  2  0  0  0  0
 21 48  1  0  0  0  0
 22 23  1  0  0  0  0
 22 49  1  0  0  0  0
 22 50  1  0  0  0  0
 23 51  1  0  0  0  0
 23 52  1  0  0  0  0
M  CHG  1   2   1
M  CHG  1   7   1
M  END
> <s_m_source_file>
AV-unprocessed.smi

> <i_m_source_file_index>
2668

> <i_lp_mmshare_version>
43012

> <i_f3d_flags>
0

> <s_epik_input>
W0NIM11OKFtDSDNdKVtDSF0xW0NIMl1bQ0gyXU4oW0NIMl1bQ0gyXTEpQyhbQ0gzXSkoW0NIM10pW0NIMl1bTkhdQyg9TylbTkhdYzJbY0hdW2NIXVtjSF1uW2NIXTI=

> <s_epik_cmdline>
J2VwaWtfcHl0aG9uJywgJy1waCcsICc3LjAnLCAnLXRuJywgJzgnLCAnLW1hJywgJzIwMCcsICctbWV0YWxfYmluZGluZycsICctaW1hZScsICc8aW5maWxlLm1hZT4nLCAnLW9tYWUnLCAnPG91dGZpbGUubWFlPic=

> <r_epik_Ionization_Penalty>
0.210461

> <r_epik_Ionization_Penalty_Charging>
0.206231

> <r_epik_Ionization_Penalty_Neutral>
0.00422959

> <r_epik_State_Penalty>
0.176025

> <r_epik_Charging_Adjusted_Penalty>
0.382256

> <i_epik_Tot_Q>
2

> <i_epik_Tot_abs_Q>
2

> <r_epik_Metal_State_Penalty>
0.176152

> <b_epik_Metal_Only>
0

> <s_lp_Force_Field>
OPLS_2005

> <r_lp_Energy>
43.7891

> <b_lp_Chiralities_Consistent>
1

> <s_lp_Variant>
AV-unprocessed.smi:2668-1

> <Gold.Version>
5.8.1

> <Gold.Id.Protein>
6NUR|6NUR_protein|mol2

> <Gold.PLP.Fitness>
53.5632

> <Gold.PLP.PLP>
-40.5298

> <Gold.PLP.part.hbond>
-4.0000

> <Gold.PLP.part.metal>
0.0000

> <Gold.PLP.part.buried>
-1.9259

> <Gold.PLP.part.nonpolar>
-35.0766

> <Gold.PLP.part.repulsive>
0.1624

> <Gold.PLP.ligand.clash>
0.0000

> <Gold.PLP.ligand.torsion>
1.0424

> <Gold.PLP.Chemscore.Hbond>
4.9513

> <Gold.PLP.Chemscore.CHOScore>
0.0000

> <Gold.PLP.Chemscore.Metal>
0.0000

> <Gold.Chemscore.Hbonds>
donor molecule, donor type, donor heavy atom, donor atom, acceptor molecule, acceptor atom, score
      L1  H     2    53       P1 10171  1.00
      L1  H     7    54       P1 10175  2.00
      L1  H    12    43       P1  8028  0.94
      L1  H    15    44       P1  8028  1.00

> <Gold.PLP.Chemscore.Internal.Correction>
0.2644

> <Gold.Rescore>
     Score         DG    S(hbond)    S(metal)    S(lipo)     H(rot)  DE(clash)    DE(int)     intcor
     24.33     -27.20       3.89        0.00     111.64       1.69       0.66       2.21       ----

> <Gold.Chemscore.Fitness>
24.3274

> <Gold.Chemscore.DG>
-27.2004

> <Gold.Chemscore.ZeroCoef>
-5.4800

> <Gold.Chemscore.Hbond>
3.8858

> <Gold.Chemscore.Metal>
0.0000

> <Gold.Chemscore.Lipo>
111.6424

> <Gold.Chemscore.Internal_Hbond>
0.0000

> <Gold.Chemscore.DEClash>
0.6625

> <Gold.Chemscore.DEInternal>
2.2105

> <Gold.Chemscore.Rot>
1.6877

> <Gold.Chemscore.Internal.Correction>
   9.000000E+99

> <Gold.Chemscore.Hbonds>
donor molecule, donor type, donor heavy atom, donor atom, acceptor molecule, acceptor atom, score
      L1  H     2    53       P1 10171  0.94
      L1  H     7    54       P1 10175  0.97
      L1  H    12    43       P1  8028  0.88
      L1  H    15    44       P1  8028  1.00

> <Gold.Chemscore.Hbond.Weighted>
-12.9787

> <Gold.Chemscore.Metal.Weighted>
-0.0000

> <Gold.Chemscore.Lipo.Weighted>
-13.0622

> <Gold.Chemscore.Internal_Hbond.Weighted>
0.0000

> <Gold.Chemscore.DEClash.Weighted>
0.6625

> <Gold.Chemscore.DEInternal.Weighted>
2.2105

> <Gold.Chemscore.Rot.Weighted>
4.3205

> <Gold.Chemscore.Internal.Correction.Weighted>
   9.000000E+99

> <Gold.Protein.RotatedTorsions>
[ 6907 6896 6895 6894 ] final  -96.58 input  -60.11 | X-H torsion
[ 7974 7965 7964 7962 ] final  -42.18 input  175.53 | X-H torsion
[ 8008 7997 7996 7995 ] final  146.10 input   59.86 | X-H torsion
[ 10167 10162 10161 10158 ] final  -45.85 input  -65.29 | X-H torsion
[ 10718 10713 10712 10709 ] final   36.77 input   66.30 | X-H torsion
[ 10763 10752 10751 10750 ] final  -36.38 input  -60.55 | X-H torsion
[ 11005 11000 10999 10996 ] final -123.95 input  -57.11 | X-H torsion

> <Gold.Protein.ActiveResidues>
 VAL166  LYS551  ARG553  GLY616  TRP617  ASP618  TYR619  PRO620  LYS621  CYS622 
 ASP623  PHE694  ASN695  SER759  ASP760  ASP761  ALA762  ILE779  LEU786  VAL792 
 PHE793  MET794  SER795  GLU796  ALA797  LYS798  CYS799  TRP800  GLU811  SER814 

> <Gold.Protein.RotatedAtoms>
  150.6992  134.1481  159.4129 H   0  0  0  0  0  0  0  0  0  0  0  0  # atno 6907 bound_to 6896
  151.9464  135.0187  160.0548 H   0  0  0  0  0  0  0  0  0  0  0  0  # atno 6908 bound_to 6896
  152.2049  133.4833  159.5115 H   0  0  0  0  0  0  0  0  0  0  0  0  # atno 6909 bound_to 6896
  146.0141  140.6929  142.9210 H   0  0  0  0  0  0  0  0  0  0  0  0  # atno 7974 bound_to 7965
  156.2865  140.2191  156.5323 H   0  0  0  0  0  0  0  0  0  0  0  0  # atno 8008 bound_to 7997
  154.7439  140.0485  157.0857 H   0  0  0  0  0  0  0  0  0  0  0  0  # atno 8009 bound_to 7997
  155.0196  140.3122  155.4802 H   0  0  0  0  0  0  0  0  0  0  0  0  # atno 8010 bound_to 7997
  140.6841  143.2859  151.3698 H   0  0  0  0  0  0  0  0  0  0  0  0  # atno 10167 bound_to 10162
  157.3389  130.7537  149.6898 H   0  0  0  0  0  0  0  0  0  0  0  0  # atno 10718 bound_to 10713
  153.8788  135.6823  153.4768 H   0  0  0  0  0  0  0  0  0  0  0  0  # atno 10763 bound_to 10752
  153.1245  135.4725  154.9248 H   0  0  0  0  0  0  0  0  0  0  0  0  # atno 10764 bound_to 10752
  154.7679  135.3229  154.8201 H   0  0  0  0  0  0  0  0  0  0  0  0  # atno 10765 bound_to 10752
  140.9879  134.0580  157.3689 H   0  0  0  0  0  0  0  0  0  0  0  0  # atno 11005 bound_to 11000
  144.6964  140.3449  143.7192 LP  0  0  0  0  0  0  0  0  0  0  0  0  # atno 17320 bound_to 7965
  145.7297  139.1732  143.2437 LP  0  0  0  0  0  0  0  0  0  0  0  0  # atno 17321 bound_to 7965
  139.6186  144.0952  152.2370 LP  0  0  0  0  0  0  0  0  0  0  0  0  # atno 17342 bound_to 10162
  140.0389  144.6023  150.7427 LP  0  0  0  0  0  0  0  0  0  0  0  0  # atno 17343 bound_to 10162
  155.9705  130.4173  150.4275 LP  0  0  0  0  0  0  0  0  0  0  0  0  # atno 17370 bound_to 10713
  157.2319  131.0506  151.2487 LP  0  0  0  0  0  0  0  0  0  0  0  0  # atno 17371 bound_to 10713
  139.8979  135.0152  156.7122 LP  0  0  0  0  0  0  0  0  0  0  0  0  # atno 17394 bound_to 11000
  140.7085  133.9243  155.8069 LP  0  0  0  0  0  0  0  0  0  0  0  0  # atno 17395 bound_to 11000

$$$$
