#       Name:                AV-unprocessed.smi:1107
#       Creating user name   scv26
#       Creation time:       Fri Mar 27 03:32:59 2020


#       File generated by GOLD software.
#

@<TRIPOS>MOLECULE
AV-unprocessed.smi:1107
    54    55     1
SMALL
NO_CHARGES


@<TRIPOS>ATOM
      1 ****        -4.3721   0.7559  -1.6927 C.3            1 S1                 0.0000
      2 ****        -3.2362   1.1954  -0.7937 C.2            1 S1                 0.0000
      3 ****        -2.6053   2.2727  -1.0689 N.2            1 S1                 0.0000
      4 ****        -1.5425   2.6825  -0.2461 C.2            1 S1                 0.0000
      5 ****        -0.8239   3.9497  -0.6746 C.3            1 S1                 0.0000
      6 ****        -1.1849   1.9600   0.8542 C.2            1 S1                 0.0000
      7 ****         0.0033   2.3105   1.7513 C.3            1 S1                 0.0000
      8 ****         1.2912   1.5470   1.4342 C.2            1 S1                 0.0000
      9 ****         1.9924   1.1138   2.3474 O.2            1 S1                 0.0000
     10 ****         1.5607   1.3524   0.1333 N.am           1 S1                 0.0000
     11 ****         2.5904   0.4766  -0.4168 C.3            1 S1                 0.0000
     12 ****         3.4382   1.2591  -1.4284 C.3            1 S1                 0.0000
     13 ****         1.9364  -0.7677  -1.0598 C.3            1 S1                 0.0000
     14 ****         0.9847  -1.4750  -0.1607 N.4            1 S1                 1.0000
     15 ****         0.0302  -2.3279  -0.9169 C.3            1 S1                 0.0000
     16 ****        -1.0109  -2.9776   0.0110 C.3            1 S1                 0.0000
     17 ****        -0.3358  -3.7638   1.1410 C.3            1 S1                 0.0000
     18 ****         0.6477  -2.8578   1.8915 C.3            1 S1                 0.0000
     19 ****         1.6647  -2.2330   0.9235 C.3            1 S1                 0.0000
     20 ****        -1.9423   0.7297   1.1408 C.2            1 S1                 0.0000
     21 ****        -1.6524   0.0387   2.1163 O.2            1 S1                 0.0000
     22 ****        -2.9423   0.3870   0.2812 N.pl3          1 S1                -1.0000
     23 ****        -4.8053   1.6085  -2.2173 H              1 S1                 0.0000
     24 ****        -5.1628   0.2783  -1.1127 H              1 S1                 0.0000
     25 ****        -4.0084   0.0439  -2.4339 H              1 S1                 0.0000
     26 ****         0.2422   3.7645  -0.8067 H              1 S1                 0.0000
     27 ****        -0.9509   4.7301   0.0760 H              1 S1                 0.0000
     28 ****        -1.2167   4.3267  -1.6196 H              1 S1                 0.0000
     29 ****         0.2227   3.3756   1.6884 H              1 S1                 0.0000
     30 ****        -0.2685   2.1405   2.7943 H              1 S1                 0.0000
     31 ****         0.9286   1.7731  -0.5331 H              1 S1                 0.0000
     32 ****         3.2651   0.1504   0.3754 H              1 S1                 0.0000
     33 ****         4.2257   0.6322  -1.8477 H              1 S1                 0.0000
     34 ****         3.9178   2.1176  -0.9570 H              1 S1                 0.0000
     35 ****         2.8317   1.6295  -2.2556 H              1 S1                 0.0000
     36 ****         1.3930  -0.4384  -1.9471 H              1 S1                 0.0000
     37 ****         2.6984  -1.4643  -1.4125 H              1 S1                 0.0000
     38 ****        -0.4884  -1.7240  -1.6626 H              1 S1                 0.0000
     39 ****         0.5820  -3.0981  -1.4578 H              1 S1                 0.0000
     40 ****        -1.6550  -2.2095   0.4372 H              1 S1                 0.0000
     41 ****        -1.6620  -3.6364  -0.5642 H              1 S1                 0.0000
     42 ****        -1.0865  -4.1564   1.8272 H              1 S1                 0.0000
     43 ****         0.1937  -4.6238   0.7290 H              1 S1                 0.0000
     44 ****         0.1013  -2.0687   2.4094 H              1 S1                 0.0000
     45 ****         1.1677  -3.4292   2.6608 H              1 S1                 0.0000
     46 ****         2.2921  -3.0114   0.4867 H              1 S1                 0.0000
     47 ****         2.3251  -1.5758   1.4878 H              1 S1                 0.0000
     48 ****         0.4267  -0.7609   0.2869 H              1 S1                 0.0000
     49 ****        -2.8663   2.8199  -1.8641 LP             1 S1                 0.0000
     50 ****         1.7212   1.2603   3.2987 LP             1 S1                 0.0000
     51 ****         2.8336   0.6151   2.1385 LP             1 S1                 0.0000
     52 ****        -0.9010   0.3118   2.7170 LP             1 S1                 0.0000
     53 ****        -2.1682  -0.7962   2.3087 LP             1 S1                 0.0000
     54 ****        -3.4636  -0.4531   0.4313 LP             1 S1                 0.0000
@<TRIPOS>BOND
    1    1    2 1     
    2    1   23 1     
    3    1   24 1     
    4    1   25 1     
    5    2   22 1     
    6    2    3 2     
    7    3    4 1     
    8    4    5 1     
    9    4    6 2     
   10    5   26 1     
   11    5   27 1     
   12    5   28 1     
   13    6    7 1     
   14    6   20 1     
   15    7    8 1     
   16    7   29 1     
   17    7   30 1     
   18    8    9 2     
   19    8   10 am    
   20   10   11 1     
   21   10   31 1     
   22   11   12 1     
   23   11   13 1     
   24   11   32 1     
   25   12   33 1     
   26   12   34 1     
   27   12   35 1     
   28   13   14 1     
   29   13   36 1     
   30   13   37 1     
   31   14   19 1     
   32   14   15 1     
   33   14   48 1     
   34   15   16 1     
   35   15   38 1     
   36   15   39 1     
   37   16   17 1     
   38   16   40 1     
   39   16   41 1     
   40   17   18 1     
   41   17   42 1     
   42   17   43 1     
   43   18   19 1     
   44   18   44 1     
   45   18   45 1     
   46   19   46 1     
   47   19   47 1     
   48   20   21 2     
   49   20   22 1     
   50    3   49 1     
   51    9   50 1     
   52    9   51 1     
   53   21   52 1     
   54   21   53 1     
   55   22   54 1     
@<TRIPOS>SUBSTRUCTURE
      1 S1             1
@<TRIPOS>SET
LONE_PAIRS      STATIC     ATOMS    <user>   **** ""
6 49 50 51 52 53 54
DONOR_HYDROGENS      STATIC     ATOMS    <user>   **** ""
2 31 48
ATOM$BLUE        STATIC     ATOMS    COLORGROUP SYSTEM
6 49 50 51 52 53 54
ATOM$RED        STATIC     ATOMS    COLORGROUP SYSTEM
2 31 48
