AV-unprocessed.smi:2616|AV-procd|sdf|10216|dock3
  -GOLD-   2272014223D 1   1.00000     0.00000
 Structure written by MMmdl.
 26 27  0  0  0  0  0  0  0  0  2 V2000
  154.1396  138.4539  154.9763 O   0  0  0  0  0  0  0  0  0  0  0  0
  152.8988  138.3037  154.9772 C   0  0  0  0  0  0  0  0  0  0  0  0
  152.3727  137.3348  154.3823 O   0  5  0  0  0  0  0  0  0  0  0  0
  151.9936  139.2880  155.6930 C   0  0  0  0  0  0  0  0  0  0  0  0
  152.5714  139.9109  156.7495 N   0  0  0  0  0  0  0  0  0  0  0  0
  151.8660  140.8052  157.4622 C   0  0  0  0  0  0  0  0  0  0  0  0
  150.5359  141.1410  157.1704 C   0  0  0  0  0  0  0  0  0  0  0  0
  149.7160  142.3071  158.1513 Cl  0  0  0  0  0  0  0  0  0  0  0  0
  149.9036  140.5111  156.0760 C   0  0  0  0  0  0  0  0  0  0  0  0
  148.5701  140.8594  155.7990 N   0  0  0  0  0  0  0  0  0  0  0  0
  148.2935  141.4469  154.4963 C   0  0  0  0  0  0  0  0  0  0  0  0
  146.9088  142.1168  154.5215 C   0  0  0  0  0  0  0  0  0  0  0  0
  145.9259  141.1759  154.9490 O   0  0  0  0  0  0  0  0  0  0  0  0
  146.1772  140.6937  156.2675 C   0  0  0  0  0  0  0  0  0  0  0  0
  147.5348  139.9711  156.3067 C   0  0  0  0  0  0  0  0  0  0  0  0
  150.6403  139.5604  155.3125 C   0  0  0  0  0  0  0  0  0  0  0  0
  149.8742  138.7797  153.9617 Cl  0  0  0  0  0  0  0  0  0  0  0  0
  152.3807  141.2669  158.2920 H   0  0  0  0  0  0  0  0  0  0  0  0
  149.0627  142.1776  154.2434 H   0  0  0  0  0  0  0  0  0  0  0  0
  148.3119  140.6768  153.7259 H   0  0  0  0  0  0  0  0  0  0  0  0
  146.9087  142.9826  155.1856 H   0  0  0  0  0  0  0  0  0  0  0  0
  146.6477  142.4784  153.5269 H   0  0  0  0  0  0  0  0  0  0  0  0
  146.1583  141.5227  156.9770 H   0  0  0  0  0  0  0  0  0  0  0  0
  145.3791  140.0099  156.5559 H   0  0  0  0  0  0  0  0  0  0  0  0
  147.4850  139.0680  155.6996 H   0  0  0  0  0  0  0  0  0  0  0  0
  147.7709  139.6648  157.3264 H   0  0  0  0  0  0  0  0  0  0  0  0
  1  2  2  0  0  0  0
  2  3  1  0  0  0  0
  2  4  1  0  0  0  0
  4 16  1  0  0  0  0
  4  5  2  0  0  0  0
  5  6  1  0  0  0  0
  6  7  2  0  0  0  0
  6 18  1  0  0  0  0
  7  8  1  0  0  0  0
  7  9  1  0  0  0  0
  9 10  1  0  0  0  0
  9 16  2  0  0  0  0
 10 15  1  0  0  0  0
 10 11  1  0  0  0  0
 11 12  1  0  0  0  0
 11 19  1  0  0  0  0
 11 20  1  0  0  0  0
 12 13  1  0  0  0  0
 12 21  1  0  0  0  0
 12 22  1  0  0  0  0
 13 14  1  0  0  0  0
 14 15  1  0  0  0  0
 14 23  1  0  0  0  0
 14 24  1  0  0  0  0
 15 25  1  0  0  0  0
 15 26  1  0  0  0  0
 16 17  1  0  0  0  0
M  CHG  1   3  -1
M  END
> <s_m_source_file>
AV-unprocessed.smi

> <i_m_source_file_index>
2616

> <i_lp_mmshare_version>
43012

> <i_f3d_flags>
0

> <s_epik_input>
Tz1DKFtPSF0pYzFuW2NIXWMoQ2wpYyhjMUNsKU4yW0NIMl1bQ0gyXU9bQ0gyXVtDSDJdMg==

> <s_epik_cmdline>
J2VwaWtfcHl0aG9uJywgJy1waCcsICc3LjAnLCAnLXRuJywgJzgnLCAnLW1hJywgJzIwMCcsICctbWV0YWxfYmluZGluZycsICctaW1hZScsICc8aW5maWxlLm1hZT4nLCAnLW9tYWUnLCAnPG91dGZpbGUubWFlPic=

> <r_epik_Ionization_Penalty>
0.00232884

> <r_epik_Ionization_Penalty_Charging>
7.03121e-06

> <r_epik_Ionization_Penalty_Neutral>
0.00232181

> <r_epik_State_Penalty>
0.00160212

> <r_epik_Charging_Adjusted_Penalty>
0.00160915

> <i_epik_Tot_Q>
-1

> <i_epik_Tot_abs_Q>
1

> <r_epik_Metal_State_Penalty>
-0

> <b_epik_Metal_Only>
0

> <s_lp_Force_Field>
OPLS_2005

> <r_lp_Energy>
33.645

> <b_lp_Chiralities_Consistent>
1

> <s_lp_Variant>
AV-unprocessed.smi:2616-1

> <Gold.Version>
5.8.1

> <Gold.Id.Protein>
6NUR|6NUR_protein|mol2

> <Gold.PLP.Fitness>
35.1412

> <Gold.PLP.PLP>
-27.1212

> <Gold.PLP.part.hbond>
-3.0000

> <Gold.PLP.part.metal>
0.0000

> <Gold.PLP.part.buried>
-2.3473

> <Gold.PLP.part.nonpolar>
-22.5327

> <Gold.PLP.part.repulsive>
0.3289

> <Gold.PLP.ligand.clash>
0.0000

> <Gold.PLP.ligand.torsion>
0.6428

> <Gold.PLP.Chemscore.Hbond>
2.9440

> <Gold.PLP.Chemscore.CHOScore>
0.0000

> <Gold.PLP.Chemscore.Metal>
0.0000

> <Gold.Chemscore.Hbonds>
donor molecule, donor type, donor heavy atom, donor atom, acceptor molecule, acceptor atom, score
      P1  H  7997  8009       L1     5  0.58
      P1  H  7997  8010       L1     1  0.57
      P1  H 10752 10764       L1     3  1.25

> <Gold.PLP.Chemscore.Internal.Correction>
0.4736

> <Gold.Rescore>
     Score         DG    S(hbond)    S(metal)    S(lipo)     H(rot)  DE(clash)    DE(int)     intcor
     13.67     -14.83       1.61        0.00      55.94       1.00       0.12       1.05       ----

> <Gold.Chemscore.Fitness>
13.6672

> <Gold.Chemscore.DG>
-14.8341

> <Gold.Chemscore.ZeroCoef>
-5.4800

> <Gold.Chemscore.Hbond>
1.6077

> <Gold.Chemscore.Metal>
0.0000

> <Gold.Chemscore.Lipo>
55.9356

> <Gold.Chemscore.Internal_Hbond>
0.0000

> <Gold.Chemscore.DEClash>
0.1191

> <Gold.Chemscore.DEInternal>
1.0478

> <Gold.Chemscore.Rot>
1.0000

> <Gold.Chemscore.Internal.Correction>
   9.000000E+99

> <Gold.Chemscore.Hbonds>
donor molecule, donor type, donor heavy atom, donor atom, acceptor molecule, acceptor atom, score
      P1  H  7997  8009       L1     5  0.47
      P1  H  7997  8010       L1     1  0.29
      P1  H 10752 10764       L1     3  0.62

> <Gold.Chemscore.Hbond.Weighted>
-5.3696

> <Gold.Chemscore.Metal.Weighted>
-0.0000

> <Gold.Chemscore.Lipo.Weighted>
-6.5445

> <Gold.Chemscore.Internal_Hbond.Weighted>
0.0000

> <Gold.Chemscore.DEClash.Weighted>
0.1191

> <Gold.Chemscore.DEInternal.Weighted>
1.0478

> <Gold.Chemscore.Rot.Weighted>
2.5600

> <Gold.Chemscore.Internal.Correction.Weighted>
   9.000000E+99

> <Gold.Protein.RotatedTorsions>
[ 6907 6896 6895 6894 ] final  -29.44 input  -60.11 | X-H torsion
[ 7974 7965 7964 7962 ] final  -38.64 input  175.53 | X-H torsion
[ 8008 7997 7996 7995 ] final  153.83 input   59.86 | X-H torsion
[ 10167 10162 10161 10158 ] final  132.83 input  -65.29 | X-H torsion
[ 10718 10713 10712 10709 ] final  -16.99 input   66.30 | X-H torsion
[ 10763 10752 10751 10750 ] final  -99.19 input  -60.55 | X-H torsion
[ 11005 11000 10999 10996 ] final -152.32 input  -57.11 | X-H torsion

> <Gold.Protein.ActiveResidues>
 VAL166  LYS551  ARG553  GLY616  TRP617  ASP618  TYR619  PRO620  LYS621  CYS622 
 ASP623  PHE694  ASN695  SER759  ASP760  ASP761  ALA762  ILE779  LEU786  VAL792 
 PHE793  MET794  SER795  GLU796  ALA797  LYS798  CYS799  TRP800  GLU811  SER814 

> <Gold.Protein.RotatedAtoms>
  151.1192  135.0070  159.8530 H   0  0  0  0  0  0  0  0  0  0  0  0  # atno 6907 bound_to 6896
  152.5447  134.1743  159.8619 H   0  0  0  0  0  0  0  0  0  0  0  0  # atno 6908 bound_to 6896
  151.1800  133.4686  159.2627 H   0  0  0  0  0  0  0  0  0  0  0  0  # atno 6909 bound_to 6896
  146.0468  140.6534  142.9061 H   0  0  0  0  0  0  0  0  0  0  0  0  # atno 7974 bound_to 7965
  156.2562  140.1983  156.6552 H   0  0  0  0  0  0  0  0  0  0  0  0  # atno 8008 bound_to 7997
  154.6506  140.0572  156.9976 H   0  0  0  0  0  0  0  0  0  0  0  0  # atno 8009 bound_to 7997
  155.1423  140.3244  155.4452 H   0  0  0  0  0  0  0  0  0  0  0  0  # atno 8010 bound_to 7997
  139.5323  144.6644  151.4909 H   0  0  0  0  0  0  0  0  0  0  0  0  # atno 10167 bound_to 10162
  156.5799  130.4771  149.6325 H   0  0  0  0  0  0  0  0  0  0  0  0  # atno 10718 bound_to 10713
  154.7477  135.4981  153.9234 H   0  0  0  0  0  0  0  0  0  0  0  0  # atno 10763 bound_to 10752
  153.1110  135.6709  153.9509 H   0  0  0  0  0  0  0  0  0  0  0  0  # atno 10764 bound_to 10752
  153.9268  135.3082  155.3425 H   0  0  0  0  0  0  0  0  0  0  0  0  # atno 10765 bound_to 10752
  140.7201  134.3736  157.5184 H   0  0  0  0  0  0  0  0  0  0  0  0  # atno 11005 bound_to 11000
  144.7102  140.4010  143.7086 LP  0  0  0  0  0  0  0  0  0  0  0  0  # atno 17320 bound_to 7965
  145.6791  139.1615  143.2711 LP  0  0  0  0  0  0  0  0  0  0  0  0  # atno 17321 bound_to 7965
  140.6508  143.8700  150.6784 LP  0  0  0  0  0  0  0  0  0  0  0  0  # atno 17342 bound_to 10162
  140.2064  143.3918  152.1752 LP  0  0  0  0  0  0  0  0  0  0  0  0  # atno 17343 bound_to 10162
  156.2641  130.6979  151.1757 LP  0  0  0  0  0  0  0  0  0  0  0  0  # atno 17370 bound_to 10713
  157.7329  131.0596  150.5605 LP  0  0  0  0  0  0  0  0  0  0  0  0  # atno 17371 bound_to 10713
  139.8850  134.8949  156.2668 LP  0  0  0  0  0  0  0  0  0  0  0  0  # atno 17394 bound_to 11000
  141.0011  133.7151  156.0961 LP  0  0  0  0  0  0  0  0  0  0  0  0  # atno 17395 bound_to 11000

$$$$
