AV-unprocessed.smi:2829|AV-procd|sdf|10899|dock9
  -GOLD-   2272015343D 1   1.00000     0.00000
 Structure written by MMmdl.
 50 53  0  0  0  0  0  0  0  0  1 V2000
  145.8372  128.5912  152.0126 C   0  0  0  0  0  0  0  0  0  0  0  0
  147.0786  128.7285  152.9231 C   0  0  0  0  0  0  0  0  0  0  0  0
  146.7233  128.1019  154.2878 C   0  0  0  0  0  0  0  0  0  0  0  0
  148.2272  127.9354  152.2658 C   0  0  0  0  0  0  0  0  0  0  0  0
  147.5051  130.1944  153.1197 C   0  0  0  0  0  0  0  0  0  0  0  0
  148.5896  130.5829  153.9386 C   0  0  0  0  0  0  0  0  0  0  0  0
  148.8781  131.9548  154.0350 C   0  0  0  0  0  0  0  0  0  0  0  0
  148.0772  132.8619  153.3129 C   0  0  0  0  0  0  0  0  0  0  0  0
  148.4232  134.2302  153.4594 N   0  0  0  0  0  0  0  0  0  0  0  0
  148.8319  134.8702  154.5725 C   0  0  0  0  0  0  0  0  0  0  0  0
  148.8852  134.3655  155.6923 O   0  0  0  0  0  0  0  0  0  0  0  0
  149.1802  136.1524  154.3703 N   0  0  0  0  0  0  0  0  0  0  0  0
  149.6625  137.1147  155.3603 C   0  0  1  0  0  0  0  0  0  0  0  0
  150.9363  137.8254  154.8986 C   0  0  2  0  0  0  0  0  0  0  0  0
  152.3612  137.7711  155.3153 C   0  0  0  0  0  0  0  0  0  0  0  0
  152.6353  139.2968  155.3111 C   0  0  0  0  0  0  0  0  0  0  0  0
  151.3433  139.9298  155.1434 O   0  0  0  0  0  0  0  0  0  0  0  0
  150.4253  139.0097  155.7024 C   0  0  1  0  0  0  0  0  0  0  0  0
  149.0376  138.5475  155.2380 C   0  0  0  0  0  0  0  0  0  0  0  0
  147.7711  138.9440  156.0059 C   0  0  0  0  0  0  0  0  0  0  0  0
  147.0246  139.0058  154.6688 C   0  0  0  0  0  0  0  0  0  0  0  0
  148.3791  139.0941  153.9575 C   0  0  0  0  0  0  0  0  0  0  0  0
  147.0499  132.4186  152.5462 N   0  0  0  0  0  0  0  0  0  0  0  0
  146.7691  131.1158  152.4517 N   0  0  0  0  0  0  0  0  0  0  0  0
  145.5511  127.5458  151.8905 H   0  0  0  0  0  0  0  0  0  0  0  0
  146.0233  128.9884  151.0139 H   0  0  0  0  0  0  0  0  0  0  0  0
  144.9729  129.1112  152.4279 H   0  0  0  0  0  0  0  0  0  0  0  0
  145.9158  128.6491  154.7760 H   0  0  0  0  0  0  0  0  0  0  0  0
  147.5763  128.1004  154.9676 H   0  0  0  0  0  0  0  0  0  0  0  0
  146.3998  127.0665  154.1778 H   0  0  0  0  0  0  0  0  0  0  0  0
  147.9476  126.8945  152.0999 H   0  0  0  0  0  0  0  0  0  0  0  0
  149.1238  127.9309  152.8866 H   0  0  0  0  0  0  0  0  0  0  0  0
  148.4994  128.3607  151.2993 H   0  0  0  0  0  0  0  0  0  0  0  0
  149.1941  129.8747  154.4836 H   0  0  0  0  0  0  0  0  0  0  0  0
  149.6968  132.2988  154.6503 H   0  0  0  0  0  0  0  0  0  0  0  0
  148.3994  134.7785  152.6126 H   0  0  0  0  0  0  0  0  0  0  0  0
  149.0800  136.5030  153.4287 H   0  0  0  0  0  0  0  0  0  0  0  0
  149.7269  136.7333  156.3829 H   0  0  0  0  0  0  0  0  0  0  0  0
  150.8813  138.0098  153.8190 H   0  0  0  0  0  0  0  0  0  0  0  0
  152.4804  137.3364  156.3088 H   0  0  0  0  0  0  0  0  0  0  0  0
  152.9895  137.2289  154.6083 H   0  0  0  0  0  0  0  0  0  0  0  0
  153.0944  139.6118  156.2489 H   0  0  0  0  0  0  0  0  0  0  0  0
  153.2952  139.5907  154.4947 H   0  0  0  0  0  0  0  0  0  0  0  0
  150.5633  138.9040  156.7835 H   0  0  0  0  0  0  0  0  0  0  0  0
  147.3996  138.1902  156.7003 H   0  0  0  0  0  0  0  0  0  0  0  0
  147.8596  139.9214  156.4823 H   0  0  0  0  0  0  0  0  0  0  0  0
  146.4871  138.0846  154.4409 H   0  0  0  0  0  0  0  0  0  0  0  0
  146.3889  139.8827  154.5444 H   0  0  0  0  0  0  0  0  0  0  0  0
  148.6727  140.1226  153.7436 H   0  0  0  0  0  0  0  0  0  0  0  0
  148.4680  138.4611  153.0745 H   0  0  0  0  0  0  0  0  0  0  0  0
  1  2  1  0  0  0  0
  1 25  1  0  0  0  0
  1 26  1  0  0  0  0
  1 27  1  0  0  0  0
  2  3  1  0  0  0  0
  2  4  1  0  0  0  0
  2  5  1  0  0  0  0
  3 28  1  0  0  0  0
  3 29  1  0  0  0  0
  3 30  1  0  0  0  0
  4 31  1  0  0  0  0
  4 32  1  0  0  0  0
  4 33  1  0  0  0  0
  5 24  1  0  0  0  0
  5  6  2  0  0  0  0
  6  7  1  0  0  0  0
  6 34  1  0  0  0  0
  7  8  2  0  0  0  0
  7 35  1  0  0  0  0
  8  9  1  0  0  0  0
  8 23  1  0  0  0  0
  9 10  1  0  0  0  0
  9 36  1  0  0  0  0
 10 11  2  0  0  0  0
 10 12  1  0  0  0  0
 12 13  1  0  0  0  0
 12 37  1  0  0  0  0
 13 19  1  0  0  0  0
 13 14  1  0  0  0  0
 13 38  1  0  0  0  0
 14 18  1  0  0  0  0
 14 15  1  0  0  0  0
 14 39  1  0  0  0  0
 15 16  1  0  0  0  0
 15 40  1  0  0  0  0
 15 41  1  0  0  0  0
 16 17  1  0  0  0  0
 16 42  1  0  0  0  0
 16 43  1  0  0  0  0
 17 18  1  0  0  0  0
 18 19  1  0  0  0  0
 18 44  1  0  0  0  0
 19 22  1  0  0  0  0
 19 20  1  0  0  0  0
 20 21  1  0  0  0  0
 20 45  1  0  0  0  0
 20 46  1  0  0  0  0
 21 22  1  0  0  0  0
 21 47  1  0  0  0  0
 21 48  1  0  0  0  0
 22 49  1  0  0  0  0
 22 50  1  0  0  0  0
 23 24  2  0  0  0  0
M  END
> <s_m_source_file>
AV-unprocessed.smi

> <i_m_source_file_index>
2829

> <i_lp_mmshare_version>
43012

> <i_f3d_flags>
0

> <s_epik_input>
W0NIM11DKFtDSDNdKShbQ0gzXSljMVtjSF1bY0hdYyhubjEpW05IXUMoPU8pW05IXVtDQEBIXTJbQ0BIXShbQ0gyXVtDSDJdTzMpW0NAQEhdM0MyNFtDSDJdW0NIMl1bQ0gyXTQ=

> <s_epik_cmdline>
J2VwaWtfcHl0aG9uJywgJy1waCcsICc3LjAnLCAnLXRuJywgJzgnLCAnLW1hJywgJzIwMCcsICctbWV0YWxfYmluZGluZycsICctaW1hZScsICc8aW5maWxlLm1hZT4nLCAnLW9tYWUnLCAnPG91dGZpbGUubWFlPic=

> <r_lp_tautomer_probability>
1

> <r_epik_Ionization_Penalty>
0.011915

> <r_epik_Ionization_Penalty_Charging>
0

> <r_epik_Ionization_Penalty_Neutral>
0.011915

> <r_epik_State_Penalty>
0.00486223

> <r_epik_Charging_Adjusted_Penalty>
0.00486223

> <i_epik_Tot_Q>
0

> <i_epik_Tot_abs_Q>
0

> <r_epik_Metal_State_Penalty>
-0

> <b_epik_Metal_Only>
0

> <s_lp_Force_Field>
OPLS_2005

> <r_lp_Energy>
82.5072

> <b_lp_Chiralities_Consistent>
1

> <s_lp_Variant>
AV-unprocessed.smi:2829-2

> <Gold.Version>
5.8.1

> <Gold.Id.Protein>
6NUR|6NUR_protein|mol2

> <Gold.PLP.Fitness>
39.4794

> <Gold.PLP.PLP>
-31.3033

> <Gold.PLP.part.hbond>
-2.9797

> <Gold.PLP.part.metal>
0.0000

> <Gold.PLP.part.buried>
-0.8952

> <Gold.PLP.part.nonpolar>
-27.9939

> <Gold.PLP.part.repulsive>
0.3430

> <Gold.PLP.ligand.clash>
0.0000

> <Gold.PLP.ligand.torsion>
0.4654

> <Gold.PLP.Chemscore.Hbond>
2.9280

> <Gold.PLP.Chemscore.CHOScore>
0.0000

> <Gold.PLP.Chemscore.Metal>
0.0000

> <Gold.Chemscore.Hbonds>
donor molecule, donor type, donor heavy atom, donor atom, acceptor molecule, acceptor atom, score
      L1  H     9    36       P1  7948  0.91
      L1  H    12    37       P1  7948  0.99
      P1  H  7989  7998       L1    17  1.00

> <Gold.PLP.Chemscore.Internal.Correction>
0.3229

> <Gold.Rescore>
     Score         DG    S(hbond)    S(metal)    S(lipo)     H(rot)  DE(clash)    DE(int)     intcor
     17.06     -18.94       2.06        0.00      81.70       1.16       0.09       1.80       ----

> <Gold.Chemscore.Fitness>
17.0568

> <Gold.Chemscore.DG>
-18.9426

> <Gold.Chemscore.ZeroCoef>
-5.4800

> <Gold.Chemscore.Hbond>
2.0593

> <Gold.Chemscore.Metal>
0.0000

> <Gold.Chemscore.Lipo>
81.6974

> <Gold.Chemscore.Internal_Hbond>
0.0000

> <Gold.Chemscore.DEClash>
0.0879

> <Gold.Chemscore.DEInternal>
1.7980

> <Gold.Chemscore.Rot>
1.1618

> <Gold.Chemscore.Internal.Correction>
   9.000000E+99

> <Gold.Chemscore.Hbonds>
donor molecule, donor type, donor heavy atom, donor atom, acceptor molecule, acceptor atom, score
      L1  H     9    36       P1  7948  0.31
      L1  H    12    37       P1  7948  0.90
      P1  H  7989  7998       L1    17  0.25

> <Gold.Chemscore.Hbond.Weighted>
-6.8782

> <Gold.Chemscore.Metal.Weighted>
-0.0000

> <Gold.Chemscore.Lipo.Weighted>
-9.5586

> <Gold.Chemscore.Internal_Hbond.Weighted>
0.0000

> <Gold.Chemscore.DEClash.Weighted>
0.0879

> <Gold.Chemscore.DEInternal.Weighted>
1.7980

> <Gold.Chemscore.Rot.Weighted>
2.9741

> <Gold.Chemscore.Internal.Correction.Weighted>
   9.000000E+99

> <Gold.Protein.RotatedTorsions>
[ 6907 6896 6895 6894 ] final   39.80 input  -60.11 | X-H torsion
[ 7974 7965 7964 7962 ] final  167.69 input  175.53 | X-H torsion
[ 8008 7997 7996 7995 ] final -172.45 input   59.86 | X-H torsion
[ 10167 10162 10161 10158 ] final   48.98 input  -65.29 | X-H torsion
[ 10718 10713 10712 10709 ] final  -63.37 input   66.30 | X-H torsion
[ 10763 10752 10751 10750 ] final -120.11 input  -60.55 | X-H torsion
[ 11005 11000 10999 10996 ] final  133.83 input  -57.11 | X-H torsion

> <Gold.Protein.ActiveResidues>
 VAL166  LYS551  ARG553  GLY616  TRP617  ASP618  TYR619  PRO620  LYS621  CYS622 
 ASP623  PHE694  ASN695  SER759  ASP760  ASP761  ALA762  ILE779  LEU786  VAL792 
 PHE793  MET794  SER795  GLU796  ALA797  LYS798  CYS799  TRP800  GLU811  SER814 

> <Gold.Protein.RotatedAtoms>
  152.1743  134.8808  160.0531 H   0  0  0  0  0  0  0  0  0  0  0  0  # atno 6907 bound_to 6896
  151.9756  133.3735  159.4096 H   0  0  0  0  0  0  0  0  0  0  0  0  # atno 6908 bound_to 6896
  150.6907  134.4017  159.5165 H   0  0  0  0  0  0  0  0  0  0  0  0  # atno 6909 bound_to 6896
  144.7415  139.8798  143.6395 H   0  0  0  0  0  0  0  0  0  0  0  0  # atno 7974 bound_to 7965
  155.9448  140.1115  157.1026 H   0  0  0  0  0  0  0  0  0  0  0  0  # atno 8008 bound_to 7997
  154.4097  140.1212  156.5040 H   0  0  0  0  0  0  0  0  0  0  0  0  # atno 8009 bound_to 7997
  155.6917  140.3472  155.4898 H   0  0  0  0  0  0  0  0  0  0  0  0  # atno 8010 bound_to 7997
  140.2876  144.3083  150.6248 H   0  0  0  0  0  0  0  0  0  0  0  0  # atno 10167 bound_to 10162
  156.0795  130.4220  150.1267 H   0  0  0  0  0  0  0  0  0  0  0  0  # atno 10718 bound_to 10713
  154.8635  135.4214  154.2407 H   0  0  0  0  0  0  0  0  0  0  0  0  # atno 10763 bound_to 10752
  153.3373  135.6991  153.6902 H   0  0  0  0  0  0  0  0  0  0  0  0  # atno 10764 bound_to 10752
  153.5894  135.3557  155.2878 H   0  0  0  0  0  0  0  0  0  0  0  0  # atno 10765 bound_to 10752
  139.9876  134.9526  156.9780 H   0  0  0  0  0  0  0  0  0  0  0  0  # atno 11005 bound_to 11000
  146.1220  139.4239  143.0222 LP  0  0  0  0  0  0  0  0  0  0  0  0  # atno 17320 bound_to 7965
  145.7291  141.0048  143.1361 LP  0  0  0  0  0  0  0  0  0  0  0  0  # atno 17321 bound_to 7965
  140.5759  143.2176  151.7516 LP  0  0  0  0  0  0  0  0  0  0  0  0  # atno 17342 bound_to 10162
  139.4946  144.4150  152.0039 LP  0  0  0  0  0  0  0  0  0  0  0  0  # atno 17343 bound_to 10162
  156.9301  130.9711  151.3534 LP  0  0  0  0  0  0  0  0  0  0  0  0  # atno 17370 bound_to 10713
  157.5906  130.8441  149.8654 LP  0  0  0  0  0  0  0  0  0  0  0  0  # atno 17371 bound_to 10713
  140.4971  134.1134  155.7243 LP  0  0  0  0  0  0  0  0  0  0  0  0  # atno 17394 bound_to 11000
  141.1538  133.8920  157.2030 LP  0  0  0  0  0  0  0  0  0  0  0  0  # atno 17395 bound_to 11000

$$$$
