AV-unprocessed.smi:951|AV-procd|sdf|4253|dock10
  -GOLD-   22720 2163D 1   1.00000     0.00000
 Structure written by MMmdl.
 52 54  0  0  0  0  0  0  0  0  2 V2000
  148.5028  140.7636  157.5045 O   0  0  0  0  0  0  0  0  0  0  0  0
  148.8562  141.6939  156.7781 C   0  0  0  0  0  0  0  0  0  0  0  0
  149.3686  142.8403  157.2500 N   0  0  0  0  0  0  0  0  0  0  0  0
  149.6012  143.1322  158.6590 C   0  0  0  0  0  0  0  0  0  0  0  0
  150.8510  144.0057  158.8579 C   0  0  0  0  0  0  0  0  0  0  0  0
  151.9460  143.2746  159.6094 C   0  0  0  0  0  0  0  0  0  0  0  0
  152.2201  143.5252  160.9715 C   0  0  0  0  0  0  0  0  0  0  0  0
  153.2588  142.8132  161.6072 C   0  0  0  0  0  0  0  0  0  0  0  0
  154.0005  141.8679  160.8686 C   0  0  0  0  0  0  0  0  0  0  0  0
  153.6854  141.6593  159.5101 C   0  0  0  0  0  0  0  0  0  0  0  0
  152.6830  142.3610  158.9370 N   0  3  0  0  0  0  0  0  0  0  0  0
  148.7011  141.5957  155.2477 C   0  0  2  0  0  0  0  0  0  0  0  0
  147.2246  141.3600  154.8921 C   0  0  0  0  0  0  0  0  0  0  0  0
  147.2625  140.5755  153.5964 C   0  0  0  0  0  0  0  0  0  0  0  0
  148.5630  139.7777  153.6658 C   0  0  0  0  0  0  0  0  0  0  0  0
  149.4353  140.4817  154.6114 N   0  0  0  0  0  0  0  0  0  0  0  0
  150.7518  140.2002  154.7964 C   0  0  0  0  0  0  0  0  0  0  0  0
  151.4706  140.9085  155.5022 O   0  0  0  0  0  0  0  0  0  0  0  0
  151.3761  138.9676  154.0952 C   0  0  0  0  0  0  0  0  0  0  0  0
  150.6224  137.6447  154.3892 C   0  0  0  0  0  0  0  0  0  0  0  0
  150.9270  137.0324  155.7717 C   0  0  0  0  0  0  0  0  0  0  0  0
  152.4380  136.9029  156.0132 C   0  0  0  0  0  0  0  0  0  0  0  0
  153.1476  138.2511  155.8233 C   0  0  0  0  0  0  0  0  0  0  0  0
  152.8814  138.8206  154.4185 C   0  0  0  0  0  0  0  0  0  0  0  0
  149.6279  143.5541  156.5843 H   0  0  0  0  0  0  0  0  0  0  0  0
  148.7208  143.6149  159.0869 H   0  0  0  0  0  0  0  0  0  0  0  0
  149.7222  142.1852  159.1857 H   0  0  0  0  0  0  0  0  0  0  0  0
  151.2365  144.3313  157.8907 H   0  0  0  0  0  0  0  0  0  0  0  0
  150.5972  144.9129  159.4081 H   0  0  0  0  0  0  0  0  0  0  0  0
  151.6446  144.2543  161.5234 H   0  0  0  0  0  0  0  0  0  0  0  0
  153.4841  142.9909  162.6487 H   0  0  0  0  0  0  0  0  0  0  0  0
  154.7995  141.3118  161.3368 H   0  0  0  0  0  0  0  0  0  0  0  0
  154.2007  140.9584  158.8698 H   0  0  0  0  0  0  0  0  0  0  0  0
  149.0464  142.5197  154.7800 H   0  0  0  0  0  0  0  0  0  0  0  0
  146.7256  140.7546  155.6513 H   0  0  0  0  0  0  0  0  0  0  0  0
  146.6650  142.2910  154.7955 H   0  0  0  0  0  0  0  0  0  0  0  0
  146.3846  139.9448  153.4535 H   0  0  0  0  0  0  0  0  0  0  0  0
  147.3104  141.2718  152.7580 H   0  0  0  0  0  0  0  0  0  0  0  0
  148.3576  138.7773  154.0494 H   0  0  0  0  0  0  0  0  0  0  0  0
  149.0127  139.6806  152.6768 H   0  0  0  0  0  0  0  0  0  0  0  0
  151.2852  139.1055  153.0193 H   0  0  0  0  0  0  0  0  0  0  0  0
  149.5468  137.7928  154.2833 H   0  0  0  0  0  0  0  0  0  0  0  0
  150.8942  136.9164  153.6238 H   0  0  0  0  0  0  0  0  0  0  0  0
  150.4813  137.6329  156.5638 H   0  0  0  0  0  0  0  0  0  0  0  0
  150.4590  136.0504  155.8467 H   0  0  0  0  0  0  0  0  0  0  0  0
  152.6225  136.5229  157.0185 H   0  0  0  0  0  0  0  0  0  0  0  0
  152.8573  136.1694  155.3233 H   0  0  0  0  0  0  0  0  0  0  0  0
  152.8138  138.9558  156.5855 H   0  0  0  0  0  0  0  0  0  0  0  0
  154.2204  138.1266  155.9724 H   0  0  0  0  0  0  0  0  0  0  0  0
  153.3386  138.1628  153.6783 H   0  0  0  0  0  0  0  0  0  0  0  0
  153.3883  139.7806  154.3136 H   0  0  0  0  0  0  0  0  0  0  0  0
  152.4723  142.1943  157.9525 H   0  0  0  0  0  0  0  0  0  0  0  0
  1  2  2  0  0  0  0
  2  3  1  0  0  0  0
  2 12  1  0  0  0  0
  3  4  1  0  0  0  0
  3 25  1  0  0  0  0
  4  5  1  0  0  0  0
  4 26  1  0  0  0  0
  4 27  1  0  0  0  0
  5  6  1  0  0  0  0
  5 28  1  0  0  0  0
  5 29  1  0  0  0  0
  6 11  1  0  0  0  0
  6  7  2  0  0  0  0
  7  8  1  0  0  0  0
  7 30  1  0  0  0  0
  8  9  2  0  0  0  0
  8 31  1  0  0  0  0
  9 10  1  0  0  0  0
  9 32  1  0  0  0  0
 10 11  2  0  0  0  0
 10 33  1  0  0  0  0
 11 52  1  0  0  0  0
 12 16  1  0  0  0  0
 12 13  1  0  0  0  0
 12 34  1  0  0  0  0
 13 14  1  0  0  0  0
 13 35  1  0  0  0  0
 13 36  1  0  0  0  0
 14 15  1  0  0  0  0
 14 37  1  0  0  0  0
 14 38  1  0  0  0  0
 15 16  1  0  0  0  0
 15 39  1  0  0  0  0
 15 40  1  0  0  0  0
 16 17  1  0  0  0  0
 17 18  2  0  0  0  0
 17 19  1  0  0  0  0
 19 24  1  0  0  0  0
 19 20  1  0  0  0  0
 19 41  1  0  0  0  0
 20 21  1  0  0  0  0
 20 42  1  0  0  0  0
 20 43  1  0  0  0  0
 21 22  1  0  0  0  0
 21 44  1  0  0  0  0
 21 45  1  0  0  0  0
 22 23  1  0  0  0  0
 22 46  1  0  0  0  0
 22 47  1  0  0  0  0
 23 24  1  0  0  0  0
 23 48  1  0  0  0  0
 23 49  1  0  0  0  0
 24 50  1  0  0  0  0
 24 51  1  0  0  0  0
M  CHG  1  11   1
M  END
> <s_m_source_file>
AV-unprocessed.smi

> <i_m_source_file_index>
951

> <i_lp_mmshare_version>
43012

> <i_f3d_flags>
0

> <s_epik_input>
bjFbY0hdW2NIXVtjSF1bY0hdYzFbQ0gyXVtDSDJdW05IXUMoPU8pW0NAQEhdMltDSDJdW0NIMl1bQ0gyXU4yQyg9TylbQ0hdM1tDSDJdW0NIMl1bQ0gyXVtDSDJdW0NIMl0z

> <s_epik_cmdline>
J2VwaWtfcHl0aG9uJywgJy1waCcsICc3LjAnLCAnLXRuJywgJzgnLCAnLW1hJywgJzIwMCcsICctbWV0YWxfYmluZGluZycsICctaW1hZScsICc8aW5maWxlLm1hZT4nLCAnLW9tYWUnLCAnPG91dGZpbGUubWFlPic=

> <r_epik_Ionization_Penalty>
1.85306

> <r_epik_Ionization_Penalty_Charging>
1.85306

> <r_epik_Ionization_Penalty_Neutral>
5.78903e-08

> <r_epik_State_Penalty>
1.97071

> <r_epik_Charging_Adjusted_Penalty>
3.82377

> <i_epik_Tot_Q>
1

> <i_epik_Tot_abs_Q>
1

> <r_epik_Metal_State_Penalty>
1.99634

> <b_epik_Metal_Only>
0

> <s_lp_Force_Field>
OPLS_2005

> <r_lp_Energy>
27.2114

> <b_lp_Chiralities_Consistent>
1

> <s_lp_Variant>
AV-unprocessed.smi:951-3

> <Gold.Version>
5.8.1

> <Gold.Id.Protein>
6NUR|6NUR_protein|mol2

> <Gold.PLP.Fitness>
46.5347

> <Gold.PLP.PLP>
-46.0599

> <Gold.PLP.part.hbond>
-1.3151

> <Gold.PLP.part.metal>
0.0000

> <Gold.PLP.part.buried>
-3.1724

> <Gold.PLP.part.nonpolar>
-42.7186

> <Gold.PLP.part.repulsive>
0.1355

> <Gold.PLP.ligand.clash>
0.0000

> <Gold.PLP.ligand.torsion>
0.8158

> <Gold.PLP.Chemscore.Hbond>
0.6720

> <Gold.PLP.Chemscore.CHOScore>
0.0000

> <Gold.PLP.Chemscore.Metal>
0.0000

> <Gold.Chemscore.Hbonds>
donor molecule, donor type, donor heavy atom, donor atom, acceptor molecule, acceptor atom, score
      L1  H     3    25       P1  8028  0.77

> <Gold.PLP.Chemscore.Internal.Correction>
0.0904

> <Gold.Rescore>
     Score         DG    S(hbond)    S(metal)    S(lipo)     H(rot)  DE(clash)    DE(int)     intcor
     16.78     -18.54       0.86        0.00     123.37       1.65       0.01       1.74       ----

> <Gold.Chemscore.Fitness>
16.7839

> <Gold.Chemscore.DG>
-18.5423

> <Gold.Chemscore.ZeroCoef>
-5.4800

> <Gold.Chemscore.Hbond>
0.8575

> <Gold.Chemscore.Metal>
0.0000

> <Gold.Chemscore.Lipo>
123.3698

> <Gold.Chemscore.Internal_Hbond>
0.0000

> <Gold.Chemscore.DEClash>
0.0149

> <Gold.Chemscore.DEInternal>
1.7435

> <Gold.Chemscore.Rot>
1.6548

> <Gold.Chemscore.Internal.Correction>
   9.000000E+99

> <Gold.Chemscore.Hbonds>
donor molecule, donor type, donor heavy atom, donor atom, acceptor molecule, acceptor atom, score
      L1  H     3    25       P1  8028  0.76

> <Gold.Chemscore.Hbond.Weighted>
-2.8642

> <Gold.Chemscore.Metal.Weighted>
-0.0000

> <Gold.Chemscore.Lipo.Weighted>
-14.4343

> <Gold.Chemscore.Internal_Hbond.Weighted>
0.0000

> <Gold.Chemscore.DEClash.Weighted>
0.0149

> <Gold.Chemscore.DEInternal.Weighted>
1.7435

> <Gold.Chemscore.Rot.Weighted>
4.2362

> <Gold.Chemscore.Internal.Correction.Weighted>
   9.000000E+99

> <Gold.Protein.RotatedTorsions>
[ 6907 6896 6895 6894 ] final -155.26 input  -60.11 | X-H torsion
[ 7974 7965 7964 7962 ] final   98.27 input  175.53 | X-H torsion
[ 8008 7997 7996 7995 ] final   86.24 input   59.86 | X-H torsion
[ 10167 10162 10161 10158 ] final -112.51 input  -65.29 | X-H torsion
[ 10718 10713 10712 10709 ] final   71.90 input   66.30 | X-H torsion
[ 10763 10752 10751 10750 ] final  178.93 input  -60.55 | X-H torsion
[ 11005 11000 10999 10996 ] final  -99.16 input  -57.11 | X-H torsion

> <Gold.Protein.ActiveResidues>
 VAL166  LYS551  ARG553  GLY616  TRP617  ASP618  TYR619  PRO620  LYS621  CYS622 
 ASP623  PHE694  ASN695  SER759  ASP760  ASP761  ALA762  ILE779  LEU786  VAL792 
 PHE793  MET794  SER795  GLU796  ALA797  LYS798  CYS799  TRP800  GLU811  SER814 

> <Gold.Protein.RotatedAtoms>
  151.2698  133.4261  159.2620 H   0  0  0  0  0  0  0  0  0  0  0  0  # atno 6907 bound_to 6896
  151.0456  134.9637  159.8194 H   0  0  0  0  0  0  0  0  0  0  0  0  # atno 6908 bound_to 6896
  152.5373  134.2654  159.9004 H   0  0  0  0  0  0  0  0  0  0  0  0  # atno 6909 bound_to 6896
  145.4144  139.2329  143.3230 H   0  0  0  0  0  0  0  0  0  0  0  0  # atno 7974 bound_to 7965
  155.9603  140.3394  155.6484 H   0  0  0  0  0  0  0  0  0  0  0  0  # atno 8008 bound_to 7997
  155.6807  140.0737  157.2504 H   0  0  0  0  0  0  0  0  0  0  0  0  # atno 8009 bound_to 7997
  154.4141  140.1675  156.1967 H   0  0  0  0  0  0  0  0  0  0  0  0  # atno 8010 bound_to 7997
  140.1219  143.4435  152.1685 H   0  0  0  0  0  0  0  0  0  0  0  0  # atno 10167 bound_to 10162
  157.6474  130.9551  150.0853 H   0  0  0  0  0  0  0  0  0  0  0  0  # atno 10718 bound_to 10713
  154.5141  135.2790  155.1318 H   0  0  0  0  0  0  0  0  0  0  0  0  # atno 10763 bound_to 10752
  154.2902  135.6268  153.5386 H   0  0  0  0  0  0  0  0  0  0  0  0  # atno 10764 bound_to 10752
  152.9924  135.5672  154.5613 H   0  0  0  0  0  0  0  0  0  0  0  0  # atno 10765 bound_to 10752
  141.1319  133.8300  157.0935 H   0  0  0  0  0  0  0  0  0  0  0  0  # atno 11005 bound_to 11000
  146.2688  140.4860  142.8823 LP  0  0  0  0  0  0  0  0  0  0  0  0  # atno 17320 bound_to 7965
  144.8287  140.6671  143.6305 LP  0  0  0  0  0  0  0  0  0  0  0  0  # atno 17321 bound_to 7965
  139.5564  144.7375  151.4282 LP  0  0  0  0  0  0  0  0  0  0  0  0  # atno 17342 bound_to 10162
  140.6867  143.7958  150.7196 LP  0  0  0  0  0  0  0  0  0  0  0  0  # atno 17343 bound_to 10162
  156.1818  130.3650  149.9026 LP  0  0  0  0  0  0  0  0  0  0  0  0  # atno 17370 bound_to 10713
  156.6976  130.8920  151.3595 LP  0  0  0  0  0  0  0  0  0  0  0  0  # atno 17371 bound_to 10713
  140.0377  134.9870  157.0903 LP  0  0  0  0  0  0  0  0  0  0  0  0  # atno 17394 bound_to 11000
  140.4184  134.1907  155.7164 LP  0  0  0  0  0  0  0  0  0  0  0  0  # atno 17395 bound_to 11000

$$$$
