AV-unprocessed.smi:2340|AV-procd|sdf|9349|dock3
  -GOLD-   2272012573D 1   1.00000     0.00000
 Structure written by MMmdl.
 40 41  0  0  0  0  0  0  0  0  1 V2000
  151.2176  144.5277  159.1043 C   0  0  0  0  0  0  0  0  0  0  0  0
  151.6297  143.5136  160.1244 C   0  0  0  0  0  0  0  0  0  0  0  0
  151.4640  143.5941  161.4844 C   0  0  0  0  0  0  0  0  0  0  0  0
  152.0879  142.1863  162.2987 S   0  0  0  0  0  0  0  0  0  0  0  0
  152.5602  141.5271  160.7346 C   0  0  0  0  0  0  0  0  0  0  0  0
  153.2183  140.1908  160.5614 C   0  0  1  0  0  0  0  0  0  0  0  0
  154.0095  139.7776  161.8103 C   0  0  0  0  0  0  0  0  0  0  0  0
  152.2355  139.0914  160.1011 C   0  0  0  0  0  0  0  0  0  0  0  0
  151.2813  139.5654  159.1024 N   0  0  0  0  0  0  0  0  0  0  0  0
  151.5714  139.8083  157.8174 C   0  0  0  0  0  0  0  0  0  0  0  0
  152.6798  139.6258  157.3142 O   0  0  0  0  0  0  0  0  0  0  0  0
  150.5075  140.2772  157.1510 N   0  0  0  0  0  0  0  0  0  0  0  0
  150.4922  140.6606  155.7393 C   0  0  2  0  0  0  0  0  0  0  0  0
  149.1842  141.3695  155.3923 C   0  0  0  0  0  0  0  0  0  0  0  0
  148.6914  140.6523  154.1400 C   0  0  0  0  0  0  0  0  0  0  0  0
  149.1944  139.3378  154.2984 O   0  0  0  0  0  0  0  0  0  0  0  0
  150.5285  139.4560  154.7702 C   0  0  2  0  0  0  0  0  0  0  0  0
  151.0125  138.1079  155.3286 C   0  0  0  0  0  0  0  0  0  0  0  0
  152.2546  142.3332  159.7136 N   0  0  0  0  0  0  0  0  0  0  0  0
  150.7899  145.4144  159.5730 H   0  0  0  0  0  0  0  0  0  0  0  0
  150.4681  144.1199  158.4254 H   0  0  0  0  0  0  0  0  0  0  0  0
  152.0684  144.8511  158.5042 H   0  0  0  0  0  0  0  0  0  0  0  0
  151.0135  144.3927  162.0552 H   0  0  0  0  0  0  0  0  0  0  0  0
  153.9533  140.3087  159.7633 H   0  0  0  0  0  0  0  0  0  0  0  0
  154.7585  140.5278  162.0659 H   0  0  0  0  0  0  0  0  0  0  0  0
  154.5301  138.8331  161.6496 H   0  0  0  0  0  0  0  0  0  0  0  0
  153.3554  139.6527  162.6734 H   0  0  0  0  0  0  0  0  0  0  0  0
  152.7796  138.2261  159.7192 H   0  0  0  0  0  0  0  0  0  0  0  0
  151.6575  138.7368  160.9550 H   0  0  0  0  0  0  0  0  0  0  0  0
  150.3406  139.7464  159.4207 H   0  0  0  0  0  0  0  0  0  0  0  0
  149.6411  140.3857  157.6573 H   0  0  0  0  0  0  0  0  0  0  0  0
  151.3318  141.3223  155.5180 H   0  0  0  0  0  0  0  0  0  0  0  0
  148.4487  141.2465  156.1888 H   0  0  0  0  0  0  0  0  0  0  0  0
  149.3162  142.4393  155.2290 H   0  0  0  0  0  0  0  0  0  0  0  0
  147.6050  140.6609  154.0491 H   0  0  0  0  0  0  0  0  0  0  0  0
  149.1168  141.1008  153.2407 H   0  0  0  0  0  0  0  0  0  0  0  0
  151.1520  139.7215  153.9145 H   0  0  0  0  0  0  0  0  0  0  0  0
  152.0308  138.1836  155.7107 H   0  0  0  0  0  0  0  0  0  0  0  0
  151.0087  137.3447  154.5504 H   0  0  0  0  0  0  0  0  0  0  0  0
  150.3720  137.7535  156.1364 H   0  0  0  0  0  0  0  0  0  0  0  0
  1  2  1  0  0  0  0
  1 20  1  0  0  0  0
  1 21  1  0  0  0  0
  1 22  1  0  0  0  0
  2 19  1  0  0  0  0
  2  3  2  0  0  0  0
  3  4  1  0  0  0  0
  3 23  1  0  0  0  0
  4  5  1  0  0  0  0
  5  6  1  0  0  0  0
  5 19  2  0  0  0  0
  6  7  1  0  0  0  0
  6  8  1  0  0  0  0
  6 24  1  0  0  0  0
  7 25  1  0  0  0  0
  7 26  1  0  0  0  0
  7 27  1  0  0  0  0
  8  9  1  0  0  0  0
  8 28  1  0  0  0  0
  8 29  1  0  0  0  0
  9 10  1  0  0  0  0
  9 30  1  0  0  0  0
 10 11  2  0  0  0  0
 10 12  1  0  0  0  0
 12 13  1  0  0  0  0
 12 31  1  0  0  0  0
 13 17  1  0  0  0  0
 13 14  1  0  0  0  0
 13 32  1  0  0  0  0
 14 15  1  0  0  0  0
 14 33  1  0  0  0  0
 14 34  1  0  0  0  0
 15 16  1  0  0  0  0
 15 35  1  0  0  0  0
 15 36  1  0  0  0  0
 16 17  1  0  0  0  0
 17 18  1  0  0  0  0
 17 37  1  0  0  0  0
 18 38  1  0  0  0  0
 18 39  1  0  0  0  0
 18 40  1  0  0  0  0
M  END
> <s_m_source_file>
AV-unprocessed.smi

> <i_m_source_file_index>
2340

> <i_lp_mmshare_version>
43012

> <i_f3d_flags>
0

> <s_epik_input>
W0NIM11jMVtjSF1zYyhuMSlbQ0BIXShbQ0gzXSlbQ0gyXVtOSF1DKD1PKVtOSF1bQ0BASF0yW0NIMl1bQ0gyXU9bQ0BIXTJbQ0gzXQ==

> <s_epik_cmdline>
J2VwaWtfcHl0aG9uJywgJy1waCcsICc3LjAnLCAnLXRuJywgJzgnLCAnLW1hJywgJzIwMCcsICctbWV0YWxfYmluZGluZycsICctaW1hZScsICc8aW5maWxlLm1hZT4nLCAnLW9tYWUnLCAnPG91dGZpbGUubWFlPic=

> <r_epik_Ionization_Penalty>
0.00156622

> <r_epik_Ionization_Penalty_Charging>
0

> <r_epik_Ionization_Penalty_Neutral>
0.00156622

> <r_epik_State_Penalty>
0.00101902

> <r_epik_Charging_Adjusted_Penalty>
0.00101902

> <i_epik_Tot_Q>
0

> <i_epik_Tot_abs_Q>
0

> <r_epik_Metal_State_Penalty>
-0

> <b_epik_Metal_Only>
0

> <s_lp_Force_Field>
OPLS_2005

> <r_lp_Energy>
5.61614

> <b_lp_Chiralities_Consistent>
1

> <s_lp_Variant>
AV-unprocessed.smi:2340-6

> <Gold.Version>
5.8.1

> <Gold.Id.Protein>
6NUR|6NUR_protein|mol2

> <Gold.PLP.Fitness>
43.7520

> <Gold.PLP.PLP>
-42.5562

> <Gold.PLP.part.hbond>
-0.8907

> <Gold.PLP.part.metal>
0.0000

> <Gold.PLP.part.buried>
-3.5501

> <Gold.PLP.part.nonpolar>
-38.5317

> <Gold.PLP.part.repulsive>
0.3488

> <Gold.PLP.ligand.clash>
0.0000

> <Gold.PLP.ligand.torsion>
0.9566

> <Gold.PLP.Chemscore.Hbond>
1.0000

> <Gold.PLP.Chemscore.CHOScore>
0.0000

> <Gold.PLP.Chemscore.Metal>
0.0000

> <Gold.Chemscore.Hbonds>
donor molecule, donor type, donor heavy atom, donor atom, acceptor molecule, acceptor atom, score
      P1  H  7997  8010       L1    11  0.99

> <Gold.PLP.Chemscore.Internal.Correction>
0.1089

> <Gold.Rescore>
     Score         DG    S(hbond)    S(metal)    S(lipo)     H(rot)  DE(clash)    DE(int)     intcor
     16.42     -18.45       0.99        0.00     116.26       1.53       0.03       2.01       ----

> <Gold.Chemscore.Fitness>
16.4157

> <Gold.Chemscore.DG>
-18.4529

> <Gold.Chemscore.ZeroCoef>
-5.4800

> <Gold.Chemscore.Hbond>
0.9862

> <Gold.Chemscore.Metal>
0.0000

> <Gold.Chemscore.Lipo>
116.2599

> <Gold.Chemscore.Internal_Hbond>
0.0000

> <Gold.Chemscore.DEClash>
0.0310

> <Gold.Chemscore.DEInternal>
2.0063

> <Gold.Chemscore.Rot>
1.5325

> <Gold.Chemscore.Internal.Correction>
   9.000000E+99

> <Gold.Chemscore.Hbonds>
donor molecule, donor type, donor heavy atom, donor atom, acceptor molecule, acceptor atom, score
      P1  H  7997  8010       L1    11  0.93

> <Gold.Chemscore.Hbond.Weighted>
-3.2939

> <Gold.Chemscore.Metal.Weighted>
-0.0000

> <Gold.Chemscore.Lipo.Weighted>
-13.6024

> <Gold.Chemscore.Internal_Hbond.Weighted>
0.0000

> <Gold.Chemscore.DEClash.Weighted>
0.0310

> <Gold.Chemscore.DEInternal.Weighted>
2.0063

> <Gold.Chemscore.Rot.Weighted>
3.9233

> <Gold.Chemscore.Internal.Correction.Weighted>
   9.000000E+99

> <Gold.Protein.RotatedTorsions>
[ 6907 6896 6895 6894 ] final   69.59 input  -60.11 | X-H torsion
[ 7974 7965 7964 7962 ] final   96.35 input  175.53 | X-H torsion
[ 8008 7997 7996 7995 ] final   75.24 input   59.86 | X-H torsion
[ 10167 10162 10161 10158 ] final  -27.37 input  -65.29 | X-H torsion
[ 10718 10713 10712 10709 ] final    7.63 input   66.30 | X-H torsion
[ 10763 10752 10751 10750 ] final  166.85 input  -60.55 | X-H torsion
[ 11005 11000 10999 10996 ] final  136.97 input  -57.11 | X-H torsion

> <Gold.Protein.ActiveResidues>
 VAL166  LYS551  ARG553  GLY616  TRP617  ASP618  TYR619  PRO620  LYS621  CYS622 
 ASP623  PHE694  ASN695  SER759  ASP760  ASP761  ALA762  ILE779  LEU786  VAL792 
 PHE793  MET794  SER795  GLU796  ALA797  LYS798  CYS799  TRP800  GLU811  SER814 

> <Gold.Protein.RotatedAtoms>
  152.4696  134.4993  159.9719 H   0  0  0  0  0  0  0  0  0  0  0  0  # atno 6907 bound_to 6896
  151.5023  133.3496  159.2879 H   0  0  0  0  0  0  0  0  0  0  0  0  # atno 6908 bound_to 6896
  150.8698  134.8098  159.7208 H   0  0  0  0  0  0  0  0  0  0  0  0  # atno 6909 bound_to 6896
  145.4400  139.2302  143.3097 H   0  0  0  0  0  0  0  0  0  0  0  0  # atno 7974 bound_to 7965
  155.8100  140.3473  155.5452 H   0  0  0  0  0  0  0  0  0  0  0  0  # atno 8008 bound_to 7997
  155.8450  140.0947  157.1731 H   0  0  0  0  0  0  0  0  0  0  0  0  # atno 8009 bound_to 7997
  154.4006  140.1387  156.3762 H   0  0  0  0  0  0  0  0  0  0  0  0  # atno 8010 bound_to 7997
  140.7277  143.4099  151.1123 H   0  0  0  0  0  0  0  0  0  0  0  0  # atno 10167 bound_to 10162
  156.9398  130.5857  149.5652 H   0  0  0  0  0  0  0  0  0  0  0  0  # atno 10718 bound_to 10713
  154.3452  135.2753  155.2401 H   0  0  0  0  0  0  0  0  0  0  0  0  # atno 10763 bound_to 10752
  154.4655  135.5896  153.6288 H   0  0  0  0  0  0  0  0  0  0  0  0  # atno 10764 bound_to 10752
  152.9854  135.6075  154.3657 H   0  0  0  0  0  0  0  0  0  0  0  0  # atno 10765 bound_to 10752
  140.0082  134.9450  157.0221 H   0  0  0  0  0  0  0  0  0  0  0  0  # atno 11005 bound_to 11000
  146.2561  140.5148  142.8873 LP  0  0  0  0  0  0  0  0  0  0  0  0  # atno 17320 bound_to 7965
  144.8127  140.6414  143.6404 LP  0  0  0  0  0  0  0  0  0  0  0  0  # atno 17321 bound_to 7965
  139.7731  143.8466  152.3124 LP  0  0  0  0  0  0  0  0  0  0  0  0  # atno 17342 bound_to 10162
  139.8391  144.7218  150.9354 LP  0  0  0  0  0  0  0  0  0  0  0  0  # atno 17343 bound_to 10162
  156.0410  130.5492  150.8769 LP  0  0  0  0  0  0  0  0  0  0  0  0  # atno 17370 bound_to 10713
  157.5793  131.0946  150.9297 LP  0  0  0  0  0  0  0  0  0  0  0  0  # atno 17371 bound_to 10713
  140.4602  134.1492  155.7190 LP  0  0  0  0  0  0  0  0  0  0  0  0  # atno 17394 bound_to 11000
  141.1692  133.8642  157.1622 LP  0  0  0  0  0  0  0  0  0  0  0  0  # atno 17395 bound_to 11000

$$$$
