AV-unprocessed.smi:266|AV-procd|sdf|2034|dock2
  -GOLD-   2262021243D 1   1.00000     0.00000
 Structure written by MMmdl.
 52 55  0  0  0  0  0  0  0  0  1 V2000
  143.1914  132.3244  150.6153 C   0  0  0  0  0  0  0  0  0  0  0  0
  144.6296  132.7396  150.2674 C   0  0  1  0  0  0  0  0  0  0  0  0
  144.8263  134.0620  150.7614 O   0  0  0  0  0  0  0  0  0  0  0  0
  146.1868  134.2196  151.1239 C   0  0  0  0  0  0  0  0  0  0  0  0
  146.5095  132.8821  151.7717 C   0  0  0  0  0  0  0  0  0  0  0  0
  145.7744  131.8839  150.8814 C   0  0  2  0  0  0  0  0  0  0  0  0
  146.6491  131.5187  149.8262 O   0  0  0  0  0  0  0  0  0  0  0  0
  145.3485  130.5871  151.6192 C   0  0  0  0  0  0  0  0  0  0  0  0
  146.3655  130.0739  152.5255 N   0  0  0  0  0  0  0  0  0  0  0  0
  146.7117  130.5912  153.7513 C   0  0  0  0  0  0  0  0  0  0  0  0
  147.6591  129.9485  154.3751 N   0  0  0  0  0  0  0  0  0  0  0  0
  148.0068  128.9086  153.5173 C   0  0  0  0  0  0  0  0  0  0  0  0
  148.9559  127.8378  153.5612 C   0  0  0  0  0  0  0  0  0  0  0  0
  149.8219  127.5936  154.5903 N   0  0  0  0  0  0  0  0  0  0  0  0
  150.6944  126.4258  154.5526 C   0  0  0  0  0  0  0  0  0  0  0  0
  149.7192  128.3428  155.8463 C   0  0  0  0  0  0  0  0  0  0  0  0
  150.2844  129.7748  155.7461 C   0  0  2  0  0  0  0  0  0  0  0  0
  151.8180  129.7990  155.8929 C   0  0  0  0  0  0  0  0  0  0  0  0
  152.2731  131.2532  156.0493 C   0  0  0  0  0  0  0  0  0  0  0  0
  150.9399  132.0857  156.9879 S   0  0  0  0  0  0  0  0  0  0  0  0
  151.3216  132.1781  158.4053 O   0  0  0  0  0  0  0  0  0  0  0  0
  150.4998  133.2749  156.2431 O   0  0  0  0  0  0  0  0  0  0  0  0
  149.7056  130.7447  156.7908 C   0  0  0  0  0  0  0  0  0  0  0  0
  148.9796  127.0045  152.4853 N   0  0  0  0  0  0  0  0  0  0  0  0
  148.1612  127.1915  151.4477 C   0  0  0  0  0  0  0  0  0  0  0  0
  147.2423  128.1397  151.2742 N   0  0  0  0  0  0  0  0  0  0  0  0
  147.1965  128.9817  152.3447 C   0  0  0  0  0  0  0  0  0  0  0  0
  142.9675  131.3197  150.2563 H   0  0  0  0  0  0  0  0  0  0  0  0
  142.4741  133.0023  150.1522 H   0  0  0  0  0  0  0  0  0  0  0  0
  143.0162  132.3514  151.6911 H   0  0  0  0  0  0  0  0  0  0  0  0
  144.7228  132.7760  149.1802 H   0  0  0  0  0  0  0  0  0  0  0  0
  146.7923  134.3829  150.2310 H   0  0  0  0  0  0  0  0  0  0  0  0
  146.3288  135.0625  151.8003 H   0  0  0  0  0  0  0  0  0  0  0  0
  147.5802  132.6922  151.8602 H   0  0  0  0  0  0  0  0  0  0  0  0
  146.0858  132.8721  152.7766 H   0  0  0  0  0  0  0  0  0  0  0  0
  147.5392  131.6117  150.1293 H   0  0  0  0  0  0  0  0  0  0  0  0
  144.4434  130.7589  152.2019 H   0  0  0  0  0  0  0  0  0  0  0  0
  145.1080  129.8021  150.9010 H   0  0  0  0  0  0  0  0  0  0  0  0
  146.2331  131.4628  154.1733 H   0  0  0  0  0  0  0  0  0  0  0  0
  151.4017  126.5010  153.7266 H   0  0  0  0  0  0  0  0  0  0  0  0
  150.1123  125.5109  154.4401 H   0  0  0  0  0  0  0  0  0  0  0  0
  151.2743  126.3365  155.4712 H   0  0  0  0  0  0  0  0  0  0  0  0
  148.6726  128.3849  156.1502 H   0  0  0  0  0  0  0  0  0  0  0  0
  150.2203  127.7964  156.6462 H   0  0  0  0  0  0  0  0  0  0  0  0
  150.0569  130.1792  154.7587 H   0  0  0  0  0  0  0  0  0  0  0  0
  152.1022  129.2424  156.7870 H   0  0  0  0  0  0  0  0  0  0  0  0
  152.3117  129.3181  155.0479 H   0  0  0  0  0  0  0  0  0  0  0  0
  153.2243  131.3513  156.5724 H   0  0  0  0  0  0  0  0  0  0  0  0
  152.3550  131.7392  155.0769 H   0  0  0  0  0  0  0  0  0  0  0  0
  148.7429  131.1622  156.4953 H   0  0  0  0  0  0  0  0  0  0  0  0
  149.5906  130.2577  157.7593 H   0  0  0  0  0  0  0  0  0  0  0  0
  148.2567  126.4787  150.6418 H   0  0  0  0  0  0  0  0  0  0  0  0
  1  2  1  0  0  0  0
  1 28  1  0  0  0  0
  1 29  1  0  0  0  0
  1 30  1  0  0  0  0
  2  6  1  0  0  0  0
  2  3  1  0  0  0  0
  2 31  1  0  0  0  0
  3  4  1  0  0  0  0
  4  5  1  0  0  0  0
  4 32  1  0  0  0  0
  4 33  1  0  0  0  0
  5  6  1  0  0  0  0
  5 34  1  0  0  0  0
  5 35  1  0  0  0  0
  6  7  1  0  0  0  0
  6  8  1  0  0  0  0
  7 36  1  0  0  0  0
  8  9  1  0  0  0  0
  8 37  1  0  0  0  0
  8 38  1  0  0  0  0
  9 27  1  0  0  0  0
  9 10  1  0  0  0  0
 10 11  2  0  0  0  0
 10 39  1  0  0  0  0
 11 12  1  0  0  0  0
 12 27  2  0  0  0  0
 12 13  1  0  0  0  0
 13 14  1  0  0  0  0
 13 24  2  0  0  0  0
 14 15  1  0  0  0  0
 14 16  1  0  0  0  0
 15 40  1  0  0  0  0
 15 41  1  0  0  0  0
 15 42  1  0  0  0  0
 16 17  1  0  0  0  0
 16 43  1  0  0  0  0
 16 44  1  0  0  0  0
 17 23  1  0  0  0  0
 17 18  1  0  0  0  0
 17 45  1  0  0  0  0
 18 19  1  0  0  0  0
 18 46  1  0  0  0  0
 18 47  1  0  0  0  0
 19 20  1  0  0  0  0
 19 48  1  0  0  0  0
 19 49  1  0  0  0  0
 20 21  2  0  0  0  0
 20 22  2  0  0  0  0
 20 23  1  0  0  0  0
 23 50  1  0  0  0  0
 23 51  1  0  0  0  0
 24 25  1  0  0  0  0
 25 26  2  0  0  0  0
 25 52  1  0  0  0  0
 26 27  1  0  0  0  0
M  END
> <s_m_source_file>
AV-unprocessed.smi

> <i_m_source_file_index>
266

> <i_lp_mmshare_version>
43012

> <i_f3d_flags>
0

> <s_epik_input>
W0NIMl0xW0NIMl1PW0NAQEhdKFtDSDNdKVtDQEBdMShbT0hdKVtDSDJdbihbY0hdbjIpYyhjMjMpbltjSF1uYzNOKFtDSDNdKVtDSDJdW0NAQEhdKFtDSDJdNClbQ0gyXVtDSDJdUzQoPU8pPU8=

> <s_epik_cmdline>
J2VwaWtfcHl0aG9uJywgJy1waCcsICc3LjAnLCAnLXRuJywgJzgnLCAnLW1hJywgJzIwMCcsICctbWV0YWxfYmluZGluZycsICctaW1hZScsICc8aW5maWxlLm1hZT4nLCAnLW9tYWUnLCAnPG91dGZpbGUubWFlPic=

> <r_lp_tautomer_probability>
1

> <r_epik_Ionization_Penalty>
0.00155497

> <r_epik_Ionization_Penalty_Charging>
0

> <r_epik_Ionization_Penalty_Neutral>
0.00155497

> <r_epik_State_Penalty>
-0

> <r_epik_Charging_Adjusted_Penalty>
0

> <i_epik_Tot_Q>
0

> <i_epik_Tot_abs_Q>
0

> <r_epik_Metal_State_Penalty>
-0

> <b_epik_Metal_Only>
0

> <s_lp_Force_Field>
OPLS_2005

> <r_lp_Energy>
30.3558

> <b_lp_Chiralities_Consistent>
1

> <s_lp_Variant>
AV-unprocessed.smi:266-4

> <Gold.Version>
5.8.1

> <Gold.Id.Protein>
6NUR|6NUR_protein|mol2

> <Gold.PLP.Fitness>
46.1505

> <Gold.PLP.PLP>
-41.6392

> <Gold.PLP.part.hbond>
-2.0000

> <Gold.PLP.part.metal>
0.0000

> <Gold.PLP.part.buried>
-7.0656

> <Gold.PLP.part.nonpolar>
-32.9671

> <Gold.PLP.part.repulsive>
0.4286

> <Gold.PLP.ligand.clash>
0.0000

> <Gold.PLP.ligand.torsion>
0.8031

> <Gold.PLP.Chemscore.Hbond>
2.0000

> <Gold.PLP.Chemscore.CHOScore>
0.0000

> <Gold.PLP.Chemscore.Metal>
0.0000

> <Gold.Chemscore.Hbonds>
donor molecule, donor type, donor heavy atom, donor atom, acceptor molecule, acceptor atom, score
      L1  H     7    36       P1 10747  0.88
      P1  H  6896  6907       L1    21  0.75

> <Gold.PLP.Chemscore.Internal.Correction>
0.1175

> <Gold.Rescore>
     Score         DG    S(hbond)    S(metal)    S(lipo)     H(rot)  DE(clash)    DE(int)     intcor
     13.19     -15.19       1.96        0.00      80.43       2.45       0.08       1.91       ----

> <Gold.Chemscore.Fitness>
13.1944

> <Gold.Chemscore.DG>
-15.1882

> <Gold.Chemscore.ZeroCoef>
-5.4800

> <Gold.Chemscore.Hbond>
1.9648

> <Gold.Chemscore.Metal>
0.0000

> <Gold.Chemscore.Lipo>
80.4307

> <Gold.Chemscore.Internal_Hbond>
0.0000

> <Gold.Chemscore.DEClash>
0.0840

> <Gold.Chemscore.DEInternal>
1.9098

> <Gold.Chemscore.Rot>
2.4471

> <Gold.Chemscore.Internal.Correction>
   9.000000E+99

> <Gold.Chemscore.Hbonds>
donor molecule, donor type, donor heavy atom, donor atom, acceptor molecule, acceptor atom, score
      L1  H     7    36       P1 10747  0.86
      P1  H  6896  6907       L1    21  0.73

> <Gold.Chemscore.Hbond.Weighted>
-6.5623

> <Gold.Chemscore.Metal.Weighted>
-0.0000

> <Gold.Chemscore.Lipo.Weighted>
-9.4104

> <Gold.Chemscore.Internal_Hbond.Weighted>
0.0000

> <Gold.Chemscore.DEClash.Weighted>
0.0840

> <Gold.Chemscore.DEInternal.Weighted>
1.9098

> <Gold.Chemscore.Rot.Weighted>
6.2645

> <Gold.Chemscore.Internal.Correction.Weighted>
   9.000000E+99

> <Gold.Protein.RotatedTorsions>
[ 6907 6896 6895 6894 ] final  164.53 input  -60.11 | X-H torsion
[ 7974 7965 7964 7962 ] final   92.20 input  175.53 | X-H torsion
[ 8008 7997 7996 7995 ] final  -14.29 input   59.86 | X-H torsion
[ 10167 10162 10161 10158 ] final   41.18 input  -65.29 | X-H torsion
[ 10718 10713 10712 10709 ] final  -10.94 input   66.30 | X-H torsion
[ 10763 10752 10751 10750 ] final   22.66 input  -60.55 | X-H torsion
[ 11005 11000 10999 10996 ] final  179.12 input  -57.11 | X-H torsion

> <Gold.Protein.ActiveResidues>
 VAL166  LYS551  ARG553  GLY616  TRP617  ASP618  TYR619  PRO620  LYS621  CYS622 
 ASP623  PHE694  ASN695  SER759  ASP760  ASP761  ALA762  ILE779  LEU786  VAL792 
 PHE793  MET794  SER795  GLU796  ALA797  LYS798  CYS799  TRP800  GLU811  SER814 

> <Gold.Protein.RotatedAtoms>
  151.9084  133.3555  159.3854 H   0  0  0  0  0  0  0  0  0  0  0  0  # atno 6907 bound_to 6896
  150.7063  134.4757  159.5455 H   0  0  0  0  0  0  0  0  0  0  0  0  # atno 6908 bound_to 6896
  152.2358  134.8277  160.0518 H   0  0  0  0  0  0  0  0  0  0  0  0  # atno 6909 bound_to 6896
  145.4955  139.2276  143.2806 H   0  0  0  0  0  0  0  0  0  0  0  0  # atno 7974 bound_to 7965
  154.5222  140.2227  155.8955 H   0  0  0  0  0  0  0  0  0  0  0  0  # atno 8008 bound_to 7997
  156.1674  140.3129  155.8878 H   0  0  0  0  0  0  0  0  0  0  0  0  # atno 8009 bound_to 7997
  155.3627  140.0462  157.3037 H   0  0  0  0  0  0  0  0  0  0  0  0  # atno 8010 bound_to 7997
  140.3669  144.2156  150.6135 H   0  0  0  0  0  0  0  0  0  0  0  0  # atno 10167 bound_to 10162
  156.6662  130.4996  149.6015 H   0  0  0  0  0  0  0  0  0  0  0  0  # atno 10718 bound_to 10713
  153.0898  135.6643  153.9877 H   0  0  0  0  0  0  0  0  0  0  0  0  # atno 10763 bound_to 10752
  153.9477  135.2987  155.3441 H   0  0  0  0  0  0  0  0  0  0  0  0  # atno 10764 bound_to 10752
  154.7311  135.5122  153.9038 H   0  0  0  0  0  0  0  0  0  0  0  0  # atno 10765 bound_to 10752
  140.4026  134.6763  157.4570 H   0  0  0  0  0  0  0  0  0  0  0  0  # atno 11005 bound_to 11000
  146.2258  140.5752  142.8997 LP  0  0  0  0  0  0  0  0  0  0  0  0  # atno 17320 bound_to 7965
  144.7810  140.5839  143.6606 LP  0  0  0  0  0  0  0  0  0  0  0  0  # atno 17321 bound_to 7965
  140.5072  143.2301  151.8590 LP  0  0  0  0  0  0  0  0  0  0  0  0  # atno 17342 bound_to 10162
  139.4808  144.4992  151.9083 LP  0  0  0  0  0  0  0  0  0  0  0  0  # atno 17343 bound_to 10162
  156.1973  130.6598  151.1129 LP  0  0  0  0  0  0  0  0  0  0  0  0  # atno 17370 bound_to 10713
  157.7093  131.0742  150.6558 LP  0  0  0  0  0  0  0  0  0  0  0  0  # atno 17371 bound_to 10713
  140.0325  134.6385  155.9087 LP  0  0  0  0  0  0  0  0  0  0  0  0  # atno 17394 bound_to 11000
  141.1851  133.6554  156.5184 LP  0  0  0  0  0  0  0  0  0  0  0  0  # atno 17395 bound_to 11000

$$$$
