AV-unprocessed.smi:2819|AV-procd|sdf|10852|dock10
  -GOLD-   2272015293D 1   1.00000     0.00000
 Structure written by MMmdl.
 49 50  0  0  0  0  0  0  0  0  1 V2000
  143.5099  132.4175  150.4689 C   0  0  0  0  0  0  0  0  0  0  0  0
  144.6710  133.2392  150.7934 N   0  0  0  0  0  0  0  0  0  0  0  0
  145.9471  132.9981  150.1320 C   0  0  0  0  0  0  0  0  0  0  0  0
  144.5345  134.3211  151.6914 C   0  0  0  0  0  0  0  0  0  0  0  0
  143.3083  134.6065  152.3395 C   0  0  0  0  0  0  0  0  0  0  0  0
  143.2930  135.7088  153.2154 C   0  0  0  0  0  0  0  0  0  0  0  0
  144.3906  136.4615  153.4314 N   0  0  0  0  0  0  0  0  0  0  0  0
  145.5072  136.1196  152.7762 C   0  0  0  0  0  0  0  0  0  0  0  0
  146.6649  136.8469  152.9496 N   0  0  0  0  0  0  0  0  0  0  0  0
  146.9282  137.9109  153.7320 C   0  0  0  0  0  0  0  0  0  0  0  0
  146.1235  138.4615  154.4846 O   0  0  0  0  0  0  0  0  0  0  0  0
  148.2041  138.3024  153.6008 N   0  0  0  0  0  0  0  0  0  0  0  0
  148.8417  139.3988  154.3307 C   0  0  0  0  0  0  0  0  0  0  0  0
  150.1861  138.9809  154.9976 C   0  0  0  0  0  0  0  0  0  0  0  0
  151.0293  138.2662  153.9140 C   0  0  0  0  0  0  0  0  0  0  0  0
  150.9287  140.2930  155.3588 C   0  0  0  0  0  0  0  0  0  0  0  0
  149.9606  138.1410  156.2081 N   0  0  0  0  0  0  0  0  0  0  0  0
  151.1370  137.9650  157.0674 C   0  0  0  0  0  0  0  0  0  0  0  0
  150.8023  137.1932  158.3552 C   0  0  0  0  0  0  0  0  0  0  0  0
  150.2321  135.9327  158.0251 O   0  0  0  0  0  0  0  0  0  0  0  0
  149.0528  136.0598  157.2404 C   0  0  0  0  0  0  0  0  0  0  0  0
  149.3735  136.8218  155.9434 C   0  0  0  0  0  0  0  0  0  0  0  0
  145.6232  135.0959  151.9252 N   0  0  0  0  0  0  0  0  0  0  0  0
  143.1046  131.9547  151.3693 H   0  0  0  0  0  0  0  0  0  0  0  0
  143.7682  131.6197  149.7722 H   0  0  0  0  0  0  0  0  0  0  0  0
  142.7292  133.0237  150.0083 H   0  0  0  0  0  0  0  0  0  0  0  0
  146.2480  133.8692  149.5491 H   0  0  0  0  0  0  0  0  0  0  0  0
  145.8879  132.1479  149.4524 H   0  0  0  0  0  0  0  0  0  0  0  0
  146.7248  132.7837  150.8657 H   0  0  0  0  0  0  0  0  0  0  0  0
  142.4128  134.0233  152.1879 H   0  0  0  0  0  0  0  0  0  0  0  0
  142.3940  135.9877  153.7449 H   0  0  0  0  0  0  0  0  0  0  0  0
  147.4460  136.5153  152.4036 H   0  0  0  0  0  0  0  0  0  0  0  0
  148.7941  137.7861  152.9648 H   0  0  0  0  0  0  0  0  0  0  0  0
  148.9925  140.2195  153.6299 H   0  0  0  0  0  0  0  0  0  0  0  0
  148.1606  139.8074  155.0792 H   0  0  0  0  0  0  0  0  0  0  0  0
  151.1908  138.9162  153.0531 H   0  0  0  0  0  0  0  0  0  0  0  0
  150.5405  137.3672  153.5391 H   0  0  0  0  0  0  0  0  0  0  0  0
  152.0153  137.9809  154.2796 H   0  0  0  0  0  0  0  0  0  0  0  0
  150.9360  140.9918  154.5214 H   0  0  0  0  0  0  0  0  0  0  0  0
  151.9731  140.1191  155.6176 H   0  0  0  0  0  0  0  0  0  0  0  0
  150.4618  140.8025  156.2024 H   0  0  0  0  0  0  0  0  0  0  0  0
  151.9204  137.4303  156.5306 H   0  0  0  0  0  0  0  0  0  0  0  0
  151.5532  138.9275  157.3592 H   0  0  0  0  0  0  0  0  0  0  0  0
  151.7050  137.0314  158.9446 H   0  0  0  0  0  0  0  0  0  0  0  0
  150.1104  137.7624  158.9779 H   0  0  0  0  0  0  0  0  0  0  0  0
  148.6699  135.0654  157.0102 H   0  0  0  0  0  0  0  0  0  0  0  0
  148.2797  136.5767  157.8114 H   0  0  0  0  0  0  0  0  0  0  0  0
  148.4494  136.9119  155.3757 H   0  0  0  0  0  0  0  0  0  0  0  0
  150.0560  136.2193  155.3441 H   0  0  0  0  0  0  0  0  0  0  0  0
  1  2  1  0  0  0  0
  1 24  1  0  0  0  0
  1 25  1  0  0  0  0
  1 26  1  0  0  0  0
  2  3  1  0  0  0  0
  2  4  1  0  0  0  0
  3 27  1  0  0  0  0
  3 28  1  0  0  0  0
  3 29  1  0  0  0  0
  4 23  1  0  0  0  0
  4  5  2  0  0  0  0
  5  6  1  0  0  0  0
  5 30  1  0  0  0  0
  6  7  2  0  0  0  0
  6 31  1  0  0  0  0
  7  8  1  0  0  0  0
  8  9  1  0  0  0  0
  8 23  2  0  0  0  0
  9 10  1  0  0  0  0
  9 32  1  0  0  0  0
 10 11  2  0  0  0  0
 10 12  1  0  0  0  0
 12 13  1  0  0  0  0
 12 33  1  0  0  0  0
 13 14  1  0  0  0  0
 13 34  1  0  0  0  0
 13 35  1  0  0  0  0
 14 15  1  0  0  0  0
 14 16  1  0  0  0  0
 14 17  1  0  0  0  0
 15 36  1  0  0  0  0
 15 37  1  0  0  0  0
 15 38  1  0  0  0  0
 16 39  1  0  0  0  0
 16 40  1  0  0  0  0
 16 41  1  0  0  0  0
 17 22  1  0  0  0  0
 17 18  1  0  0  0  0
 18 19  1  0  0  0  0
 18 42  1  0  0  0  0
 18 43  1  0  0  0  0
 19 20  1  0  0  0  0
 19 44  1  0  0  0  0
 19 45  1  0  0  0  0
 20 21  1  0  0  0  0
 21 22  1  0  0  0  0
 21 46  1  0  0  0  0
 21 47  1  0  0  0  0
 22 48  1  0  0  0  0
 22 49  1  0  0  0  0
M  END
> <s_m_source_file>
AV-unprocessed.smi

> <i_m_source_file_index>
2819

> <i_lp_mmshare_version>
43012

> <i_f3d_flags>
0

> <s_epik_input>
W0NIM11OKFtDSDNdKWMxW2NIXVtjSF1uYyhuMSlbTkhdQyg9TylbTkhdW0NIMl1DKFtDSDNdKShbQ0gzXSlOMltDSDJdW0NIMl1PW0NIMl1bQ0gyXTI=

> <s_epik_cmdline>
J2VwaWtfcHl0aG9uJywgJy1waCcsICc3LjAnLCAnLXRuJywgJzgnLCAnLW1hJywgJzIwMCcsICctbWV0YWxfYmluZGluZycsICctaW1hZScsICc8aW5maWxlLm1hZT4nLCAnLW9tYWUnLCAnPG91dGZpbGUubWFlPic=

> <r_lp_tautomer_probability>
1

> <r_epik_Ionization_Penalty>
1.38931

> <r_epik_Ionization_Penalty_Charging>
0

> <r_epik_Ionization_Penalty_Neutral>
1.38931

> <r_epik_State_Penalty>
1.41304

> <r_epik_Charging_Adjusted_Penalty>
1.41304

> <i_epik_Tot_Q>
0

> <i_epik_Tot_abs_Q>
0

> <r_epik_Metal_State_Penalty>
0.631353

> <b_epik_Metal_Only>
0

> <s_lp_Force_Field>
OPLS_2005

> <r_lp_Energy>
40.3447

> <b_lp_Chiralities_Consistent>
1

> <s_lp_Variant>
AV-unprocessed.smi:2819-3

> <Gold.Version>
5.8.1

> <Gold.Id.Protein>
6NUR|6NUR_protein|mol2

> <Gold.PLP.Fitness>
39.5825

> <Gold.PLP.PLP>
-31.3479

> <Gold.PLP.part.hbond>
-3.0000

> <Gold.PLP.part.metal>
0.0000

> <Gold.PLP.part.buried>
-5.9334

> <Gold.PLP.part.nonpolar>
-23.6842

> <Gold.PLP.part.repulsive>
0.3714

> <Gold.PLP.ligand.clash>
0.0000

> <Gold.PLP.ligand.torsion>
0.3381

> <Gold.PLP.Chemscore.Hbond>
2.9440

> <Gold.PLP.Chemscore.CHOScore>
0.0000

> <Gold.PLP.Chemscore.Metal>
0.0000

> <Gold.Chemscore.Hbonds>
donor molecule, donor type, donor heavy atom, donor atom, acceptor molecule, acceptor atom, score
      L1  H     9    32       P1  7948  1.00
      L1  H    12    33       P1  7948  0.94
      P1  H  6896  6907       L1    20  0.74

> <Gold.PLP.Chemscore.Internal.Correction>
0.0788

> <Gold.Rescore>
     Score         DG    S(hbond)    S(metal)    S(lipo)     H(rot)  DE(clash)    DE(int)     intcor
     16.86     -18.74       2.87        0.00      64.36       1.51       0.05       1.84       ----

> <Gold.Chemscore.Fitness>
16.8602

> <Gold.Chemscore.DG>
-18.7429

> <Gold.Chemscore.ZeroCoef>
-5.4800

> <Gold.Chemscore.Hbond>
2.8720

> <Gold.Chemscore.Metal>
0.0000

> <Gold.Chemscore.Lipo>
64.3558

> <Gold.Chemscore.Internal_Hbond>
0.0000

> <Gold.Chemscore.DEClash>
0.0456

> <Gold.Chemscore.DEInternal>
1.8370

> <Gold.Chemscore.Rot>
1.5075

> <Gold.Chemscore.Internal.Correction>
   9.000000E+99

> <Gold.Chemscore.Hbonds>
donor molecule, donor type, donor heavy atom, donor atom, acceptor molecule, acceptor atom, score
      L1  H     9    32       P1  7948  0.99
      L1  H    12    33       P1  7948  0.91
      P1  H  6896  6907       L1    20  0.43

> <Gold.Chemscore.Hbond.Weighted>
-9.5923

> <Gold.Chemscore.Metal.Weighted>
-0.0000

> <Gold.Chemscore.Lipo.Weighted>
-7.5296

> <Gold.Chemscore.Internal_Hbond.Weighted>
0.0000

> <Gold.Chemscore.DEClash.Weighted>
0.0456

> <Gold.Chemscore.DEInternal.Weighted>
1.8370

> <Gold.Chemscore.Rot.Weighted>
3.8591

> <Gold.Chemscore.Internal.Correction.Weighted>
   9.000000E+99

> <Gold.Protein.RotatedTorsions>
[ 6907 6896 6895 6894 ] final  -68.07 input  -60.11 | X-H torsion
[ 7974 7965 7964 7962 ] final  150.10 input  175.53 | X-H torsion
[ 8008 7997 7996 7995 ] final  103.03 input   59.86 | X-H torsion
[ 10167 10162 10161 10158 ] final  -70.43 input  -65.29 | X-H torsion
[ 10718 10713 10712 10709 ] final  122.67 input   66.30 | X-H torsion
[ 10763 10752 10751 10750 ] final  -61.61 input  -60.55 | X-H torsion
[ 11005 11000 10999 10996 ] final -109.94 input  -57.11 | X-H torsion

> <Gold.Protein.ActiveResidues>
 VAL166  LYS551  ARG553  GLY616  TRP617  ASP618  TYR619  PRO620  LYS621  CYS622 
 ASP623  PHE694  ASN695  SER759  ASP760  ASP761  ALA762  ILE779  LEU786  VAL792 
 PHE793  MET794  SER795  GLU796  ALA797  LYS798  CYS799  TRP800  GLU811  SER814 

> <Gold.Protein.RotatedAtoms>
  150.7375  134.5791  159.5928 H   0  0  0  0  0  0  0  0  0  0  0  0  # atno 6907 bound_to 6896
  152.3209  134.7378  160.0323 H   0  0  0  0  0  0  0  0  0  0  0  0  # atno 6908 bound_to 6896
  151.7894  133.3322  159.3531 H   0  0  0  0  0  0  0  0  0  0  0  0  # atno 6909 bound_to 6896
  144.8389  139.6365  143.6025 H   0  0  0  0  0  0  0  0  0  0  0  0  # atno 7974 bound_to 7965
  156.1447  140.3171  155.8551 H   0  0  0  0  0  0  0  0  0  0  0  0  # atno 8008 bound_to 7997
  155.4087  140.0504  157.3050 H   0  0  0  0  0  0  0  0  0  0  0  0  # atno 8009 bound_to 7997
  154.5006  140.2128  155.9366 H   0  0  0  0  0  0  0  0  0  0  0  0  # atno 8010 bound_to 7997
  140.5353  143.2318  151.7189 H   0  0  0  0  0  0  0  0  0  0  0  0  # atno 10167 bound_to 10162
  157.5724  131.1082  150.8342 H   0  0  0  0  0  0  0  0  0  0  0  0  # atno 10718 bound_to 10713
  154.2872  135.6260  153.5370 H   0  0  0  0  0  0  0  0  0  0  0  0  # atno 10763 bound_to 10752
  152.9857  135.5647  154.5430 H   0  0  0  0  0  0  0  0  0  0  0  0  # atno 10764 bound_to 10752
  154.5034  135.2873  155.1378 H   0  0  0  0  0  0  0  0  0  0  0  0  # atno 10765 bound_to 10752
  141.0820  133.9204  157.2269 H   0  0  0  0  0  0  0  0  0  0  0  0  # atno 11005 bound_to 11000
  146.2684  139.6575  142.9313 LP  0  0  0  0  0  0  0  0  0  0  0  0  # atno 17320 bound_to 7965
  145.4736  141.0436  143.2685 LP  0  0  0  0  0  0  0  0  0  0  0  0  # atno 17321 bound_to 7965
  139.4968  144.4052  152.0139 LP  0  0  0  0  0  0  0  0  0  0  0  0  # atno 17342 bound_to 10162
  140.3157  144.3486  150.6022 LP  0  0  0  0  0  0  0  0  0  0  0  0  # atno 17343 bound_to 10162
  156.8810  130.5179  149.5291 LP  0  0  0  0  0  0  0  0  0  0  0  0  # atno 17370 bound_to 10713
  156.0769  130.5789  150.9491 LP  0  0  0  0  0  0  0  0  0  0  0  0  # atno 17371 bound_to 10713
  139.9634  135.0148  156.9323 LP  0  0  0  0  0  0  0  0  0  0  0  0  # atno 17394 bound_to 11000
  140.5448  134.0685  155.7352 LP  0  0  0  0  0  0  0  0  0  0  0  0  # atno 17395 bound_to 11000

$$$$
