#       Name:                AV-unprocessed.smi:2322
#       Creating user name   scv26
#       Creation time:       Fri Mar 27 12:51:13 2020


#       File generated by GOLD software.
#

@<TRIPOS>MOLECULE
AV-unprocessed.smi:2322
    44    46     1
SMALL
NO_CHARGES


@<TRIPOS>ATOM
      1 ****        -2.3780  -5.1005   0.9951 C.3            1 S1                 0.0000
      2 ****        -1.0275  -5.0105   1.5162 N.pl3          1 S1                 0.0000
      3 ****        -0.4887  -6.0269   2.2293 N.2            1 S1                 0.0000
      4 ****         0.7292  -5.5695   2.5176 C.2            1 S1                 0.0000
      5 ****         1.0276  -4.3237   2.0440 N.2            1 S1                 0.0000
      6 ****        -0.1161  -4.0366   1.4276 C.2            1 S1                 0.0000
      7 ****        -0.4332  -2.8381   0.7220 N.am           1 S1                 0.0000
      8 ****         0.3065  -1.7419   0.4535 C.2            1 S1                 0.0000
      9 ****         1.4698  -1.6520   0.8423 O.2            1 S1                 0.0000
     10 ****        -0.3028  -0.7712  -0.2471 N.am           1 S1                 0.0000
     11 ****         0.2989   0.5010  -0.6328 C.3            1 S1                 0.0000
     12 ****        -0.4556   1.0908  -1.8315 C.3            1 S1                 0.0000
     13 ****         0.0833   2.4869  -2.1786 C.3            1 S1                 0.0000
     14 ****         0.0027   3.3480  -1.0447 O.3            1 S1                 0.0000
     15 ****         0.7224   2.9075   0.1081 C.3            1 S1                 0.0000
     16 ****         2.2290   3.0063  -0.0905 C.3            1 S1                 0.0000
     17 ****         3.1432   3.3031   1.0751 C.3            1 S1                 0.0000
     18 ****         2.9300   4.3411  -0.0009 C.3            1 S1                 0.0000
     19 ****         0.2543   1.5024   0.5350 C.3            1 S1                 0.0000
     20 ****        -2.3557  -5.0331  -0.0928 H              1 S1                 0.0000
     21 ****        -2.9791  -4.2817   1.3910 H              1 S1                 0.0000
     22 ****        -2.8384  -6.0469   1.2813 H              1 S1                 0.0000
     23 ****         1.4300  -6.1562   3.0928 H              1 S1                 0.0000
     24 ****        -1.3727  -2.8080   0.3541 H              1 S1                 0.0000
     25 ****        -1.2612  -0.9262  -0.5278 H              1 S1                 0.0000
     26 ****         1.3352   0.3284  -0.9282 H              1 S1                 0.0000
     27 ****        -0.3677   0.4320  -2.6961 H              1 S1                 0.0000
     28 ****        -1.5197   1.1645  -1.6017 H              1 S1                 0.0000
     29 ****         1.1079   2.4282  -2.5458 H              1 S1                 0.0000
     30 ****        -0.5083   2.9217  -2.9843 H              1 S1                 0.0000
     31 ****         0.4590   3.5997   0.9088 H              1 S1                 0.0000
     32 ****         2.6313   2.3168  -0.8293 H              1 S1                 0.0000
     33 ****         2.6863   3.4845   2.0460 H              1 S1                 0.0000
     34 ****         4.1044   2.7936   1.1003 H              1 S1                 0.0000
     35 ****         3.7489   4.5248  -0.6933 H              1 S1                 0.0000
     36 ****         2.3304   5.2127   0.2541 H              1 S1                 0.0000
     37 ****        -0.7695   1.5744   0.9048 H              1 S1                 0.0000
     38 ****         0.8562   1.1457   1.3717 H              1 S1                 0.0000
     39 ****        -0.9017  -6.9031   2.4778 LP             1 S1                 0.0000
     40 ****         1.8642  -3.7834   2.1344 LP             1 S1                 0.0000
     41 ****         1.8811  -2.3981   1.3658 LP             1 S1                 0.0000
     42 ****         2.0044  -0.8328   0.6348 LP             1 S1                 0.0000
     43 ****        -0.9608   3.4371  -0.7922 LP             1 S1                 0.0000
     44 ****         0.3619   4.2428  -1.3100 LP             1 S1                 0.0000
@<TRIPOS>BOND
    1    1    2 1     
    2    1   20 1     
    3    1   21 1     
    4    1   22 1     
    5    2    6 1     
    6    2    3 1     
    7    3    4 2     
    8    4    5 1     
    9    4   23 1     
   10    5    6 2     
   11    6    7 1     
   12    7    8 am    
   13    7   24 1     
   14    8    9 2     
   15    8   10 am    
   16   10   11 1     
   17   10   25 1     
   18   11   19 1     
   19   11   12 1     
   20   11   26 1     
   21   12   13 1     
   22   12   27 1     
   23   12   28 1     
   24   13   14 1     
   25   13   29 1     
   26   13   30 1     
   27   14   15 1     
   28   15   16 1     
   29   15   19 1     
   30   15   31 1     
   31   16   18 1     
   32   16   17 1     
   33   16   32 1     
   34   17   18 1     
   35   17   33 1     
   36   17   34 1     
   37   18   35 1     
   38   18   36 1     
   39   19   37 1     
   40   19   38 1     
   41    3   39 1     
   42    5   40 1     
   43    9   41 1     
   44    9   42 1     
   45   14   43 1     
   46   14   44 1     
@<TRIPOS>SUBSTRUCTURE
      1 S1             1
@<TRIPOS>SET
LONE_PAIRS      STATIC     ATOMS    <user>   **** ""
6 39 40 41 42 43 44
DONOR_HYDROGENS      STATIC     ATOMS    <user>   **** ""
2 24 25
ATOM$BLUE        STATIC     ATOMS    COLORGROUP SYSTEM
6 39 40 41 42 43 44
ATOM$RED        STATIC     ATOMS    COLORGROUP SYSTEM
2 24 25
