#       Name:                AV-unprocessed.smi:113
#       Creating user name   scv26
#       Creation time:       Thu Mar 26 18:21:39 2020


#       File generated by GOLD software.
#

@<TRIPOS>MOLECULE
AV-unprocessed.smi:113
    63    66     1
SMALL
NO_CHARGES


@<TRIPOS>ATOM
      1 ****        -1.0127  -0.4537   4.1476 C.3            1 S1                 0.0000
      2 ****        -1.5129  -1.1362   2.8922 C.ar           1 S1                 0.0000
      3 ****        -1.3964  -0.5475   1.6180 C.ar           1 S1                 0.0000
      4 ****        -1.8825  -1.2310   0.4758 C.ar           1 S1                 0.0000
      5 ****        -1.7741  -0.6132  -0.9224 C.3            1 S1                 0.0000
      6 ****        -1.2000   0.7221  -1.0108 N.am           1 S1                 0.0000
      7 ****        -2.0751   1.8264  -0.8691 C.2            1 S1                 0.0000
      8 ****        -3.2826   1.6701  -0.6753 O.2            1 S1                 0.0000
      9 ****        -1.4347   3.1415  -0.9446 C.2            1 S1                 0.0000
     10 ****        -2.3105   4.3751  -0.7922 C.3            1 S1                 0.0000
     11 ****        -0.0965   3.2277  -1.1378 C.2            1 S1                 0.0000
     12 ****         0.7360   2.1315  -1.2811 N.am           1 S1                 0.0000
     13 ****         2.2268   2.3417  -1.4365 C.3            1 S1                 0.0000
     14 ****         2.8064   1.7109  -2.7141 C.3            1 S1                 0.0000
     15 ****         3.8414   0.7325  -2.1775 C.3            1 S1                 0.0000
     16 ****         4.9943   0.7267  -2.9944 O.3            1 S1                 0.0000
     17 ****         4.1304   1.2637  -0.7690 C.3            1 S1                 0.0000
     18 ****         4.6169   0.2035   0.2309 C.3            1 S1                 0.0000
     19 ****         5.9311  -0.2072  -0.0814 O.3            1 S1                 0.0000
     20 ****         2.8706   1.7646  -0.3439 O.3            1 S1                 0.0000
     21 ****         0.1980   0.8295  -1.1849 C.2            1 S1                 0.0000
     22 ****         0.9218  -0.1673  -1.2320 O.2            1 S1                 0.0000
     23 ****        -2.4759  -2.5105   0.6578 C.ar           1 S1                 0.0000
     24 ****        -2.9832  -3.2679  -0.4252 C.2            1 S1                 0.0000
     25 ****        -3.5661  -4.5314  -0.2039 C.2            1 S1                 0.0000
     26 ****        -3.6503  -5.0559   1.0992 C.2            1 S1                 0.0000
     27 ****        -3.1504  -4.3170   2.1874 C.2            1 S1                 0.0000
     28 ****        -2.5664  -3.0533   1.9682 C.ar           1 S1                 0.0000
     29 ****        -2.0865  -2.3502   3.0157 N.pl3          1 S1                 1.0000
     30 ****        -0.6463   0.5500   3.9305 H              1 S1                 0.0000
     31 ****        -0.1972  -1.0261   4.5905 H              1 S1                 0.0000
     32 ****        -1.8147  -0.3712   4.8817 H              1 S1                 0.0000
     33 ****        -0.9341   0.4247   1.5330 H              1 S1                 0.0000
     34 ****        -1.1916  -1.2645  -1.5758 H              1 S1                 0.0000
     35 ****        -2.7575  -0.5712  -1.3932 H              1 S1                 0.0000
     36 ****        -1.7343   5.2961  -0.8832 H              1 S1                 0.0000
     37 ****        -2.7953   4.3799   0.1847 H              1 S1                 0.0000
     38 ****        -3.0853   4.3902  -1.5598 H              1 S1                 0.0000
     39 ****         0.3434   4.2139  -1.1822 H              1 S1                 0.0000
     40 ****         2.3885   3.4199  -1.4142 H              1 S1                 0.0000
     41 ****         2.0439   1.2305  -3.3279 H              1 S1                 0.0000
     42 ****         3.2667   2.5061  -3.3025 H              1 S1                 0.0000
     43 ****         3.4186  -0.2712  -2.1307 H              1 S1                 0.0000
     44 ****         5.6393   0.1611  -2.5965 H              1 S1                 0.0000
     45 ****         4.8250   2.1052  -0.8102 H              1 S1                 0.0000
     46 ****         4.6187   0.6155   1.2402 H              1 S1                 0.0000
     47 ****         3.9533  -0.6618   0.2377 H              1 S1                 0.0000
     48 ****         6.2070  -0.8449   0.5596 H              1 S1                 0.0000
     49 ****        -2.9358  -2.8994  -1.4387 H              1 S1                 0.0000
     50 ****        -3.9504  -5.1002  -1.0381 H              1 S1                 0.0000
     51 ****        -4.0980  -6.0253   1.2630 H              1 S1                 0.0000
     52 ****        -3.2176  -4.7248   3.1858 H              1 S1                 0.0000
     53 ****        -2.1607  -2.7579   3.9476 H              1 S1                 0.0000
     54 ****        -3.6641   0.7477  -0.6149 LP             1 S1                 0.0000
     55 ****        -3.8806   2.4658  -0.5784 LP             1 S1                 0.0000
     56 ****         5.3594   1.6546  -3.0698 LP             1 S1                 0.0000
     57 ****         4.7613   0.3851  -3.9049 LP             1 S1                 0.0000
     58 ****         6.5453   0.5816  -0.0583 LP             1 S1                 0.0000
     59 ****         5.9486  -0.6167  -0.9935 LP             1 S1                 0.0000
     60 ****         2.3150   1.0154   0.0167 LP             1 S1                 0.0000
     61 ****         3.0054   2.4527   0.3691 LP             1 S1                 0.0000
     62 ****         0.5221  -1.0799  -1.1461 LP             1 S1                 0.0000
     63 ****         1.9086  -0.0633  -1.3560 LP             1 S1                 0.0000
@<TRIPOS>BOND
    1    1    2 1     
    2    1   30 1     
    3    1   31 1     
    4    1   32 1     
    5    2   29 ar    
    6    2    3 ar    
    7    3    4 ar    
    8    3   33 1     
    9    4    5 1     
   10    4   23 ar    
   11    5    6 1     
   12    5   34 1     
   13    5   35 1     
   14    6   21 am    
   15    6    7 am    
   16    7    8 2     
   17    7    9 1     
   18    9   10 1     
   19    9   11 2     
   20   10   36 1     
   21   10   37 1     
   22   10   38 1     
   23   11   12 1     
   24   11   39 1     
   25   12   13 1     
   26   12   21 am    
   27   13   20 1     
   28   13   14 1     
   29   13   40 1     
   30   14   15 1     
   31   14   41 1     
   32   14   42 1     
   33   15   16 1     
   34   15   17 1     
   35   15   43 1     
   36   16   44 1     
   37   17   18 1     
   38   17   20 1     
   39   17   45 1     
   40   18   19 1     
   41   18   46 1     
   42   18   47 1     
   43   19   48 1     
   44   21   22 2     
   45   23   28 ar    
   46   23   24 1     
   47   24   25 2     
   48   24   49 1     
   49   25   26 1     
   50   25   50 1     
   51   26   27 2     
   52   26   51 1     
   53   27   28 1     
   54   27   52 1     
   55   28   29 ar    
   56   29   53 1     
   57    8   54 1     
   58    8   55 1     
   59   16   56 1     
   60   16   57 1     
   61   19   58 1     
   62   19   59 1     
   63   20   60 1     
   64   20   61 1     
   65   22   62 1     
   66   22   63 1     
@<TRIPOS>SUBSTRUCTURE
      1 S1             1
@<TRIPOS>SET
LONE_PAIRS      STATIC     ATOMS    <user>   **** ""
10 54 55 56 57 58 59 60 61 62 63
DONOR_HYDROGENS      STATIC     ATOMS    <user>   **** ""
3 44 48 53
ATOM$BLUE        STATIC     ATOMS    COLORGROUP SYSTEM
10 54 55 56 57 58 59 60 61 62 63
ATOM$RED        STATIC     ATOMS    COLORGROUP SYSTEM
3 44 48 53
