AV-unprocessed.smi:542|AV-procd|sdf|2873|dock4
  -GOLD-   2262023363D 1   1.00000     0.00000
 Structure written by MMmdl.
 46 48  0  0  0  0  0  0  0  0  1 V2000
  154.1202  137.2666  157.3544 C   0  0  0  0  0  0  0  0  0  0  0  0
  153.1052  137.0959  156.3807 O   0  0  0  0  0  0  0  0  0  0  0  0
  151.9836  137.9297  156.6154 C   0  0  0  0  0  0  0  0  0  0  0  0
  152.3396  139.3653  156.1952 C   0  0  0  0  0  0  0  0  0  0  0  0
  151.1551  140.1810  155.9451 N   0  0  0  0  0  0  0  0  0  0  0  0
  150.8103  141.3995  156.4579 C   0  0  0  0  0  0  0  0  0  0  0  0
  151.5864  142.0996  157.3930 N   0  0  0  0  0  0  0  0  0  0  0  0
  151.8776  143.5354  157.4277 C   0  0  0  0  0  0  0  0  0  0  0  0
  151.5932  144.1512  158.8102 C   0  0  0  0  0  0  0  0  0  0  0  0
  152.4188  143.4493  159.9004 C   0  0  0  0  0  0  0  0  0  0  0  0
  152.0940  143.9856  161.3016 C   0  0  0  0  0  0  0  0  0  0  0  0
  152.1947  141.9320  159.7987 C   0  0  0  0  0  0  0  0  0  0  0  0
  152.4545  141.4327  158.3666 C   0  0  0  0  0  0  0  0  0  0  0  0
  149.6708  141.8959  155.9632 N   0  0  0  0  0  0  0  0  0  0  0  0
  149.2475  140.9176  155.0807 C   0  0  0  0  0  0  0  0  0  0  0  0
  150.1258  139.8860  155.0473 C   0  0  0  0  0  0  0  0  0  0  0  0
  149.9353  138.7240  154.1677 C   0  0  0  0  0  0  0  0  0  0  0  0
  150.7272  137.7868  154.0985 O   0  0  0  0  0  0  0  0  0  0  0  0
  148.7960  138.7915  153.4368 N   0  0  0  0  0  0  0  0  0  0  0  0
  147.8660  139.7951  153.4342 C   0  0  0  0  0  0  0  0  0  0  0  0
  146.8721  139.7032  152.7144 O   0  0  0  0  0  0  0  0  0  0  0  0
  148.0934  140.8749  154.2505 N   0  0  0  0  0  0  0  0  0  0  0  0
  147.1656  142.0060  154.3146 C   0  0  0  0  0  0  0  0  0  0  0  0
  148.6129  138.0121  152.8217 H   0  0  0  0  0  0  0  0  0  0  0  0
  154.9565  136.6040  157.1317 H   0  0  0  0  0  0  0  0  0  0  0  0
  153.7543  137.0229  158.3527 H   0  0  0  0  0  0  0  0  0  0  0  0
  154.4944  138.2913  157.3585 H   0  0  0  0  0  0  0  0  0  0  0  0
  151.1276  137.5653  156.0471 H   0  0  0  0  0  0  0  0  0  0  0  0
  151.7032  137.8885  157.6678 H   0  0  0  0  0  0  0  0  0  0  0  0
  152.9659  139.8453  156.9426 H   0  0  0  0  0  0  0  0  0  0  0  0
  152.9478  139.3494  155.2910 H   0  0  0  0  0  0  0  0  0  0  0  0
  152.9281  143.6823  157.1731 H   0  0  0  0  0  0  0  0  0  0  0  0
  151.3217  144.0652  156.6605 H   0  0  0  0  0  0  0  0  0  0  0  0
  151.8264  145.2161  158.7933 H   0  0  0  0  0  0  0  0  0  0  0  0
  150.5307  144.0719  159.0421 H   0  0  0  0  0  0  0  0  0  0  0  0
  153.4738  143.6472  159.7043 H   0  0  0  0  0  0  0  0  0  0  0  0
  151.0479  143.8159  161.5587 H   0  0  0  0  0  0  0  0  0  0  0  0
  152.2829  145.0576  161.3647 H   0  0  0  0  0  0  0  0  0  0  0  0
  152.7069  143.4975  162.0598 H   0  0  0  0  0  0  0  0  0  0  0  0
  152.8509  141.4092  160.4954 H   0  0  0  0  0  0  0  0  0  0  0  0
  151.1724  141.6846  160.0893 H   0  0  0  0  0  0  0  0  0  0  0  0
  152.2931  140.3549  158.3351 H   0  0  0  0  0  0  0  0  0  0  0  0
  153.4978  141.5939  158.0915 H   0  0  0  0  0  0  0  0  0  0  0  0
  146.3711  141.9700  153.5684 H   0  0  0  0  0  0  0  0  0  0  0  0
  147.7049  142.9420  154.1640 H   0  0  0  0  0  0  0  0  0  0  0  0
  146.6956  142.0447  155.2977 H   0  0  0  0  0  0  0  0  0  0  0  0
  1  2  1  0  0  0  0
  1 25  1  0  0  0  0
  1 26  1  0  0  0  0
  1 27  1  0  0  0  0
  2  3  1  0  0  0  0
  3  4  1  0  0  0  0
  3 28  1  0  0  0  0
  3 29  1  0  0  0  0
  4  5  1  0  0  0  0
  4 30  1  0  0  0  0
  4 31  1  0  0  0  0
  5 16  1  0  0  0  0
  5  6  1  0  0  0  0
  6  7  1  0  0  0  0
  6 14  2  0  0  0  0
  7 13  1  0  0  0  0
  7  8  1  0  0  0  0
  8  9  1  0  0  0  0
  8 32  1  0  0  0  0
  8 33  1  0  0  0  0
  9 10  1  0  0  0  0
  9 34  1  0  0  0  0
  9 35  1  0  0  0  0
 10 11  1  0  0  0  0
 10 12  1  0  0  0  0
 10 36  1  0  0  0  0
 11 37  1  0  0  0  0
 11 38  1  0  0  0  0
 11 39  1  0  0  0  0
 12 13  1  0  0  0  0
 12 40  1  0  0  0  0
 12 41  1  0  0  0  0
 13 42  1  0  0  0  0
 13 43  1  0  0  0  0
 14 15  1  0  0  0  0
 15 22  1  0  0  0  0
 15 16  2  0  0  0  0
 16 17  1  0  0  0  0
 17 18  2  0  0  0  0
 17 19  1  0  0  0  0
 19 24  1  0  0  0  0
 19 20  1  0  0  0  0
 20 21  2  0  0  0  0
 20 22  1  0  0  0  0
 22 23  1  0  0  0  0
 23 44  1  0  0  0  0
 23 45  1  0  0  0  0
 23 46  1  0  0  0  0
M  END
> <s_m_source_file>
AV-unprocessed.smi

> <i_m_source_file_index>
542

> <i_lp_mmshare_version>
43012

> <i_f3d_flags>
0

> <s_epik_input>
W0NIM11uMWMoPU8pW25IXWMoPU8pYyhjMTIpbihbQ0gyXVtDSDJdT1tDSDNdKWMobjIpTjNbQ0gyXVtDSDJdW0NIXShbQ0gzXSlbQ0gyXVtDSDJdMw==

> <s_epik_cmdline>
J2VwaWtfcHl0aG9uJywgJy1waCcsICc3LjAnLCAnLXRuJywgJzgnLCAnLW1hJywgJzIwMCcsICctbWV0YWxfYmluZGluZycsICctaW1hZScsICc8aW5maWxlLm1hZT4nLCAnLW9tYWUnLCAnPG91dGZpbGUubWFlPic=

> <r_lp_tautomer_probability>
1

> <r_epik_Ionization_Penalty>
0.000855395

> <r_epik_Ionization_Penalty_Charging>
0.000124032

> <r_epik_Ionization_Penalty_Neutral>
0.000731363

> <r_epik_State_Penalty>
-0

> <r_epik_Charging_Adjusted_Penalty>
0.000124032

> <i_epik_Tot_Q>
0

> <i_epik_Tot_abs_Q>
0

> <r_epik_Metal_State_Penalty>
0.0946135

> <b_epik_Metal_Only>
0

> <s_lp_Force_Field>
OPLS_2005

> <r_lp_Energy>
39.151

> <b_lp_Chiralities_Consistent>
1

> <s_lp_Variant>
AV-unprocessed.smi:542-1

> <Gold.Version>
5.8.1

> <Gold.Id.Protein>
6NUR|6NUR_protein|mol2

> <Gold.PLP.Fitness>
48.3558

> <Gold.PLP.PLP>
-44.4324

> <Gold.PLP.part.hbond>
-3.0000

> <Gold.PLP.part.metal>
0.0000

> <Gold.PLP.part.buried>
-5.2381

> <Gold.PLP.part.nonpolar>
-38.4844

> <Gold.PLP.part.repulsive>
1.8569

> <Gold.PLP.ligand.clash>
0.0000

> <Gold.PLP.ligand.torsion>
0.6811

> <Gold.PLP.Chemscore.Hbond>
1.7360

> <Gold.PLP.Chemscore.CHOScore>
0.0000

> <Gold.PLP.Chemscore.Metal>
0.0000

> <Gold.Chemscore.Hbonds>
donor molecule, donor type, donor heavy atom, donor atom, acceptor molecule, acceptor atom, score
      L1  H    19    24       P1  7948  1.00
      P1  H 10752 10765       L1     2  0.74

> <Gold.PLP.Chemscore.Internal.Correction>
0.0776

> <Gold.Rescore>
     Score         DG    S(hbond)    S(metal)    S(lipo)     H(rot)  DE(clash)    DE(int)     intcor
     14.72     -17.72       1.63        0.00      90.00       1.46       0.07       2.93       ----

> <Gold.Chemscore.Fitness>
14.7224

> <Gold.Chemscore.DG>
-17.7225

> <Gold.Chemscore.ZeroCoef>
-5.4800

> <Gold.Chemscore.Hbond>
1.6286

> <Gold.Chemscore.Metal>
0.0000

> <Gold.Chemscore.Lipo>
89.9975

> <Gold.Chemscore.Internal_Hbond>
0.0000

> <Gold.Chemscore.DEClash>
0.0724

> <Gold.Chemscore.DEInternal>
2.9277

> <Gold.Chemscore.Rot>
1.4557

> <Gold.Chemscore.Internal.Correction>
   9.000000E+99

> <Gold.Chemscore.Hbonds>
donor molecule, donor type, donor heavy atom, donor atom, acceptor molecule, acceptor atom, score
      L1  H    19    24       P1  7948  0.92
      P1  H 10752 10765       L1     2  0.63

> <Gold.Chemscore.Hbond.Weighted>
-5.4395

> <Gold.Chemscore.Metal.Weighted>
-0.0000

> <Gold.Chemscore.Lipo.Weighted>
-10.5297

> <Gold.Chemscore.Internal_Hbond.Weighted>
0.0000

> <Gold.Chemscore.DEClash.Weighted>
0.0724

> <Gold.Chemscore.DEInternal.Weighted>
2.9277

> <Gold.Chemscore.Rot.Weighted>
3.7267

> <Gold.Chemscore.Internal.Correction.Weighted>
   9.000000E+99

> <Gold.Protein.RotatedTorsions>
[ 6907 6896 6895 6894 ] final   96.77 input  -60.11 | X-H torsion
[ 7974 7965 7964 7962 ] final   44.56 input  175.53 | X-H torsion
[ 8008 7997 7996 7995 ] final -166.17 input   59.86 | X-H torsion
[ 10167 10162 10161 10158 ] final   30.53 input  -65.29 | X-H torsion
[ 10718 10713 10712 10709 ] final  -65.08 input   66.30 | X-H torsion
[ 10763 10752 10751 10750 ] final -137.08 input  -60.55 | X-H torsion
[ 11005 11000 10999 10996 ] final -160.36 input  -57.11 | X-H torsion

> <Gold.Protein.ActiveResidues>
 VAL166  LYS551  ARG553  GLY616  TRP617  ASP618  TYR619  PRO620  LYS621  CYS622 
 ASP623  PHE694  ASN695  SER759  ASP760  ASP761  ALA762  ILE779  LEU786  VAL792 
 PHE793  MET794  SER795  GLU796  ALA797  LYS798  CYS799  TRP800  GLU811  SER814 

> <Gold.Protein.RotatedAtoms>
  152.5431  134.0835  159.8245 H   0  0  0  0  0  0  0  0  0  0  0  0  # atno 6907 bound_to 6896
  151.0934  133.5291  159.2621 H   0  0  0  0  0  0  0  0  0  0  0  0  # atno 6908 bound_to 6896
  151.2073  135.0476  159.8951 H   0  0  0  0  0  0  0  0  0  0  0  0  # atno 6909 bound_to 6896
  146.0558  139.5061  142.9689 H   0  0  0  0  0  0  0  0  0  0  0  0  # atno 7974 bound_to 7965
  155.8601  140.0976  157.1619 H   0  0  0  0  0  0  0  0  0  0  0  0  # atno 8008 bound_to 7997
  154.3990  140.1367  156.4012 H   0  0  0  0  0  0  0  0  0  0  0  0  # atno 8009 bound_to 7997
  155.7866  140.3457  155.5329 H   0  0  0  0  0  0  0  0  0  0  0  0  # atno 8010 bound_to 7997
  140.4669  144.0821  150.6227 H   0  0  0  0  0  0  0  0  0  0  0  0  # atno 10167 bound_to 10162
  156.0691  130.4242  150.1512 H   0  0  0  0  0  0  0  0  0  0  0  0  # atno 10718 bound_to 10713
  154.8670  135.3653  154.5164 H   0  0  0  0  0  0  0  0  0  0  0  0  # atno 10763 bound_to 10752
  153.5797  135.7018  153.5473 H   0  0  0  0  0  0  0  0  0  0  0  0  # atno 10764 bound_to 10752
  153.3468  135.4083  155.1578 H   0  0  0  0  0  0  0  0  0  0  0  0  # atno 10765 bound_to 10752
  140.6324  134.4637  157.5230 H   0  0  0  0  0  0  0  0  0  0  0  0  # atno 11005 bound_to 11000
  145.6646  141.0232  143.1690 LP  0  0  0  0  0  0  0  0  0  0  0  0  # atno 17320 bound_to 7965
  144.7147  139.8240  143.7403 LP  0  0  0  0  0  0  0  0  0  0  0  0  # atno 17321 bound_to 7965
  140.4025  143.2697  151.9931 LP  0  0  0  0  0  0  0  0  0  0  0  0  # atno 17342 bound_to 10162
  139.4813  144.5985  151.7647 LP  0  0  0  0  0  0  0  0  0  0  0  0  # atno 17343 bound_to 10162
  156.9566  130.9792  151.3487 LP  0  0  0  0  0  0  0  0  0  0  0  0  # atno 17370 bound_to 10713
  157.5751  130.8337  149.8444 LP  0  0  0  0  0  0  0  0  0  0  0  0  # atno 17371 bound_to 10713
  139.9111  134.8343  156.1526 LP  0  0  0  0  0  0  0  0  0  0  0  0  # atno 17394 bound_to 11000
  141.0666  133.6816  156.2056 LP  0  0  0  0  0  0  0  0  0  0  0  0  # atno 17395 bound_to 11000

$$$$
