AV-unprocessed.smi:1934|AV-procd|sdf|7826|dock10
  -GOLD-   22720 9573D 1   1.00000     0.00000
 Structure written by MMmdl.
 46 47  0  0  0  0  0  0  0  0  2 V2000
  146.3345  129.4653  152.1956 C   0  0  0  0  0  0  0  0  0  0  0  0
  146.1527  130.9219  151.8859 C   0  0  0  0  0  0  0  0  0  0  0  0
  146.8972  132.0254  152.3947 C   0  0  0  0  0  0  0  0  0  0  0  0
  146.3037  133.0963  151.7844 C   0  0  0  0  0  0  0  0  0  0  0  0
  146.6027  134.4178  151.8977 N   0  0  0  0  0  0  0  0  0  0  0  0
  145.7617  135.4609  152.0091 C   0  0  0  0  0  0  0  0  0  0  0  0
  144.5329  135.3901  152.0383 O   0  0  0  0  0  0  0  0  0  0  0  0
  146.4316  136.6204  152.0764 N   0  0  0  0  0  0  0  0  0  0  0  0
  145.8109  137.9356  152.1876 C   0  0  0  0  0  0  0  0  0  0  0  0
  146.8660  139.0438  152.3739 C   0  0  0  0  0  0  0  0  0  0  0  0
  146.4052  140.1242  153.2824 N   0  3  2  0  0  0  0  0  0  0  0  0
  147.3239  141.2921  153.2689 C   0  0  0  0  0  0  0  0  0  0  0  0
  146.7632  142.4506  154.1085 C   0  0  0  0  0  0  0  0  0  0  0  0
  146.4797  141.9987  155.5463 C   0  0  0  0  0  0  0  0  0  0  0  0
  145.5482  140.7754  155.5454 C   0  0  2  0  0  0  0  0  0  0  0  0
  145.2676  140.2844  156.9727 C   0  0  0  0  0  0  0  0  0  0  0  0
  146.1409  139.6532  154.6692 C   0  0  0  0  0  0  0  0  0  0  0  0
  145.2898  132.6395  150.9714 N   0  0  0  0  0  0  0  0  0  0  0  0
  144.3771  133.3854  150.1264 C   0  0  0  0  0  0  0  0  0  0  0  0
  145.1976  131.2938  151.0408 N   0  0  0  0  0  0  0  0  0  0  0  0
  147.1693  129.3096  152.8794 H   0  0  0  0  0  0  0  0  0  0  0  0
  146.5374  128.8930  151.2900 H   0  0  0  0  0  0  0  0  0  0  0  0
  145.4419  129.0486  152.6627 H   0  0  0  0  0  0  0  0  0  0  0  0
  147.7233  132.0096  153.0895 H   0  0  0  0  0  0  0  0  0  0  0  0
  147.5873  134.6385  151.8743 H   0  0  0  0  0  0  0  0  0  0  0  0
  147.4407  136.5911  152.0489 H   0  0  0  0  0  0  0  0  0  0  0  0
  145.1983  138.1334  151.3063 H   0  0  0  0  0  0  0  0  0  0  0  0
  145.1302  137.8977  153.0370 H   0  0  0  0  0  0  0  0  0  0  0  0
  147.8060  138.6275  152.7398 H   0  0  0  0  0  0  0  0  0  0  0  0
  147.0837  139.4773  151.3966 H   0  0  0  0  0  0  0  0  0  0  0  0
  148.3026  140.9914  153.6466 H   0  0  0  0  0  0  0  0  0  0  0  0
  147.4712  141.6359  152.2443 H   0  0  0  0  0  0  0  0  0  0  0  0
  147.4679  143.2828  154.1121 H   0  0  0  0  0  0  0  0  0  0  0  0
  145.8454  142.8245  153.6524 H   0  0  0  0  0  0  0  0  0  0  0  0
  147.4184  141.7525  156.0450 H   0  0  0  0  0  0  0  0  0  0  0  0
  146.0314  142.8173  156.1107 H   0  0  0  0  0  0  0  0  0  0  0  0
  144.5945  141.0769  155.1086 H   0  0  0  0  0  0  0  0  0  0  0  0
  146.1823  139.9538  157.4662 H   0  0  0  0  0  0  0  0  0  0  0  0
  144.5695  139.4468  156.9700 H   0  0  0  0  0  0  0  0  0  0  0  0
  144.8291  141.0759  157.5814 H   0  0  0  0  0  0  0  0  0  0  0  0
  145.4442  138.8159  154.6535 H   0  0  0  0  0  0  0  0  0  0  0  0
  147.0684  139.2816  155.1086 H   0  0  0  0  0  0  0  0  0  0  0  0
  144.9310  134.1201  149.5417 H   0  0  0  0  0  0  0  0  0  0  0  0
  143.6448  133.9015  150.7476 H   0  0  0  0  0  0  0  0  0  0  0  0
  143.8538  132.7154  149.4426 H   0  0  0  0  0  0  0  0  0  0  0  0
  145.5265  140.4555  152.9102 H   0  0  0  0  0  0  0  0  0  0  0  0
  1  2  1  0  0  0  0
  1 21  1  0  0  0  0
  1 22  1  0  0  0  0
  1 23  1  0  0  0  0
  2 20  2  0  0  0  0
  2  3  1  0  0  0  0
  3  4  2  0  0  0  0
  3 24  1  0  0  0  0
  4  5  1  0  0  0  0
  4 18  1  0  0  0  0
  5  6  1  0  0  0  0
  5 25  1  0  0  0  0
  6  7  2  0  0  0  0
  6  8  1  0  0  0  0
  8  9  1  0  0  0  0
  8 26  1  0  0  0  0
  9 10  1  0  0  0  0
  9 27  1  0  0  0  0
  9 28  1  0  0  0  0
 10 11  1  0  0  0  0
 10 29  1  0  0  0  0
 10 30  1  0  0  0  0
 11 17  1  0  0  0  0
 11 12  1  0  0  0  0
 11 46  1  0  0  0  0
 12 13  1  0  0  0  0
 12 31  1  0  0  0  0
 12 32  1  0  0  0  0
 13 14  1  0  0  0  0
 13 33  1  0  0  0  0
 13 34  1  0  0  0  0
 14 15  1  0  0  0  0
 14 35  1  0  0  0  0
 14 36  1  0  0  0  0
 15 16  1  0  0  0  0
 15 17  1  0  0  0  0
 15 37  1  0  0  0  0
 16 38  1  0  0  0  0
 16 39  1  0  0  0  0
 16 40  1  0  0  0  0
 17 41  1  0  0  0  0
 17 42  1  0  0  0  0
 18 19  1  0  0  0  0
 18 20  1  0  0  0  0
 19 43  1  0  0  0  0
 19 44  1  0  0  0  0
 19 45  1  0  0  0  0
M  CHG  1  11   1
M  END
> <s_m_source_file>
AV-unprocessed.smi

> <i_m_source_file_index>
1934

> <i_lp_mmshare_version>
43012

> <i_f3d_flags>
0

> <s_epik_input>
W0NIM11jMVtjSF1jKG4objEpW0NIM10pW05IXUMoPU8pW05IXVtDSDJdW0NIMl1OMltDSDJdW0NIMl1bQ0gyXVtDQEBIXShbQ0gzXSlbQ0gyXTI=

> <s_epik_cmdline>
J2VwaWtfcHl0aG9uJywgJy1waCcsICc3LjAnLCAnLXRuJywgJzgnLCAnLW1hJywgJzIwMCcsICctbWV0YWxfYmluZGluZycsICctaW1hZScsICc8aW5maWxlLm1hZT4nLCAnLW9tYWUnLCAnPG91dGZpbGUubWFlPic=

> <r_lp_tautomer_probability>
1

> <r_epik_Ionization_Penalty>
0.00202955

> <r_epik_Ionization_Penalty_Charging>
0.00195276

> <r_epik_Ionization_Penalty_Neutral>
7.67968e-05

> <r_epik_State_Penalty>
0.00133177

> <r_epik_Charging_Adjusted_Penalty>
0.00328452

> <i_epik_Tot_Q>
1

> <i_epik_Tot_abs_Q>
1

> <r_epik_Metal_State_Penalty>
-0

> <b_epik_Metal_Only>
0

> <s_lp_Force_Field>
OPLS_2005

> <r_lp_Energy>
17.6546

> <b_lp_Chiralities_Consistent>
1

> <s_lp_Variant>
AV-unprocessed.smi:1934-4

> <Gold.Version>
5.8.1

> <Gold.Id.Protein>
6NUR|6NUR_protein|mol2

> <Gold.PLP.Fitness>
43.3730

> <Gold.PLP.PLP>
-32.9469

> <Gold.PLP.part.hbond>
-3.0000

> <Gold.PLP.part.metal>
0.0000

> <Gold.PLP.part.buried>
-3.2244

> <Gold.PLP.part.nonpolar>
-26.5765

> <Gold.PLP.part.repulsive>
0.3227

> <Gold.PLP.ligand.clash>
0.0000

> <Gold.PLP.ligand.torsion>
0.6284

> <Gold.PLP.Chemscore.Hbond>
3.8882

> <Gold.PLP.Chemscore.CHOScore>
0.0000

> <Gold.PLP.Chemscore.Metal>
0.0000

> <Gold.Chemscore.Hbonds>
donor molecule, donor type, donor heavy atom, donor atom, acceptor molecule, acceptor atom, score
      L1  H     5    25       P1  7948  0.86
      L1  H     8    26       P1  7948  1.00
      L1  H    11    46       P1 10175  2.00

> <Gold.PLP.Chemscore.Internal.Correction>
0.0184

> <Gold.Rescore>
     Score         DG    S(hbond)    S(metal)    S(lipo)     H(rot)  DE(clash)    DE(int)     intcor
     15.89     -18.00       2.47        0.00      68.95       1.48       0.15       1.96       ----

> <Gold.Chemscore.Fitness>
15.8888

> <Gold.Chemscore.DG>
-17.9950

> <Gold.Chemscore.ZeroCoef>
-5.4800

> <Gold.Chemscore.Hbond>
2.4688

> <Gold.Chemscore.Metal>
0.0000

> <Gold.Chemscore.Lipo>
68.9533

> <Gold.Chemscore.Internal_Hbond>
0.0000

> <Gold.Chemscore.DEClash>
0.1457

> <Gold.Chemscore.DEInternal>
1.9605

> <Gold.Chemscore.Rot>
1.4838

> <Gold.Chemscore.Internal.Correction>
   9.000000E+99

> <Gold.Chemscore.Hbonds>
donor molecule, donor type, donor heavy atom, donor atom, acceptor molecule, acceptor atom, score
      L1  H     5    25       P1  7948  0.39
      L1  H     8    26       P1  7948  0.95
      L1  H    11    46       P1 10175  0.85

> <Gold.Chemscore.Hbond.Weighted>
-8.2460

> <Gold.Chemscore.Metal.Weighted>
-0.0000

> <Gold.Chemscore.Lipo.Weighted>
-8.0675

> <Gold.Chemscore.Internal_Hbond.Weighted>
0.0000

> <Gold.Chemscore.DEClash.Weighted>
0.1457

> <Gold.Chemscore.DEInternal.Weighted>
1.9605

> <Gold.Chemscore.Rot.Weighted>
3.7985

> <Gold.Chemscore.Internal.Correction.Weighted>
   9.000000E+99

> <Gold.Protein.RotatedTorsions>
[ 6907 6896 6895 6894 ] final   -1.01 input  -60.11 | X-H torsion
[ 7974 7965 7964 7962 ] final -155.48 input  175.53 | X-H torsion
[ 8008 7997 7996 7995 ] final  -86.07 input   59.86 | X-H torsion
[ 10167 10162 10161 10158 ] final  167.88 input  -65.29 | X-H torsion
[ 10718 10713 10712 10709 ] final -135.05 input   66.30 | X-H torsion
[ 10763 10752 10751 10750 ] final  -63.78 input  -60.55 | X-H torsion
[ 11005 11000 10999 10996 ] final  130.97 input  -57.11 | X-H torsion

> <Gold.Protein.ActiveResidues>
 VAL166  LYS551  ARG553  GLY616  TRP617  ASP618  TYR619  PRO620  LYS621  CYS622 
 ASP623  PHE694  ASN695  SER759  ASP760  ASP761  ALA762  ILE779  LEU786  VAL792 
 PHE793  MET794  SER795  GLU796  ALA797  LYS798  CYS799  TRP800  GLU811  SER814 

> <Gold.Protein.RotatedAtoms>
  151.5530  135.1067  159.9953 H   0  0  0  0  0  0  0  0  0  0  0  0  # atno 6907 bound_to 6896
  152.4483  133.7574  159.6738 H   0  0  0  0  0  0  0  0  0  0  0  0  # atno 6908 bound_to 6896
  150.8404  133.7878  159.3087 H   0  0  0  0  0  0  0  0  0  0  0  0  # atno 6909 bound_to 6896
  144.7638  140.4243  143.5957 H   0  0  0  0  0  0  0  0  0  0  0  0  # atno 7974 bound_to 7965
  154.6477  140.0583  156.9920 H   0  0  0  0  0  0  0  0  0  0  0  0  # atno 8008 bound_to 7997
  155.1418  140.3266  155.4432 H   0  0  0  0  0  0  0  0  0  0  0  0  # atno 8009 bound_to 7997
  156.2561  140.1962  156.6534 H   0  0  0  0  0  0  0  0  0  0  0  0  # atno 8010 bound_to 7997
  139.4955  144.3874  151.9555 H   0  0  0  0  0  0  0  0  0  0  0  0  # atno 10167 bound_to 10162
  156.2620  130.7215  151.1152 H   0  0  0  0  0  0  0  0  0  0  0  0  # atno 10718 bound_to 10713
  154.3202  135.6197  153.5504 H   0  0  0  0  0  0  0  0  0  0  0  0  # atno 10763 bound_to 10752
  152.9820  135.5722  154.5078 H   0  0  0  0  0  0  0  0  0  0  0  0  # atno 10764 bound_to 10752
  154.4745  135.2860  155.1594 H   0  0  0  0  0  0  0  0  0  0  0  0  # atno 10765 bound_to 10752
  139.9703  134.9579  156.9371 H   0  0  0  0  0  0  0  0  0  0  0  0  # atno 11005 bound_to 11000
  145.6535  139.1569  143.2848 LP  0  0  0  0  0  0  0  0  0  0  0  0  # atno 17320 bound_to 7965
  146.1726  140.6622  142.9226 LP  0  0  0  0  0  0  0  0  0  0  0  0  # atno 17321 bound_to 7965
  140.3311  144.3315  150.5987 LP  0  0  0  0  0  0  0  0  0  0  0  0  # atno 17342 bound_to 10162
  140.5644  143.2188  151.7709 LP  0  0  0  0  0  0  0  0  0  0  0  0  # atno 17343 bound_to 10162
  157.7254  131.0653  150.5955 LP  0  0  0  0  0  0  0  0  0  0  0  0  # atno 17370 bound_to 10713
  156.6044  130.4363  149.5884 LP  0  0  0  0  0  0  0  0  0  0  0  0  # atno 17371 bound_to 10713
  140.5308  134.0815  155.7315 LP  0  0  0  0  0  0  0  0  0  0  0  0  # atno 17394 bound_to 11000
  141.1382  133.9184  157.2385 LP  0  0  0  0  0  0  0  0  0  0  0  0  # atno 17395 bound_to 11000

$$$$
