#       Name:                AV-unprocessed.smi:1319
#       Creating user name   scv26
#       Creation time:       Fri Mar 27 05:02:53 2020


#       File generated by GOLD software.
#

@<TRIPOS>MOLECULE
AV-unprocessed.smi:1319
    33    34     1
SMALL
NO_CHARGES


@<TRIPOS>ATOM
      1 ****        -3.3840  -3.2498  -1.7202 N.pl3          1 S1                 0.0000
      2 ****        -2.9083  -1.9611  -1.7034 C.ar           1 S1                 0.0000
      3 ****        -3.8262  -0.9899  -1.7889 N.ar           1 S1                 0.0000
      4 ****        -3.2840   0.2342  -1.7645 C.ar           1 S1                 0.0000
      5 ****        -4.1605   1.2889  -1.8479 N.pl3          1 S1                 0.0000
      6 ****        -1.9877   0.5496  -1.6672 N.ar           1 S1                 0.0000
      7 ****        -1.2110  -0.5370  -1.5916 C.ar           1 S1                 0.0000
      8 ****         0.5316  -0.2363  -1.4535 S.3            1 S1                 0.0000
      9 ****         0.6578  -0.0758   0.3479 C.3            1 S1                 0.0000
     10 ****         2.1003   0.1950   0.7934 C.3            1 S1                 0.0000
     11 ****         2.2741   0.3044   2.3065 C.3            1 S1                 0.0000
     12 ****         3.5272   1.1532   2.4572 C.3            1 S1                 0.0000
     13 ****         3.7184   1.7890   1.0763 C.3            1 S1                 0.0000
     14 ****         2.5416   1.4674   0.3478 O.3            1 S1                 0.0000
     15 ****        -1.5817  -1.8223  -1.6021 N.ar           1 S1                 0.0000
     16 ****        -2.7470  -4.0306  -1.6583 H              1 S1                 0.0000
     17 ****        -4.3764  -3.4272  -1.7743 H              1 S1                 0.0000
     18 ****        -5.1536   1.1230  -1.9227 H              1 S1                 0.0000
     19 ****        -3.8224   2.2391  -1.8020 H              1 S1                 0.0000
     20 ****        -0.0019   0.7264   0.6806 H              1 S1                 0.0000
     21 ****         0.2951  -0.9988   0.8013 H              1 S1                 0.0000
     22 ****         2.7697  -0.5721   0.3995 H              1 S1                 0.0000
     23 ****         1.4245   0.8281   2.7468 H              1 S1                 0.0000
     24 ****         2.3581  -0.6684   2.7919 H              1 S1                 0.0000
     25 ****         3.3986   1.9055   3.2362 H              1 S1                 0.0000
     26 ****         4.3921   0.5428   2.7196 H              1 S1                 0.0000
     27 ****         3.8623   2.8685   1.1284 H              1 S1                 0.0000
     28 ****         4.5826   1.3548   0.5715 H              1 S1                 0.0000
     29 ****        -4.8088  -1.1601  -1.8629 LP             1 S1                 0.0000
     30 ****        -1.6401   1.4872  -1.6527 LP             1 S1                 0.0000
     31 ****         1.8350   2.1537   0.5199 LP             1 S1                 0.0000
     32 ****         2.7438   1.4354  -0.6311 LP             1 S1                 0.0000
     33 ****        -0.9424  -2.5889  -1.5414 LP             1 S1                 0.0000
@<TRIPOS>BOND
    1    1    2 1     
    2    1   16 1     
    3    1   17 1     
    4    2   15 ar    
    5    2    3 ar    
    6    3    4 ar    
    7    4    5 1     
    8    4    6 ar    
    9    5   18 1     
   10    5   19 1     
   11    6    7 ar    
   12    7    8 1     
   13    7   15 ar    
   14    8    9 1     
   15    9   10 1     
   16    9   20 1     
   17    9   21 1     
   18   10   14 1     
   19   10   11 1     
   20   10   22 1     
   21   11   12 1     
   22   11   23 1     
   23   11   24 1     
   24   12   13 1     
   25   12   25 1     
   26   12   26 1     
   27   13   14 1     
   28   13   27 1     
   29   13   28 1     
   30    3   29 1     
   31    6   30 1     
   32   14   31 1     
   33   14   32 1     
   34   15   33 1     
@<TRIPOS>SUBSTRUCTURE
      1 S1             1
@<TRIPOS>SET
LONE_PAIRS      STATIC     ATOMS    <user>   **** ""
5 29 30 31 32 33
DONOR_HYDROGENS      STATIC     ATOMS    <user>   **** ""
4 16 17 18 19
ATOM$BLUE        STATIC     ATOMS    COLORGROUP SYSTEM
5 29 30 31 32 33
ATOM$RED        STATIC     ATOMS    COLORGROUP SYSTEM
4 16 17 18 19
