AV-unprocessed.smi:1388|AV-procd|sdf|5644|dock7
  -GOLD-   22720 5263D 1   1.00000     0.00000
 Structure written by MMmdl.
 45 46  0  0  0  0  0  0  0  0  3 V2000
  144.9334  135.1835  152.0497 C   0  0  0  0  0  0  0  0  0  0  0  0
  145.3759  136.5488  151.7914 N   0  5  0  0  0  0  0  0  0  0  0  0
  145.9652  137.3378  152.7328 C   0  0  0  0  0  0  0  0  0  0  0  0
  146.0823  137.1848  153.9526 O   0  0  0  0  0  0  0  0  0  0  0  0
  146.5540  138.6069  152.1023 C   0  0  0  0  0  0  0  0  0  0  0  0
  147.1539  139.4890  153.1368 N   0  3  2  0  0  0  0  0  0  0  0  0
  147.1882  140.9126  152.7180 C   0  0  0  0  0  0  0  0  0  0  0  0
  147.6656  141.8180  153.8658 C   0  0  0  0  0  0  0  0  0  0  0  0
  149.0393  141.3693  154.3968 C   0  0  1  0  0  0  0  0  0  0  0  0
  149.4361  142.1687  155.5521 N   0  0  0  0  0  0  0  0  0  0  0  0
  150.3893  141.8316  156.4332 C   0  0  0  0  0  0  0  0  0  0  0  0
  151.0483  140.7943  156.3540 O   0  0  0  0  0  0  0  0  0  0  0  0
  150.5234  142.7701  157.3869 N   0  0  0  0  0  0  0  0  0  0  0  0
  151.3963  142.7706  158.5116 C   0  0  0  0  0  0  0  0  0  0  0  0
  152.0071  141.6464  158.9634 N   0  0  0  0  0  0  0  0  0  0  0  0
  152.8155  141.7152  160.0405 C   0  0  0  0  0  0  0  0  0  0  0  0
  153.0663  142.9099  160.7367 C   0  0  0  0  0  0  0  0  0  0  0  0
  152.4425  144.0841  160.2816 C   0  0  0  0  0  0  0  0  0  0  0  0
  151.5948  144.0216  159.1551 C   0  0  0  0  0  0  0  0  0  0  0  0
  150.9197  145.2911  158.6611 C   0  0  0  0  0  0  0  0  0  0  0  0
  148.9809  139.8836  154.7856 C   0  0  0  0  0  0  0  0  0  0  0  0
  148.4840  139.0236  153.6125 C   0  0  0  0  0  0  0  0  0  0  0  0
  144.5288  134.7134  151.1536 H   0  0  0  0  0  0  0  0  0  0  0  0
  144.1461  135.1399  152.8029 H   0  0  0  0  0  0  0  0  0  0  0  0
  145.7419  134.5405  152.3983 H   0  0  0  0  0  0  0  0  0  0  0  0
  147.2971  138.3534  151.3445 H   0  0  0  0  0  0  0  0  0  0  0  0
  145.7452  139.1260  151.5850 H   0  0  0  0  0  0  0  0  0  0  0  0
  147.8435  141.0224  151.8524 H   0  0  0  0  0  0  0  0  0  0  0  0
  146.1921  141.2281  152.4050 H   0  0  0  0  0  0  0  0  0  0  0  0
  147.7139  142.8513  153.5202 H   0  0  0  0  0  0  0  0  0  0  0  0
  146.9306  141.7957  154.6720 H   0  0  0  0  0  0  0  0  0  0  0  0
  149.7832  141.4858  153.6059 H   0  0  0  0  0  0  0  0  0  0  0  0
  148.9456  143.0399  155.6924 H   0  0  0  0  0  0  0  0  0  0  0  0
  149.9268  143.5798  157.3044 H   0  0  0  0  0  0  0  0  0  0  0  0
  153.2744  140.7901  160.3568 H   0  0  0  0  0  0  0  0  0  0  0  0
  153.7196  142.9244  161.5967 H   0  0  0  0  0  0  0  0  0  0  0  0
  152.6142  145.0194  160.7940 H   0  0  0  0  0  0  0  0  0  0  0  0
  151.2175  146.1556  159.2551 H   0  0  0  0  0  0  0  0  0  0  0  0
  149.8353  145.1964  158.7258 H   0  0  0  0  0  0  0  0  0  0  0  0
  151.1898  145.4894  157.6234 H   0  0  0  0  0  0  0  0  0  0  0  0
  149.9664  139.5395  155.1021 H   0  0  0  0  0  0  0  0  0  0  0  0
  148.3155  139.7469  155.6395 H   0  0  0  0  0  0  0  0  0  0  0  0
  148.4287  137.9836  153.9353 H   0  0  0  0  0  0  0  0  0  0  0  0
  149.1995  139.0600  152.7896 H   0  0  0  0  0  0  0  0  0  0  0  0
  146.5229  139.4360  153.9250 H   0  0  0  0  0  0  0  0  0  0  0  0
  1  2  1  0  0  0  0
  1 23  1  0  0  0  0
  1 24  1  0  0  0  0
  1 25  1  0  0  0  0
  2  3  1  0  0  0  0
  3  4  2  0  0  0  0
  3  5  1  0  0  0  0
  5  6  1  0  0  0  0
  5 26  1  0  0  0  0
  5 27  1  0  0  0  0
  6 22  1  0  0  0  0
  6  7  1  0  0  0  0
  6 45  1  0  0  0  0
  7  8  1  0  0  0  0
  7 28  1  0  0  0  0
  7 29  1  0  0  0  0
  8  9  1  0  0  0  0
  8 30  1  0  0  0  0
  8 31  1  0  0  0  0
  9 10  1  0  0  0  0
  9 21  1  0  0  0  0
  9 32  1  0  0  0  0
 10 11  1  0  0  0  0
 10 33  1  0  0  0  0
 11 12  2  0  0  0  0
 11 13  1  0  0  0  0
 13 14  1  0  0  0  0
 13 34  1  0  0  0  0
 14 19  1  0  0  0  0
 14 15  2  0  0  0  0
 15 16  1  0  0  0  0
 16 17  2  0  0  0  0
 16 35  1  0  0  0  0
 17 18  1  0  0  0  0
 17 36  1  0  0  0  0
 18 19  2  0  0  0  0
 18 37  1  0  0  0  0
 19 20  1  0  0  0  0
 20 38  1  0  0  0  0
 20 39  1  0  0  0  0
 20 40  1  0  0  0  0
 21 22  1  0  0  0  0
 21 41  1  0  0  0  0
 21 42  1  0  0  0  0
 22 43  1  0  0  0  0
 22 44  1  0  0  0  0
M  CHG  1   2  -1
M  CHG  1   6   1
M  END
> <s_m_source_file>
AV-unprocessed.smi

> <i_m_source_file_index>
1388

> <i_lp_mmshare_version>
43012

> <i_f3d_flags>
0

> <s_epik_input>
W0NIM11bTkhdQyg9TylbQ0gyXU4xW0NIMl1bQ0gyXVtDSF0oW0NIMl1bQ0gyXTEpW05IXUMoPU8pW05IXWMybltjSF1bY0hdW2NIXWMyW0NIM10=

> <s_epik_cmdline>
J2VwaWtfcHl0aG9uJywgJy1waCcsICc3LjAnLCAnLXRuJywgJzgnLCAnLW1hJywgJzIwMCcsICctbWV0YWxfYmluZGluZycsICctaW1hZScsICc8aW5maWxlLm1hZT4nLCAnLW9tYWUnLCAnPG91dGZpbGUubWFlPic=

> <r_epik_Ionization_Penalty>
6.13951

> <r_epik_Ionization_Penalty_Charging>
6.13946

> <r_epik_Ionization_Penalty_Neutral>
4.54304e-05

> <r_epik_State_Penalty>
6.9595

> <r_epik_Charging_Adjusted_Penalty>
13.099

> <i_epik_Tot_Q>
0

> <i_epik_Tot_abs_Q>
2

> <r_epik_Metal_State_Penalty>
2.89141

> <b_epik_Metal_Only>
1

> <s_lp_Force_Field>
OPLS_2005

> <r_lp_Energy>
12.447

> <b_lp_Chiralities_Consistent>
1

> <s_lp_Variant>
AV-unprocessed.smi:1388-4

> <Gold.Version>
5.8.1

> <Gold.Id.Protein>
6NUR|6NUR_protein|mol2

> <Gold.PLP.Fitness>
44.9452

> <Gold.PLP.PLP>
-41.8360

> <Gold.PLP.part.hbond>
-2.2632

> <Gold.PLP.part.metal>
0.0000

> <Gold.PLP.part.buried>
-3.5007

> <Gold.PLP.part.nonpolar>
-35.4586

> <Gold.PLP.part.repulsive>
0.5470

> <Gold.PLP.ligand.clash>
0.0000

> <Gold.PLP.ligand.torsion>
0.5483

> <Gold.PLP.Chemscore.Hbond>
1.3822

> <Gold.PLP.Chemscore.CHOScore>
0.0000

> <Gold.PLP.Chemscore.Metal>
0.0000

> <Gold.Chemscore.Hbonds>
donor molecule, donor type, donor heavy atom, donor atom, acceptor molecule, acceptor atom, score
      L1  H    10    33       P1  8028  1.00
      L1  H    13    34       P1  8028  0.36

> <Gold.PLP.Chemscore.Internal.Correction>
0.0592

> <Gold.Rescore>
     Score         DG    S(hbond)    S(metal)    S(lipo)     H(rot)  DE(clash)    DE(int)     intcor
     15.55     -19.73       1.84        0.00     104.97       1.63       0.10       4.08       ----

> <Gold.Chemscore.Fitness>
15.5490

> <Gold.Chemscore.DG>
-19.7294

> <Gold.Chemscore.ZeroCoef>
-5.4800

> <Gold.Chemscore.Hbond>
1.8387

> <Gold.Chemscore.Metal>
0.0000

> <Gold.Chemscore.Lipo>
104.9715

> <Gold.Chemscore.Internal_Hbond>
0.0000

> <Gold.Chemscore.DEClash>
0.1025

> <Gold.Chemscore.DEInternal>
4.0778

> <Gold.Chemscore.Rot>
1.6303

> <Gold.Chemscore.Internal.Correction>
   9.000000E+99

> <Gold.Chemscore.Hbonds>
donor molecule, donor type, donor heavy atom, donor atom, acceptor molecule, acceptor atom, score
      L1  H    10    33       P1  8028  0.96
      L1  H    13    34       P1  8028  0.34

> <Gold.Chemscore.Hbond.Weighted>
-6.1412

> <Gold.Chemscore.Metal.Weighted>
-0.0000

> <Gold.Chemscore.Lipo.Weighted>
-12.2817

> <Gold.Chemscore.Internal_Hbond.Weighted>
0.0000

> <Gold.Chemscore.DEClash.Weighted>
0.1025

> <Gold.Chemscore.DEInternal.Weighted>
4.0778

> <Gold.Chemscore.Rot.Weighted>
4.1735

> <Gold.Chemscore.Internal.Correction.Weighted>
   9.000000E+99

> <Gold.Protein.RotatedTorsions>
[ 6907 6896 6895 6894 ] final   71.36 input  -60.11 | X-H torsion
[ 7974 7965 7964 7962 ] final   99.54 input  175.53 | X-H torsion
[ 8008 7997 7996 7995 ] final -120.04 input   59.86 | X-H torsion
[ 10167 10162 10161 10158 ] final  148.12 input  -65.29 | X-H torsion
[ 10718 10713 10712 10709 ] final -106.49 input   66.30 | X-H torsion
[ 10763 10752 10751 10750 ] final  -42.45 input  -60.55 | X-H torsion
[ 11005 11000 10999 10996 ] final   75.61 input  -57.11 | X-H torsion

> <Gold.Protein.ActiveResidues>
 VAL166  LYS551  ARG553  GLY616  TRP617  ASP618  TYR619  PRO620  LYS621  CYS622 
 ASP623  PHE694  ASN695  SER759  ASP760  ASP761  ALA762  ILE779  LEU786  VAL792 
 PHE793  MET794  SER795  GLU796  ALA797  LYS798  CYS799  TRP800  GLU811  SER814 

> <Gold.Protein.RotatedAtoms>
  152.4805  134.4732  159.9641 H   0  0  0  0  0  0  0  0  0  0  0  0  # atno 6907 bound_to 6896
  151.4739  133.3556  159.2835 H   0  0  0  0  0  0  0  0  0  0  0  0  # atno 6908 bound_to 6896
  150.8874  134.8299  159.7330 H   0  0  0  0  0  0  0  0  0  0  0  0  # atno 6909 bound_to 6896
  145.3975  139.2353  143.3318 H   0  0  0  0  0  0  0  0  0  0  0  0  # atno 7974 bound_to 7965
  155.1255  140.0399  157.2761 H   0  0  0  0  0  0  0  0  0  0  0  0  # atno 8008 bound_to 7997
  154.6582  140.2585  155.7112 H   0  0  0  0  0  0  0  0  0  0  0  0  # atno 8009 bound_to 7997
  156.2607  140.2822  156.1043 H   0  0  0  0  0  0  0  0  0  0  0  0  # atno 8010 bound_to 7997
  139.4879  144.5703  151.7067 H   0  0  0  0  0  0  0  0  0  0  0  0  # atno 10167 bound_to 10162
  156.0392  130.5615  150.7687 H   0  0  0  0  0  0  0  0  0  0  0  0  # atno 10718 bound_to 10713
  153.9793  135.6719  153.4749 H   0  0  0  0  0  0  0  0  0  0  0  0  # atno 10763 bound_to 10752
  153.0756  135.4950  154.8393 H   0  0  0  0  0  0  0  0  0  0  0  0  # atno 10764 bound_to 10752
  154.7174  135.3110  154.9064 H   0  0  0  0  0  0  0  0  0  0  0  0  # atno 10765 bound_to 10752
  139.9336  134.7532  156.1292 H   0  0  0  0  0  0  0  0  0  0  0  0  # atno 11005 bound_to 11000
  146.2768  140.4667  142.8792 LP  0  0  0  0  0  0  0  0  0  0  0  0  # atno 17320 bound_to 7965
  144.8397  140.6838  143.6237 LP  0  0  0  0  0  0  0  0  0  0  0  0  # atno 17321 bound_to 7965
  140.5289  144.0761  150.6047 LP  0  0  0  0  0  0  0  0  0  0  0  0  # atno 17342 bound_to 10162
  140.3745  143.2836  152.0241 LP  0  0  0  0  0  0  0  0  0  0  0  0  # atno 17343 bound_to 10162
  157.5187  131.0930  151.0106 LP  0  0  0  0  0  0  0  0  0  0  0  0  # atno 17370 bound_to 10713
  157.0442  130.5761  149.5360 LP  0  0  0  0  0  0  0  0  0  0  0  0  # atno 17371 bound_to 10713
  141.0938  133.6704  156.2599 LP  0  0  0  0  0  0  0  0  0  0  0  0  # atno 17394 bound_to 11000
  140.6136  134.5433  157.5537 LP  0  0  0  0  0  0  0  0  0  0  0  0  # atno 17395 bound_to 11000

$$$$
