AV-unprocessed.smi:3351|AV-procd|sdf|12947|dock6
  -GOLD-   2272019383D 1   1.00000     0.00000
 Structure written by MMmdl.
 35 36  0  0  0  0  0  0  0  0  2 V2000
  152.7338  140.5126  158.4255 C   0  0  0  0  0  0  0  0  0  0  0  0
  153.0097  141.2613  159.7363 C   0  0  2  0  0  0  0  0  0  0  0  0
  153.4950  142.7026  159.4655 C   0  0  0  0  0  0  0  0  0  0  0  0
  152.4117  143.6121  159.0763 N   0  0  0  0  0  0  0  0  0  0  0  0
  152.0134  144.7549  159.7208 C   0  0  0  0  0  0  0  0  0  0  0  0
  150.9563  145.2581  159.0077 C   0  0  0  0  0  0  0  0  0  0  0  0
  150.7618  144.4082  157.9520 N   0  3  0  0  0  0  0  0  0  0  0  0
  151.6515  143.4111  157.9922 C   0  0  0  0  0  0  0  0  0  0  0  0
  153.9976  140.5111  160.5115 N   0  0  0  0  0  0  0  0  0  0  0  0
  154.3639  140.7728  161.7764 C   0  0  0  0  0  0  0  0  0  0  0  0
  153.8759  141.6831  162.4477 O   0  0  0  0  0  0  0  0  0  0  0  0
  155.4433  139.8615  162.3713 C   0  0  0  0  0  0  0  0  0  0  0  0
  154.9084  138.5642  162.7863 N   0  0  0  0  0  0  0  0  0  0  0  0
  154.2907  137.6979  161.7912 C   0  0  0  0  0  0  0  0  0  0  0  0
  153.4943  136.6226  162.5336 C   0  0  0  0  0  0  0  0  0  0  0  0
  154.1877  136.4739  164.1927 S   0  0  0  0  0  0  0  0  0  0  0  0
  155.0033  138.0690  164.0803 C   0  0  0  0  0  0  0  0  0  0  0  0
  155.5469  138.5980  165.0481 O   0  0  0  0  0  0  0  0  0  0  0  0
  151.9768  141.0262  157.8323 H   0  0  0  0  0  0  0  0  0  0  0  0
  152.3692  139.5031  158.6190 H   0  0  0  0  0  0  0  0  0  0  0  0
  153.6345  140.4310  157.8161 H   0  0  0  0  0  0  0  0  0  0  0  0
  152.0671  141.3029  160.2853 H   0  0  0  0  0  0  0  0  0  0  0  0
  153.9865  143.1177  160.3466 H   0  0  0  0  0  0  0  0  0  0  0  0
  154.2311  142.7114  158.6603 H   0  0  0  0  0  0  0  0  0  0  0  0
  152.4899  145.1099  160.6235 H   0  0  0  0  0  0  0  0  0  0  0  0
  150.3438  146.1331  159.1697 H   0  0  0  0  0  0  0  0  0  0  0  0
  151.7309  142.5966  157.2944 H   0  0  0  0  0  0  0  0  0  0  0  0
  154.4462  139.7363  160.0438 H   0  0  0  0  0  0  0  0  0  0  0  0
  156.2276  139.7206  161.6266 H   0  0  0  0  0  0  0  0  0  0  0  0
  155.9144  140.3477  163.2275 H   0  0  0  0  0  0  0  0  0  0  0  0
  153.6502  138.2646  161.1141 H   0  0  0  0  0  0  0  0  0  0  0  0
  155.0809  137.2402  161.1950 H   0  0  0  0  0  0  0  0  0  0  0  0
  152.4531  136.9310  162.6308 H   0  0  0  0  0  0  0  0  0  0  0  0
  153.5101  135.6650  162.0128 H   0  0  0  0  0  0  0  0  0  0  0  0
  150.0468  144.5149  157.2432 H   0  0  0  0  0  0  0  0  0  0  0  0
  1  2  1  0  0  0  0
  1 19  1  0  0  0  0
  1 20  1  0  0  0  0
  1 21  1  0  0  0  0
  2  3  1  0  0  0  0
  2  9  1  0  0  0  0
  2 22  1  0  0  0  0
  3  4  1  0  0  0  0
  3 23  1  0  0  0  0
  3 24  1  0  0  0  0
  4  8  1  0  0  0  0
  4  5  1  0  0  0  0
  5  6  2  0  0  0  0
  5 25  1  0  0  0  0
  6  7  1  0  0  0  0
  6 26  1  0  0  0  0
  7  8  2  0  0  0  0
  7 35  1  0  0  0  0
  8 27  1  0  0  0  0
  9 10  1  0  0  0  0
  9 28  1  0  0  0  0
 10 11  2  0  0  0  0
 10 12  1  0  0  0  0
 12 13  1  0  0  0  0
 12 29  1  0  0  0  0
 12 30  1  0  0  0  0
 13 17  1  0  0  0  0
 13 14  1  0  0  0  0
 14 15  1  0  0  0  0
 14 31  1  0  0  0  0
 14 32  1  0  0  0  0
 15 16  1  0  0  0  0
 15 33  1  0  0  0  0
 15 34  1  0  0  0  0
 16 17  1  0  0  0  0
 17 18  2  0  0  0  0
M  CHG  1   7   1
M  END
> <s_m_source_file>
AV-unprocessed.smi

> <i_m_source_file_index>
3351

> <i_lp_mmshare_version>
43012

> <i_f3d_flags>
0

> <s_epik_input>
W2NIXTFuW2NIXVtjSF1uMVtDSDJdW0NAQEhdKFtDSDNdKVtOSF1DKD1PKVtDSDJdTjJbQ0gyXVtDSDJdU0MyPU8=

> <s_epik_cmdline>
J2VwaWtfcHl0aG9uJywgJy1waCcsICc3LjAnLCAnLXRuJywgJzgnLCAnLW1hJywgJzIwMCcsICctbWV0YWxfYmluZGluZycsICctaW1hZScsICc8aW5maWxlLm1hZT4nLCAnLW9tYWUnLCAnPG91dGZpbGUubWFlPic=

> <r_lp_tautomer_probability>
1

> <r_epik_Ionization_Penalty>
0.257312

> <r_epik_Ionization_Penalty_Charging>
0

> <r_epik_Ionization_Penalty_Neutral>
0.257312

> <r_epik_State_Penalty>
0.248897

> <r_epik_Charging_Adjusted_Penalty>
0.248897

> <i_epik_Tot_Q>
1

> <i_epik_Tot_abs_Q>
1

> <r_epik_Metal_State_Penalty>
0.538022

> <b_epik_Metal_Only>
0

> <s_lp_Force_Field>
OPLS_2005

> <r_lp_Energy>
4.24041

> <b_lp_Chiralities_Consistent>
1

> <s_lp_Variant>
AV-unprocessed.smi:3351-1

> <Gold.Version>
5.8.1

> <Gold.Id.Protein>
6NUR|6NUR_protein|mol2

> <Gold.PLP.Fitness>
47.3611

> <Gold.PLP.PLP>
-42.2181

> <Gold.PLP.part.hbond>
-2.1203

> <Gold.PLP.part.metal>
0.0000

> <Gold.PLP.part.buried>
-4.9882

> <Gold.PLP.part.nonpolar>
-35.6078

> <Gold.PLP.part.repulsive>
0.1633

> <Gold.PLP.ligand.clash>
0.0000

> <Gold.PLP.ligand.torsion>
0.4442

> <Gold.PLP.Chemscore.Hbond>
2.0000

> <Gold.PLP.Chemscore.CHOScore>
0.0000

> <Gold.PLP.Chemscore.Metal>
0.0000

> <Gold.Chemscore.Hbonds>
donor molecule, donor type, donor heavy atom, donor atom, acceptor molecule, acceptor atom, score
      L1  H     7    35       P1  8028  2.00

> <Gold.PLP.Chemscore.Internal.Correction>
0.0315

> <Gold.Rescore>
     Score         DG    S(hbond)    S(metal)    S(lipo)     H(rot)  DE(clash)    DE(int)     intcor
     11.66     -12.38       0.98        0.00      83.95       2.41       0.36       0.37       ----

> <Gold.Chemscore.Fitness>
11.6589

> <Gold.Chemscore.DG>
-12.3816

> <Gold.Chemscore.ZeroCoef>
-5.4800

> <Gold.Chemscore.Hbond>
0.9758

> <Gold.Chemscore.Metal>
0.0000

> <Gold.Chemscore.Lipo>
83.9528

> <Gold.Chemscore.Internal_Hbond>
0.0000

> <Gold.Chemscore.DEClash>
0.3568

> <Gold.Chemscore.DEInternal>
0.3659

> <Gold.Chemscore.Rot>
2.4141

> <Gold.Chemscore.Internal.Correction>
   9.000000E+99

> <Gold.Chemscore.Hbonds>
donor molecule, donor type, donor heavy atom, donor atom, acceptor molecule, acceptor atom, score
      L1  H     7    35       P1  8028  0.39

> <Gold.Chemscore.Hbond.Weighted>
-3.2591

> <Gold.Chemscore.Metal.Weighted>
-0.0000

> <Gold.Chemscore.Lipo.Weighted>
-9.8225

> <Gold.Chemscore.Internal_Hbond.Weighted>
0.0000

> <Gold.Chemscore.DEClash.Weighted>
0.3568

> <Gold.Chemscore.DEInternal.Weighted>
0.3659

> <Gold.Chemscore.Rot.Weighted>
6.1800

> <Gold.Chemscore.Internal.Correction.Weighted>
   9.000000E+99

> <Gold.Protein.RotatedTorsions>
[ 6907 6896 6895 6894 ] final  -83.99 input  -60.11 | X-H torsion
[ 7974 7965 7964 7962 ] final   76.38 input  175.53 | X-H torsion
[ 8008 7997 7996 7995 ] final    5.17 input   59.86 | X-H torsion
[ 10167 10162 10161 10158 ] final  162.76 input  -65.29 | X-H torsion
[ 10718 10713 10712 10709 ] final -112.21 input   66.30 | X-H torsion
[ 10763 10752 10751 10750 ] final -106.04 input  -60.55 | X-H torsion
[ 11005 11000 10999 10996 ] final  -53.66 input  -57.11 | X-H torsion

> <Gold.Protein.ActiveResidues>
 VAL166  LYS551  ARG553  GLY616  TRP617  ASP618  TYR619  PRO620  LYS621  CYS622 
 ASP623  PHE694  ASN695  SER759  ASP760  ASP761  ALA762  ILE779  LEU786  VAL792 
 PHE793  MET794  SER795  GLU796  ALA797  LYS798  CYS799  TRP800  GLU811  SER814 

> <Gold.Protein.RotatedAtoms>
  150.6880  134.3428  159.4874 H   0  0  0  0  0  0  0  0  0  0  0  0  # atno 6907 bound_to 6896
  152.1279  134.9154  160.0569 H   0  0  0  0  0  0  0  0  0  0  0  0  # atno 6908 bound_to 6896
  152.0336  133.3913  159.4344 H   0  0  0  0  0  0  0  0  0  0  0  0  # atno 6909 bound_to 6896
  145.7036  139.2591  143.1691 H   0  0  0  0  0  0  0  0  0  0  0  0  # atno 7974 bound_to 7965
  154.7250  140.2719  155.6507 H   0  0  0  0  0  0  0  0  0  0  0  0  # atno 8008 bound_to 7997
  156.2834  140.2727  156.1859 H   0  0  0  0  0  0  0  0  0  0  0  0  # atno 8009 bound_to 7997
  155.0456  140.0371  157.2515 H   0  0  0  0  0  0  0  0  0  0  0  0  # atno 8010 bound_to 7997
  139.4865  144.4405  151.8958 H   0  0  0  0  0  0  0  0  0  0  0  0  # atno 10167 bound_to 10162
  156.0692  130.5908  150.8478 H   0  0  0  0  0  0  0  0  0  0  0  0  # atno 10718 bound_to 10713
  154.7986  135.4727  154.0221 H   0  0  0  0  0  0  0  0  0  0  0  0  # atno 10763 bound_to 10752
  153.1744  135.6830  153.8570 H   0  0  0  0  0  0  0  0  0  0  0  0  # atno 10764 bound_to 10752
  153.8141  135.3213  155.3381 H   0  0  0  0  0  0  0  0  0  0  0  0  # atno 10765 bound_to 10752
  141.0987  133.6621  156.4206 H   0  0  0  0  0  0  0  0  0  0  0  0  # atno 11005 bound_to 11000
  146.0775  140.7800  142.9657 LP  0  0  0  0  0  0  0  0  0  0  0  0  # atno 17320 bound_to 7965
  144.6961  140.3438  143.7194 LP  0  0  0  0  0  0  0  0  0  0  0  0  # atno 17321 bound_to 7965
  140.3856  144.2680  150.5904 LP  0  0  0  0  0  0  0  0  0  0  0  0  # atno 17342 bound_to 10162
  140.5193  143.2270  151.8414 LP  0  0  0  0  0  0  0  0  0  0  0  0  # atno 17343 bound_to 10162
  157.5753  131.0946  150.9355 LP  0  0  0  0  0  0  0  0  0  0  0  0  # atno 17370 bound_to 10713
  156.9562  130.5438  149.5284 LP  0  0  0  0  0  0  0  0  0  0  0  0  # atno 17371 bound_to 10713
  140.5076  134.6426  157.5272 LP  0  0  0  0  0  0  0  0  0  0  0  0  # atno 17394 bound_to 11000
  139.9832  134.7104  155.9822 LP  0  0  0  0  0  0  0  0  0  0  0  0  # atno 17395 bound_to 11000

$$$$
