#       Name:                AV-unprocessed.smi:72
#       Creating user name   scv26
#       Creation time:       Thu Mar 26 17:06:31 2020


#       File generated by GOLD software.
#

@<TRIPOS>MOLECULE
AV-unprocessed.smi:72
    41    42     1
SMALL
NO_CHARGES


@<TRIPOS>ATOM
      1 ****        -2.7010   4.5655   0.8719 N.2            1 S1                 0.0000
      2 ****        -2.2087   3.4425   0.5774 C.2            1 S1                 0.0000
      3 ****        -0.7743   3.2529   0.5995 N.2            1 S1                 0.0000
      4 ****        -0.3136   2.0839   0.2746 C.2            1 S1                 0.0000
      5 ****        -1.1961   0.9926  -0.1150 N.am           1 S1                 0.0000
      6 ****        -0.6477  -0.3709  -0.4849 C.3            1 S1                 0.0000
      7 ****         0.6329  -0.2260  -1.0127 O.3            1 S1                 0.0000
      8 ****         1.3431  -1.4332  -0.7888 C.3            1 S1                 0.0000
      9 ****         2.8542  -1.1874  -0.9190 C.3            1 S1                 0.0000
     10 ****         3.2434  -1.2519  -2.2744 O.3            1 S1                 0.0000
     11 ****         0.9063  -1.8214   0.6294 C.3            1 S1                 0.0000
     12 ****         0.9826  -3.2237   0.7945 O.3            1 S1                 0.0000
     13 ****        -0.5431  -1.3442   0.7110 C.3            1 S1                 0.0000
     14 ****        -0.7987  -0.7508   1.9714 O.3            1 S1                 0.0000
     15 ****        -2.6007   1.1974  -0.0997 C.2            1 S1                 0.0000
     16 ****        -3.3289   0.2472  -0.3875 O.2            1 S1                 0.0000
     17 ****        -3.0777   2.4263   0.2441 N.pl3          1 S1                -1.0000
     18 ****        -1.2842  -0.7541  -1.2844 H              1 S1                 0.0000
     19 ****         1.0003  -2.1843  -1.5041 H              1 S1                 0.0000
     20 ****         1.5281  -1.3134   1.3692 H              1 S1                 0.0000
     21 ****        -1.2545  -2.1541   0.5426 H              1 S1                 0.0000
     22 ****        -3.7093   4.5752   0.8234 H              1 S1                 0.0000
     23 ****         0.7506   1.8453   0.2786 H              1 S1                 0.0000
     24 ****         3.1391  -0.2285  -0.4847 H              1 S1                 0.0000
     25 ****         3.4066  -1.9613  -0.3853 H              1 S1                 0.0000
     26 ****         4.1757  -1.1070  -2.3265 H              1 S1                 0.0000
     27 ****         0.4240  -3.6312   0.1503 H              1 S1                 0.0000
     28 ****        -1.6607  -0.3624   1.9483 H              1 S1                 0.0000
     29 ****        -2.1514   5.3613   1.1263 LP             1 S1                 0.0000
     30 ****        -0.1585   3.9978   0.8565 LP             1 S1                 0.0000
     31 ****         1.1022   0.5320  -0.5596 LP             1 S1                 0.0000
     32 ****         0.5760  -0.0437  -1.9943 LP             1 S1                 0.0000
     33 ****         2.7630  -0.5476  -2.7970 LP             1 S1                 0.0000
     34 ****         3.0210  -2.1530  -2.6465 LP             1 S1                 0.0000
     35 ****         0.6760  -3.4727   1.7132 LP             1 S1                 0.0000
     36 ****         1.9262  -3.5281   0.6642 LP             1 S1                 0.0000
     37 ****        -0.1150  -0.0452   2.1576 LP             1 S1                 0.0000
     38 ****        -0.7613  -1.4482   2.6871 LP             1 S1                 0.0000
     39 ****        -2.9267  -0.6375  -0.6231 LP             1 S1                 0.0000
     40 ****        -4.3225   0.3602  -0.3856 LP             1 S1                 0.0000
     41 ****        -4.0638   2.5918   0.2547 LP             1 S1                 0.0000
@<TRIPOS>BOND
    1    1    2 2     
    2    1   22 1     
    3    2   17 1     
    4    2    3 1     
    5    3    4 2     
    6    4    5 1     
    7    4   23 1     
    8    5    6 1     
    9    5   15 am    
   10    6   18 1     
   11    6   13 1     
   12    6    7 1     
   13    7    8 1     
   14    8   19 1     
   15    8    9 1     
   16    8   11 1     
   17    9   10 1     
   18    9   24 1     
   19    9   25 1     
   20   10   26 1     
   21   11   20 1     
   22   11   12 1     
   23   11   13 1     
   24   12   27 1     
   25   13   21 1     
   26   13   14 1     
   27   14   28 1     
   28   15   16 2     
   29   15   17 1     
   30    1   29 1     
   31    3   30 1     
   32    7   31 1     
   33    7   32 1     
   34   10   33 1     
   35   10   34 1     
   36   12   35 1     
   37   12   36 1     
   38   14   37 1     
   39   14   38 1     
   40   16   39 1     
   41   16   40 1     
   42   17   41 1     
@<TRIPOS>SUBSTRUCTURE
      1 S1             1
@<TRIPOS>SET
LONE_PAIRS      STATIC     ATOMS    <user>   **** ""
13 29 30 31 32 33 34 35 36 37 38 39 40 41
DONOR_HYDROGENS      STATIC     ATOMS    <user>   **** ""
4 22 26 27 28
ATOM$BLUE        STATIC     ATOMS    COLORGROUP SYSTEM
13 29 30 31 32 33 34 35 36 37 38 39 40 41
ATOM$RED        STATIC     ATOMS    COLORGROUP SYSTEM
4 22 26 27 28
