AV-unprocessed.smi:311|AV-procd|sdf|2303|dock1
  -GOLD-   2262022203D 1   1.00000     0.00000
 Structure written by MMmdl.
 44 46  0  0  0  0  0  0  0  0  2 V2000
  147.1538  129.3246  156.0109 C   0  0  0  0  0  0  0  0  0  0  0  0
  147.3026  128.6405  154.6823 C   0  0  0  0  0  0  0  0  0  0  0  0
  146.3788  127.7820  154.2847 N   0  0  0  0  0  0  0  0  0  0  0  0
  146.7932  127.3265  153.0295 O   0  0  0  0  0  0  0  0  0  0  0  0
  147.9640  127.9372  152.7166 C   0  0  0  0  0  0  0  0  0  0  0  0
  148.5700  127.5938  151.3982 C   0  0  0  0  0  0  0  0  0  0  0  0
  148.3432  128.7858  153.7203 C   0  0  0  0  0  0  0  0  0  0  0  0
  149.5567  129.6784  153.7868 C   0  0  0  0  0  0  0  0  0  0  0  0
  149.1007  131.1304  153.9220 C   0  0  0  0  0  0  0  0  0  0  0  0
  149.4088  131.7869  154.9160 O   0  0  0  0  0  0  0  0  0  0  0  0
  148.3993  131.6318  152.8940 N   0  0  0  0  0  0  0  0  0  0  0  0
  148.0075  133.0304  152.7548 C   0  0  2  0  0  0  0  0  0  0  0  0
  147.2006  133.5552  153.9502 C   0  0  0  0  0  0  0  0  0  0  0  0
  146.2251  134.5871  153.3557 C   0  0  0  0  0  0  0  0  0  0  0  0
  146.4787  134.6020  151.8977 N   0  3  2  0  0  0  0  0  0  0  0  0
  145.3539  135.0447  151.0343 C   0  0  0  0  0  0  0  0  0  0  0  0
  144.2984  133.9463  150.8224 C   0  0  0  0  0  0  0  0  0  0  0  0
  144.9524  132.6602  150.3077 C   0  0  0  0  0  0  0  0  0  0  0  0
  146.0268  132.1994  151.2975 C   0  0  0  0  0  0  0  0  0  0  0  0
  147.0905  133.3007  151.5484 C   0  0  2  0  0  0  0  0  0  0  0  0
  146.1181  129.3190  156.3527 H   0  0  0  0  0  0  0  0  0  0  0  0
  147.4744  130.3648  155.9561 H   0  0  0  0  0  0  0  0  0  0  0  0
  147.7577  128.8303  156.7717 H   0  0  0  0  0  0  0  0  0  0  0  0
  148.5067  128.4407  150.7151 H   0  0  0  0  0  0  0  0  0  0  0  0
  148.0591  126.7480  150.9376 H   0  0  0  0  0  0  0  0  0  0  0  0
  149.6215  127.3307  151.5135 H   0  0  0  0  0  0  0  0  0  0  0  0
  150.1999  129.4253  154.6303 H   0  0  0  0  0  0  0  0  0  0  0  0
  150.1730  129.5767  152.8926 H   0  0  0  0  0  0  0  0  0  0  0  0
  148.1878  131.0167  152.1217 H   0  0  0  0  0  0  0  0  0  0  0  0
  148.9047  133.6458  152.6577 H   0  0  0  0  0  0  0  0  0  0  0  0
  146.6366  132.7505  154.4250 H   0  0  0  0  0  0  0  0  0  0  0  0
  147.8489  133.9931  154.7101 H   0  0  0  0  0  0  0  0  0  0  0  0
  145.1972  134.2927  153.5707 H   0  0  0  0  0  0  0  0  0  0  0  0
  146.3796  135.5831  153.7717 H   0  0  0  0  0  0  0  0  0  0  0  0
  144.8987  135.9429  151.4532 H   0  0  0  0  0  0  0  0  0  0  0  0
  145.7693  135.3311  150.0673 H   0  0  0  0  0  0  0  0  0  0  0  0
  143.7705  133.7451  151.7550 H   0  0  0  0  0  0  0  0  0  0  0  0
  143.5451  134.2893  150.1124 H   0  0  0  0  0  0  0  0  0  0  0  0
  144.2012  131.8803  150.1793 H   0  0  0  0  0  0  0  0  0  0  0  0
  145.3980  132.8322  149.3270 H   0  0  0  0  0  0  0  0  0  0  0  0
  145.5461  131.9165  152.2348 H   0  0  0  0  0  0  0  0  0  0  0  0
  146.5022  131.2960  150.9147 H   0  0  0  0  0  0  0  0  0  0  0  0
  147.6843  133.4250  150.6417 H   0  0  0  0  0  0  0  0  0  0  0  0
  147.2132  135.2841  151.7727 H   0  0  0  0  0  0  0  0  0  0  0  0
  1  2  1  0  0  0  0
  1 21  1  0  0  0  0
  1 22  1  0  0  0  0
  1 23  1  0  0  0  0
  2  7  1  0  0  0  0
  2  3  2  0  0  0  0
  3  4  1  0  0  0  0
  4  5  1  0  0  0  0
  5  6  1  0  0  0  0
  5  7  2  0  0  0  0
  6 24  1  0  0  0  0
  6 25  1  0  0  0  0
  6 26  1  0  0  0  0
  7  8  1  0  0  0  0
  8  9  1  0  0  0  0
  8 27  1  0  0  0  0
  8 28  1  0  0  0  0
  9 10  2  0  0  0  0
  9 11  1  0  0  0  0
 11 12  1  0  0  0  0
 11 29  1  0  0  0  0
 12 20  1  0  0  0  0
 12 13  1  0  0  0  0
 12 30  1  0  0  0  0
 13 14  1  0  0  0  0
 13 31  1  0  0  0  0
 13 32  1  0  0  0  0
 14 15  1  0  0  0  0
 14 33  1  0  0  0  0
 14 34  1  0  0  0  0
 15 20  1  0  0  0  0
 15 16  1  0  0  0  0
 15 44  1  0  0  0  0
 16 17  1  0  0  0  0
 16 35  1  0  0  0  0
 16 36  1  0  0  0  0
 17 18  1  0  0  0  0
 17 37  1  0  0  0  0
 17 38  1  0  0  0  0
 18 19  1  0  0  0  0
 18 39  1  0  0  0  0
 18 40  1  0  0  0  0
 19 20  1  0  0  0  0
 19 41  1  0  0  0  0
 19 42  1  0  0  0  0
 20 43  1  0  0  0  0
M  CHG  1  15   1
M  END
> <s_m_source_file>
AV-unprocessed.smi

> <i_m_source_file_index>
311

> <i_lp_mmshare_version>
43012

> <i_f3d_flags>
0

> <s_epik_input>
W0NIM11jMW5vYyhbQ0gzXSljMVtDSDJdQyg9TylbTkhdW0NASF0oW0NIMl1bQ0gyXTIpW0NAQEhdKE4yMylbQ0gyXVtDSDJdW0NIMl1bQ0gyXTM=

> <s_epik_cmdline>
J2VwaWtfcHl0aG9uJywgJy1waCcsICc3LjAnLCAnLXRuJywgJzgnLCAnLW1hJywgJzIwMCcsICctbWV0YWxfYmluZGluZycsICctaW1hZScsICc8aW5maWxlLm1hZT4nLCAnLW9tYWUnLCAnPG91dGZpbGUubWFlPic=

> <r_epik_Ionization_Penalty>
0.00173669

> <r_epik_Ionization_Penalty_Charging>
0.0017366

> <r_epik_Ionization_Penalty_Neutral>
9.2145e-08

> <r_epik_State_Penalty>
0.00117499

> <r_epik_Charging_Adjusted_Penalty>
0.00291159

> <i_epik_Tot_Q>
1

> <i_epik_Tot_abs_Q>
1

> <r_epik_Metal_State_Penalty>
-0

> <b_epik_Metal_Only>
0

> <s_lp_Force_Field>
OPLS_2005

> <r_lp_Energy>
29.2013

> <b_lp_Chiralities_Consistent>
1

> <s_lp_Variant>
AV-unprocessed.smi:311-7

> <Gold.Version>
5.8.1

> <Gold.Id.Protein>
6NUR|6NUR_protein|mol2

> <Gold.PLP.Fitness>
41.2725

> <Gold.PLP.PLP>
-33.3621

> <Gold.PLP.part.hbond>
-2.5102

> <Gold.PLP.part.metal>
0.0000

> <Gold.PLP.part.buried>
-6.7043

> <Gold.PLP.part.nonpolar>
-24.8162

> <Gold.PLP.part.repulsive>
0.1453

> <Gold.PLP.ligand.clash>
0.0000

> <Gold.PLP.ligand.torsion>
0.0316

> <Gold.PLP.Chemscore.Hbond>
2.6560

> <Gold.PLP.Chemscore.CHOScore>
0.0000

> <Gold.PLP.Chemscore.Metal>
0.0000

> <Gold.Chemscore.Hbonds>
donor molecule, donor type, donor heavy atom, donor atom, acceptor molecule, acceptor atom, score
      L1  H    11    29       P1 10747  0.64
      L1  H    15    44       P1  7948  2.00

> <Gold.PLP.Chemscore.Internal.Correction>
0.0056

> <Gold.Rescore>
     Score         DG    S(hbond)    S(metal)    S(lipo)     H(rot)  DE(clash)    DE(int)     intcor
     16.07     -16.92       1.68        0.00      79.41       1.36       0.06       0.78       ----

> <Gold.Chemscore.Fitness>
16.0704

> <Gold.Chemscore.DG>
-16.9156

> <Gold.Chemscore.ZeroCoef>
-5.4800

> <Gold.Chemscore.Hbond>
1.6820

> <Gold.Chemscore.Metal>
0.0000

> <Gold.Chemscore.Lipo>
79.4100

> <Gold.Chemscore.Internal_Hbond>
0.0000

> <Gold.Chemscore.DEClash>
0.0615

> <Gold.Chemscore.DEInternal>
0.7837

> <Gold.Chemscore.Rot>
1.3567

> <Gold.Chemscore.Internal.Correction>
   9.000000E+99

> <Gold.Chemscore.Hbonds>
donor molecule, donor type, donor heavy atom, donor atom, acceptor molecule, acceptor atom, score
      L1  H    11    29       P1 10747  0.61
      L1  H    15    44       P1  7948  0.97

> <Gold.Chemscore.Hbond.Weighted>
-5.6177

> <Gold.Chemscore.Metal.Weighted>
-0.0000

> <Gold.Chemscore.Lipo.Weighted>
-9.2910

> <Gold.Chemscore.Internal_Hbond.Weighted>
0.0000

> <Gold.Chemscore.DEClash.Weighted>
0.0615

> <Gold.Chemscore.DEInternal.Weighted>
0.7837

> <Gold.Chemscore.Rot.Weighted>
3.4731

> <Gold.Chemscore.Internal.Correction.Weighted>
   9.000000E+99

> <Gold.Protein.RotatedTorsions>
[ 6907 6896 6895 6894 ] final  -73.77 input  -60.11 | X-H torsion
[ 7974 7965 7964 7962 ] final  133.66 input  175.53 | X-H torsion
[ 8008 7997 7996 7995 ] final   -9.40 input   59.86 | X-H torsion
[ 10167 10162 10161 10158 ] final -124.97 input  -65.29 | X-H torsion
[ 10718 10713 10712 10709 ] final  110.97 input   66.30 | X-H torsion
[ 10763 10752 10751 10750 ] final  -73.86 input  -60.55 | X-H torsion
[ 11005 11000 10999 10996 ] final  162.30 input  -57.11 | X-H torsion

> <Gold.Protein.ActiveResidues>
 VAL166  LYS551  ARG553  GLY616  TRP617  ASP618  TYR619  PRO620  LYS621  CYS622 
 ASP623  PHE694  ASN695  SER759  ASP760  ASP761  ALA762  ILE779  LEU786  VAL792 
 PHE793  MET794  SER795  GLU796  ALA797  LYS798  CYS799  TRP800  GLU811  SER814 

> <Gold.Protein.RotatedAtoms>
  150.7117  134.4967  159.5541 H   0  0  0  0  0  0  0  0  0  0  0  0  # atno 6907 bound_to 6896
  152.2573  134.8067  160.0445 H   0  0  0  0  0  0  0  0  0  0  0  0  # atno 6908 bound_to 6896
  151.8793  133.3457  159.3798 H   0  0  0  0  0  0  0  0  0  0  0  0  # atno 6909 bound_to 6896
  144.9842  139.4473  143.5371 H   0  0  0  0  0  0  0  0  0  0  0  0  # atno 7974 bound_to 7965
  154.5651  140.2356  155.8276 H   0  0  0  0  0  0  0  0  0  0  0  0  # atno 8008 bound_to 7997
  156.2061  140.3039  155.9589 H   0  0  0  0  0  0  0  0  0  0  0  0  # atno 8009 bound_to 7997
  155.2817  140.0423  157.3006 H   0  0  0  0  0  0  0  0  0  0  0  0  # atno 8010 bound_to 7997
  139.9871  143.5680  152.2356 H   0  0  0  0  0  0  0  0  0  0  0  0  # atno 10167 bound_to 10162
  157.6468  131.0942  150.6680 H   0  0  0  0  0  0  0  0  0  0  0  0  # atno 10718 bound_to 10713
  154.4652  135.5883  153.6283 H   0  0  0  0  0  0  0  0  0  0  0  0  # atno 10763 bound_to 10752
  152.9828  135.6053  154.3436 H   0  0  0  0  0  0  0  0  0  0  0  0  # atno 10764 bound_to 10752
  154.3312  135.2842  155.2449 H   0  0  0  0  0  0  0  0  0  0  0  0  # atno 10765 bound_to 10752
  140.2244  134.8172  157.3253 H   0  0  0  0  0  0  0  0  0  0  0  0  # atno 11005 bound_to 11000
  146.3416  139.9134  142.8777 LP  0  0  0  0  0  0  0  0  0  0  0  0  # atno 17320 bound_to 7965
  145.2377  140.9997  143.3954 LP  0  0  0  0  0  0  0  0  0  0  0  0  # atno 17321 bound_to 7965
  139.6367  144.7650  151.2424 LP  0  0  0  0  0  0  0  0  0  0  0  0  # atno 17342 bound_to 10162
  140.7468  143.6387  150.8355 LP  0  0  0  0  0  0  0  0  0  0  0  0  # atno 17343 bound_to 10162
  156.6996  130.4619  149.5576 LP  0  0  0  0  0  0  0  0  0  0  0  0  # atno 17370 bound_to 10713
  156.1804  130.6495  151.0945 LP  0  0  0  0  0  0  0  0  0  0  0  0  # atno 17371 bound_to 10713
  140.1816  134.4482  155.7769 LP  0  0  0  0  0  0  0  0  0  0  0  0  # atno 17394 bound_to 11000
  141.2221  133.6986  156.7878 LP  0  0  0  0  0  0  0  0  0  0  0  0  # atno 17395 bound_to 11000

$$$$
