AV-unprocessed.smi:2981|AV-procd|sdf|11374|dock4
  -GOLD-   2272016293D 1   1.00000     0.00000
 Structure written by MMmdl.
 31 32  0  0  0  0  0  0  0  0  1 V2000
  150.4883  140.5912  158.6401 O   0  0  0  0  0  0  0  0  0  0  0  0
  151.2647  141.4440  158.2071 C   0  0  0  0  0  0  0  0  0  0  0  0
  151.6656  142.6521  159.0665 C   0  0  0  0  0  0  0  0  0  0  0  0
  152.4055  142.2835  160.2830 N   0  0  0  0  0  0  0  0  0  0  0  0
  152.9502  141.0117  160.2484 N   0  0  0  0  0  0  0  0  0  0  0  0
  153.6332  140.5867  161.2550 C   0  0  0  0  0  0  0  0  0  0  0  0
  153.8515  141.3945  162.4345 C   0  0  0  0  0  0  0  0  0  0  0  0
  154.7770  140.7705  163.7541 Cl  0  0  0  0  0  0  0  0  0  0  0  0
  153.3078  142.6374  162.4608 C   0  0  0  0  0  0  0  0  0  0  0  0
  153.5240  143.6623  163.8382 Cl  0  0  0  0  0  0  0  0  0  0  0  0
  152.5230  143.1554  161.3316 C   0  0  0  0  0  0  0  0  0  0  0  0
  152.0113  144.2759  161.3177 O   0  0  0  0  0  0  0  0  0  0  0  0
  151.7920  141.3978  156.9745 N   0  0  0  0  0  0  0  0  0  0  0  0
  151.5482  140.3416  155.9975 C   0  0  2  0  0  0  0  0  0  0  0  0
  150.0971  140.3830  155.4840 C   0  0  0  0  0  0  0  0  0  0  0  0
  149.7960  139.0688  154.7527 C   0  0  0  0  0  0  0  0  0  0  0  0
  150.8219  137.7857  155.5669 S   0  0  0  0  0  0  0  0  0  0  0  0
  149.9770  136.9623  156.4455 O   0  0  0  0  0  0  0  0  0  0  0  0
  151.6957  137.1659  154.5593 O   0  0  0  0  0  0  0  0  0  0  0  0
  151.8002  138.9471  156.5921 C   0  0  0  0  0  0  0  0  0  0  0  0
  152.2585  143.3468  158.4681 H   0  0  0  0  0  0  0  0  0  0  0  0
  150.7556  143.1952  159.3277 H   0  0  0  0  0  0  0  0  0  0  0  0
  154.0833  139.5940  161.2713 H   0  0  0  0  0  0  0  0  0  0  0  0
  152.4163  142.1417  156.6973 H   0  0  0  0  0  0  0  0  0  0  0  0
  152.2078  140.4785  155.1381 H   0  0  0  0  0  0  0  0  0  0  0  0
  149.4180  140.4713  156.3334 H   0  0  0  0  0  0  0  0  0  0  0  0
  149.9180  141.2469  154.8429 H   0  0  0  0  0  0  0  0  0  0  0  0
  148.7425  138.7913  154.7916 H   0  0  0  0  0  0  0  0  0  0  0  0
  150.1020  139.1293  153.7081 H   0  0  0  0  0  0  0  0  0  0  0  0
  152.8527  138.6629  156.5826 H   0  0  0  0  0  0  0  0  0  0  0  0
  151.4301  138.8798  157.6157 H   0  0  0  0  0  0  0  0  0  0  0  0
  1  2  2  0  0  0  0
  2  3  1  0  0  0  0
  2 13  1  0  0  0  0
  3  4  1  0  0  0  0
  3 21  1  0  0  0  0
  3 22  1  0  0  0  0
  4 11  1  0  0  0  0
  4  5  1  0  0  0  0
  5  6  2  0  0  0  0
  6  7  1  0  0  0  0
  6 23  1  0  0  0  0
  7  8  1  0  0  0  0
  7  9  2  0  0  0  0
  9 10  1  0  0  0  0
  9 11  1  0  0  0  0
 11 12  2  0  0  0  0
 13 14  1  0  0  0  0
 13 24  1  0  0  0  0
 14 20  1  0  0  0  0
 14 15  1  0  0  0  0
 14 25  1  0  0  0  0
 15 16  1  0  0  0  0
 15 26  1  0  0  0  0
 15 27  1  0  0  0  0
 16 17  1  0  0  0  0
 16 28  1  0  0  0  0
 16 29  1  0  0  0  0
 17 18  2  0  0  0  0
 17 19  2  0  0  0  0
 17 20  1  0  0  0  0
 20 30  1  0  0  0  0
 20 31  1  0  0  0  0
M  END
> <s_m_source_file>
AV-unprocessed.smi

> <i_m_source_file_index>
2981

> <i_lp_mmshare_version>
43012

> <i_f3d_flags>
0

> <s_epik_input>
Tz1TMSg9TylbQ0gyXVtDSDJdW0NASF0oW0NIMl0xKVtOSF1DKD1PKVtDSDJdbjJuW2NIXWMoQ2wpYyhDbCljMj1P

> <s_epik_cmdline>
J2VwaWtfcHl0aG9uJywgJy1waCcsICc3LjAnLCAnLXRuJywgJzgnLCAnLW1hJywgJzIwMCcsICctbWV0YWxfYmluZGluZycsICctaW1hZScsICc8aW5maWxlLm1hZT4nLCAnLW9tYWUnLCAnPG91dGZpbGUubWFlPic=

> <r_lp_tautomer_probability>
1

> <r_epik_Ionization_Penalty>
1.07216e-07

> <r_epik_Ionization_Penalty_Charging>
2.33395e-11

> <r_epik_Ionization_Penalty_Neutral>
1.07193e-07

> <r_epik_State_Penalty>
-0

> <r_epik_Charging_Adjusted_Penalty>
2.33395e-11

> <i_epik_Tot_Q>
0

> <i_epik_Tot_abs_Q>
0

> <r_epik_Metal_State_Penalty>
-0

> <b_epik_Metal_Only>
0

> <s_lp_Force_Field>
OPLS_2005

> <r_lp_Energy>
19.0616

> <b_lp_Chiralities_Consistent>
1

> <s_lp_Variant>
AV-unprocessed.smi:2981-1

> <Gold.Version>
5.8.1

> <Gold.Id.Protein>
6NUR|6NUR_protein|mol2

> <Gold.PLP.Fitness>
40.4144

> <Gold.PLP.PLP>
-38.3349

> <Gold.PLP.part.hbond>
-1.0000

> <Gold.PLP.part.metal>
0.0000

> <Gold.PLP.part.buried>
-1.0454

> <Gold.PLP.part.nonpolar>
-35.2594

> <Gold.PLP.part.repulsive>
0.7722

> <Gold.PLP.ligand.clash>
0.0000

> <Gold.PLP.ligand.torsion>
0.3289

> <Gold.PLP.Chemscore.Hbond>
0.9120

> <Gold.PLP.Chemscore.CHOScore>
0.0000

> <Gold.PLP.Chemscore.Metal>
0.0000

> <Gold.Chemscore.Hbonds>
donor molecule, donor type, donor heavy atom, donor atom, acceptor molecule, acceptor atom, score
      P1  H 10752 10763       L1    19  0.94

> <Gold.PLP.Chemscore.Internal.Correction>
0.0014

> <Gold.Rescore>
     Score         DG    S(hbond)    S(metal)    S(lipo)     H(rot)  DE(clash)    DE(int)     intcor
     10.05     -13.35       0.59        0.00      87.77       1.70       0.70       2.60       ----

> <Gold.Chemscore.Fitness>
10.0509

> <Gold.Chemscore.DG>
-13.3456

> <Gold.Chemscore.ZeroCoef>
-5.4800

> <Gold.Chemscore.Hbond>
0.5871

> <Gold.Chemscore.Metal>
0.0000

> <Gold.Chemscore.Lipo>
87.7726

> <Gold.Chemscore.Internal_Hbond>
0.0000

> <Gold.Chemscore.DEClash>
0.6996

> <Gold.Chemscore.DEInternal>
2.5951

> <Gold.Chemscore.Rot>
1.7049

> <Gold.Chemscore.Internal.Correction>
   9.000000E+99

> <Gold.Chemscore.Hbonds>
donor molecule, donor type, donor heavy atom, donor atom, acceptor molecule, acceptor atom, score
      P1  H 10752 10763       L1    19  0.88

> <Gold.Chemscore.Hbond.Weighted>
-1.9608

> <Gold.Chemscore.Metal.Weighted>
-0.0000

> <Gold.Chemscore.Lipo.Weighted>
-10.2694

> <Gold.Chemscore.Internal_Hbond.Weighted>
0.0000

> <Gold.Chemscore.DEClash.Weighted>
0.6996

> <Gold.Chemscore.DEInternal.Weighted>
2.5951

> <Gold.Chemscore.Rot.Weighted>
4.3646

> <Gold.Chemscore.Internal.Correction.Weighted>
   9.000000E+99

> <Gold.Protein.RotatedTorsions>
[ 6907 6896 6895 6894 ] final   78.84 input  -60.11 | X-H torsion
[ 7974 7965 7964 7962 ] final -163.97 input  175.53 | X-H torsion
[ 8008 7997 7996 7995 ] final  -74.64 input   59.86 | X-H torsion
[ 10167 10162 10161 10158 ] final  -60.83 input  -65.29 | X-H torsion
[ 10718 10713 10712 10709 ] final -162.34 input   66.30 | X-H torsion
[ 10763 10752 10751 10750 ] final   30.51 input  -60.55 | X-H torsion
[ 11005 11000 10999 10996 ] final  -14.32 input  -57.11 | X-H torsion

> <Gold.Protein.ActiveResidues>
 VAL166  LYS551  ARG553  GLY616  TRP617  ASP618  TYR619  PRO620  LYS621  CYS622 
 ASP623  PHE694  ASN695  SER759  ASP760  ASP761  ALA762  ILE779  LEU786  VAL792 
 PHE793  MET794  SER795  GLU796  ALA797  LYS798  CYS799  TRP800  GLU811  SER814 

> <Gold.Protein.RotatedAtoms>
  152.5175  134.3602  159.9281 H   0  0  0  0  0  0  0  0  0  0  0  0  # atno 6907 bound_to 6896
  151.3554  133.3903  159.2692 H   0  0  0  0  0  0  0  0  0  0  0  0  # atno 6908 bound_to 6896
  150.9693  134.9088  159.7836 H   0  0  0  0  0  0  0  0  0  0  0  0  # atno 6909 bound_to 6896
  144.7310  140.3030  143.6201 H   0  0  0  0  0  0  0  0  0  0  0  0  # atno 7974 bound_to 7965
  154.5348  140.0758  156.8409 H   0  0  0  0  0  0  0  0  0  0  0  0  # atno 8008 bound_to 7997
  155.3300  140.3401  155.4221 H   0  0  0  0  0  0  0  0  0  0  0  0  # atno 8009 bound_to 7997
  156.1817  140.1655  156.8247 H   0  0  0  0  0  0  0  0  0  0  0  0  # atno 8010 bound_to 7997
  140.6046  143.2370  151.5851 H   0  0  0  0  0  0  0  0  0  0  0  0  # atno 10167 bound_to 10162
  156.6090  130.8842  151.2932 H   0  0  0  0  0  0  0  0  0  0  0  0  # atno 10718 bound_to 10713
  153.0367  135.6462  154.1056 H   0  0  0  0  0  0  0  0  0  0  0  0  # atno 10763 bound_to 10752
  154.0770  135.2876  155.3299 H   0  0  0  0  0  0  0  0  0  0  0  0  # atno 10764 bound_to 10752
  154.6556  135.5410  153.8019 H   0  0  0  0  0  0  0  0  0  0  0  0  # atno 10765 bound_to 10752
  140.7852  133.8331  155.9328 H   0  0  0  0  0  0  0  0  0  0  0  0  # atno 11005 bound_to 11000
  145.7741  139.1868  143.2195 LP  0  0  0  0  0  0  0  0  0  0  0  0  # atno 17320 bound_to 7965
  146.0887  140.7681  142.9606 LP  0  0  0  0  0  0  0  0  0  0  0  0  # atno 17321 bound_to 7965
  139.5315  144.2902  152.1159 LP  0  0  0  0  0  0  0  0  0  0  0  0  # atno 17342 bound_to 10162
  140.2089  144.4583  150.6395 LP  0  0  0  0  0  0  0  0  0  0  0  0  # atno 17343 bound_to 10162
  157.7259  130.9622  150.1634 LP  0  0  0  0  0  0  0  0  0  0  0  0  # atno 17370 bound_to 10713
  156.2405  130.3690  149.8342 LP  0  0  0  0  0  0  0  0  0  0  0  0  # atno 17371 bound_to 10713
  140.9444  134.1860  157.4774 LP  0  0  0  0  0  0  0  0  0  0  0  0  # atno 17394 bound_to 11000
  139.8737  134.9884  156.5412 LP  0  0  0  0  0  0  0  0  0  0  0  0  # atno 17395 bound_to 11000

$$$$
