#       Name:                AV-unprocessed.smi:3031
#       Creating user name   scv26
#       Creation time:       Fri Mar 27 16:49:52 2020


#       File generated by GOLD software.
#

@<TRIPOS>MOLECULE
AV-unprocessed.smi:3031
    53    54     1
SMALL
NO_CHARGES


@<TRIPOS>ATOM
      1 ****        -2.1155   2.8053   3.9605 C.3            1 S1                 0.0000
      2 ****        -2.8165   1.9742   2.9250 C.2            1 S1                 0.0000
      3 ****        -3.9712   2.3179   2.1661 C.2            1 S1                 0.0000
      4 ****        -4.3390   1.3630   1.3275 N.2            1 S1                 0.0000
      5 ****        -3.4360   0.3787   1.5207 N.pl3          1 S1                 0.0000
      6 ****        -3.5274  -0.8467   0.7464 C.3            1 S1                 0.0000
      7 ****        -2.9667  -0.6819  -0.6803 C.3            1 S1                 0.0000
      8 ****        -3.2670  -1.9345  -1.5230 C.3            1 S1                 0.0000
      9 ****        -1.5274  -0.4013  -0.6242 N.3            1 S1                 0.0000
     10 ****        -0.9053  -0.0410  -1.8977 C.3            1 S1                 0.0000
     11 ****         0.5678   0.3535  -1.7018 C.3            1 S1                 0.0000
     12 ****         1.0295   0.8997  -2.9210 O.3            1 S1                 0.0000
     13 ****         1.4670  -0.8485  -1.3422 C.3            1 S1                 0.0000
     14 ****         2.8493  -0.4348  -0.9915 N.4            1 S1                 1.0000
     15 ****         2.9747   0.1093   0.3839 C.3            1 S1                 0.0000
     16 ****         4.4215   0.5552   0.6548 C.3            1 S1                 0.0000
     17 ****         5.3050  -0.5403   0.4503 O.3            1 S1                 0.0000
     18 ****         5.2594  -1.0171  -0.8889 C.3            1 S1                 0.0000
     19 ****         3.8403  -1.5151  -1.2116 C.3            1 S1                 0.0000
     20 ****        -2.5070   0.7198   2.4807 C.2            1 S1                 0.0000
     21 ****        -2.8121   3.1929   4.7040 H              1 S1                 0.0000
     22 ****        -1.6124   3.6625   3.5127 H              1 S1                 0.0000
     23 ****        -1.3590   2.2325   4.4975 H              1 S1                 0.0000
     24 ****        -4.5488   3.2299   2.1986 H              1 S1                 0.0000
     25 ****        -3.0010  -1.6393   1.2799 H              1 S1                 0.0000
     26 ****        -4.5768  -1.1432   0.7084 H              1 S1                 0.0000
     27 ****        -3.4770   0.1629  -1.1451 H              1 S1                 0.0000
     28 ****        -4.3319  -2.1681  -1.5042 H              1 S1                 0.0000
     29 ****        -2.7318  -2.8064  -1.1452 H              1 S1                 0.0000
     30 ****        -2.9945  -1.7984  -2.5693 H              1 S1                 0.0000
     31 ****        -1.0436  -1.1968  -0.2207 H              1 S1                 0.0000
     32 ****        -0.9693  -0.8644  -2.6089 H              1 S1                 0.0000
     33 ****        -1.4478   0.7970  -2.3377 H              1 S1                 0.0000
     34 ****         0.6259   1.1319  -0.9411 H              1 S1                 0.0000
     35 ****         0.8853   0.2684  -3.6097 H              1 S1                 0.0000
     36 ****         1.0476  -1.4147  -0.5092 H              1 S1                 0.0000
     37 ****         1.4879  -1.5348  -2.1907 H              1 S1                 0.0000
     38 ****         2.3049   0.9568   0.5242 H              1 S1                 0.0000
     39 ****         2.6809  -0.6522   1.1082 H              1 S1                 0.0000
     40 ****         4.7003   1.3897   0.0091 H              1 S1                 0.0000
     41 ****         4.5214   0.9016   1.6838 H              1 S1                 0.0000
     42 ****         5.5631  -0.2287  -1.5796 H              1 S1                 0.0000
     43 ****         5.9769  -1.8304  -0.9991 H              1 S1                 0.0000
     44 ****         3.5924  -2.3730  -0.5843 H              1 S1                 0.0000
     45 ****         3.7988  -1.8514  -2.2483 H              1 S1                 0.0000
     46 ****        -1.7074   0.0501   2.7614 H              1 S1                 0.0000
     47 ****         3.0943   0.3090  -1.6300 H              1 S1                 0.0000
     48 ****        -5.1121   1.3692   0.6933 LP             1 S1                 0.0000
     49 ****        -1.4395   0.4141  -0.0520 LP             1 S1                 0.0000
     50 ****         2.0060   1.1033  -2.8501 LP             1 S1                 0.0000
     51 ****         0.5276   1.7404  -3.1246 LP             1 S1                 0.0000
     52 ****         5.0459  -1.2837   1.0670 LP             1 S1                 0.0000
     53 ****         6.2380  -0.2457   0.6568 LP             1 S1                 0.0000
@<TRIPOS>BOND
    1    1    2 1     
    2    1   21 1     
    3    1   22 1     
    4    1   23 1     
    5    2   20 2     
    6    2    3 1     
    7    3    4 2     
    8    3   24 1     
    9    4    5 1     
   10    5    6 1     
   11    5   20 1     
   12    6    7 1     
   13    6   25 1     
   14    6   26 1     
   15    7    8 1     
   16    7    9 1     
   17    7   27 1     
   18    8   28 1     
   19    8   29 1     
   20    8   30 1     
   21    9   10 1     
   22    9   31 1     
   23   10   11 1     
   24   10   32 1     
   25   10   33 1     
   26   11   12 1     
   27   11   13 1     
   28   11   34 1     
   29   12   35 1     
   30   13   14 1     
   31   13   36 1     
   32   13   37 1     
   33   14   19 1     
   34   14   15 1     
   35   14   47 1     
   36   15   16 1     
   37   15   38 1     
   38   15   39 1     
   39   16   17 1     
   40   16   40 1     
   41   16   41 1     
   42   17   18 1     
   43   18   19 1     
   44   18   42 1     
   45   18   43 1     
   46   19   44 1     
   47   19   45 1     
   48   20   46 1     
   49    4   48 1     
   50    9   49 1     
   51   12   50 1     
   52   12   51 1     
   53   17   52 1     
   54   17   53 1     
@<TRIPOS>SUBSTRUCTURE
      1 S1             1
@<TRIPOS>SET
LONE_PAIRS      STATIC     ATOMS    <user>   **** ""
6 48 49 50 51 52 53
DONOR_HYDROGENS      STATIC     ATOMS    <user>   **** ""
3 31 35 47
ATOM$BLUE        STATIC     ATOMS    COLORGROUP SYSTEM
6 48 49 50 51 52 53
ATOM$RED        STATIC     ATOMS    COLORGROUP SYSTEM
3 31 35 47
