AV-unprocessed.smi:921|AV-procd|sdf|4172|dock3
  -GOLD-   22720 2 83D 1   1.00000     0.00000
 Structure written by MMmdl.
 40 42  0  0  0  0  0  0  0  0  2 V2000
  149.8391  135.7271  154.3408 N   0  0  0  0  0  0  0  0  0  0  0  0
  150.9050  136.2811  154.9249 C   0  0  0  0  0  0  0  0  0  0  0  0
  151.4421  135.7844  155.9128 O   0  0  0  0  0  0  0  0  0  0  0  0
  151.4463  137.5752  154.3127 C   0  0  0  0  0  0  0  0  0  0  0  0
  150.3742  138.6183  154.2450 C   0  0  0  0  0  0  0  0  0  0  0  0
  149.2876  138.5910  153.4204 N   0  3  0  0  0  0  0  0  0  0  0  0
  148.5020  139.7242  153.6343 C   0  0  0  0  0  0  0  0  0  0  0  0
  147.3133  140.1354  153.0390 C   0  0  0  0  0  0  0  0  0  0  0  0
  146.7660  141.3532  153.4940 C   0  0  0  0  0  0  0  0  0  0  0  0
  147.3969  142.1108  154.5023 C   0  0  0  0  0  0  0  0  0  0  0  0
  148.6027  141.6842  155.0973 C   0  0  0  0  0  0  0  0  0  0  0  0
  149.1369  140.4799  154.6405 C   0  0  0  0  0  0  0  0  0  0  0  0
  150.2865  139.7618  154.9863 N   0  0  0  0  0  0  0  0  0  0  0  0
  151.1789  140.3034  156.0230 C   0  0  0  0  0  0  0  0  0  0  0  0
  150.4272  140.7370  157.2967 C   0  0  1  0  0  0  0  0  0  0  0  0
  149.7338  139.6295  157.8405 O   0  0  0  0  0  0  0  0  0  0  0  0
  151.3735  141.3893  158.2956 C   0  0  0  0  0  0  0  0  0  0  0  0
  151.3122  142.7792  158.5451 C   0  0  0  0  0  0  0  0  0  0  0  0
  152.1836  143.3743  159.4778 C   0  0  0  0  0  0  0  0  0  0  0  0
  152.1208  144.7070  159.7087 F   0  0  0  0  0  0  0  0  0  0  0  0
  153.1190  142.5841  160.1719 C   0  0  0  0  0  0  0  0  0  0  0  0
  153.1801  141.1978  159.9351 C   0  0  0  0  0  0  0  0  0  0  0  0
  152.3100  140.6006  159.0023 C   0  0  0  0  0  0  0  0  0  0  0  0
  152.3761  139.2634  158.7932 F   0  0  0  0  0  0  0  0  0  0  0  0
  149.4473  134.8774  154.7212 H   0  0  0  0  0  0  0  0  0  0  0  0
  149.4213  136.1590  153.5294 H   0  0  0  0  0  0  0  0  0  0  0  0
  152.2846  137.9572  154.8970 H   0  0  0  0  0  0  0  0  0  0  0  0
  151.8277  137.3690  153.3125 H   0  0  0  0  0  0  0  0  0  0  0  0
  146.8278  139.5567  152.2670 H   0  0  0  0  0  0  0  0  0  0  0  0
  145.8436  141.7128  153.0615 H   0  0  0  0  0  0  0  0  0  0  0  0
  146.9475  143.0383  154.8261 H   0  0  0  0  0  0  0  0  0  0  0  0
  149.0781  142.2711  155.8695 H   0  0  0  0  0  0  0  0  0  0  0  0
  151.9222  139.5419  156.2604 H   0  0  0  0  0  0  0  0  0  0  0  0
  151.7306  141.1406  155.5934 H   0  0  0  0  0  0  0  0  0  0  0  0
  149.6624  141.4659  157.0278 H   0  0  0  0  0  0  0  0  0  0  0  0
  150.3455  138.9171  157.9484 H   0  0  0  0  0  0  0  0  0  0  0  0
  150.5942  143.3964  158.0249 H   0  0  0  0  0  0  0  0  0  0  0  0
  153.7867  143.0398  160.8880 H   0  0  0  0  0  0  0  0  0  0  0  0
  153.8942  140.5907  160.4719 H   0  0  0  0  0  0  0  0  0  0  0  0
  149.1002  137.8496  152.7580 H   0  0  0  0  0  0  0  0  0  0  0  0
  1  2  1  0  0  0  0
  1 25  1  0  0  0  0
  1 26  1  0  0  0  0
  2  3  2  0  0  0  0
  2  4  1  0  0  0  0
  4  5  1  0  0  0  0
  4 27  1  0  0  0  0
  4 28  1  0  0  0  0
  5 13  1  0  0  0  0
  5  6  2  0  0  0  0
  6  7  1  0  0  0  0
  6 40  1  0  0  0  0
  7 12  2  0  0  0  0
  7  8  1  0  0  0  0
  8  9  2  0  0  0  0
  8 29  1  0  0  0  0
  9 10  1  0  0  0  0
  9 30  1  0  0  0  0
 10 11  2  0  0  0  0
 10 31  1  0  0  0  0
 11 12  1  0  0  0  0
 11 32  1  0  0  0  0
 12 13  1  0  0  0  0
 13 14  1  0  0  0  0
 14 15  1  0  0  0  0
 14 33  1  0  0  0  0
 14 34  1  0  0  0  0
 15 16  1  0  0  0  0
 15 17  1  0  0  0  0
 15 35  1  0  0  0  0
 16 36  1  0  0  0  0
 17 23  1  0  0  0  0
 17 18  2  0  0  0  0
 18 19  1  0  0  0  0
 18 37  1  0  0  0  0
 19 20  1  0  0  0  0
 19 21  2  0  0  0  0
 21 22  1  0  0  0  0
 21 38  1  0  0  0  0
 22 23  2  0  0  0  0
 22 39  1  0  0  0  0
 23 24  1  0  0  0  0
M  CHG  1   6   1
M  END
> <s_m_source_file>
AV-unprocessed.smi

> <i_m_source_file_index>
921

> <i_lp_mmshare_version>
43012

> <i_f3d_flags>
0

> <s_epik_input>
W2NIXTFbY0hdW2NIXVtjSF1jKGMxMiluKGMobjIpW0NIMl1DKD1PKVtOSDJdKVtDSDJdW0NASF0oW09IXSljM1tjSF1jKEYpW2NIXVtjSF1jM0Y=

> <s_epik_cmdline>
J2VwaWtfcHl0aG9uJywgJy1waCcsICc3LjAnLCAnLXRuJywgJzgnLCAnLW1hJywgJzIwMCcsICctbWV0YWxfYmluZGluZycsICctaW1hZScsICc8aW5maWxlLm1hZT4nLCAnLW9tYWUnLCAnPG91dGZpbGUubWFlPic=

> <r_epik_Ionization_Penalty>
1.66646

> <r_epik_Ionization_Penalty_Charging>
1.66645

> <r_epik_Ionization_Penalty_Neutral>
3.86504e-06

> <r_epik_State_Penalty>
1.76975

> <r_epik_Charging_Adjusted_Penalty>
3.43621

> <i_epik_Tot_Q>
1

> <i_epik_Tot_abs_Q>
1

> <r_epik_Metal_State_Penalty>
1.80493

> <b_epik_Metal_Only>
0

> <s_lp_Force_Field>
OPLS_2005

> <r_lp_Energy>
15.327

> <b_lp_Chiralities_Consistent>
1

> <s_lp_Variant>
AV-unprocessed.smi:921-4

> <Gold.Version>
5.8.1

> <Gold.Id.Protein>
6NUR|6NUR_protein|mol2

> <Gold.PLP.Fitness>
66.0939

> <Gold.PLP.PLP>
-54.8650

> <Gold.PLP.part.hbond>
-4.3767

> <Gold.PLP.part.metal>
0.0000

> <Gold.PLP.part.buried>
1.3723

> <Gold.PLP.part.nonpolar>
-52.8308

> <Gold.PLP.part.repulsive>
0.1639

> <Gold.PLP.ligand.clash>
0.0000

> <Gold.PLP.ligand.torsion>
0.4157

> <Gold.PLP.Chemscore.Hbond>
4.0000

> <Gold.PLP.Chemscore.CHOScore>
0.0000

> <Gold.PLP.Chemscore.Metal>
0.0000

> <Gold.Chemscore.Hbonds>
donor molecule, donor type, donor heavy atom, donor atom, acceptor molecule, acceptor atom, score
      L1  H     1    26       P1  7948  1.00
      L1  H     6    40       P1  7948  2.00
      P1  H 10752 10765       L1     3  0.94

> <Gold.PLP.Chemscore.Internal.Correction>
0.0604

> <Gold.Rescore>
     Score         DG    S(hbond)    S(metal)    S(lipo)     H(rot)  DE(clash)    DE(int)     intcor
     15.80     -18.04       2.10        0.00     116.70       3.17       0.78       1.46       ----

> <Gold.Chemscore.Fitness>
15.8008

> <Gold.Chemscore.DG>
-18.0412

> <Gold.Chemscore.ZeroCoef>
-5.4800

> <Gold.Chemscore.Hbond>
2.1039

> <Gold.Chemscore.Metal>
0.0000

> <Gold.Chemscore.Lipo>
116.6998

> <Gold.Chemscore.Internal_Hbond>
0.0000

> <Gold.Chemscore.DEClash>
0.7846

> <Gold.Chemscore.DEInternal>
1.4558

> <Gold.Chemscore.Rot>
3.1717

> <Gold.Chemscore.Internal.Correction>
   9.000000E+99

> <Gold.Chemscore.Hbonds>
donor molecule, donor type, donor heavy atom, donor atom, acceptor molecule, acceptor atom, score
      L1  H     1    26       P1  7948  0.63
      L1  H     6    40       P1  7948  0.99
      P1  H 10752 10765       L1     3  0.23

> <Gold.Chemscore.Hbond.Weighted>
-7.0269

> <Gold.Chemscore.Metal.Weighted>
-0.0000

> <Gold.Chemscore.Lipo.Weighted>
-13.6539

> <Gold.Chemscore.Internal_Hbond.Weighted>
0.0000

> <Gold.Chemscore.DEClash.Weighted>
0.7846

> <Gold.Chemscore.DEInternal.Weighted>
1.4558

> <Gold.Chemscore.Rot.Weighted>
8.1196

> <Gold.Chemscore.Internal.Correction.Weighted>
   9.000000E+99

> <Gold.Protein.RotatedTorsions>
[ 6907 6896 6895 6894 ] final  -39.19 input  -60.11 | X-H torsion
[ 7974 7965 7964 7962 ] final   -6.97 input  175.53 | X-H torsion
[ 8008 7997 7996 7995 ] final -132.96 input   59.86 | X-H torsion
[ 10167 10162 10161 10158 ] final  -48.26 input  -65.29 | X-H torsion
[ 10718 10713 10712 10709 ] final   41.72 input   66.30 | X-H torsion
[ 10763 10752 10751 10750 ] final -138.26 input  -60.55 | X-H torsion
[ 11005 11000 10999 10996 ] final   92.93 input  -57.11 | X-H torsion

> <Gold.Protein.ActiveResidues>
 VAL166  LYS551  ARG553  GLY616  TRP617  ASP618  TYR619  PRO620  LYS621  CYS622 
 ASP623  PHE694  ASN695  SER759  ASP760  ASP761  ALA762  ILE779  LEU786  VAL792 
 PHE793  MET794  SER795  GLU796  ALA797  LYS798  CYS799  TRP800  GLU811  SER814 

> <Gold.Protein.RotatedAtoms>
  150.9933  134.9262  159.7911 H   0  0  0  0  0  0  0  0  0  0  0  0  # atno 6907 bound_to 6896
  152.5257  134.3252  159.9173 H   0  0  0  0  0  0  0  0  0  0  0  0  # atno 6908 bound_to 6896
  151.3258  133.3979  159.2693 H   0  0  0  0  0  0  0  0  0  0  0  0  # atno 6909 bound_to 6896
  146.2318  140.2250  142.8338 H   0  0  0  0  0  0  0  0  0  0  0  0  # atno 7974 bound_to 7965
  155.3376  140.0470  157.3044 H   0  0  0  0  0  0  0  0  0  0  0  0  # atno 8008 bound_to 7997
  154.5294  140.2252  155.8796 H   0  0  0  0  0  0  0  0  0  0  0  0  # atno 8009 bound_to 7997
  156.1773  140.3082  155.9089 H   0  0  0  0  0  0  0  0  0  0  0  0  # atno 8010 bound_to 7997
  140.6739  143.2748  151.4045 H   0  0  0  0  0  0  0  0  0  0  0  0  # atno 10167 bound_to 10162
  157.3968  130.7837  149.7315 H   0  0  0  0  0  0  0  0  0  0  0  0  # atno 10718 bound_to 10713
  154.8641  135.3617  154.5356 H   0  0  0  0  0  0  0  0  0  0  0  0  # atno 10763 bound_to 10752
  153.5979  135.7013  153.5401 H   0  0  0  0  0  0  0  0  0  0  0  0  # atno 10764 bound_to 10752
  153.3316  135.4123  155.1461 H   0  0  0  0  0  0  0  0  0  0  0  0  # atno 10765 bound_to 10752
  139.8816  134.8761  156.3645 H   0  0  0  0  0  0  0  0  0  0  0  0  # atno 11005 bound_to 11000
  144.9602  140.8267  143.5518 LP  0  0  0  0  0  0  0  0  0  0  0  0  # atno 17320 bound_to 7965
  145.2220  139.2154  143.5088 LP  0  0  0  0  0  0  0  0  0  0  0  0  # atno 17321 bound_to 7965
  139.6021  144.1274  152.2209 LP  0  0  0  0  0  0  0  0  0  0  0  0  # atno 17342 bound_to 10162
  140.0662  144.5817  150.7226 LP  0  0  0  0  0  0  0  0  0  0  0  0  # atno 17343 bound_to 10162
  155.9812  130.4021  150.3483 LP  0  0  0  0  0  0  0  0  0  0  0  0  # atno 17370 bound_to 10713
  157.1605  131.0344  151.2843 LP  0  0  0  0  0  0  0  0  0  0  0  0  # atno 17371 bound_to 10713
  140.9507  133.7453  156.0268 LP  0  0  0  0  0  0  0  0  0  0  0  0  # atno 17394 bound_to 11000
  140.8109  134.3400  157.5412 LP  0  0  0  0  0  0  0  0  0  0  0  0  # atno 17395 bound_to 11000

$$$$
