AV-unprocessed.smi:2325|AV-procd|sdf|9295|dock4
  -GOLD-   2272012513D 1   1.00000     0.00000
 Structure written by MMmdl.
 40 41  0  0  0  0  0  0  0  0  1 V2000
  146.6408  142.5110  153.6926 C   0  0  0  0  0  0  0  0  0  0  0  0
  147.6078  141.4563  153.9281 N   0  0  0  0  0  0  0  0  0  0  0  0
  148.8872  141.7456  154.2629 N   0  0  0  0  0  0  0  0  0  0  0  0
  149.4373  140.5378  154.3911 C   0  0  0  0  0  0  0  0  0  0  0  0
  148.6094  139.4754  154.1645 N   0  0  0  0  0  0  0  0  0  0  0  0
  147.4855  140.1265  153.8815 C   0  0  0  0  0  0  0  0  0  0  0  0
  146.2351  139.5367  153.5551 N   0  0  0  0  0  0  0  0  0  0  0  0
  145.8320  138.2774  153.7933 C   0  0  0  0  0  0  0  0  0  0  0  0
  146.5124  137.4035  154.3307 O   0  0  0  0  0  0  0  0  0  0  0  0
  144.5751  138.0836  153.3702 N   0  0  0  0  0  0  0  0  0  0  0  0
  143.8246  136.8367  153.5037 C   0  0  2  0  0  0  0  0  0  0  0  0
  142.4367  136.9577  152.9065 C   0  0  0  0  0  0  0  0  0  0  0  0
  141.6454  135.8687  153.6403 C   0  0  0  0  0  0  0  0  0  0  0  0
  140.1905  136.2848  153.9050 C   0  0  0  0  0  0  0  0  0  0  0  0
  141.7074  134.5182  152.9063 C   0  0  0  0  0  0  0  0  0  0  0  0
  142.3036  135.7013  154.8951 O   0  0  0  0  0  0  0  0  0  0  0  0
  143.5235  136.4382  154.9656 C   0  0  0  0  0  0  0  0  0  0  0  0
  144.5984  135.5098  155.5526 C   0  0  0  0  0  0  0  0  0  0  0  0
  143.2595  137.6310  155.9084 C   0  0  0  0  0  0  0  0  0  0  0  0
  146.1985  142.3891  152.7034 H   0  0  0  0  0  0  0  0  0  0  0  0
  147.1191  143.4899  153.7465 H   0  0  0  0  0  0  0  0  0  0  0  0
  145.8527  142.4589  154.4442 H   0  0  0  0  0  0  0  0  0  0  0  0
  150.4767  140.4179  154.6590 H   0  0  0  0  0  0  0  0  0  0  0  0
  145.5720  140.1450  153.0985 H   0  0  0  0  0  0  0  0  0  0  0  0
  144.0929  138.8583  152.9390 H   0  0  0  0  0  0  0  0  0  0  0  0
  144.3438  136.0244  152.9911 H   0  0  0  0  0  0  0  0  0  0  0  0
  142.0201  137.9418  153.1282 H   0  0  0  0  0  0  0  0  0  0  0  0
  142.4292  136.8373  151.8226 H   0  0  0  0  0  0  0  0  0  0  0  0
  139.6517  136.4510  152.9717 H   0  0  0  0  0  0  0  0  0  0  0  0
  140.1427  137.2061  154.4866 H   0  0  0  0  0  0  0  0  0  0  0  0
  139.6571  135.5165  154.4655 H   0  0  0  0  0  0  0  0  0  0  0  0
  141.2330  134.5793  151.9262 H   0  0  0  0  0  0  0  0  0  0  0  0
  141.1963  133.7394  153.4734 H   0  0  0  0  0  0  0  0  0  0  0  0
  142.7363  134.1903  152.7566 H   0  0  0  0  0  0  0  0  0  0  0  0
  145.5582  136.0189  155.6393 H   0  0  0  0  0  0  0  0  0  0  0  0
  144.7441  134.6281  154.9279 H   0  0  0  0  0  0  0  0  0  0  0  0
  144.3180  135.1631  156.5475 H   0  0  0  0  0  0  0  0  0  0  0  0
  144.1577  138.2302  156.0601 H   0  0  0  0  0  0  0  0  0  0  0  0
  142.9315  137.2861  156.8892 H   0  0  0  0  0  0  0  0  0  0  0  0
  142.4817  138.2879  155.5187 H   0  0  0  0  0  0  0  0  0  0  0  0
  1  2  1  0  0  0  0
  1 20  1  0  0  0  0
  1 21  1  0  0  0  0
  1 22  1  0  0  0  0
  2  6  1  0  0  0  0
  2  3  1  0  0  0  0
  3  4  2  0  0  0  0
  4  5  1  0  0  0  0
  4 23  1  0  0  0  0
  5  6  2  0  0  0  0
  6  7  1  0  0  0  0
  7  8  1  0  0  0  0
  7 24  1  0  0  0  0
  8  9  2  0  0  0  0
  8 10  1  0  0  0  0
 10 11  1  0  0  0  0
 10 25  1  0  0  0  0
 11 17  1  0  0  0  0
 11 12  1  0  0  0  0
 11 26  1  0  0  0  0
 12 13  1  0  0  0  0
 12 27  1  0  0  0  0
 12 28  1  0  0  0  0
 13 14  1  0  0  0  0
 13 15  1  0  0  0  0
 13 16  1  0  0  0  0
 14 29  1  0  0  0  0
 14 30  1  0  0  0  0
 14 31  1  0  0  0  0
 15 32  1  0  0  0  0
 15 33  1  0  0  0  0
 15 34  1  0  0  0  0
 16 17  1  0  0  0  0
 17 18  1  0  0  0  0
 17 19  1  0  0  0  0
 18 35  1  0  0  0  0
 18 36  1  0  0  0  0
 18 37  1  0  0  0  0
 19 38  1  0  0  0  0
 19 39  1  0  0  0  0
 19 40  1  0  0  0  0
M  END
> <s_m_source_file>
AV-unprocessed.smi

> <i_m_source_file_index>
2325

> <i_lp_mmshare_version>
43012

> <i_f3d_flags>
0

> <s_epik_input>
W0NIM11uMW5bY0hdbmMxW05IXUMoPU8pW05IXVtDQEBIXShDKE8yKShbQ0gzXSlbQ0gzXSlbQ0gyXUMyKFtDSDNdKVtDSDNd

> <s_epik_cmdline>
J2VwaWtfcHl0aG9uJywgJy1waCcsICc3LjAnLCAnLXRuJywgJzgnLCAnLW1hJywgJzIwMCcsICctbWV0YWxfYmluZGluZycsICctaW1hZScsICc8aW5maWxlLm1hZT4nLCAnLW9tYWUnLCAnPG91dGZpbGUubWFlPic=

> <r_lp_tautomer_probability>
1

> <r_epik_Ionization_Penalty>
1.97832e-05

> <r_epik_Ionization_Penalty_Charging>
0

> <r_epik_Ionization_Penalty_Neutral>
1.97832e-05

> <r_epik_State_Penalty>
-0

> <r_epik_Charging_Adjusted_Penalty>
0

> <i_epik_Tot_Q>
0

> <i_epik_Tot_abs_Q>
0

> <r_epik_Metal_State_Penalty>
-0

> <b_epik_Metal_Only>
0

> <s_lp_Force_Field>
OPLS_2005

> <r_lp_Energy>
17.1508

> <b_lp_Chiralities_Consistent>
1

> <s_lp_Variant>
AV-unprocessed.smi:2325-1

> <Gold.Version>
5.8.1

> <Gold.Id.Protein>
6NUR|6NUR_protein|mol2

> <Gold.PLP.Fitness>
35.0128

> <Gold.PLP.PLP>
-28.4620

> <Gold.PLP.part.hbond>
-3.9065

> <Gold.PLP.part.metal>
0.0000

> <Gold.PLP.part.buried>
-6.3824

> <Gold.PLP.part.nonpolar>
-17.7336

> <Gold.PLP.part.repulsive>
0.4744

> <Gold.PLP.ligand.clash>
0.0000

> <Gold.PLP.ligand.torsion>
0.0926

> <Gold.PLP.Chemscore.Hbond>
2.2416

> <Gold.PLP.Chemscore.CHOScore>
0.0000

> <Gold.PLP.Chemscore.Metal>
0.0000

> <Gold.Chemscore.Hbonds>
donor molecule, donor type, donor heavy atom, donor atom, acceptor molecule, acceptor atom, score
      L1  H     7    24       P1 10175  0.98
      L1  H    10    25       P1 10175  1.00
      P1  H  8011  8017       L1     3  0.26

> <Gold.PLP.Chemscore.Internal.Correction>
0.0111

> <Gold.Rescore>
     Score         DG    S(hbond)    S(metal)    S(lipo)     H(rot)  DE(clash)    DE(int)     intcor
     11.34     -14.02       1.96        0.00      38.92       1.00       0.24       2.44       ----

> <Gold.Chemscore.Fitness>
11.3414

> <Gold.Chemscore.DG>
-14.0249

> <Gold.Chemscore.ZeroCoef>
-5.4800

> <Gold.Chemscore.Hbond>
1.9615

> <Gold.Chemscore.Metal>
0.0000

> <Gold.Chemscore.Lipo>
38.9187

> <Gold.Chemscore.Internal_Hbond>
0.0000

> <Gold.Chemscore.DEClash>
0.2396

> <Gold.Chemscore.DEInternal>
2.4439

> <Gold.Chemscore.Rot>
1.0000

> <Gold.Chemscore.Internal.Correction>
   9.000000E+99

> <Gold.Chemscore.Hbonds>
donor molecule, donor type, donor heavy atom, donor atom, acceptor molecule, acceptor atom, score
      L1  H     7    24       P1 10175  0.88
      L1  H    10    25       P1 10175  1.00
      P1  H  8011  8017       L1     3  0.03

> <Gold.Chemscore.Hbond.Weighted>
-6.5514

> <Gold.Chemscore.Metal.Weighted>
-0.0000

> <Gold.Chemscore.Lipo.Weighted>
-4.5535

> <Gold.Chemscore.Internal_Hbond.Weighted>
0.0000

> <Gold.Chemscore.DEClash.Weighted>
0.2396

> <Gold.Chemscore.DEInternal.Weighted>
2.4439

> <Gold.Chemscore.Rot.Weighted>
2.5600

> <Gold.Chemscore.Internal.Correction.Weighted>
   9.000000E+99

> <Gold.Protein.RotatedTorsions>
[ 6907 6896 6895 6894 ] final   66.69 input  -60.11 | X-H torsion
[ 7974 7965 7964 7962 ] final -157.60 input  175.53 | X-H torsion
[ 8008 7997 7996 7995 ] final   81.32 input   59.86 | X-H torsion
[ 10167 10162 10161 10158 ] final  111.61 input  -65.29 | X-H torsion
[ 10718 10713 10712 10709 ] final -108.91 input   66.30 | X-H torsion
[ 10763 10752 10751 10750 ] final -177.41 input  -60.55 | X-H torsion
[ 11005 11000 10999 10996 ] final  110.59 input  -57.11 | X-H torsion

> <Gold.Protein.ActiveResidues>
 VAL166  LYS551  ARG553  GLY616  TRP617  ASP618  TYR619  PRO620  LYS621  CYS622 
 ASP623  PHE694  ASN695  SER759  ASP760  ASP761  ALA762  ILE779  LEU786  VAL792 
 PHE793  MET794  SER795  GLU796  ALA797  LYS798  CYS799  TRP800  GLU811  SER814 

> <Gold.Protein.RotatedAtoms>
  152.4499  134.5416  159.9840 H   0  0  0  0  0  0  0  0  0  0  0  0  # atno 6907 bound_to 6896
  151.5491  133.3414  159.2957 H   0  0  0  0  0  0  0  0  0  0  0  0  # atno 6908 bound_to 6896
  150.8425  134.7754  159.7007 H   0  0  0  0  0  0  0  0  0  0  0  0  # atno 6909 bound_to 6896
  144.7541  140.3946  143.6025 H   0  0  0  0  0  0  0  0  0  0  0  0  # atno 7974 bound_to 7965
  155.8955  140.3436  155.5987 H   0  0  0  0  0  0  0  0  0  0  0  0  # atno 8008 bound_to 7997
  155.7561  140.0826  157.2197 H   0  0  0  0  0  0  0  0  0  0  0  0  # atno 8009 bound_to 7997
  154.4038  140.1544  156.2767 H   0  0  0  0  0  0  0  0  0  0  0  0  # atno 8010 bound_to 7997
  139.6598  144.7129  151.1886 H   0  0  0  0  0  0  0  0  0  0  0  0  # atno 10167 bound_to 10162
  156.0509  130.5737  150.8027 H   0  0  0  0  0  0  0  0  0  0  0  0  # atno 10718 bound_to 10713
  154.5605  135.2820  155.0924 H   0  0  0  0  0  0  0  0  0  0  0  0  # atno 10763 bound_to 10752
  154.2335  135.6370  153.5187 H   0  0  0  0  0  0  0  0  0  0  0  0  # atno 10764 bound_to 10752
  153.0028  135.5543  154.6197 H   0  0  0  0  0  0  0  0  0  0  0  0  # atno 10765 bound_to 10752
  139.8885  134.9488  156.6302 H   0  0  0  0  0  0  0  0  0  0  0  0  # atno 11005 bound_to 11000
  145.6840  139.1624  143.2684 LP  0  0  0  0  0  0  0  0  0  0  0  0  # atno 17320 bound_to 7965
  146.1530  140.6899  142.9313 LP  0  0  0  0  0  0  0  0  0  0  0  0  # atno 17321 bound_to 7965
  140.7575  143.6012  150.8698 LP  0  0  0  0  0  0  0  0  0  0  0  0  # atno 17342 bound_to 10162
  139.9668  143.6101  152.2986 LP  0  0  0  0  0  0  0  0  0  0  0  0  # atno 17343 bound_to 10162
  157.5435  131.0941  150.9795 LP  0  0  0  0  0  0  0  0  0  0  0  0  # atno 17370 bound_to 10713
  157.0072  130.5622  149.5317 LP  0  0  0  0  0  0  0  0  0  0  0  0  # atno 17371 bound_to 10713
  140.7672  133.8768  155.8463 LP  0  0  0  0  0  0  0  0  0  0  0  0  # atno 17394 bound_to 11000
  140.9872  134.1326  157.4441 LP  0  0  0  0  0  0  0  0  0  0  0  0  # atno 17395 bound_to 11000

$$$$
