#       Name:                AV-unprocessed.smi:867
#       Creating user name   scv26
#       Creation time:       Fri Mar 27 01:48:13 2020


#       File generated by GOLD software.
#

@<TRIPOS>MOLECULE
AV-unprocessed.smi:867
    56    59     1
SMALL
NO_CHARGES


@<TRIPOS>ATOM
      1 ****         1.3581   0.7750  -2.3835 O.2            1 S1                 0.0000
      2 ****         0.6948  -0.2099  -2.0571 C.2            1 S1                 0.0000
      3 ****         1.2198  -1.4467  -2.0257 N.am           1 S1                 0.0000
      4 ****         2.6025  -1.7792  -2.3479 C.3            1 S1                 0.0000
      5 ****         3.5432  -1.4918  -1.1665 C.3            1 S1                 0.0000
      6 ****         4.9866  -1.8201  -1.4940 C.ar           1 S1                 0.0000
      7 ****         5.8302  -0.8445  -2.0702 C.ar           1 S1                 0.0000
      8 ****         7.1679  -1.1769  -2.3695 C.ar           1 S1                 0.0000
      9 ****         7.6317  -2.4780  -2.0866 C.ar           1 S1                 0.0000
     10 ****         6.7950  -3.3852  -1.5360 N.pl3          1 S1                 1.0000
     11 ****         5.5077  -3.1063  -1.2343 C.ar           1 S1                 0.0000
     12 ****        -0.6288  -0.1496  -1.7675 N.am           1 S1                 0.0000
     13 ****        -1.3998  -1.1571  -1.0302 C.3            1 S1                 0.0000
     14 ****        -1.6702  -0.6304   0.3904 C.3            1 S1                 0.0000
     15 ****        -2.3756   0.6868   0.3778 N.4            1 S1                 1.0000
     16 ****        -2.6396   1.1914   1.7612 C.3            1 S1                 0.0000
     17 ****        -3.5946   0.2585   2.5541 C.3            1 S1                 0.0000
     18 ****        -4.7042   1.2027   3.0442 C.3            1 S1                 0.0000
     19 ****        -4.1399   2.1532   4.1130 C.3            1 S1                 0.0000
     20 ****        -3.2578   3.1009   3.2819 C.3            1 S1                 0.0000
     21 ****        -3.4024   2.5447   1.8511 C.3            1 S1                 0.0000
     22 ****        -4.8673   2.1224   1.8417 C.3            1 S1                 0.0000
     23 ****        -1.6911   1.6716  -0.5117 C.3            1 S1                 0.0000
     24 ****        -1.3998   1.0862  -1.9059 C.3            1 S1                 0.0000
     25 ****         0.6118  -2.2138  -1.7776 H              1 S1                 0.0000
     26 ****         2.6445  -2.8371  -2.6088 H              1 S1                 0.0000
     27 ****         2.9204  -1.2288  -3.2352 H              1 S1                 0.0000
     28 ****         3.4801  -0.4417  -0.8775 H              1 S1                 0.0000
     29 ****         3.2351  -2.0691  -0.2939 H              1 S1                 0.0000
     30 ****         5.4574   0.1473  -2.2827 H              1 S1                 0.0000
     31 ****         7.8279  -0.4443  -2.8108 H              1 S1                 0.0000
     32 ****         8.6379  -2.8180  -2.2835 H              1 S1                 0.0000
     33 ****         4.9386  -3.9156  -0.7999 H              1 S1                 0.0000
     34 ****        -2.3432  -1.3370  -1.5481 H              1 S1                 0.0000
     35 ****        -0.9111  -2.1296  -0.9708 H              1 S1                 0.0000
     36 ****        -2.2490  -1.3776   0.9314 H              1 S1                 0.0000
     37 ****        -0.7244  -0.5251   0.9247 H              1 S1                 0.0000
     38 ****        -1.6793   1.2799   2.2724 H              1 S1                 0.0000
     39 ****        -4.0451  -0.5040   1.9178 H              1 S1                 0.0000
     40 ****        -3.0891  -0.2517   3.3749 H              1 S1                 0.0000
     41 ****        -5.6124   0.6853   3.3549 H              1 S1                 0.0000
     42 ****        -4.9402   2.7071   4.6055 H              1 S1                 0.0000
     43 ****        -3.5758   1.6231   4.8815 H              1 S1                 0.0000
     44 ****        -3.6391   4.1215   3.3386 H              1 S1                 0.0000
     45 ****        -2.2223   3.1156   3.6237 H              1 S1                 0.0000
     46 ****        -3.1411   3.2993   1.1131 H              1 S1                 0.0000
     47 ****        -5.1628   1.6001   0.9302 H              1 S1                 0.0000
     48 ****        -5.5582   2.9483   2.0212 H              1 S1                 0.0000
     49 ****        -2.3066   2.5559  -0.6599 H              1 S1                 0.0000
     50 ****        -0.7614   1.9986  -0.0433 H              1 S1                 0.0000
     51 ****        -0.8940   1.8291  -2.5249 H              1 S1                 0.0000
     52 ****        -2.3363   0.8669  -2.4212 H              1 S1                 0.0000
     53 ****        -3.2789   0.5196  -0.0418 H              1 S1                 0.0000
     54 ****         7.1508  -4.3215  -1.3405 H              1 S1                 0.0000
     55 ****         2.3198   0.6687  -2.6362 LP             1 S1                 0.0000
     56 ****         0.9350   1.6810  -2.3958 LP             1 S1                 0.0000
@<TRIPOS>BOND
    1    1    2 2     
    2    2    3 am    
    3    2   12 am    
    4    3    4 1     
    5    3   25 1     
    6    4    5 1     
    7    4   26 1     
    8    4   27 1     
    9    5    6 1     
   10    5   28 1     
   11    5   29 1     
   12    6   11 ar    
   13    6    7 ar    
   14    7    8 ar    
   15    7   30 1     
   16    8    9 ar    
   17    8   31 1     
   18    9   10 ar    
   19    9   32 1     
   20   10   11 ar    
   21   10   54 1     
   22   11   33 1     
   23   12   24 1     
   24   12   13 1     
   25   13   14 1     
   26   13   34 1     
   27   13   35 1     
   28   14   15 1     
   29   14   36 1     
   30   14   37 1     
   31   15   16 1     
   32   15   23 1     
   33   15   53 1     
   34   16   21 1     
   35   16   17 1     
   36   16   38 1     
   37   17   18 1     
   38   17   39 1     
   39   17   40 1     
   40   18   22 1     
   41   18   19 1     
   42   18   41 1     
   43   19   20 1     
   44   19   42 1     
   45   19   43 1     
   46   20   21 1     
   47   20   44 1     
   48   20   45 1     
   49   21   22 1     
   50   21   46 1     
   51   22   47 1     
   52   22   48 1     
   53   23   24 1     
   54   23   49 1     
   55   23   50 1     
   56   24   51 1     
   57   24   52 1     
   58    1   55 1     
   59    1   56 1     
@<TRIPOS>SUBSTRUCTURE
      1 S1             1
@<TRIPOS>SET
LONE_PAIRS      STATIC     ATOMS    <user>   **** ""
2 55 56
DONOR_HYDROGENS      STATIC     ATOMS    <user>   **** ""
3 25 54 53
ATOM$BLUE        STATIC     ATOMS    COLORGROUP SYSTEM
2 55 56
ATOM$RED        STATIC     ATOMS    COLORGROUP SYSTEM
3 25 54 53
