AV-unprocessed.smi:1708|AV-procd|sdf|6889|dock7
  -GOLD-   22720 8 93D 1   1.00000     0.00000
 Structure written by MMmdl.
 36 38  0  0  0  0  0  0  0  0  1 V2000
  153.8823  140.0550  160.1813 C   0  0  0  0  0  0  0  0  0  0  0  0
  153.0312  141.0304  159.5108 N   0  0  0  0  0  0  0  0  0  0  0  0
  152.4687  140.9161  158.2854 C   0  0  0  0  0  0  0  0  0  0  0  0
  152.5811  139.9568  157.5225 O   0  0  0  0  0  0  0  0  0  0  0  0
  151.7427  142.0348  158.0503 N   0  0  0  0  0  0  0  0  0  0  0  0
  150.9381  142.3062  156.8580 C   0  0  0  0  0  0  0  0  0  0  0  0
  150.2928  141.0280  156.2800 C   0  0  2  0  0  0  0  0  0  0  0  0
  151.2174  140.4191  155.4025 O   0  0  0  0  0  0  0  0  0  0  0  0
  148.9507  141.2966  155.6118 C   0  0  0  0  0  0  0  0  0  0  0  0
  148.7825  141.0815  154.2261 C   0  0  0  0  0  0  0  0  0  0  0  0
  147.5483  141.3621  153.6090 C   0  0  0  0  0  0  0  0  0  0  0  0
  146.4753  141.8598  154.3729 C   0  0  0  0  0  0  0  0  0  0  0  0
  146.6371  142.0765  155.7547 C   0  0  0  0  0  0  0  0  0  0  0  0
  145.6075  142.5595  156.4893 F   0  0  0  0  0  0  0  0  0  0  0  0
  147.8707  141.7946  156.3725 C   0  0  0  0  0  0  0  0  0  0  0  0
  151.8374  142.8856  159.1633 C   0  0  0  0  0  0  0  0  0  0  0  0
  151.2635  144.1426  159.4251 C   0  0  0  0  0  0  0  0  0  0  0  0
  151.5506  144.7376  160.6758 C   0  0  0  0  0  0  0  0  0  0  0  0
  152.3846  144.0825  161.6188 C   0  0  0  0  0  0  0  0  0  0  0  0
  152.9484  142.8175  161.3310 C   0  0  0  0  0  0  0  0  0  0  0  0
  152.6463  142.2498  160.0815 C   0  0  0  0  0  0  0  0  0  0  0  0
  154.1316  139.2139  159.5332 H   0  0  0  0  0  0  0  0  0  0  0  0
  153.3791  139.6630  161.0654 H   0  0  0  0  0  0  0  0  0  0  0  0
  154.8152  140.5222  160.4974 H   0  0  0  0  0  0  0  0  0  0  0  0
  150.1663  143.0371  157.1002 H   0  0  0  0  0  0  0  0  0  0  0  0
  151.5675  142.7798  156.1027 H   0  0  0  0  0  0  0  0  0  0  0  0
  150.1322  140.3198  157.0940 H   0  0  0  0  0  0  0  0  0  0  0  0
  152.0367  140.3090  155.8605 H   0  0  0  0  0  0  0  0  0  0  0  0
  149.6037  140.7105  153.6304 H   0  0  0  0  0  0  0  0  0  0  0  0
  147.4260  141.1988  152.5484 H   0  0  0  0  0  0  0  0  0  0  0  0
  145.5296  142.0768  153.8988 H   0  0  0  0  0  0  0  0  0  0  0  0
  147.9889  141.9729  157.4314 H   0  0  0  0  0  0  0  0  0  0  0  0
  150.6249  144.6371  158.7087 H   0  0  0  0  0  0  0  0  0  0  0  0
  151.1279  145.7019  160.9165 H   0  0  0  0  0  0  0  0  0  0  0  0
  152.5897  144.5543  162.5683 H   0  0  0  0  0  0  0  0  0  0  0  0
  153.5814  142.3105  162.0440 H   0  0  0  0  0  0  0  0  0  0  0  0
  1  2  1  0  0  0  0
  1 22  1  0  0  0  0
  1 23  1  0  0  0  0
  1 24  1  0  0  0  0
  2 21  1  0  0  0  0
  2  3  1  0  0  0  0
  3  4  2  0  0  0  0
  3  5  1  0  0  0  0
  5  6  1  0  0  0  0
  5 16  1  0  0  0  0
  6  7  1  0  0  0  0
  6 25  1  0  0  0  0
  6 26  1  0  0  0  0
  7  8  1  0  0  0  0
  7  9  1  0  0  0  0
  7 27  1  0  0  0  0
  8 28  1  0  0  0  0
  9 15  1  0  0  0  0
  9 10  2  0  0  0  0
 10 11  1  0  0  0  0
 10 29  1  0  0  0  0
 11 12  2  0  0  0  0
 11 30  1  0  0  0  0
 12 13  1  0  0  0  0
 12 31  1  0  0  0  0
 13 14  1  0  0  0  0
 13 15  2  0  0  0  0
 15 32  1  0  0  0  0
 16 21  2  0  0  0  0
 16 17  1  0  0  0  0
 17 18  2  0  0  0  0
 17 33  1  0  0  0  0
 18 19  1  0  0  0  0
 18 34  1  0  0  0  0
 19 20  2  0  0  0  0
 19 35  1  0  0  0  0
 20 21  1  0  0  0  0
 20 36  1  0  0  0  0
M  END
> <s_m_source_file>
AV-unprocessed.smi

> <i_m_source_file_index>
1708

> <i_lp_mmshare_version>
43012

> <i_f3d_flags>
0

> <s_epik_input>
W2NIXTFbY0hdW2NIXVtjSF1jKGMxMiluKFtDSDNdKWMoPU8pbjJbQ0gyXVtDQEhdKFtPSF0pYzNbY0hdW2NIXVtjSF1jKEYpW2NIXTM=

> <s_epik_cmdline>
J2VwaWtfcHl0aG9uJywgJy1waCcsICc3LjAnLCAnLXRuJywgJzgnLCAnLW1hJywgJzIwMCcsICctbWV0YWxfYmluZGluZycsICctaW1hZScsICc8aW5maWxlLm1hZT4nLCAnLW9tYWUnLCAnPG91dGZpbGUubWFlPic=

> <r_lp_tautomer_probability>
1

> <r_epik_Ionization_Penalty>
3.53466e-06

> <r_epik_Ionization_Penalty_Charging>
2.57375e-09

> <r_epik_Ionization_Penalty_Neutral>
3.53208e-06

> <r_epik_State_Penalty>
-0

> <r_epik_Charging_Adjusted_Penalty>
2.57375e-09

> <i_epik_Tot_Q>
0

> <i_epik_Tot_abs_Q>
0

> <r_epik_Metal_State_Penalty>
-0

> <b_epik_Metal_Only>
0

> <s_lp_Force_Field>
OPLS_2005

> <r_lp_Energy>
39.7129

> <b_lp_Chiralities_Consistent>
1

> <s_lp_Variant>
AV-unprocessed.smi:1708-1

> <Gold.Version>
5.8.1

> <Gold.Id.Protein>
6NUR|6NUR_protein|mol2

> <Gold.PLP.Fitness>
54.0501

> <Gold.PLP.PLP>
-49.7072

> <Gold.PLP.part.hbond>
-2.0000

> <Gold.PLP.part.metal>
0.0000

> <Gold.PLP.part.buried>
-5.5718

> <Gold.PLP.part.nonpolar>
-41.8880

> <Gold.PLP.part.repulsive>
0.0000

> <Gold.PLP.ligand.clash>
0.0000

> <Gold.PLP.ligand.torsion>
0.7550

> <Gold.PLP.Chemscore.Hbond>
1.9440

> <Gold.PLP.Chemscore.CHOScore>
0.0000

> <Gold.PLP.Chemscore.Metal>
0.0000

> <Gold.Chemscore.Hbonds>
donor molecule, donor type, donor heavy atom, donor atom, acceptor molecule, acceptor atom, score
      P1  H  7989  7998       L1     8  0.94
      P1  H  7997  8009       L1     4  1.00

> <Gold.PLP.Chemscore.Internal.Correction>
0.0210

> <Gold.Rescore>
     Score         DG    S(hbond)    S(metal)    S(lipo)     H(rot)  DE(clash)    DE(int)     intcor
     18.87     -21.01       1.76        0.00     122.98       1.85       0.07       2.07       ----

> <Gold.Chemscore.Fitness>
18.8731

> <Gold.Chemscore.DG>
-21.0105

> <Gold.Chemscore.ZeroCoef>
-5.4800

> <Gold.Chemscore.Hbond>
1.7570

> <Gold.Chemscore.Metal>
0.0000

> <Gold.Chemscore.Lipo>
122.9836

> <Gold.Chemscore.Internal_Hbond>
0.0000

> <Gold.Chemscore.DEClash>
0.0651

> <Gold.Chemscore.DEInternal>
2.0722

> <Gold.Chemscore.Rot>
1.8465

> <Gold.Chemscore.Internal.Correction>
   9.000000E+99

> <Gold.Chemscore.Hbonds>
donor molecule, donor type, donor heavy atom, donor atom, acceptor molecule, acceptor atom, score
      P1  H  7989  7998       L1     8  0.53
      P1  H  7997  8009       L1     4  0.53

> <Gold.Chemscore.Hbond.Weighted>
-5.8685

> <Gold.Chemscore.Metal.Weighted>
-0.0000

> <Gold.Chemscore.Lipo.Weighted>
-14.3891

> <Gold.Chemscore.Internal_Hbond.Weighted>
0.0000

> <Gold.Chemscore.DEClash.Weighted>
0.0651

> <Gold.Chemscore.DEInternal.Weighted>
2.0722

> <Gold.Chemscore.Rot.Weighted>
4.7270

> <Gold.Chemscore.Internal.Correction.Weighted>
   9.000000E+99

> <Gold.Protein.RotatedTorsions>
[ 6907 6896 6895 6894 ] final  -19.28 input  -60.11 | X-H torsion
[ 7974 7965 7964 7962 ] final -126.16 input  175.53 | X-H torsion
[ 8008 7997 7996 7995 ] final  176.03 input   59.86 | X-H torsion
[ 10167 10162 10161 10158 ] final  -95.35 input  -65.29 | X-H torsion
[ 10718 10713 10712 10709 ] final  171.91 input   66.30 | X-H torsion
[ 10763 10752 10751 10750 ] final   68.18 input  -60.55 | X-H torsion
[ 11005 11000 10999 10996 ] final -115.49 input  -57.11 | X-H torsion

> <Gold.Protein.ActiveResidues>
 VAL166  LYS551  ARG553  GLY616  TRP617  ASP618  TYR619  PRO620  LYS621  CYS622 
 ASP623  PHE694  ASN695  SER759  ASP760  ASP761  ALA762  ILE779  LEU786  VAL792 
 PHE793  MET794  SER795  GLU796  ALA797  LYS798  CYS799  TRP800  GLU811  SER814 

> <Gold.Protein.RotatedAtoms>
  151.2654  135.0667  159.9113 H   0  0  0  0  0  0  0  0  0  0  0  0  # atno 6907 bound_to 6896
  152.5359  134.0186  159.7982 H   0  0  0  0  0  0  0  0  0  0  0  0  # atno 6908 bound_to 6896
  151.0416  133.5651  159.2681 H   0  0  0  0  0  0  0  0  0  0  0  0  # atno 6909 bound_to 6896
  144.9901  140.7724  143.4559 H   0  0  0  0  0  0  0  0  0  0  0  0  # atno 7974 bound_to 7965
  156.0808  140.1394  156.9715 H   0  0  0  0  0  0  0  0  0  0  0  0  # atno 8008 bound_to 7997
  154.4584  140.0952  156.6872 H   0  0  0  0  0  0  0  0  0  0  0  0  # atno 8009 bound_to 7997
  155.5079  140.3453  155.4385 H   0  0  0  0  0  0  0  0  0  0  0  0  # atno 8010 bound_to 7997
  140.3050  143.3139  152.0208 H   0  0  0  0  0  0  0  0  0  0  0  0  # atno 10167 bound_to 10162
  156.9867  131.0135  151.2867 H   0  0  0  0  0  0  0  0  0  0  0  0  # atno 10718 bound_to 10713
  153.0222  135.5257  154.7094 H   0  0  0  0  0  0  0  0  0  0  0  0  # atno 10763 bound_to 10752
  154.6180  135.2886  155.0360 H   0  0  0  0  0  0  0  0  0  0  0  0  # atno 10764 bound_to 10752
  154.1357  135.6586  153.4984 H   0  0  0  0  0  0  0  0  0  0  0  0  # atno 10765 bound_to 10752
  141.0484  133.9726  157.2878 H   0  0  0  0  0  0  0  0  0  0  0  0  # atno 11005 bound_to 11000
  145.2297  139.2120  143.5049 LP  0  0  0  0  0  0  0  0  0  0  0  0  # atno 17320 bound_to 7965
  146.3429  140.2172  142.8591 LP  0  0  0  0  0  0  0  0  0  0  0  0  # atno 17321 bound_to 7965
  139.4906  144.6427  151.6843 LP  0  0  0  0  0  0  0  0  0  0  0  0  # atno 17342 bound_to 10162
  140.5618  144.0256  150.6173 LP  0  0  0  0  0  0  0  0  0  0  0  0  # atno 17343 bound_to 10162
  157.5488  130.8168  149.8119 LP  0  0  0  0  0  0  0  0  0  0  0  0  # atno 17370 bound_to 10713
  156.0223  130.3791  150.1925 LP  0  0  0  0  0  0  0  0  0  0  0  0  # atno 17371 bound_to 10713
  139.9330  135.0198  156.8464 LP  0  0  0  0  0  0  0  0  0  0  0  0  # atno 17394 bound_to 11000
  140.6102  134.0089  155.7574 LP  0  0  0  0  0  0  0  0  0  0  0  0  # atno 17395 bound_to 11000

$$$$
