AV-unprocessed.smi:2588|AV-procd|sdf|10149|dock4
  -GOLD-   2272014163D 1   1.00000     0.00000
 Structure written by MMmdl.
 40 41  0  0  0  0  0  0  0  0  2 V2000
  145.7882  134.3943  151.5273 C   0  0  0  0  0  0  0  0  0  0  0  0
  145.7435  135.5807  152.5136 C   0  0  0  0  0  0  0  0  0  0  0  0
  145.5095  136.8741  151.7040 C   0  0  0  0  0  0  0  0  0  0  0  0
  146.9671  135.6561  153.3784 N   0  3  2  0  0  0  0  0  0  0  0  0
  147.2774  134.3738  154.0783 C   0  0  0  0  0  0  0  0  0  0  0  0
  148.5857  134.4480  154.8890 C   0  0  0  0  0  0  0  0  0  0  0  0
  148.5769  135.6033  155.8984 C   0  0  2  0  0  0  0  0  0  0  0  0
  147.6252  135.3304  156.9742 N   0  0  0  0  0  0  0  0  0  0  0  0
  147.9351  135.1752  158.2702 C   0  0  0  0  0  0  0  0  0  0  0  0
  149.0887  135.2000  158.6989 O   0  0  0  0  0  0  0  0  0  0  0  0
  146.7597  134.9521  159.2275 C   0  0  0  0  0  0  0  0  0  0  0  0
  147.1308  135.2166  160.6175 N   0  0  0  0  0  0  0  0  0  0  0  0
  146.6864  134.3622  161.5779 N   0  0  0  0  0  0  0  0  0  0  0  0
  147.0934  134.7120  162.7417 C   0  0  0  0  0  0  0  0  0  0  0  0
  148.0936  136.1690  162.8137 S   0  0  0  0  0  0  0  0  0  0  0  0
  147.9146  136.2868  161.0416 C   0  0  0  0  0  0  0  0  0  0  0  0
  148.4216  137.1802  160.3643 O   0  0  0  0  0  0  0  0  0  0  0  0
  148.2466  136.9044  155.1461 C   0  0  0  0  0  0  0  0  0  0  0  0
  146.9378  136.7931  154.3451 C   0  0  0  0  0  0  0  0  0  0  0  0
  144.9536  134.4348  150.8265 H   0  0  0  0  0  0  0  0  0  0  0  0
  145.7059  133.4317  152.0307 H   0  0  0  0  0  0  0  0  0  0  0  0
  146.7077  134.3981  150.9412 H   0  0  0  0  0  0  0  0  0  0  0  0
  144.8807  135.4373  153.1660 H   0  0  0  0  0  0  0  0  0  0  0  0
  144.6937  136.7490  150.9913 H   0  0  0  0  0  0  0  0  0  0  0  0
  146.3979  137.1559  151.1376 H   0  0  0  0  0  0  0  0  0  0  0  0
  145.2243  137.7149  152.3359 H   0  0  0  0  0  0  0  0  0  0  0  0
  146.4429  134.1037  154.7272 H   0  0  0  0  0  0  0  0  0  0  0  0
  147.3977  133.5608  153.3648 H   0  0  0  0  0  0  0  0  0  0  0  0
  148.7612  133.5012  155.4018 H   0  0  0  0  0  0  0  0  0  0  0  0
  149.4234  134.5778  154.2024 H   0  0  0  0  0  0  0  0  0  0  0  0
  149.5706  135.6869  156.3420 H   0  0  0  0  0  0  0  0  0  0  0  0
  146.6503  135.2748  156.7168 H   0  0  0  0  0  0  0  0  0  0  0  0
  145.9197  135.5937  158.9551 H   0  0  0  0  0  0  0  0  0  0  0  0
  146.4117  133.9240  159.1148 H   0  0  0  0  0  0  0  0  0  0  0  0
  146.8806  134.1983  163.6791 H   0  0  0  0  0  0  0  0  0  0  0  0
  148.1884  137.7474  155.8351 H   0  0  0  0  0  0  0  0  0  0  0  0
  149.0632  137.1381  154.4616 H   0  0  0  0  0  0  0  0  0  0  0  0
  146.8070  137.7411  153.8274 H   0  0  0  0  0  0  0  0  0  0  0  0
  146.0869  136.6801  155.0189 H   0  0  0  0  0  0  0  0  0  0  0  0
  147.7423  135.8347  152.7558 H   0  0  0  0  0  0  0  0  0  0  0  0
  1  2  1  0  0  0  0
  1 20  1  0  0  0  0
  1 21  1  0  0  0  0
  1 22  1  0  0  0  0
  2  3  1  0  0  0  0
  2  4  1  0  0  0  0
  2 23  1  0  0  0  0
  3 24  1  0  0  0  0
  3 25  1  0  0  0  0
  3 26  1  0  0  0  0
  4 19  1  0  0  0  0
  4  5  1  0  0  0  0
  4 40  1  0  0  0  0
  5  6  1  0  0  0  0
  5 27  1  0  0  0  0
  5 28  1  0  0  0  0
  6  7  1  0  0  0  0
  6 29  1  0  0  0  0
  6 30  1  0  0  0  0
  7  8  1  0  0  0  0
  7 18  1  0  0  0  0
  7 31  1  0  0  0  0
  8  9  1  0  0  0  0
  8 32  1  0  0  0  0
  9 10  2  0  0  0  0
  9 11  1  0  0  0  0
 11 12  1  0  0  0  0
 11 33  1  0  0  0  0
 11 34  1  0  0  0  0
 12 16  1  0  0  0  0
 12 13  1  0  0  0  0
 13 14  2  0  0  0  0
 14 15  1  0  0  0  0
 14 35  1  0  0  0  0
 15 16  1  0  0  0  0
 16 17  2  0  0  0  0
 18 19  1  0  0  0  0
 18 36  1  0  0  0  0
 18 37  1  0  0  0  0
 19 38  1  0  0  0  0
 19 39  1  0  0  0  0
M  CHG  1   4   1
M  END
> <s_m_source_file>
AV-unprocessed.smi

> <i_m_source_file_index>
2588

> <i_lp_mmshare_version>
43012

> <i_f3d_flags>
0

> <s_epik_input>
W0NIM11bQ0hdKFtDSDNdKU4xW0NIMl1bQ0gyXVtDSF0oW0NIMl1bQ0gyXTEpW05IXUMoPU8pW0NIMl1uMm5bY0hdc2MyPU8=

> <s_epik_cmdline>
J2VwaWtfcHl0aG9uJywgJy1waCcsICc3LjAnLCAnLXRuJywgJzgnLCAnLW1hJywgJzIwMCcsICctbWV0YWxfYmluZGluZycsICctaW1hZScsICc8aW5maWxlLm1hZT4nLCAnLW9tYWUnLCAnPG91dGZpbGUubWFlPic=

> <r_lp_tautomer_probability>
1

> <r_epik_Ionization_Penalty>
0.00923155

> <r_epik_Ionization_Penalty_Charging>
0.00923117

> <r_epik_Ionization_Penalty_Neutral>
3.88423e-07

> <r_epik_State_Penalty>
0.0069994

> <r_epik_Charging_Adjusted_Penalty>
0.0162306

> <i_epik_Tot_Q>
1

> <i_epik_Tot_abs_Q>
1

> <r_epik_Metal_State_Penalty>
0.0069994

> <b_epik_Metal_Only>
0

> <s_lp_Force_Field>
OPLS_2005

> <r_lp_Energy>
20.7245

> <b_lp_Chiralities_Consistent>
1

> <s_lp_Variant>
AV-unprocessed.smi:2588-2

> <Gold.Version>
5.8.1

> <Gold.Id.Protein>
6NUR|6NUR_protein|mol2

> <Gold.PLP.Fitness>
41.2539

> <Gold.PLP.PLP>
-30.1384

> <Gold.PLP.part.hbond>
-3.8201

> <Gold.PLP.part.metal>
0.0000

> <Gold.PLP.part.buried>
-4.0608

> <Gold.PLP.part.nonpolar>
-22.7955

> <Gold.PLP.part.repulsive>
0.0125

> <Gold.PLP.ligand.clash>
0.0000

> <Gold.PLP.ligand.torsion>
0.5265

> <Gold.PLP.Chemscore.Hbond>
4.0436

> <Gold.PLP.Chemscore.CHOScore>
0.0000

> <Gold.PLP.Chemscore.Metal>
0.0000

> <Gold.Chemscore.Hbonds>
donor molecule, donor type, donor heavy atom, donor atom, acceptor molecule, acceptor atom, score
      L1  H     4    40       P1  7948  2.00
      P1  H  6896  6907       L1    10  1.00
      P1  H  6931  6943       L1    17  0.55
      P1  H  6934  6947       L1    17  0.22

> <Gold.PLP.Chemscore.Internal.Correction>
0.0376

> <Gold.Rescore>
     Score         DG    S(hbond)    S(metal)    S(lipo)     H(rot)  DE(clash)    DE(int)     intcor
     16.40     -16.80       2.98        0.00      52.69       1.88       0.02       0.38       ----

> <Gold.Chemscore.Fitness>
16.4015

> <Gold.Chemscore.DG>
-16.7976

> <Gold.Chemscore.ZeroCoef>
-5.4800

> <Gold.Chemscore.Hbond>
2.9804

> <Gold.Chemscore.Metal>
0.0000

> <Gold.Chemscore.Lipo>
52.6881

> <Gold.Chemscore.Internal_Hbond>
0.0000

> <Gold.Chemscore.DEClash>
0.0207

> <Gold.Chemscore.DEInternal>
0.3754

> <Gold.Chemscore.Rot>
1.8756

> <Gold.Chemscore.Internal.Correction>
   9.000000E+99

> <Gold.Chemscore.Hbonds>
donor molecule, donor type, donor heavy atom, donor atom, acceptor molecule, acceptor atom, score
      L1  H     4    40       P1  7948  0.95
      P1  H  6896  6907       L1    10  1.00
      P1  H  6931  6943       L1    17  0.08
      P1  H  6934  6947       L1    17  0.10

> <Gold.Chemscore.Hbond.Weighted>
-9.9546

> <Gold.Chemscore.Metal.Weighted>
-0.0000

> <Gold.Chemscore.Lipo.Weighted>
-6.1645

> <Gold.Chemscore.Internal_Hbond.Weighted>
0.0000

> <Gold.Chemscore.DEClash.Weighted>
0.0207

> <Gold.Chemscore.DEInternal.Weighted>
0.3754

> <Gold.Chemscore.Rot.Weighted>
4.8015

> <Gold.Chemscore.Internal.Correction.Weighted>
   9.000000E+99

> <Gold.Protein.RotatedTorsions>
[ 6907 6896 6895 6894 ] final  -72.53 input  -60.11 | X-H torsion
[ 7974 7965 7964 7962 ] final   19.81 input  175.53 | X-H torsion
[ 8008 7997 7996 7995 ] final   92.41 input   59.86 | X-H torsion
[ 10167 10162 10161 10158 ] final -142.96 input  -65.29 | X-H torsion
[ 10718 10713 10712 10709 ] final   21.15 input   66.30 | X-H torsion
[ 10763 10752 10751 10750 ] final   -6.12 input  -60.55 | X-H torsion
[ 11005 11000 10999 10996 ] final  100.01 input  -57.11 | X-H torsion

> <Gold.Protein.ActiveResidues>
 VAL166  LYS551  ARG553  GLY616  TRP617  ASP618  TYR619  PRO620  LYS621  CYS622 
 ASP623  PHE694  ASN695  SER759  ASP760  ASP761  ALA762  ILE779  LEU786  VAL792 
 PHE793  MET794  SER795  GLU796  ALA797  LYS798  CYS799  TRP800  GLU811  SER814 

> <Gold.Protein.RotatedAtoms>
  150.7166  134.5149  159.5625 H   0  0  0  0  0  0  0  0  0  0  0  0  # atno 6907 bound_to 6896
  152.2718  134.7922  160.0422 H   0  0  0  0  0  0  0  0  0  0  0  0  # atno 6908 bound_to 6896
  151.8599  133.3420  159.3737 H   0  0  0  0  0  0  0  0  0  0  0  0  # atno 6909 bound_to 6896
  146.2135  139.8260  142.8670 H   0  0  0  0  0  0  0  0  0  0  0  0  # atno 7974 bound_to 7965
  156.0350  140.3326  155.7181 H   0  0  0  0  0  0  0  0  0  0  0  0  # atno 8008 bound_to 7997
  155.5828  140.0638  157.2796 H   0  0  0  0  0  0  0  0  0  0  0  0  # atno 8009 bound_to 7997
  154.4369  140.1841  156.0982 H   0  0  0  0  0  0  0  0  0  0  0  0  # atno 8010 bound_to 7997
  139.8038  143.7796  152.2660 H   0  0  0  0  0  0  0  0  0  0  0  0  # atno 10167 bound_to 10162
  157.1345  130.6605  149.5962 H   0  0  0  0  0  0  0  0  0  0  0  0  # atno 10718 bound_to 10713
  153.4079  135.7007  153.6380 H   0  0  0  0  0  0  0  0  0  0  0  0  # atno 10763 bound_to 10752
  153.4886  135.3678  155.2480 H   0  0  0  0  0  0  0  0  0  0  0  0  # atno 10764 bound_to 10752
  154.8715  135.4083  154.3426 H   0  0  0  0  0  0  0  0  0  0  0  0  # atno 10765 bound_to 10752
  139.8771  134.9121  156.4691 H   0  0  0  0  0  0  0  0  0  0  0  0  # atno 11005 bound_to 11000
  145.3047  141.0204  143.3588 LP  0  0  0  0  0  0  0  0  0  0  0  0  # atno 17320 bound_to 7965
  144.8980  139.4687  143.6646 LP  0  0  0  0  0  0  0  0  0  0  0  0  # atno 17321 bound_to 7965
  139.7924  144.7405  150.9936 LP  0  0  0  0  0  0  0  0  0  0  0  0  # atno 17342 bound_to 10162
  140.7819  143.4428  151.0526 LP  0  0  0  0  0  0  0  0  0  0  0  0  # atno 17343 bound_to 10162
  155.9801  130.4799  150.6754 LP  0  0  0  0  0  0  0  0  0  0  0  0  # atno 17370 bound_to 10713
  157.4363  131.0855  151.0988 LP  0  0  0  0  0  0  0  0  0  0  0  0  # atno 17371 bound_to 10713
  140.8808  133.7919  155.9465 LP  0  0  0  0  0  0  0  0  0  0  0  0  # atno 17394 bound_to 11000
  140.8856  134.2558  157.5122 LP  0  0  0  0  0  0  0  0  0  0  0  0  # atno 17395 bound_to 11000

$$$$
