AV-unprocessed.smi:1289|AV-procd|sdf|5387|dock7
  -GOLD-   22720 4533D 1   1.00000     0.00000
 Structure written by MMmdl.
 38 40  0  0  0  0  0  0  0  0  2 V2000
  144.9785  132.1393  161.2069 N   0  0  0  0  0  0  0  0  0  0  0  0
  145.6425  133.0591  160.9795 C   0  0  0  0  0  0  0  0  0  0  0  0
  146.4768  134.2144  160.6941 C   0  0  0  0  0  0  0  0  0  0  0  0
  146.0943  135.4928  161.1457 C   0  0  0  0  0  0  0  0  0  0  0  0
  146.9066  136.6095  160.8694 C   0  0  0  0  0  0  0  0  0  0  0  0
  148.1065  136.4687  160.1426 C   0  0  0  0  0  0  0  0  0  0  0  0
  148.8391  137.6144  159.9194 O   0  0  0  0  0  0  0  0  0  0  0  0
  150.1611  137.4829  159.4112 C   0  0  0  0  0  0  0  0  0  0  0  0
  150.5359  138.7310  158.5952 C   0  0  2  0  0  0  0  0  0  0  0  0
  151.8849  138.6318  158.1851 O   0  0  0  0  0  0  0  0  0  0  0  0
  150.2578  140.0569  159.3321 C   0  0  0  0  0  0  0  0  0  0  0  0
  150.1007  141.1950  158.4157 N   0  0  0  0  0  0  0  0  0  0  0  0
  150.1091  141.2210  157.0553 C   0  0  0  0  0  0  0  0  0  0  0  0
  149.9184  142.5122  156.6668 N   0  3  0  0  0  0  0  0  0  0  0  0
  149.7843  143.3239  157.7952 C   0  0  0  0  0  0  0  0  0  0  0  0
  149.5757  144.6948  157.9113 C   0  0  0  0  0  0  0  0  0  0  0  0
  149.4859  145.2128  159.2200 C   0  0  0  0  0  0  0  0  0  0  0  0
  149.6035  144.3778  160.3502 C   0  0  0  0  0  0  0  0  0  0  0  0
  149.8147  142.9893  160.2207 C   0  0  0  0  0  0  0  0  0  0  0  0
  149.9006  142.4843  158.9235 C   0  0  0  0  0  0  0  0  0  0  0  0
  148.4838  135.1790  159.6899 C   0  0  0  0  0  0  0  0  0  0  0  0
  147.6726  134.0607  159.9651 C   0  0  0  0  0  0  0  0  0  0  0  0
  145.1792  135.6246  161.7051 H   0  0  0  0  0  0  0  0  0  0  0  0
  146.6055  137.5859  161.2202 H   0  0  0  0  0  0  0  0  0  0  0  0
  150.8795  137.3272  160.2181 H   0  0  0  0  0  0  0  0  0  0  0  0
  150.2040  136.6113  158.7560 H   0  0  0  0  0  0  0  0  0  0  0  0
  149.9432  138.7158  157.6797 H   0  0  0  0  0  0  0  0  0  0  0  0
  152.0954  137.7185  158.0654 H   0  0  0  0  0  0  0  0  0  0  0  0
  149.3314  139.9744  159.9017 H   0  0  0  0  0  0  0  0  0  0  0  0
  151.0401  140.2874  160.0554 H   0  0  0  0  0  0  0  0  0  0  0  0
  150.2413  140.3706  156.4017 H   0  0  0  0  0  0  0  0  0  0  0  0
  149.4860  145.3367  157.0472 H   0  0  0  0  0  0  0  0  0  0  0  0
  149.3241  146.2719  159.3597 H   0  0  0  0  0  0  0  0  0  0  0  0
  149.5311  144.8110  161.3373 H   0  0  0  0  0  0  0  0  0  0  0  0
  149.9081  142.3601  161.0938 H   0  0  0  0  0  0  0  0  0  0  0  0
  149.3919  135.0197  159.1288 H   0  0  0  0  0  0  0  0  0  0  0  0
  147.9756  133.0851  159.6128 H   0  0  0  0  0  0  0  0  0  0  0  0
  149.8817  142.8142  155.7014 H   0  0  0  0  0  0  0  0  0  0  0  0
  1  2  3  0  0  0  0
  2  3  1  0  0  0  0
  3 22  1  0  0  0  0
  3  4  2  0  0  0  0
  4  5  1  0  0  0  0
  4 23  1  0  0  0  0
  5  6  2  0  0  0  0
  5 24  1  0  0  0  0
  6  7  1  0  0  0  0
  6 21  1  0  0  0  0
  7  8  1  0  0  0  0
  8  9  1  0  0  0  0
  8 25  1  0  0  0  0
  8 26  1  0  0  0  0
  9 10  1  0  0  0  0
  9 11  1  0  0  0  0
  9 27  1  0  0  0  0
 10 28  1  0  0  0  0
 11 12  1  0  0  0  0
 11 29  1  0  0  0  0
 11 30  1  0  0  0  0
 12 20  1  0  0  0  0
 12 13  1  0  0  0  0
 13 14  2  0  0  0  0
 13 31  1  0  0  0  0
 14 15  1  0  0  0  0
 14 38  1  0  0  0  0
 15 20  2  0  0  0  0
 15 16  1  0  0  0  0
 16 17  2  0  0  0  0
 16 32  1  0  0  0  0
 17 18  1  0  0  0  0
 17 33  1  0  0  0  0
 18 19  2  0  0  0  0
 18 34  1  0  0  0  0
 19 20  1  0  0  0  0
 19 35  1  0  0  0  0
 21 22  2  0  0  0  0
 21 36  1  0  0  0  0
 22 37  1  0  0  0  0
M  CHG  1  14   1
M  END
> <s_m_source_file>
AV-unprocessed.smi

> <i_m_source_file_index>
1289

> <i_lp_mmshare_version>
43012

> <i_f3d_flags>
0

> <s_epik_input>
TiNDYzFbY0hdW2NIXWMoW2NIXVtjSF0xKU9bQ0gyXVtDQEhdKFtPSF0pW0NIMl1uKFtjSF1uMiljKGMyMylbY0hdW2NIXVtjSF1bY0hdMw==

> <s_epik_cmdline>
J2VwaWtfcHl0aG9uJywgJy1waCcsICc3LjAnLCAnLXRuJywgJzgnLCAnLW1hJywgJzIwMCcsICctbWV0YWxfYmluZGluZycsICctaW1hZScsICc8aW5maWxlLm1hZT4nLCAnLW9tYWUnLCAnPG91dGZpbGUubWFlPic=

> <r_epik_Ionization_Penalty>
1.39523

> <r_epik_Ionization_Penalty_Charging>
1.39523

> <r_epik_Ionization_Penalty_Neutral>
2.3993e-06

> <r_epik_State_Penalty>
1.47691

> <r_epik_Charging_Adjusted_Penalty>
2.87215

> <i_epik_Tot_Q>
1

> <i_epik_Tot_abs_Q>
1

> <r_epik_Metal_State_Penalty>
5.51858

> <b_epik_Metal_Only>
0

> <s_lp_Force_Field>
OPLS_2005

> <r_lp_Energy>
21.3748

> <b_lp_Chiralities_Consistent>
1

> <s_lp_Variant>
AV-unprocessed.smi:1289-3

> <Gold.Version>
5.8.1

> <Gold.Id.Protein>
6NUR|6NUR_protein|mol2

> <Gold.PLP.Fitness>
50.5143

> <Gold.PLP.PLP>
-45.4655

> <Gold.PLP.part.hbond>
-3.0000

> <Gold.PLP.part.metal>
0.0000

> <Gold.PLP.part.buried>
-1.0620

> <Gold.PLP.part.nonpolar>
-40.7803

> <Gold.PLP.part.repulsive>
0.1300

> <Gold.PLP.ligand.clash>
0.0000

> <Gold.PLP.ligand.torsion>
0.5271

> <Gold.PLP.Chemscore.Hbond>
2.0000

> <Gold.PLP.Chemscore.CHOScore>
0.0000

> <Gold.PLP.Chemscore.Metal>
0.0000

> <Gold.Chemscore.Hbonds>
donor molecule, donor type, donor heavy atom, donor atom, acceptor molecule, acceptor atom, score
      L1  H    14    38       P1  8028  0.22
      P1  H  6931  6943       L1     7  0.28
      P1  H  6934  6947       L1     7  0.03

> <Gold.PLP.Chemscore.Internal.Correction>
0.1031

> <Gold.Rescore>
     Score         DG    S(hbond)    S(metal)    S(lipo)     H(rot)  DE(clash)    DE(int)     intcor
     15.36     -15.96       0.99        0.00     117.84       2.58       0.18       0.43       ----

> <Gold.Chemscore.Fitness>
15.3570

> <Gold.Chemscore.DG>
-15.9649

> <Gold.Chemscore.ZeroCoef>
-5.4800

> <Gold.Chemscore.Hbond>
0.9884

> <Gold.Chemscore.Metal>
0.0000

> <Gold.Chemscore.Lipo>
117.8449

> <Gold.Chemscore.Internal_Hbond>
0.0000

> <Gold.Chemscore.DEClash>
0.1829

> <Gold.Chemscore.DEInternal>
0.4250

> <Gold.Chemscore.Rot>
2.5798

> <Gold.Chemscore.Internal.Correction>
   9.000000E+99

> <Gold.Chemscore.Hbonds>
donor molecule, donor type, donor heavy atom, donor atom, acceptor molecule, acceptor atom, score
      L1  H    14    38       P1  8028  0.12
      P1  H  6931  6943       L1     7  0.03

> <Gold.Chemscore.Hbond.Weighted>
-3.3013

> <Gold.Chemscore.Metal.Weighted>
-0.0000

> <Gold.Chemscore.Lipo.Weighted>
-13.7879

> <Gold.Chemscore.Internal_Hbond.Weighted>
0.0000

> <Gold.Chemscore.DEClash.Weighted>
0.1829

> <Gold.Chemscore.DEInternal.Weighted>
0.4250

> <Gold.Chemscore.Rot.Weighted>
6.6043

> <Gold.Chemscore.Internal.Correction.Weighted>
   9.000000E+99

> <Gold.Protein.RotatedTorsions>
[ 6907 6896 6895 6894 ] final  -36.31 input  -60.11 | X-H torsion
[ 7974 7965 7964 7962 ] final   90.37 input  175.53 | X-H torsion
[ 8008 7997 7996 7995 ] final -139.08 input   59.86 | X-H torsion
[ 10167 10162 10161 10158 ] final  -87.38 input  -65.29 | X-H torsion
[ 10718 10713 10712 10709 ] final  117.31 input   66.30 | X-H torsion
[ 10763 10752 10751 10750 ] final -112.74 input  -60.55 | X-H torsion
[ 11005 11000 10999 10996 ] final  135.05 input  -57.11 | X-H torsion

> <Gold.Protein.ActiveResidues>
 VAL166  LYS551  ARG553  GLY616  TRP617  ASP618  TYR619  PRO620  LYS621  CYS622 
 ASP623  PHE694  ASN695  SER759  ASP760  ASP761  ALA762  ILE779  LEU786  VAL792 
 PHE793  MET794  SER795  GLU796  ALA797  LYS798  CYS799  TRP800  GLU811  SER814 

> <Gold.Protein.RotatedAtoms>
  151.0288  134.9524  159.8099 H   0  0  0  0  0  0  0  0  0  0  0  0  # atno 6907 bound_to 6896
  152.5341  134.2807  159.9016 H   0  0  0  0  0  0  0  0  0  0  0  0  # atno 6908 bound_to 6896
  151.2816  133.4164  159.2661 H   0  0  0  0  0  0  0  0  0  0  0  0  # atno 6909 bound_to 6896
  145.5199  139.2279  143.2677 H   0  0  0  0  0  0  0  0  0  0  0  0  # atno 7974 bound_to 7965
  155.4390  140.0530  157.3012 H   0  0  0  0  0  0  0  0  0  0  0  0  # atno 8008 bound_to 7997
  154.4826  140.2088  155.9685 H   0  0  0  0  0  0  0  0  0  0  0  0  # atno 8009 bound_to 7997
  156.1228  140.3185  155.8238 H   0  0  0  0  0  0  0  0  0  0  0  0  # atno 8010 bound_to 7997
  140.3850  143.2731  151.9336 H   0  0  0  0  0  0  0  0  0  0  0  0  # atno 10167 bound_to 10162
  157.6105  131.1035  150.7596 H   0  0  0  0  0  0  0  0  0  0  0  0  # atno 10718 bound_to 10713
  154.8364  135.4480  154.1240 H   0  0  0  0  0  0  0  0  0  0  0  0  # atno 10763 bound_to 10752
  153.2469  135.6922  153.7728 H   0  0  0  0  0  0  0  0  0  0  0  0  # atno 10764 bound_to 10752
  153.7055  135.3365  155.3210 H   0  0  0  0  0  0  0  0  0  0  0  0  # atno 10765 bound_to 10752
  139.9954  134.9499  156.9952 H   0  0  0  0  0  0  0  0  0  0  0  0  # atno 11005 bound_to 11000
  146.2113  140.6010  142.9058 LP  0  0  0  0  0  0  0  0  0  0  0  0  # atno 17320 bound_to 7965
  144.7682  140.5577  143.6689 LP  0  0  0  0  0  0  0  0  0  0  0  0  # atno 17321 bound_to 7965
  139.4792  144.5782  151.7976 LP  0  0  0  0  0  0  0  0  0  0  0  0  # atno 17342 bound_to 10162
  140.4898  144.1327  150.5948 LP  0  0  0  0  0  0  0  0  0  0  0  0  # atno 17343 bound_to 10162
  156.7975  130.4910  149.5375 LP  0  0  0  0  0  0  0  0  0  0  0  0  # atno 17370 bound_to 10713
  156.1206  130.6107  151.0187 LP  0  0  0  0  0  0  0  0  0  0  0  0  # atno 17371 bound_to 10713
  140.4828  134.1272  155.7219 LP  0  0  0  0  0  0  0  0  0  0  0  0  # atno 17394 bound_to 11000
  141.1600  133.8811  157.1874 LP  0  0  0  0  0  0  0  0  0  0  0  0  # atno 17395 bound_to 11000

$$$$
