AV-unprocessed.smi:3187|AV-procd|sdf|12175|dock7
  -GOLD-   2272018 13D 1   1.00000     0.00000
 Structure written by MMmdl.
 41 42  0  0  0  0  0  0  0  0  2 V2000
  152.2649  144.9369  158.1706 C   0  0  0  0  0  0  0  0  0  0  0  0
  152.4200  144.0694  159.4091 C   0  0  0  0  0  0  0  0  0  0  0  0
  152.1972  144.5764  160.6378 C   0  0  0  0  0  0  0  0  0  0  0  0
  152.3791  143.8117  161.9374 C   0  0  0  0  0  0  0  0  0  0  0  0
  152.6700  142.3173  161.7237 C   0  0  0  0  0  0  0  0  0  0  0  0
  153.5662  142.0885  160.4945 C   0  0  1  0  0  0  0  0  0  0  0  0
  154.0601  140.6344  160.4017 C   0  0  0  0  0  0  0  0  0  0  0  0
  152.8855  142.6216  159.2017 C   0  0  1  0  0  0  0  0  0  0  0  0
  151.7410  141.7031  158.6980 C   0  0  0  0  0  0  0  0  0  0  0  0
  151.2202  142.1047  157.3765 N   0  3  0  0  0  0  0  0  0  0  0  0
  150.0537  141.3223  156.9251 C   0  0  0  0  0  0  0  0  0  0  0  0
  150.1225  141.0501  155.4166 C   0  0  0  0  0  0  0  0  0  0  0  0
  150.8545  139.8326  155.1320 N   0  0  0  0  0  0  0  0  0  0  0  0
  150.5713  138.8945  154.1481 C   0  0  0  0  0  0  0  0  0  0  0  0
  151.5264  137.9090  154.2585 C   0  0  0  0  0  0  0  0  0  0  0  0
  152.4010  138.2188  155.2973 N   0  0  0  0  0  0  0  0  0  0  0  0
  151.9413  139.3713  155.7660 C   0  0  0  0  0  0  0  0  0  0  0  0
  153.1395  144.8449  157.5262 H   0  0  0  0  0  0  0  0  0  0  0  0
  152.1637  145.9888  158.4402 H   0  0  0  0  0  0  0  0  0  0  0  0
  151.3788  144.6649  157.5996 H   0  0  0  0  0  0  0  0  0  0  0  0
  151.8948  145.6083  160.7426 H   0  0  0  0  0  0  0  0  0  0  0  0
  153.2092  144.2729  162.4731 H   0  0  0  0  0  0  0  0  0  0  0  0
  151.4937  143.9372  162.5612 H   0  0  0  0  0  0  0  0  0  0  0  0
  153.1387  141.9098  162.6204 H   0  0  0  0  0  0  0  0  0  0  0  0
  151.7322  141.7747  161.6025 H   0  0  0  0  0  0  0  0  0  0  0  0
  154.4631  142.6924  160.6440 H   0  0  0  0  0  0  0  0  0  0  0  0
  153.2359  139.9212  160.4030 H   0  0  0  0  0  0  0  0  0  0  0  0
  154.6958  140.3886  161.2528 H   0  0  0  0  0  0  0  0  0  0  0  0
  154.6484  140.4738  159.4981 H   0  0  0  0  0  0  0  0  0  0  0  0
  153.6588  142.6416  158.4320 H   0  0  0  0  0  0  0  0  0  0  0  0
  152.0865  140.6750  158.6001 H   0  0  0  0  0  0  0  0  0  0  0  0
  150.9197  141.6961  159.4152 H   0  0  0  0  0  0  0  0  0  0  0  0
  150.9552  143.0782  157.4226 H   0  0  0  0  0  0  0  0  0  0  0  0
  150.0193  140.3805  157.4746 H   0  0  0  0  0  0  0  0  0  0  0  0
  149.1405  141.8695  157.1634 H   0  0  0  0  0  0  0  0  0  0  0  0
  149.1194  140.9576  154.9978 H   0  0  0  0  0  0  0  0  0  0  0  0
  150.6096  141.8774  154.8983 H   0  0  0  0  0  0  0  0  0  0  0  0
  149.7374  139.0009  153.4697 H   0  0  0  0  0  0  0  0  0  0  0  0
  151.6501  137.0077  153.6765 H   0  0  0  0  0  0  0  0  0  0  0  0
  152.4045  139.8904  156.5924 H   0  0  0  0  0  0  0  0  0  0  0  0
  151.9601  142.0029  156.6964 H   0  0  0  0  0  0  0  0  0  0  0  0
  1  2  1  0  0  0  0
  1 18  1  0  0  0  0
  1 19  1  0  0  0  0
  1 20  1  0  0  0  0
  2  8  1  0  0  0  0
  2  3  2  0  0  0  0
  3  4  1  0  0  0  0
  3 21  1  0  0  0  0
  4  5  1  0  0  0  0
  4 22  1  0  0  0  0
  4 23  1  0  0  0  0
  5  6  1  0  0  0  0
  5 24  1  0  0  0  0
  5 25  1  0  0  0  0
  6  7  1  0  0  0  0
  6  8  1  0  0  0  0
  6 26  1  0  0  0  0
  7 27  1  0  0  0  0
  7 28  1  0  0  0  0
  7 29  1  0  0  0  0
  8  9  1  0  0  0  0
  8 30  1  0  0  0  0
  9 10  1  0  0  0  0
  9 31  1  0  0  0  0
  9 32  1  0  0  0  0
 10 11  1  0  0  0  0
 10 33  1  0  0  0  0
 10 41  1  0  0  0  0
 11 12  1  0  0  0  0
 11 34  1  0  0  0  0
 11 35  1  0  0  0  0
 12 13  1  0  0  0  0
 12 36  1  0  0  0  0
 12 37  1  0  0  0  0
 13 17  1  0  0  0  0
 13 14  1  0  0  0  0
 14 15  2  0  0  0  0
 14 38  1  0  0  0  0
 15 16  1  0  0  0  0
 15 39  1  0  0  0  0
 16 17  2  0  0  0  0
 17 40  1  0  0  0  0
M  CHG  1  10   1
M  END
> <s_m_source_file>
AV-unprocessed.smi

> <i_m_source_file_index>
3187

> <i_lp_mmshare_version>
43012

> <i_f3d_flags>
0

> <s_epik_input>
W0NIM11DMT1bQ0hdW0NIMl1bQ0gyXVtDQEBIXShbQ0gzXSlbQ0BIXTFbQ0gyXVtOSF1bQ0gyXVtDSDJdbjJbY0hdW2NIXW5bY0hdMg==

> <s_epik_cmdline>
J2VwaWtfcHl0aG9uJywgJy1waCcsICc3LjAnLCAnLXRuJywgJzgnLCAnLW1hJywgJzIwMCcsICctbWV0YWxfYmluZGluZycsICctaW1hZScsICc8aW5maWxlLm1hZT4nLCAnLW9tYWUnLCAnPG91dGZpbGUubWFlPic=

> <r_lp_tautomer_probability>
1

> <r_epik_Ionization_Penalty>
0.0501625

> <r_epik_Ionization_Penalty_Charging>
0.0501625

> <r_epik_Ionization_Penalty_Neutral>
0

> <r_epik_State_Penalty>
0.0972392

> <r_epik_Charging_Adjusted_Penalty>
0.147402

> <i_epik_Tot_Q>
1

> <i_epik_Tot_abs_Q>
1

> <r_epik_Metal_State_Penalty>
0.000104376

> <b_epik_Metal_Only>
0

> <s_lp_Force_Field>
OPLS_2005

> <r_lp_Energy>
16.942

> <b_lp_Chiralities_Consistent>
1

> <s_lp_Variant>
AV-unprocessed.smi:3187-1

> <Gold.Version>
5.8.1

> <Gold.Id.Protein>
6NUR|6NUR_protein|mol2

> <Gold.PLP.Fitness>
53.6510

> <Gold.PLP.PLP>
-49.2185

> <Gold.PLP.part.hbond>
0.0000

> <Gold.PLP.part.metal>
0.0000

> <Gold.PLP.part.buried>
-4.3995

> <Gold.PLP.part.nonpolar>
-44.4418

> <Gold.PLP.part.repulsive>
0.0679

> <Gold.PLP.ligand.clash>
0.0000

> <Gold.PLP.ligand.torsion>
0.7792

> <Gold.PLP.Chemscore.Hbond>
0.0000

> <Gold.PLP.Chemscore.CHOScore>
1.9898

> <Gold.PLP.Chemscore.Metal>
0.0000

> <Gold.Chemscore.Hbonds>
donor molecule, donor type, donor heavy atom, donor atom, acceptor molecule, acceptor atom, score
      L1  C    14    38       P1  7957  1.00
      L1  C    15    39       P1  7949  1.00

> <Gold.PLP.Chemscore.Internal.Correction>
0.0216

> <Gold.Rescore>
     Score         DG    S(hbond)    S(metal)    S(lipo)     H(rot)  DE(clash)    DE(int)     intcor
     15.34     -16.30       0.00        0.00     133.72       1.89       0.37       0.59       ----

> <Gold.Chemscore.Fitness>
15.3404

> <Gold.Chemscore.DG>
-16.2993

> <Gold.Chemscore.ZeroCoef>
-5.4800

> <Gold.Chemscore.Hbond>
0.0000

> <Gold.Chemscore.Metal>
0.0000

> <Gold.Chemscore.Lipo>
133.7229

> <Gold.Chemscore.Internal_Hbond>
0.0000

> <Gold.Chemscore.DEClash>
0.3689

> <Gold.Chemscore.DEInternal>
0.5900

> <Gold.Chemscore.Rot>
1.8853

> <Gold.Chemscore.Internal.Correction>
   9.000000E+99

> <Gold.Chemscore.Hbond.Weighted>
-0.0000

> <Gold.Chemscore.Metal.Weighted>
-0.0000

> <Gold.Chemscore.Lipo.Weighted>
-15.6456

> <Gold.Chemscore.Internal_Hbond.Weighted>
0.0000

> <Gold.Chemscore.DEClash.Weighted>
0.3689

> <Gold.Chemscore.DEInternal.Weighted>
0.5900

> <Gold.Chemscore.Rot.Weighted>
4.8263

> <Gold.Chemscore.Internal.Correction.Weighted>
   9.000000E+99

> <Gold.Protein.RotatedTorsions>
[ 6907 6896 6895 6894 ] final -106.76 input  -60.11 | X-H torsion
[ 7974 7965 7964 7962 ] final   88.22 input  175.53 | X-H torsion
[ 8008 7997 7996 7995 ] final   98.27 input   59.86 | X-H torsion
[ 10167 10162 10161 10158 ] final  -94.51 input  -65.29 | X-H torsion
[ 10718 10713 10712 10709 ] final -127.79 input   66.30 | X-H torsion
[ 10763 10752 10751 10750 ] final  -11.24 input  -60.55 | X-H torsion
[ 11005 11000 10999 10996 ] final -102.01 input  -57.11 | X-H torsion

> <Gold.Protein.ActiveResidues>
 VAL166  LYS551  ARG553  GLY616  TRP617  ASP618  TYR619  PRO620  LYS621  CYS622 
 ASP623  PHE694  ASN695  SER759  ASP760  ASP761  ALA762  ILE779  LEU786  VAL792 
 PHE793  MET794  SER795  GLU796  ALA797  LYS798  CYS799  TRP800  GLU811  SER814 

> <Gold.Protein.RotatedAtoms>
  150.7406  133.9928  159.3612 H   0  0  0  0  0  0  0  0  0  0  0  0  # atno 6907 bound_to 6896
  151.7877  135.0742  160.0392 H   0  0  0  0  0  0  0  0  0  0  0  0  # atno 6908 bound_to 6896
  152.3229  133.5837  159.5793 H   0  0  0  0  0  0  0  0  0  0  0  0  # atno 6909 bound_to 6896
  145.5486  139.2294  143.2525 H   0  0  0  0  0  0  0  0  0  0  0  0  # atno 7974 bound_to 7965
  156.0987  140.3246  155.7913 H   0  0  0  0  0  0  0  0  0  0  0  0  # atno 8008 bound_to 7997
  155.4873  140.0558  157.2976 H   0  0  0  0  0  0  0  0  0  0  0  0  # atno 8009 bound_to 7997
  154.4683  140.1999  156.0076 H   0  0  0  0  0  0  0  0  0  0  0  0  # atno 8010 bound_to 7997
  140.3137  143.3090  152.0121 H   0  0  0  0  0  0  0  0  0  0  0  0  # atno 10167 bound_to 10162
  156.1890  130.6783  151.0401 H   0  0  0  0  0  0  0  0  0  0  0  0  # atno 10718 bound_to 10713
  153.4808  135.7017  153.5939 H   0  0  0  0  0  0  0  0  0  0  0  0  # atno 10763 bound_to 10752
  153.4153  135.3838  155.2076 H   0  0  0  0  0  0  0  0  0  0  0  0  # atno 10764 bound_to 10752
  154.8721  135.3914  154.4258 H   0  0  0  0  0  0  0  0  0  0  0  0  # atno 10765 bound_to 10752
  141.1207  133.8524  157.1305 H   0  0  0  0  0  0  0  0  0  0  0  0  # atno 11005 bound_to 11000
  146.1932  140.6308  142.9136 LP  0  0  0  0  0  0  0  0  0  0  0  0  # atno 17320 bound_to 7965
  144.7541  140.5263  143.6781 LP  0  0  0  0  0  0  0  0  0  0  0  0  # atno 17321 bound_to 7965
  139.4888  144.6365  151.6965 LP  0  0  0  0  0  0  0  0  0  0  0  0  # atno 17342 bound_to 10162
  140.5545  144.0370  150.6142 LP  0  0  0  0  0  0  0  0  0  0  0  0  # atno 17343 bound_to 10162
  157.6917  131.0807  150.7087 LP  0  0  0  0  0  0  0  0  0  0  0  0  # atno 17370 bound_to 10713
  156.7144  130.4661  149.5539 LP  0  0  0  0  0  0  0  0  0  0  0  0  # atno 17371 bound_to 10713
  140.0162  134.9966  157.0498 LP  0  0  0  0  0  0  0  0  0  0  0  0  # atno 17394 bound_to 11000
  140.4516  134.1577  155.7182 LP  0  0  0  0  0  0  0  0  0  0  0  0  # atno 17395 bound_to 11000

$$$$
