AV-unprocessed.smi:19|AV-procd|sdf|112|dock3
  -GOLD-   2262015273D 1   1.00000     0.00000
 Structure written by MMmdl.
 57 60  0  0  0  0  0  0  0  0  1 V2000
  146.0386  137.4927  162.1286 C   0  0  0  0  0  0  0  0  0  0  0  0
  147.4099  137.2006  161.9249 O   0  0  0  0  0  0  0  0  0  0  0  0
  147.7561  135.8915  162.3490 C   0  0  0  0  0  0  0  0  0  0  0  0
  147.1838  134.8519  161.3751 C   0  0  1  0  0  0  0  0  0  0  0  0
  148.0949  134.5995  160.1595 C   0  0  0  0  0  0  0  0  0  0  0  0
  147.5406  133.5362  159.3299 N   0  0  0  0  0  0  0  0  0  0  0  0
  148.0842  133.4354  158.0898 C   0  0  0  0  0  0  0  0  0  0  0  0
  149.3933  133.0944  157.9468 N   0  0  0  0  0  0  0  0  0  0  0  0
  149.9403  133.0064  156.7313 C   0  0  0  0  0  0  0  0  0  0  0  0
  149.3688  133.2086  155.5433 N   0  0  0  0  0  0  0  0  0  0  0  0
  148.0518  133.5356  155.6754 C   0  0  0  0  0  0  0  0  0  0  0  0
  147.3380  133.6727  156.9002 C   0  0  0  0  0  0  0  0  0  0  0  0
  146.0163  134.0133  156.6394 N   0  0  0  0  0  0  0  0  0  0  0  0
  145.9562  134.0871  155.3383 C   0  0  0  0  0  0  0  0  0  0  0  0
  147.1292  133.7991  154.6765 N   0  0  0  0  0  0  0  0  0  0  0  0
  147.3408  133.8092  153.2348 C   0  0  0  0  0  0  0  0  0  0  0  0
  146.3596  132.9161  152.4176 C   0  0  0  0  0  0  0  0  0  0  0  0
  146.3367  131.4668  152.9827 C   0  0  0  0  0  0  0  0  0  0  0  0
  147.5822  130.8151  152.8361 O   0  0  0  0  0  0  0  0  0  0  0  0
  144.9302  133.5141  152.4693 C   0  0  0  0  0  0  0  0  0  0  0  0
  143.9741  132.8902  151.4349 C   0  0  0  0  0  0  0  0  0  0  0  0
  144.5204  133.0048  150.1277 O   0  0  0  0  0  0  0  0  0  0  0  0
  145.7579  132.3196  149.9869 C   0  0  0  0  0  0  0  0  0  0  0  0
  146.8034  132.9362  150.9325 C   0  0  0  0  0  0  0  0  0  0  0  0
  147.2952  132.3035  160.0745 C   0  0  0  0  0  0  0  0  0  0  0  0
  146.4107  132.5730  161.3075 C   0  0  2  0  0  0  0  0  0  0  0  0
  144.9321  132.8161  160.9578 C   0  0  0  0  0  0  0  0  0  0  0  0
  146.9607  133.6360  162.0889 O   0  0  0  0  0  0  0  0  0  0  0  0
  145.8236  138.5037  161.7827 H   0  0  0  0  0  0  0  0  0  0  0  0
  145.7763  137.4361  163.1859 H   0  0  0  0  0  0  0  0  0  0  0  0
  145.4016  136.8041  161.5719 H   0  0  0  0  0  0  0  0  0  0  0  0
  148.8406  135.7869  162.4086 H   0  0  0  0  0  0  0  0  0  0  0  0
  147.3574  135.7151  163.3493 H   0  0  0  0  0  0  0  0  0  0  0  0
  146.2247  135.2337  161.0248 H   0  0  0  0  0  0  0  0  0  0  0  0
  148.2153  135.5254  159.5989 H   0  0  0  0  0  0  0  0  0  0  0  0
  149.0906  134.2981  160.4874 H   0  0  0  0  0  0  0  0  0  0  0  0
  150.9856  132.7358  156.7068 H   0  0  0  0  0  0  0  0  0  0  0  0
  145.0447  134.3497  154.8212 H   0  0  0  0  0  0  0  0  0  0  0  0
  147.2650  134.8455  152.9026 H   0  0  0  0  0  0  0  0  0  0  0  0
  148.3731  133.5167  153.0394 H   0  0  0  0  0  0  0  0  0  0  0  0
  146.0673  131.4656  154.0389 H   0  0  0  0  0  0  0  0  0  0  0  0
  145.5897  130.8515  152.4845 H   0  0  0  0  0  0  0  0  0  0  0  0
  147.8619  130.8992  151.9374 H   0  0  0  0  0  0  0  0  0  0  0  0
  144.5015  133.4009  153.4655 H   0  0  0  0  0  0  0  0  0  0  0  0
  144.9798  134.5872  152.2790 H   0  0  0  0  0  0  0  0  0  0  0  0
  143.7601  131.8457  151.6630 H   0  0  0  0  0  0  0  0  0  0  0  0
  143.0173  133.4118  151.4559 H   0  0  0  0  0  0  0  0  0  0  0  0
  145.6261  131.2531  150.1724 H   0  0  0  0  0  0  0  0  0  0  0  0
  146.0920  132.4160  148.9538 H   0  0  0  0  0  0  0  0  0  0  0  0
  146.9713  133.9670  150.6175 H   0  0  0  0  0  0  0  0  0  0  0  0
  147.7613  132.4310  150.8059 H   0  0  0  0  0  0  0  0  0  0  0  0
  146.8205  131.5588  159.4341 H   0  0  0  0  0  0  0  0  0  0  0  0
  148.2519  131.8892  160.3959 H   0  0  0  0  0  0  0  0  0  0  0  0
  146.4429  131.6848  161.9391 H   0  0  0  0  0  0  0  0  0  0  0  0
  144.4979  131.9346  160.4852 H   0  0  0  0  0  0  0  0  0  0  0  0
  144.8020  133.6489  160.2674 H   0  0  0  0  0  0  0  0  0  0  0  0
  144.3504  133.0294  161.8546 H   0  0  0  0  0  0  0  0  0  0  0  0
  1  2  1  0  0  0  0
  1 29  1  0  0  0  0
  1 30  1  0  0  0  0
  1 31  1  0  0  0  0
  2  3  1  0  0  0  0
  3  4  1  0  0  0  0
  3 32  1  0  0  0  0
  3 33  1  0  0  0  0
  4 28  1  0  0  0  0
  4  5  1  0  0  0  0
  4 34  1  0  0  0  0
  5  6  1  0  0  0  0
  5 35  1  0  0  0  0
  5 36  1  0  0  0  0
  6  7  1  0  0  0  0
  6 25  1  0  0  0  0
  7 12  1  0  0  0  0
  7  8  2  0  0  0  0
  8  9  1  0  0  0  0
  9 10  2  0  0  0  0
  9 37  1  0  0  0  0
 10 11  1  0  0  0  0
 11 15  1  0  0  0  0
 11 12  2  0  0  0  0
 12 13  1  0  0  0  0
 13 14  2  0  0  0  0
 14 15  1  0  0  0  0
 14 38  1  0  0  0  0
 15 16  1  0  0  0  0
 16 17  1  0  0  0  0
 16 39  1  0  0  0  0
 16 40  1  0  0  0  0
 17 24  1  0  0  0  0
 17 18  1  0  0  0  0
 17 20  1  0  0  0  0
 18 19  1  0  0  0  0
 18 41  1  0  0  0  0
 18 42  1  0  0  0  0
 19 43  1  0  0  0  0
 20 21  1  0  0  0  0
 20 44  1  0  0  0  0
 20 45  1  0  0  0  0
 21 22  1  0  0  0  0
 21 46  1  0  0  0  0
 21 47  1  0  0  0  0
 22 23  1  0  0  0  0
 23 24  1  0  0  0  0
 23 48  1  0  0  0  0
 23 49  1  0  0  0  0
 24 50  1  0  0  0  0
 24 51  1  0  0  0  0
 25 26  1  0  0  0  0
 25 52  1  0  0  0  0
 25 53  1  0  0  0  0
 26 27  1  0  0  0  0
 26 28  1  0  0  0  0
 26 54  1  0  0  0  0
 27 55  1  0  0  0  0
 27 56  1  0  0  0  0
 27 57  1  0  0  0  0
M  END
> <s_m_source_file>
AV-unprocessed.smi

> <i_m_source_file_index>
19

> <i_lp_mmshare_version>
43012

> <i_f3d_flags>
0

> <s_epik_input>
W0NIM11PW0NIMl1bQ0BASF0xW0NIMl1OKFtDSDJdW0NASF0oTzEpW0NIM10pYyhuW2NIXW4yKWMoYzIzKW5bY0hdbjNbQ0gyXUM0KFtDSDJdW09IXSlbQ0gyXVtDSDJdT1tDSDJdW0NIMl00

> <s_epik_cmdline>
J2VwaWtfcHl0aG9uJywgJy1waCcsICc3LjAnLCAnLXRuJywgJzgnLCAnLW1hJywgJzIwMCcsICctbWV0YWxfYmluZGluZycsICctaW1hZScsICc8aW5maWxlLm1hZT4nLCAnLW9tYWUnLCAnPG91dGZpbGUubWFlPic=

> <r_lp_tautomer_probability>
1

> <r_epik_Ionization_Penalty>
6.20357e-05

> <r_epik_Ionization_Penalty_Charging>
0

> <r_epik_Ionization_Penalty_Neutral>
6.20357e-05

> <r_epik_State_Penalty>
-0

> <r_epik_Charging_Adjusted_Penalty>
0

> <i_epik_Tot_Q>
0

> <i_epik_Tot_abs_Q>
0

> <r_epik_Metal_State_Penalty>
-0

> <b_epik_Metal_Only>
0

> <s_lp_Force_Field>
OPLS_2005

> <r_lp_Energy>
39.077

> <b_lp_Chiralities_Consistent>
1

> <s_lp_Variant>
AV-unprocessed.smi:19-4

> <Gold.Version>
5.8.1

> <Gold.Id.Protein>
6NUR|6NUR_protein|mol2

> <Gold.PLP.Fitness>
44.1598

> <Gold.PLP.PLP>
-35.7954

> <Gold.PLP.part.hbond>
-4.0000

> <Gold.PLP.part.metal>
0.0000

> <Gold.PLP.part.buried>
-5.1528

> <Gold.PLP.part.nonpolar>
-26.0320

> <Gold.PLP.part.repulsive>
0.2051

> <Gold.PLP.ligand.clash>
0.0000

> <Gold.PLP.ligand.torsion>
0.5993

> <Gold.PLP.Chemscore.Hbond>
3.0790

> <Gold.PLP.Chemscore.CHOScore>
0.0000

> <Gold.PLP.Chemscore.Metal>
0.0000

> <Gold.Chemscore.Hbonds>
donor molecule, donor type, donor heavy atom, donor atom, acceptor molecule, acceptor atom, score
      L1  H    19    43       P1 10747  1.00
      P1  H  6896  6908       L1     8  0.93
      P1  H  6931  6943       L1     2  0.91

> <Gold.PLP.Chemscore.Internal.Correction>
0.3261

> <Gold.Rescore>
     Score         DG    S(hbond)    S(metal)    S(lipo)     H(rot)  DE(clash)    DE(int)     intcor
     16.82     -17.65       2.74        0.00      88.55       2.87       0.20       0.63       ----

> <Gold.Chemscore.Fitness>
16.8164

> <Gold.Chemscore.DG>
-17.6508

> <Gold.Chemscore.ZeroCoef>
-5.4800

> <Gold.Chemscore.Hbond>
2.7442

> <Gold.Chemscore.Metal>
0.0000

> <Gold.Chemscore.Lipo>
88.5462

> <Gold.Chemscore.Internal_Hbond>
0.0000

> <Gold.Chemscore.DEClash>
0.2044

> <Gold.Chemscore.DEInternal>
0.6300

> <Gold.Chemscore.Rot>
2.8729

> <Gold.Chemscore.Internal.Correction>
   9.000000E+99

> <Gold.Chemscore.Hbonds>
donor molecule, donor type, donor heavy atom, donor atom, acceptor molecule, acceptor atom, score
      L1  H    19    43       P1 10747  0.96
      P1  H  6896  6908       L1     8  0.66
      P1  H  6931  6943       L1     2  0.57

> <Gold.Chemscore.Hbond.Weighted>
-9.1655

> <Gold.Chemscore.Metal.Weighted>
-0.0000

> <Gold.Chemscore.Lipo.Weighted>
-10.3599

> <Gold.Chemscore.Internal_Hbond.Weighted>
0.0000

> <Gold.Chemscore.DEClash.Weighted>
0.2044

> <Gold.Chemscore.DEInternal.Weighted>
0.6300

> <Gold.Chemscore.Rot.Weighted>
7.3546

> <Gold.Chemscore.Internal.Correction.Weighted>
   9.000000E+99

> <Gold.Protein.RotatedTorsions>
[ 6907 6896 6895 6894 ] final  128.46 input  -60.11 | X-H torsion
[ 7974 7965 7964 7962 ] final  -38.89 input  175.53 | X-H torsion
[ 8008 7997 7996 7995 ] final  121.80 input   59.86 | X-H torsion
[ 10167 10162 10161 10158 ] final  -88.15 input  -65.29 | X-H torsion
[ 10718 10713 10712 10709 ] final   74.29 input   66.30 | X-H torsion
[ 10763 10752 10751 10750 ] final  167.78 input  -60.55 | X-H torsion
[ 11005 11000 10999 10996 ] final   45.84 input  -57.11 | X-H torsion

> <Gold.Protein.ActiveResidues>
 VAL166  LYS551  ARG553  GLY616  TRP617  ASP618  TYR619  PRO620  LYS621  CYS622 
 ASP623  PHE694  ASN695  SER759  ASP760  ASP761  ALA762  ILE779  LEU786  VAL792 
 PHE793  MET794  SER795  GLU796  ALA797  LYS798  CYS799  TRP800  GLU811  SER814 

> <Gold.Protein.RotatedAtoms>
  152.3717  133.6428  159.6091 H   0  0  0  0  0  0  0  0  0  0  0  0  # atno 6907 bound_to 6896
  150.7674  133.9259  159.3421 H   0  0  0  0  0  0  0  0  0  0  0  0  # atno 6908 bound_to 6896
  151.7081  135.0919  160.0314 H   0  0  0  0  0  0  0  0  0  0  0  0  # atno 6909 bound_to 6896
  146.0446  140.6563  142.9071 H   0  0  0  0  0  0  0  0  0  0  0  0  # atno 7974 bound_to 7965
  156.2701  140.2800  156.1365 H   0  0  0  0  0  0  0  0  0  0  0  0  # atno 8008 bound_to 7997
  155.0998  140.0389  157.2711 H   0  0  0  0  0  0  0  0  0  0  0  0  # atno 8009 bound_to 7997
  154.6824  140.2611  155.6901 H   0  0  0  0  0  0  0  0  0  0  0  0  # atno 8010 bound_to 7997
  140.3775  143.2764  151.9425 H   0  0  0  0  0  0  0  0  0  0  0  0  # atno 10167 bound_to 10162
  157.6586  130.9670  150.1190 H   0  0  0  0  0  0  0  0  0  0  0  0  # atno 10718 bound_to 10713
  154.3589  135.2753  155.2331 H   0  0  0  0  0  0  0  0  0  0  0  0  # atno 10763 bound_to 10752
  154.4527  135.5927  153.6206 H   0  0  0  0  0  0  0  0  0  0  0  0  # atno 10764 bound_to 10752
  152.9845  135.6046  154.3808 H   0  0  0  0  0  0  0  0  0  0  0  0  # atno 10765 bound_to 10752
  140.1423  134.4567  155.8440 H   0  0  0  0  0  0  0  0  0  0  0  0  # atno 11005 bound_to 11000
  144.7091  140.3970  143.7094 LP  0  0  0  0  0  0  0  0  0  0  0  0  # atno 17320 bound_to 7965
  145.6828  139.1622  143.2691 LP  0  0  0  0  0  0  0  0  0  0  0  0  # atno 17321 bound_to 7965
  139.4798  144.5850  151.7869 LP  0  0  0  0  0  0  0  0  0  0  0  0  # atno 17342 bound_to 10162
  140.4971  144.1224  150.5962 LP  0  0  0  0  0  0  0  0  0  0  0  0  # atno 17343 bound_to 10162
  156.2066  130.3664  149.8721 LP  0  0  0  0  0  0  0  0  0  0  0  0  # atno 17370 bound_to 10713
  156.6611  130.8782  151.3547 LP  0  0  0  0  0  0  0  0  0  0  0  0  # atno 17371 bound_to 10713
  141.2188  133.6838  156.7270 LP  0  0  0  0  0  0  0  0  0  0  0  0  # atno 17394 bound_to 11000
  140.2706  134.8395  157.3844 LP  0  0  0  0  0  0  0  0  0  0  0  0  # atno 17395 bound_to 11000

$$$$
