AV-unprocessed.smi:283|AV-procd|sdf|2153|dock2
  -GOLD-   2262021493D 1   1.00000     0.00000
 Structure written by MMmdl.
 48 51  0  0  0  0  0  0  0  0  1 V2000
  152.1315  139.7374  156.1821 C   0  0  0  0  0  0  0  0  0  0  0  0
  151.0170  140.7288  156.5420 C   0  0  2  0  0  0  0  0  0  0  0  0
  150.5149  141.3741  155.3297 N   0  0  0  0  0  0  0  0  0  0  0  0
  149.2840  141.0944  154.8450 C   0  0  0  0  0  0  0  0  0  0  0  0
  148.4040  142.0844  154.5424 N   0  0  0  0  0  0  0  0  0  0  0  0
  147.1950  141.7804  154.0628 C   0  0  0  0  0  0  0  0  0  0  0  0
  146.6730  140.5761  153.8220 N   0  0  0  0  0  0  0  0  0  0  0  0
  147.5482  139.5759  154.1311 C   0  0  0  0  0  0  0  0  0  0  0  0
  148.8635  139.7541  154.6448 C   0  0  0  0  0  0  0  0  0  0  0  0
  149.4634  138.5178  154.8430 N   0  0  0  0  0  0  0  0  0  0  0  0
  148.5510  137.6611  154.4705 C   0  0  0  0  0  0  0  0  0  0  0  0
  147.3663  138.2095  154.0310 N   0  0  0  0  0  0  0  0  0  0  0  0
  146.1523  137.4725  153.5489 C   0  0  2  0  0  0  0  0  0  0  0  0
  146.3647  136.0966  153.6738 O   0  0  0  0  0  0  0  0  0  0  0  0
  146.2374  135.4529  152.4070 C   0  0  1  0  0  0  0  0  0  0  0  0
  145.6861  134.0342  152.6187 C   0  0  0  0  0  0  0  0  0  0  0  0
  145.4938  133.3829  151.3812 O   0  0  0  0  0  0  0  0  0  0  0  0
  145.3243  136.3944  151.6169 C   0  0  2  0  0  0  0  0  0  0  0  0
  145.4106  136.2284  150.2144 O   0  0  0  0  0  0  0  0  0  0  0  0
  145.8016  137.7650  152.0768 C   0  0  2  0  0  0  0  0  0  0  0  0
  146.8986  138.2468  151.3146 O   0  0  0  0  0  0  0  0  0  0  0  0
  151.4917  141.6986  157.6270 C   0  0  0  0  0  0  0  0  0  0  0  0
  151.4085  143.0932  157.4074 C   0  0  0  0  0  0  0  0  0  0  0  0
  151.8357  144.0022  158.3936 C   0  0  0  0  0  0  0  0  0  0  0  0
  152.3588  143.5256  159.6091 C   0  0  0  0  0  0  0  0  0  0  0  0
  152.4572  142.1402  159.8339 C   0  0  0  0  0  0  0  0  0  0  0  0
  152.0300  141.2254  158.8505 C   0  0  0  0  0  0  0  0  0  0  0  0
  152.1848  139.5346  159.1778 Cl  0  0  0  0  0  0  0  0  0  0  0  0
  145.3588  137.7675  154.2367 H   0  0  0  0  0  0  0  0  0  0  0  0
  147.2261  135.4123  151.9477 H   0  0  0  0  0  0  0  0  0  0  0  0
  144.2890  136.2501  151.9291 H   0  0  0  0  0  0  0  0  0  0  0  0
  145.0036  138.5069  152.0322 H   0  0  0  0  0  0  0  0  0  0  0  0
  152.4606  139.1821  157.0611 H   0  0  0  0  0  0  0  0  0  0  0  0
  153.0004  140.2493  155.7670 H   0  0  0  0  0  0  0  0  0  0  0  0
  151.7884  139.0108  155.4450 H   0  0  0  0  0  0  0  0  0  0  0  0
  150.1839  140.1455  156.9328 H   0  0  0  0  0  0  0  0  0  0  0  0
  151.1025  142.0990  154.9437 H   0  0  0  0  0  0  0  0  0  0  0  0
  146.5548  142.6213  153.8408 H   0  0  0  0  0  0  0  0  0  0  0  0
  148.7182  136.5945  154.5089 H   0  0  0  0  0  0  0  0  0  0  0  0
  146.3931  133.4447  153.2029 H   0  0  0  0  0  0  0  0  0  0  0  0
  144.7484  134.0553  153.1746 H   0  0  0  0  0  0  0  0  0  0  0  0
  144.6671  133.6638  151.0191 H   0  0  0  0  0  0  0  0  0  0  0  0
  144.8359  136.8587  149.8069 H   0  0  0  0  0  0  0  0  0  0  0  0
  147.6537  137.7117  151.5055 H   0  0  0  0  0  0  0  0  0  0  0  0
  151.0126  143.4756  156.4782 H   0  0  0  0  0  0  0  0  0  0  0  0
  151.7618  145.0650  158.2166 H   0  0  0  0  0  0  0  0  0  0  0  0
  152.6868  144.2216  160.3671 H   0  0  0  0  0  0  0  0  0  0  0  0
  152.8639  141.7777  160.7666 H   0  0  0  0  0  0  0  0  0  0  0  0
  1  2  1  0  0  0  0
  1 33  1  0  0  0  0
  1 34  1  0  0  0  0
  1 35  1  0  0  0  0
  2  3  1  0  0  0  0
  2 22  1  0  0  0  0
  2 36  1  0  0  0  0
  3  4  1  0  0  0  0
  3 37  1  0  0  0  0
  4  9  1  0  0  0  0
  4  5  2  0  0  0  0
  5  6  1  0  0  0  0
  6  7  2  0  0  0  0
  6 38  1  0  0  0  0
  7  8  1  0  0  0  0
  8 12  1  0  0  0  0
  8  9  2  0  0  0  0
  9 10  1  0  0  0  0
 10 11  2  0  0  0  0
 11 12  1  0  0  0  0
 11 39  1  0  0  0  0
 12 13  1  0  0  0  0
 13 29  1  0  0  0  0
 13 20  1  0  0  0  0
 13 14  1  0  0  0  0
 14 15  1  0  0  0  0
 15 30  1  0  0  0  0
 15 16  1  0  0  0  0
 15 18  1  0  0  0  0
 16 17  1  0  0  0  0
 16 40  1  0  0  0  0
 16 41  1  0  0  0  0
 17 42  1  0  0  0  0
 18 31  1  0  0  0  0
 18 19  1  0  0  0  0
 18 20  1  0  0  0  0
 19 43  1  0  0  0  0
 20 32  1  0  0  0  0
 20 21  1  0  0  0  0
 21 44  1  0  0  0  0
 22 27  1  0  0  0  0
 22 23  2  0  0  0  0
 23 24  1  0  0  0  0
 23 45  1  0  0  0  0
 24 25  2  0  0  0  0
 24 46  1  0  0  0  0
 25 26  1  0  0  0  0
 25 47  1  0  0  0  0
 26 27  2  0  0  0  0
 26 48  1  0  0  0  0
 27 28  1  0  0  0  0
M  END
> <s_m_source_file>
AV-unprocessed.smi

> <i_m_source_file_index>
283

> <i_lp_mmshare_version>
43012

> <i_f3d_flags>
0

> <s_epik_input>
Q2xjMVtjSF1bY0hdW2NIXVtjSF1jMVtDQEhdKFtDSDNdKVtOSF1jKG5bY0hdbjIpYyhjMjMpbltjSF1uM1tDQEBIXTRPW0NASF0oW0NIMl1bT0hdKVtDQEBIXShbT0hdKVtDQEhdNFtPSF0=

> <s_epik_cmdline>
J2VwaWtfcHl0aG9uJywgJy1waCcsICc3LjAnLCAnLXRuJywgJzgnLCAnLW1hJywgJzIwMCcsICctbWV0YWxfYmluZGluZycsICctaW1hZScsICc8aW5maWxlLm1hZT4nLCAnLW9tYWUnLCAnPG91dGZpbGUubWFlPic=

> <r_lp_tautomer_probability>
1

> <r_epik_Ionization_Penalty>
0.000266407

> <r_epik_Ionization_Penalty_Charging>
0

> <r_epik_Ionization_Penalty_Neutral>
0.000266407

> <r_epik_State_Penalty>
-0

> <r_epik_Charging_Adjusted_Penalty>
0

> <i_epik_Tot_Q>
0

> <i_epik_Tot_abs_Q>
0

> <r_epik_Metal_State_Penalty>
-0

> <b_epik_Metal_Only>
0

> <s_epik_Chemistry_Notes>
This compound contains an acetal/aminal-like group ( X-CH(R)-Y where X, Y are N, S, or O) that may be acid/base labile, releasing an aldehyde.

> <s_lp_Force_Field>
OPLS_2005

> <r_lp_Energy>
51.2739

> <b_lp_Chiralities_Consistent>
1

> <s_lp_Variant>
AV-unprocessed.smi:283-29

> <Gold.Version>
5.8.1

> <Gold.Id.Protein>
6NUR|6NUR_protein|mol2

> <Gold.PLP.Fitness>
47.7821

> <Gold.PLP.PLP>
-42.3380

> <Gold.PLP.part.hbond>
-5.1219

> <Gold.PLP.part.metal>
0.0000

> <Gold.PLP.part.buried>
-1.9755

> <Gold.PLP.part.nonpolar>
-38.6036

> <Gold.PLP.part.repulsive>
3.7058

> <Gold.PLP.ligand.clash>
0.0000

> <Gold.PLP.ligand.torsion>
0.5654

> <Gold.PLP.Chemscore.Hbond>
2.0000

> <Gold.PLP.Chemscore.CHOScore>
0.1637

> <Gold.PLP.Chemscore.Metal>
0.0000

> <Gold.Chemscore.Hbonds>
donor molecule, donor type, donor heavy atom, donor atom, acceptor molecule, acceptor atom, score
      L1  H    19    43       P1 10171  1.00
      L1  H    21    44       P1  7948  1.00
      L1  C    11    39       P1  7948  0.22

> <Gold.PLP.Chemscore.Internal.Correction>
0.0836

> <Gold.Rescore>
     Score         DG    S(hbond)    S(metal)    S(lipo)     H(rot)  DE(clash)    DE(int)     intcor
     10.33     -13.61       1.99        0.00     102.39       4.10       2.72       0.56       ----

> <Gold.Chemscore.Fitness>
10.3291

> <Gold.Chemscore.DG>
-13.6095

> <Gold.Chemscore.ZeroCoef>
-5.4800

> <Gold.Chemscore.Hbond>
1.9875

> <Gold.Chemscore.Metal>
0.0000

> <Gold.Chemscore.Lipo>
102.3865

> <Gold.Chemscore.Internal_Hbond>
0.0000

> <Gold.Chemscore.DEClash>
2.7233

> <Gold.Chemscore.DEInternal>
0.5570

> <Gold.Chemscore.Rot>
4.0968

> <Gold.Chemscore.Internal.Correction>
   9.000000E+99

> <Gold.Chemscore.Hbonds>
donor molecule, donor type, donor heavy atom, donor atom, acceptor molecule, acceptor atom, score
      L1  H    19    43       P1 10171  0.96
      L1  H    21    44       P1  7948  0.99

> <Gold.Chemscore.Hbond.Weighted>
-6.6382

> <Gold.Chemscore.Metal.Weighted>
-0.0000

> <Gold.Chemscore.Lipo.Weighted>
-11.9792

> <Gold.Chemscore.Internal_Hbond.Weighted>
0.0000

> <Gold.Chemscore.DEClash.Weighted>
2.7233

> <Gold.Chemscore.DEInternal.Weighted>
0.5570

> <Gold.Chemscore.Rot.Weighted>
10.4879

> <Gold.Chemscore.Internal.Correction.Weighted>
   9.000000E+99

> <Gold.Protein.RotatedTorsions>
[ 6907 6896 6895 6894 ] final -109.34 input  -60.11 | X-H torsion
[ 7974 7965 7964 7962 ] final  -23.14 input  175.53 | X-H torsion
[ 8008 7997 7996 7995 ] final   30.59 input   59.86 | X-H torsion
[ 10167 10162 10161 10158 ] final   84.39 input  -65.29 | X-H torsion
[ 10718 10713 10712 10709 ] final   36.74 input   66.30 | X-H torsion
[ 10763 10752 10751 10750 ] final  -98.39 input  -60.55 | X-H torsion
[ 11005 11000 10999 10996 ] final  -22.73 input  -57.11 | X-H torsion

> <Gold.Protein.ActiveResidues>
 VAL166  LYS551  ARG553  GLY616  TRP617  ASP618  TYR619  PRO620  LYS621  CYS622 
 ASP623  PHE694  ASN695  SER759  ASP760  ASP761  ALA762  ILE779  LEU786  VAL792 
 PHE793  MET794  SER795  GLU796  ALA797  LYS798  CYS799  TRP800  GLU811  SER814 

> <Gold.Protein.RotatedAtoms>
  150.7556  133.9543  159.3495 H   0  0  0  0  0  0  0  0  0  0  0  0  # atno 6907 bound_to 6896
  151.7464  135.0841  160.0333 H   0  0  0  0  0  0  0  0  0  0  0  0  # atno 6908 bound_to 6896
  152.3495  133.6125  159.5970 H   0  0  0  0  0  0  0  0  0  0  0  0  # atno 6909 bound_to 6896
  146.1634  140.4576  142.8562 H   0  0  0  0  0  0  0  0  0  0  0  0  # atno 7974 bound_to 7965
  155.0929  140.3222  155.4568 H   0  0  0  0  0  0  0  0  0  0  0  0  # atno 8008 bound_to 7997
  156.2738  140.2074  156.6003 H   0  0  0  0  0  0  0  0  0  0  0  0  # atno 8009 bound_to 7997
  154.6889  140.0518  157.0330 H   0  0  0  0  0  0  0  0  0  0  0  0  # atno 8010 bound_to 7997
  139.9086  144.6286  150.8561 H   0  0  0  0  0  0  0  0  0  0  0  0  # atno 10167 bound_to 10162
  157.3386  130.7535  149.6896 H   0  0  0  0  0  0  0  0  0  0  0  0  # atno 10718 bound_to 10713
  154.7410  135.5011  153.9122 H   0  0  0  0  0  0  0  0  0  0  0  0  # atno 10763 bound_to 10752
  153.1043  135.6693  153.9623 H   0  0  0  0  0  0  0  0  0  0  0  0  # atno 10764 bound_to 10752
  153.9400  135.3068  155.3422 H   0  0  0  0  0  0  0  0  0  0  0  0  # atno 10765 bound_to 10752
  140.8684  133.7738  156.0157 H   0  0  0  0  0  0  0  0  0  0  0  0  # atno 11005 bound_to 11000
  144.8058  140.6296  143.6448 LP  0  0  0  0  0  0  0  0  0  0  0  0  # atno 17320 bound_to 7965
  145.4531  139.1521  143.3907 LP  0  0  0  0  0  0  0  0  0  0  0  0  # atno 17321 bound_to 7965
  140.7690  143.3383  151.2262 LP  0  0  0  0  0  0  0  0  0  0  0  0  # atno 17342 bound_to 10162
  139.6962  143.9608  152.2884 LP  0  0  0  0  0  0  0  0  0  0  0  0  # atno 17343 bound_to 10162
  155.9704  130.4174  150.4279 LP  0  0  0  0  0  0  0  0  0  0  0  0  # atno 17370 bound_to 10713
  157.2323  131.0507  151.2485 LP  0  0  0  0  0  0  0  0  0  0  0  0  # atno 17371 bound_to 10713
  140.8602  134.2850  157.5238 LP  0  0  0  0  0  0  0  0  0  0  0  0  # atno 17394 bound_to 11000
  139.8710  134.9514  156.4083 LP  0  0  0  0  0  0  0  0  0  0  0  0  # atno 17395 bound_to 11000

$$$$
