AV-unprocessed.smi:1598|AV-procd|sdf|6422|dock2
  -GOLD-   22720 7 63D 1   1.00000     0.00000
 Structure written by MMmdl.
 39 39  0  0  0  0  0  0  0  0  1 V2000
  144.9957  141.6758  156.0182 C   0  0  0  0  0  0  0  0  0  0  0  0
  145.5986  141.8707  154.7510 O   0  0  0  0  0  0  0  0  0  0  0  0
  146.8749  142.4815  154.8446 C   0  0  0  0  0  0  0  0  0  0  0  0
  147.9080  141.4442  155.3113 C   0  0  1  0  0  0  0  0  0  0  0  0
  148.2698  140.4473  154.1975 C   0  0  0  0  0  0  0  0  0  0  0  0
  149.1064  142.1406  155.7667 N   0  0  0  0  0  0  0  0  0  0  0  0
  149.9329  141.7294  156.7439 C   0  0  0  0  0  0  0  0  0  0  0  0
  149.7600  140.6830  157.3673 O   0  0  0  0  0  0  0  0  0  0  0  0
  151.1493  142.6113  157.0867 C   0  0  0  0  0  0  0  0  0  0  0  0
  151.9477  142.1665  158.2597 N   0  0  0  0  0  0  0  0  0  0  0  0
  152.1386  143.0464  159.3713 C   0  0  0  0  0  0  0  0  0  0  0  0
  151.4628  144.4254  159.3680 C   0  0  0  0  0  0  0  0  0  0  0  0
  151.7574  145.1087  160.4749 F   0  0  0  0  0  0  0  0  0  0  0  0
  151.8857  145.1579  158.3373 F   0  0  0  0  0  0  0  0  0  0  0  0
  150.1342  144.3309  159.3246 F   0  0  0  0  0  0  0  0  0  0  0  0
  152.8761  142.6451  160.4231 C   0  0  0  0  0  0  0  0  0  0  0  0
  153.4781  141.3405  160.4290 C   0  0  0  0  0  0  0  0  0  0  0  0
  153.3032  140.4942  159.3890 C   0  0  0  0  0  0  0  0  0  0  0  0
  153.8998  139.1392  159.3508 C   0  0  0  0  0  0  0  0  0  0  0  0
  154.0618  138.5746  160.5542 N   0  0  0  0  0  0  0  0  0  0  0  0
  154.2440  138.5091  158.3511 O   0  0  0  0  0  0  0  0  0  0  0  0
  152.4890  140.9003  158.2145 C   0  0  0  0  0  0  0  0  0  0  0  0
  152.2789  140.1732  157.2389 O   0  0  0  0  0  0  0  0  0  0  0  0
  144.0223  141.2023  155.8912 H   0  0  0  0  0  0  0  0  0  0  0  0
  144.8434  142.6257  156.5323 H   0  0  0  0  0  0  0  0  0  0  0  0
  145.6049  141.0281  156.6499 H   0  0  0  0  0  0  0  0  0  0  0  0
  147.1662  142.9009  153.8799 H   0  0  0  0  0  0  0  0  0  0  0  0
  146.8278  143.3065  155.5581 H   0  0  0  0  0  0  0  0  0  0  0  0
  147.4777  140.8959  156.1514 H   0  0  0  0  0  0  0  0  0  0  0  0
  147.3883  139.9079  153.8506 H   0  0  0  0  0  0  0  0  0  0  0  0
  148.9880  139.7058  154.5487 H   0  0  0  0  0  0  0  0  0  0  0  0
  148.7086  140.9547  153.3379 H   0  0  0  0  0  0  0  0  0  0  0  0
  149.3220  143.0123  155.3056 H   0  0  0  0  0  0  0  0  0  0  0  0
  151.7811  142.6616  156.1979 H   0  0  0  0  0  0  0  0  0  0  0  0
  150.8028  143.6359  157.1815 H   0  0  0  0  0  0  0  0  0  0  0  0
  153.0245  143.2885  161.2777 H   0  0  0  0  0  0  0  0  0  0  0  0
  154.0676  141.0739  161.2937 H   0  0  0  0  0  0  0  0  0  0  0  0
  154.4612  137.6509  160.6311 H   0  0  0  0  0  0  0  0  0  0  0  0
  153.7820  139.0788  161.3831 H   0  0  0  0  0  0  0  0  0  0  0  0
  1  2  1  0  0  0  0
  1 24  1  0  0  0  0
  1 25  1  0  0  0  0
  1 26  1  0  0  0  0
  2  3  1  0  0  0  0
  3  4  1  0  0  0  0
  3 27  1  0  0  0  0
  3 28  1  0  0  0  0
  4  5  1  0  0  0  0
  4  6  1  0  0  0  0
  4 29  1  0  0  0  0
  5 30  1  0  0  0  0
  5 31  1  0  0  0  0
  5 32  1  0  0  0  0
  6  7  1  0  0  0  0
  6 33  1  0  0  0  0
  7  8  2  0  0  0  0
  7  9  1  0  0  0  0
  9 10  1  0  0  0  0
  9 34  1  0  0  0  0
  9 35  1  0  0  0  0
 10 22  1  0  0  0  0
 10 11  1  0  0  0  0
 11 12  1  0  0  0  0
 11 16  2  0  0  0  0
 12 13  1  0  0  0  0
 12 14  1  0  0  0  0
 12 15  1  0  0  0  0
 16 17  1  0  0  0  0
 16 36  1  0  0  0  0
 17 18  2  0  0  0  0
 17 37  1  0  0  0  0
 18 19  1  0  0  0  0
 18 22  1  0  0  0  0
 19 20  1  0  0  0  0
 19 21  2  0  0  0  0
 20 38  1  0  0  0  0
 20 39  1  0  0  0  0
 22 23  2  0  0  0  0
M  END
> <s_m_source_file>
AV-unprocessed.smi

> <i_m_source_file_index>
1598

> <i_lp_mmshare_version>
43012

> <i_f3d_flags>
0

> <s_epik_input>
W0NIM11PW0NIMl1bQ0BIXShbQ0gzXSlbTkhdQyg9TylbQ0gyXW4xYyhDKEYpKEYpRilbY0hdW2NIXWMoYzE9TylDKD1PKVtOSDJd

> <s_epik_cmdline>
J2VwaWtfcHl0aG9uJywgJy1waCcsICc3LjAnLCAnLXRuJywgJzgnLCAnLW1hJywgJzIwMCcsICctbWV0YWxfYmluZGluZycsICctaW1hZScsICc8aW5maWxlLm1hZT4nLCAnLW9tYWUnLCAnPG91dGZpbGUubWFlPic=

> <r_lp_tautomer_probability>
1

> <r_epik_Ionization_Penalty>
2.07884e-06

> <r_epik_Ionization_Penalty_Charging>
8.00383e-10

> <r_epik_Ionization_Penalty_Neutral>
2.07804e-06

> <r_epik_State_Penalty>
-0

> <r_epik_Charging_Adjusted_Penalty>
8.00383e-10

> <i_epik_Tot_Q>
0

> <i_epik_Tot_abs_Q>
0

> <r_epik_Metal_State_Penalty>
-0

> <b_epik_Metal_Only>
0

> <s_lp_Force_Field>
OPLS_2005

> <r_lp_Energy>
25.2492

> <b_lp_Chiralities_Consistent>
1

> <s_lp_Variant>
AV-unprocessed.smi:1598-2

> <Gold.Version>
5.8.1

> <Gold.Id.Protein>
6NUR|6NUR_protein|mol2

> <Gold.PLP.Fitness>
48.6826

> <Gold.PLP.PLP>
-45.4400

> <Gold.PLP.part.hbond>
-2.7586

> <Gold.PLP.part.metal>
0.0000

> <Gold.PLP.part.buried>
-6.3790

> <Gold.PLP.part.nonpolar>
-37.0604

> <Gold.PLP.part.repulsive>
0.3520

> <Gold.PLP.ligand.clash>
3.8740

> <Gold.PLP.ligand.torsion>
0.9599

> <Gold.PLP.Chemscore.Hbond>
1.6240

> <Gold.PLP.Chemscore.CHOScore>
0.0000

> <Gold.PLP.Chemscore.Metal>
0.0000

> <Gold.Chemscore.Hbonds>
donor molecule, donor type, donor heavy atom, donor atom, acceptor molecule, acceptor atom, score
      L1  H     6    33       P1  8028  0.67
      P1  H  7997  8009       L1    21  1.00

> <Gold.PLP.Chemscore.Internal.Correction>
4.1644

> <Gold.Rescore>
     Score         DG    S(hbond)    S(metal)    S(lipo)     H(rot)  DE(clash)    DE(int)     intcor
      5.32     -14.23       1.90        0.00      73.81       2.43       0.32       8.59       ----

> <Gold.Chemscore.Fitness>
5.3235

> <Gold.Chemscore.DG>
-14.2318

> <Gold.Chemscore.ZeroCoef>
-5.4800

> <Gold.Chemscore.Hbond>
1.8964

> <Gold.Chemscore.Metal>
0.0000

> <Gold.Chemscore.Lipo>
73.8106

> <Gold.Chemscore.Internal_Hbond>
0.0000

> <Gold.Chemscore.DEClash>
0.3205

> <Gold.Chemscore.DEInternal>
8.5878

> <Gold.Chemscore.Rot>
2.4289

> <Gold.Chemscore.Internal.Correction>
   9.000000E+99

> <Gold.Chemscore.Hbonds>
donor molecule, donor type, donor heavy atom, donor atom, acceptor molecule, acceptor atom, score
      L1  H     6    33       P1  8028  0.66
      P1  H  7997  8009       L1    21  0.25

> <Gold.Chemscore.Hbond.Weighted>
-6.3340

> <Gold.Chemscore.Metal.Weighted>
-0.0000

> <Gold.Chemscore.Lipo.Weighted>
-8.6358

> <Gold.Chemscore.Internal_Hbond.Weighted>
0.0000

> <Gold.Chemscore.DEClash.Weighted>
0.3205

> <Gold.Chemscore.DEInternal.Weighted>
8.5878

> <Gold.Chemscore.Rot.Weighted>
6.2180

> <Gold.Chemscore.Internal.Correction.Weighted>
   9.000000E+99

> <Gold.Protein.RotatedTorsions>
[ 6907 6896 6895 6894 ] final -173.22 input  -60.11 | X-H torsion
[ 7974 7965 7964 7962 ] final   92.34 input  175.53 | X-H torsion
[ 8008 7997 7996 7995 ] final  140.00 input   59.86 | X-H torsion
[ 10167 10162 10161 10158 ] final -117.95 input  -65.29 | X-H torsion
[ 10718 10713 10712 10709 ] final   52.26 input   66.30 | X-H torsion
[ 10763 10752 10751 10750 ] final -121.48 input  -60.55 | X-H torsion
[ 11005 11000 10999 10996 ] final   76.98 input  -57.11 | X-H torsion

> <Gold.Protein.ActiveResidues>
 VAL166  LYS551  ARG553  GLY616  TRP617  ASP618  TYR619  PRO620  LYS621  CYS622 
 ASP623  PHE694  ASN695  SER759  ASP760  ASP761  ALA762  ILE779  LEU786  VAL792 
 PHE793  MET794  SER795  GLU796  ALA797  LYS798  CYS799  TRP800  GLU811  SER814 

> <Gold.Protein.RotatedAtoms>
  151.5526  133.3415  159.2955 H   0  0  0  0  0  0  0  0  0  0  0  0  # atno 6907 bound_to 6896
  150.8470  134.7784  159.6989 H   0  0  0  0  0  0  0  0  0  0  0  0  # atno 6908 bound_to 6896
  152.4525  134.5371  159.9879 H   0  0  0  0  0  0  0  0  0  0  0  0  # atno 6909 bound_to 6896
  145.4936  139.2276  143.2816 H   0  0  0  0  0  0  0  0  0  0  0  0  # atno 7974 bound_to 7965
  156.2984  140.2353  156.4329 H   0  0  0  0  0  0  0  0  0  0  0  0  # atno 8008 bound_to 7997
  154.8254  140.0435  157.1460 H   0  0  0  0  0  0  0  0  0  0  0  0  # atno 8009 bound_to 7997
  154.9268  140.3011  155.5192 H   0  0  0  0  0  0  0  0  0  0  0  0  # atno 8010 bound_to 7997
  140.0628  143.4952  152.2022 H   0  0  0  0  0  0  0  0  0  0  0  0  # atno 10167 bound_to 10162
  157.5058  130.8468  149.8373 H   0  0  0  0  0  0  0  0  0  0  0  0  # atno 10718 bound_to 10713
  154.8669  135.4166  154.2627 H   0  0  0  0  0  0  0  0  0  0  0  0  # atno 10763 bound_to 10752
  153.3552  135.7000  153.6762 H   0  0  0  0  0  0  0  0  0  0  0  0  # atno 10764 bound_to 10752
  153.5685  135.3596  155.2801 H   0  0  0  0  0  0  0  0  0  0  0  0  # atno 10765 bound_to 10752
  139.9274  134.7646  156.1464 H   0  0  0  0  0  0  0  0  0  0  0  0  # atno 11005 bound_to 11000
  146.2269  140.5732  142.8992 LP  0  0  0  0  0  0  0  0  0  0  0  0  # atno 17320 bound_to 7965
  144.7820  140.5859  143.6599 LP  0  0  0  0  0  0  0  0  0  0  0  0  # atno 17321 bound_to 7965
  139.5883  144.7540  151.3464 LP  0  0  0  0  0  0  0  0  0  0  0  0  # atno 17342 bound_to 10162
  140.7164  143.7256  150.7663 LP  0  0  0  0  0  0  0  0  0  0  0  0  # atno 17343 bound_to 10162
  156.0257  130.3780  150.1829 LP  0  0  0  0  0  0  0  0  0  0  0  0  # atno 17370 bound_to 10713
  157.0019  130.9925  151.3388 LP  0  0  0  0  0  0  0  0  0  0  0  0  # atno 17371 bound_to 10713
  141.0841  133.6742  156.2398 LP  0  0  0  0  0  0  0  0  0  0  0  0  # atno 17394 bound_to 11000
  140.6297  134.5276  157.5558 LP  0  0  0  0  0  0  0  0  0  0  0  0  # atno 17395 bound_to 11000

$$$$
