AV-unprocessed.smi:2438|AV-procd|sdf|9602|dock2
  -GOLD-   2272013233D 1   1.00000     0.00000
 Structure written by MMmdl.
 44 45  0  0  0  0  0  0  0  0  2 V2000
  144.3484  134.9895  154.9732 C   0  0  0  0  0  0  0  0  0  0  0  0
  143.6973  135.7286  153.8996 N   0  0  0  0  0  0  0  0  0  0  0  0
  142.2435  135.8101  153.9667 C   0  0  0  0  0  0  0  0  0  0  0  0
  144.2600  135.4992  152.6278 C   0  0  0  0  0  0  0  0  0  0  0  0
  143.9147  134.3664  151.9732 N   0  0  0  0  0  0  0  0  0  0  0  0
  144.4430  134.1042  150.7733 C   0  0  0  0  0  0  0  0  0  0  0  0
  145.3108  134.9237  150.1659 N   0  3  0  0  0  0  0  0  0  0  0  0
  145.6862  136.0729  150.7761 C   0  0  0  0  0  0  0  0  0  0  0  0
  145.1778  136.4106  152.0525 C   0  0  0  0  0  0  0  0  0  0  0  0
  145.5022  137.6211  152.7276 N   0  0  0  0  0  0  0  0  0  0  0  0
  146.2351  138.6512  152.2749 C   0  0  0  0  0  0  0  0  0  0  0  0
  146.7118  138.7392  151.1437 O   0  0  0  0  0  0  0  0  0  0  0  0
  146.4079  139.5770  153.2281 N   0  0  0  0  0  0  0  0  0  0  0  0
  147.2018  140.7974  153.0922 C   0  0  1  0  0  0  0  0  0  0  0  0
  146.5117  141.9657  153.8215 C   0  0  0  0  0  0  0  0  0  0  0  0
  146.5661  141.8079  155.3509 C   0  0  0  0  0  0  0  0  0  0  0  0
  148.0086  141.6144  155.8450 C   0  0  0  0  0  0  0  0  0  0  0  0
  148.6939  140.4187  155.1510 C   0  0  2  0  0  0  0  0  0  0  0  0
  150.1343  140.2003  155.6566 C   0  0  0  0  0  0  0  0  0  0  0  0
  150.8026  139.3783  154.8470 F   0  0  0  0  0  0  0  0  0  0  0  0
  150.7783  141.3660  155.7154 F   0  0  0  0  0  0  0  0  0  0  0  0
  150.1125  139.6761  156.8820 F   0  0  0  0  0  0  0  0  0  0  0  0
  148.6409  140.5983  153.6170 C   0  0  0  0  0  0  0  0  0  0  0  0
  145.4342  134.9925  154.8763 H   0  0  0  0  0  0  0  0  0  0  0  0
  144.0121  133.9521  154.9766 H   0  0  0  0  0  0  0  0  0  0  0  0
  144.0985  135.4307  155.9384 H   0  0  0  0  0  0  0  0  0  0  0  0
  141.8507  136.4415  153.1687 H   0  0  0  0  0  0  0  0  0  0  0  0
  141.9343  136.2437  154.9179 H   0  0  0  0  0  0  0  0  0  0  0  0
  141.7924  134.8207  153.8817 H   0  0  0  0  0  0  0  0  0  0  0  0
  144.1723  133.2024  150.2440 H   0  0  0  0  0  0  0  0  0  0  0  0
  146.3680  136.6821  150.2024 H   0  0  0  0  0  0  0  0  0  0  0  0
  145.2355  137.6582  153.7010 H   0  0  0  0  0  0  0  0  0  0  0  0
  145.9764  139.4188  154.1272 H   0  0  0  0  0  0  0  0  0  0  0  0
  147.2498  141.0485  152.0310 H   0  0  0  0  0  0  0  0  0  0  0  0
  147.0038  142.8987  153.5443 H   0  0  0  0  0  0  0  0  0  0  0  0
  145.4766  142.0608  153.4909 H   0  0  0  0  0  0  0  0  0  0  0  0
  146.1267  142.6843  155.8279 H   0  0  0  0  0  0  0  0  0  0  0  0
  145.9575  140.9562  155.6569 H   0  0  0  0  0  0  0  0  0  0  0  0
  148.5793  142.5254  155.6607 H   0  0  0  0  0  0  0  0  0  0  0  0
  148.0031  141.4689  156.9255 H   0  0  0  0  0  0  0  0  0  0  0  0
  148.1281  139.5207  155.4041 H   0  0  0  0  0  0  0  0  0  0  0  0
  149.1056  139.7455  153.1215 H   0  0  0  0  0  0  0  0  0  0  0  0
  149.2400  141.4655  153.3371 H   0  0  0  0  0  0  0  0  0  0  0  0
  145.6875  134.6955  149.2456 H   0  0  0  0  0  0  0  0  0  0  0  0
  1  2  1  0  0  0  0
  1 24  1  0  0  0  0
  1 25  1  0  0  0  0
  1 26  1  0  0  0  0
  2  3  1  0  0  0  0
  2  4  1  0  0  0  0
  3 27  1  0  0  0  0
  3 28  1  0  0  0  0
  3 29  1  0  0  0  0
  4  9  1  0  0  0  0
  4  5  2  0  0  0  0
  5  6  1  0  0  0  0
  6  7  2  0  0  0  0
  6 30  1  0  0  0  0
  7  8  1  0  0  0  0
  7 44  1  0  0  0  0
  8  9  2  0  0  0  0
  8 31  1  0  0  0  0
  9 10  1  0  0  0  0
 10 11  1  0  0  0  0
 10 32  1  0  0  0  0
 11 12  2  0  0  0  0
 11 13  1  0  0  0  0
 13 14  1  0  0  0  0
 13 33  1  0  0  0  0
 14 23  1  0  0  0  0
 14 15  1  0  0  0  0
 14 34  1  0  0  0  0
 15 16  1  0  0  0  0
 15 35  1  0  0  0  0
 15 36  1  0  0  0  0
 16 17  1  0  0  0  0
 16 37  1  0  0  0  0
 16 38  1  0  0  0  0
 17 18  1  0  0  0  0
 17 39  1  0  0  0  0
 17 40  1  0  0  0  0
 18 19  1  0  0  0  0
 18 23  1  0  0  0  0
 18 41  1  0  0  0  0
 19 20  1  0  0  0  0
 19 21  1  0  0  0  0
 19 22  1  0  0  0  0
 23 42  1  0  0  0  0
 23 43  1  0  0  0  0
M  CHG  1   7   1
M  END
> <s_m_source_file>
AV-unprocessed.smi

> <i_m_source_file_index>
2438

> <i_lp_mmshare_version>
43012

> <i_f3d_flags>
0

> <s_epik_input>
W0NIM11OKFtDSDNdKWMxbltjSF1uW2NIXWMxW05IXUMoPU8pW05IXVtDQEBIXTJbQ0gyXVtDSDJdW0NIMl1bQ0BASF0oQyhGKShGKUYpW0NIMl0y

> <s_epik_cmdline>
J2VwaWtfcHl0aG9uJywgJy1waCcsICc3LjAnLCAnLXRuJywgJzgnLCAnLW1hJywgJzIwMCcsICctbWV0YWxfYmluZGluZycsICctaW1hZScsICc8aW5maWxlLm1hZT4nLCAnLW9tYWUnLCAnPG91dGZpbGUubWFlPic=

> <r_lp_tautomer_probability>
0.999336

> <r_epik_Ionization_Penalty>
2.11643

> <r_epik_Ionization_Penalty_Charging>
2.11639

> <r_epik_Ionization_Penalty_Neutral>
4.47523e-05

> <r_epik_State_Penalty>
2.25369

> <r_epik_Charging_Adjusted_Penalty>
4.37008

> <i_epik_Tot_Q>
1

> <i_epik_Tot_abs_Q>
1

> <r_epik_Metal_State_Penalty>
2.27019

> <b_epik_Metal_Only>
0

> <s_lp_Force_Field>
OPLS_2005

> <r_lp_Energy>
15.0245

> <b_lp_Chiralities_Consistent>
1

> <s_lp_Variant>
AV-unprocessed.smi:2438-8

> <Gold.Version>
5.8.1

> <Gold.Id.Protein>
6NUR|6NUR_protein|mol2

> <Gold.PLP.Fitness>
40.2272

> <Gold.PLP.PLP>
-35.8628

> <Gold.PLP.part.hbond>
-3.0000

> <Gold.PLP.part.metal>
0.0000

> <Gold.PLP.part.buried>
-3.0809

> <Gold.PLP.part.nonpolar>
-30.4820

> <Gold.PLP.part.repulsive>
1.0854

> <Gold.PLP.ligand.clash>
0.0000

> <Gold.PLP.ligand.torsion>
1.0115

> <Gold.PLP.Chemscore.Hbond>
1.9920

> <Gold.PLP.Chemscore.CHOScore>
0.0000

> <Gold.PLP.Chemscore.Metal>
0.0000

> <Gold.Chemscore.Hbonds>
donor molecule, donor type, donor heavy atom, donor atom, acceptor molecule, acceptor atom, score
      L1  H     7    44       P1  7921  1.00
      P1  H  7954  7966       L1    12  0.81

> <Gold.PLP.Chemscore.Internal.Correction>
0.4115

> <Gold.Rescore>
     Score         DG    S(hbond)    S(metal)    S(lipo)     H(rot)  DE(clash)    DE(int)     intcor
     12.04     -15.44       1.89        0.00      59.79       1.31       1.33       2.07       ----

> <Gold.Chemscore.Fitness>
12.0408

> <Gold.Chemscore.DG>
-15.4371

> <Gold.Chemscore.ZeroCoef>
-5.4800

> <Gold.Chemscore.Hbond>
1.8893

> <Gold.Chemscore.Metal>
0.0000

> <Gold.Chemscore.Lipo>
59.7864

> <Gold.Chemscore.Internal_Hbond>
0.0000

> <Gold.Chemscore.DEClash>
1.3308

> <Gold.Chemscore.DEInternal>
2.0655

> <Gold.Chemscore.Rot>
1.3078

> <Gold.Chemscore.Internal.Correction>
   9.000000E+99

> <Gold.Chemscore.Hbonds>
donor molecule, donor type, donor heavy atom, donor atom, acceptor molecule, acceptor atom, score
      L1  H     7    44       P1  7921  0.94
      P1  H  7954  7966       L1    12  0.77

> <Gold.Chemscore.Hbond.Weighted>
-6.3101

> <Gold.Chemscore.Metal.Weighted>
-0.0000

> <Gold.Chemscore.Lipo.Weighted>
-6.9950

> <Gold.Chemscore.Internal_Hbond.Weighted>
0.0000

> <Gold.Chemscore.DEClash.Weighted>
1.3308

> <Gold.Chemscore.DEInternal.Weighted>
2.0655

> <Gold.Chemscore.Rot.Weighted>
3.3481

> <Gold.Chemscore.Internal.Correction.Weighted>
   9.000000E+99

> <Gold.Protein.RotatedTorsions>
[ 6907 6896 6895 6894 ] final  179.28 input  -60.11 | X-H torsion
[ 7974 7965 7964 7962 ] final -175.82 input  175.53 | X-H torsion
[ 8008 7997 7996 7995 ] final   51.00 input   59.86 | X-H torsion
[ 10167 10162 10161 10158 ] final -126.35 input  -65.29 | X-H torsion
[ 10718 10713 10712 10709 ] final  -87.80 input   66.30 | X-H torsion
[ 10763 10752 10751 10750 ] final  154.34 input  -60.55 | X-H torsion
[ 11005 11000 10999 10996 ] final  120.61 input  -57.11 | X-H torsion

> <Gold.Protein.ActiveResidues>
 VAL166  LYS551  ARG553  GLY616  TRP617  ASP618  TYR619  PRO620  LYS621  CYS622 
 ASP623  PHE694  ASN695  SER759  ASP760  ASP761  ALA762  ILE779  LEU786  VAL792 
 PHE793  MET794  SER795  GLU796  ALA797  LYS798  CYS799  TRP800  GLU811  SER814 

> <Gold.Protein.RotatedAtoms>
  151.6742  133.3313  159.3203 H   0  0  0  0  0  0  0  0  0  0  0  0  # atno 6907 bound_to 6896
  150.7853  134.6836  159.6467 H   0  0  0  0  0  0  0  0  0  0  0  0  # atno 6908 bound_to 6896
  152.3921  134.6428  160.0155 H   0  0  0  0  0  0  0  0  0  0  0  0  # atno 6909 bound_to 6896
  144.7127  140.1263  143.6402 H   0  0  0  0  0  0  0  0  0  0  0  0  # atno 7974 bound_to 7965
  155.4281  140.3449  155.4277 H   0  0  0  0  0  0  0  0  0  0  0  0  # atno 8008 bound_to 7997
  156.1353  140.1526  156.9035 H   0  0  0  0  0  0  0  0  0  0  0  0  # atno 8009 bound_to 7997
  154.4927  140.0836  156.7609 H   0  0  0  0  0  0  0  0  0  0  0  0  # atno 8010 bound_to 7997
  139.9724  143.5831  152.2408 H   0  0  0  0  0  0  0  0  0  0  0  0  # atno 10167 bound_to 10162
  155.9984  130.4813  150.4922 H   0  0  0  0  0  0  0  0  0  0  0  0  # atno 10718 bound_to 10713
  154.1507  135.2815  155.3136 H   0  0  0  0  0  0  0  0  0  0  0  0  # atno 10763 bound_to 10752
  154.6219  135.5464  153.7588 H   0  0  0  0  0  0  0  0  0  0  0  0  # atno 10764 bound_to 10752
  153.0222  135.6441  154.1651 H   0  0  0  0  0  0  0  0  0  0  0  0  # atno 10765 bound_to 10752
  139.9192  134.9635  156.7833 H   0  0  0  0  0  0  0  0  0  0  0  0  # atno 11005 bound_to 11000
  145.9326  139.2616  143.1316 LP  0  0  0  0  0  0  0  0  0  0  0  0  # atno 17320 bound_to 7965
  145.9507  140.8911  143.0261 LP  0  0  0  0  0  0  0  0  0  0  0  0  # atno 17321 bound_to 7965
  139.6471  144.7659  151.2222 LP  0  0  0  0  0  0  0  0  0  0  0  0  # atno 17342 bound_to 10162
  140.7517  143.6222  150.8503 LP  0  0  0  0  0  0  0  0  0  0  0  0  # atno 17343 bound_to 10162
  157.2915  131.0627  151.2130 LP  0  0  0  0  0  0  0  0  0  0  0  0  # atno 17370 bound_to 10713
  157.3141  130.6904  149.6232 LP  0  0  0  0  0  0  0  0  0  0  0  0  # atno 17371 bound_to 10713
  140.6526  133.9717  155.7763 LP  0  0  0  0  0  0  0  0  0  0  0  0  # atno 17394 bound_to 11000
  141.0697  134.0223  157.3543 LP  0  0  0  0  0  0  0  0  0  0  0  0  # atno 17395 bound_to 11000

$$$$
