AV-unprocessed.smi:1555|AV-procd|sdf|6265|dock2
  -GOLD-   22720 6453D 1   1.00000     0.00000
 Structure written by MMmdl.
 42 43  0  0  0  0  0  0  0  0  2 V2000
  152.0579  139.8718  159.4411 C   0  0  0  0  0  0  0  0  0  0  0  0
  151.4178  141.1695  158.9275 C   0  0  1  0  0  0  0  0  0  0  0  0
  152.4197  142.3394  158.9350 C   0  0  0  0  0  0  0  0  0  0  0  0
  151.7576  143.6447  159.0270 N   0  0  0  0  0  0  0  0  0  0  0  0
  151.9713  144.6227  159.9645 C   0  0  0  0  0  0  0  0  0  0  0  0
  151.1318  145.6589  159.6463 C   0  0  0  0  0  0  0  0  0  0  0  0
  150.4415  145.2697  158.5297 N   0  3  0  0  0  0  0  0  0  0  0  0
  150.8222  144.0439  158.1556 C   0  0  0  0  0  0  0  0  0  0  0  0
  150.9052  140.9610  157.5752 N   0  0  0  0  0  0  0  0  0  0  0  0
  151.5234  140.2855  156.5915 C   0  0  0  0  0  0  0  0  0  0  0  0
  152.6306  139.7690  156.7473 O   0  0  0  0  0  0  0  0  0  0  0  0
  150.8286  140.2202  155.4275 N   0  0  0  0  0  0  0  0  0  0  0  0
  150.9141  139.1528  154.4165 C   0  0  0  0  0  0  0  0  0  0  0  0
  149.6295  138.3081  154.4819 C   0  0  0  0  0  0  0  0  0  0  0  0
  148.3713  139.1800  154.2723 C   0  0  0  0  0  0  0  0  0  0  0  0
  147.0871  138.3483  154.4423 C   0  0  0  0  0  0  0  0  0  0  0  0
  146.9142  137.4645  153.3546 O   0  0  0  0  0  0  0  0  0  0  0  0
  148.4007  140.4119  155.2076 C   0  0  0  0  0  0  0  0  0  0  0  0
  149.7443  141.1582  155.1130 C   0  0  0  0  0  0  0  0  0  0  0  0
  152.4351  139.9955  160.4565 H   0  0  0  0  0  0  0  0  0  0  0  0
  152.8931  139.5634  158.8110 H   0  0  0  0  0  0  0  0  0  0  0  0
  151.3342  139.0563  159.4578 H   0  0  0  0  0  0  0  0  0  0  0  0
  150.5973  141.4263  159.5999 H   0  0  0  0  0  0  0  0  0  0  0  0
  153.1010  142.2549  159.7829 H   0  0  0  0  0  0  0  0  0  0  0  0
  153.0339  142.3325  158.0330 H   0  0  0  0  0  0  0  0  0  0  0  0
  152.6875  144.5131  160.7660 H   0  0  0  0  0  0  0  0  0  0  0  0
  150.9784  146.6187  160.1180 H   0  0  0  0  0  0  0  0  0  0  0  0
  150.4505  143.4880  157.3132 H   0  0  0  0  0  0  0  0  0  0  0  0
  150.0041  141.3651  157.3651 H   0  0  0  0  0  0  0  0  0  0  0  0
  151.0116  139.6040  153.4280 H   0  0  0  0  0  0  0  0  0  0  0  0
  151.7870  138.5086  154.5218 H   0  0  0  0  0  0  0  0  0  0  0  0
  149.6678  137.5217  153.7274 H   0  0  0  0  0  0  0  0  0  0  0  0
  149.5756  137.8061  155.4492 H   0  0  0  0  0  0  0  0  0  0  0  0
  148.4020  139.5436  153.2437 H   0  0  0  0  0  0  0  0  0  0  0  0
  147.1365  137.7555  155.3561 H   0  0  0  0  0  0  0  0  0  0  0  0
  146.2128  138.9947  154.5252 H   0  0  0  0  0  0  0  0  0  0  0  0
  147.7393  137.0378  153.1801 H   0  0  0  0  0  0  0  0  0  0  0  0
  147.5869  141.0937  154.9593 H   0  0  0  0  0  0  0  0  0  0  0  0
  148.2346  140.0976  156.2391 H   0  0  0  0  0  0  0  0  0  0  0  0
  149.7315  142.0273  155.7720 H   0  0  0  0  0  0  0  0  0  0  0  0
  149.8846  141.5534  154.1060 H   0  0  0  0  0  0  0  0  0  0  0  0
  149.7438  145.8276  158.0533 H   0  0  0  0  0  0  0  0  0  0  0  0
  1  2  1  0  0  0  0
  1 20  1  0  0  0  0
  1 21  1  0  0  0  0
  1 22  1  0  0  0  0
  2  3  1  0  0  0  0
  2  9  1  0  0  0  0
  2 23  1  0  0  0  0
  3  4  1  0  0  0  0
  3 24  1  0  0  0  0
  3 25  1  0  0  0  0
  4  8  1  0  0  0  0
  4  5  1  0  0  0  0
  5  6  2  0  0  0  0
  5 26  1  0  0  0  0
  6  7  1  0  0  0  0
  6 27  1  0  0  0  0
  7  8  2  0  0  0  0
  7 42  1  0  0  0  0
  8 28  1  0  0  0  0
  9 10  1  0  0  0  0
  9 29  1  0  0  0  0
 10 11  2  0  0  0  0
 10 12  1  0  0  0  0
 12 19  1  0  0  0  0
 12 13  1  0  0  0  0
 13 14  1  0  0  0  0
 13 30  1  0  0  0  0
 13 31  1  0  0  0  0
 14 15  1  0  0  0  0
 14 32  1  0  0  0  0
 14 33  1  0  0  0  0
 15 16  1  0  0  0  0
 15 18  1  0  0  0  0
 15 34  1  0  0  0  0
 16 17  1  0  0  0  0
 16 35  1  0  0  0  0
 16 36  1  0  0  0  0
 17 37  1  0  0  0  0
 18 19  1  0  0  0  0
 18 38  1  0  0  0  0
 18 39  1  0  0  0  0
 19 40  1  0  0  0  0
 19 41  1  0  0  0  0
M  CHG  1   7   1
M  END
> <s_m_source_file>
AV-unprocessed.smi

> <i_m_source_file_index>
1555

> <i_lp_mmshare_version>
43012

> <i_f3d_flags>
0

> <s_epik_input>
W2NIXTFuW2NIXVtjSF1uMVtDSDJdW0NAQEhdKFtDSDNdKVtOSF1DKD1PKU4yW0NIMl1bQ0gyXVtDSF0oW0NIMl1bT0hdKVtDSDJdW0NIMl0y

> <s_epik_cmdline>
J2VwaWtfcHl0aG9uJywgJy1waCcsICc3LjAnLCAnLXRuJywgJzgnLCAnLW1hJywgJzIwMCcsICctbWV0YWxfYmluZGluZycsICctaW1hZScsICc8aW5maWxlLm1hZT4nLCAnLW9tYWUnLCAnPG91dGZpbGUubWFlPic=

> <r_lp_tautomer_probability>
1

> <r_epik_Ionization_Penalty>
0.253261

> <r_epik_Ionization_Penalty_Charging>
0

> <r_epik_Ionization_Penalty_Neutral>
0.253261

> <r_epik_State_Penalty>
0.244619

> <r_epik_Charging_Adjusted_Penalty>
0.244619

> <i_epik_Tot_Q>
1

> <i_epik_Tot_abs_Q>
1

> <r_epik_Metal_State_Penalty>
0.535039

> <b_epik_Metal_Only>
0

> <s_lp_Force_Field>
OPLS_2005

> <r_lp_Energy>
35.1674

> <b_lp_Chiralities_Consistent>
1

> <s_lp_Variant>
AV-unprocessed.smi:1555-2

> <Gold.Version>
5.8.1

> <Gold.Id.Protein>
6NUR|6NUR_protein|mol2

> <Gold.PLP.Fitness>
47.5602

> <Gold.PLP.PLP>
-36.3103

> <Gold.PLP.part.hbond>
-3.0000

> <Gold.PLP.part.metal>
0.0000

> <Gold.PLP.part.buried>
-1.0643

> <Gold.PLP.part.nonpolar>
-32.6824

> <Gold.PLP.part.repulsive>
0.2720

> <Gold.PLP.ligand.clash>
0.7515

> <Gold.PLP.ligand.torsion>
0.8968

> <Gold.PLP.Chemscore.Hbond>
4.0000

> <Gold.PLP.Chemscore.CHOScore>
0.5791

> <Gold.PLP.Chemscore.Metal>
0.0000

> <Gold.Chemscore.Hbonds>
donor molecule, donor type, donor heavy atom, donor atom, acceptor molecule, acceptor atom, score
      L1  H     7    42       P1  8029  1.98
      L1  H    17    37       P1  7948  0.96
      P1  H  7997  8010       L1    11  1.00
      L1  C     8    28       P1  8028  0.65

> <Gold.PLP.Chemscore.Internal.Correction>
0.0575

> <Gold.Rescore>
     Score         DG    S(hbond)    S(metal)    S(lipo)     H(rot)  DE(clash)    DE(int)     intcor
     14.80     -17.74       2.94        0.00      77.00       2.56       0.42       2.53       ----

> <Gold.Chemscore.Fitness>
14.8004

> <Gold.Chemscore.DG>
-17.7445

> <Gold.Chemscore.ZeroCoef>
-5.4800

> <Gold.Chemscore.Hbond>
2.9391

> <Gold.Chemscore.Metal>
0.0000

> <Gold.Chemscore.Lipo>
76.9991

> <Gold.Chemscore.Internal_Hbond>
0.0000

> <Gold.Chemscore.DEClash>
0.4160

> <Gold.Chemscore.DEInternal>
2.5280

> <Gold.Chemscore.Rot>
2.5630

> <Gold.Chemscore.Internal.Correction>
   9.000000E+99

> <Gold.Chemscore.Hbonds>
donor molecule, donor type, donor heavy atom, donor atom, acceptor molecule, acceptor atom, score
      L1  H     7    42       P1  8029  0.36
      L1  H    17    37       P1  7948  0.91
      P1  H  7997  8010       L1    11  1.00

> <Gold.Chemscore.Hbond.Weighted>
-9.8168

> <Gold.Chemscore.Metal.Weighted>
-0.0000

> <Gold.Chemscore.Lipo.Weighted>
-9.0089

> <Gold.Chemscore.Internal_Hbond.Weighted>
0.0000

> <Gold.Chemscore.DEClash.Weighted>
0.4160

> <Gold.Chemscore.DEInternal.Weighted>
2.5280

> <Gold.Chemscore.Rot.Weighted>
6.5612

> <Gold.Chemscore.Internal.Correction.Weighted>
   9.000000E+99

> <Gold.Protein.RotatedTorsions>
[ 6907 6896 6895 6894 ] final -131.93 input  -60.11 | X-H torsion
[ 7974 7965 7964 7962 ] final  -25.87 input  175.53 | X-H torsion
[ 8008 7997 7996 7995 ] final   64.92 input   59.86 | X-H torsion
[ 10167 10162 10161 10158 ] final  134.82 input  -65.29 | X-H torsion
[ 10718 10713 10712 10709 ] final  139.92 input   66.30 | X-H torsion
[ 10763 10752 10751 10750 ] final  -94.55 input  -60.55 | X-H torsion
[ 11005 11000 10999 10996 ] final -146.26 input  -57.11 | X-H torsion

> <Gold.Protein.ActiveResidues>
 VAL166  LYS551  ARG553  GLY616  TRP617  ASP618  TYR619  PRO620  LYS621  CYS622 
 ASP623  PHE694  ASN695  SER759  ASP760  ASP761  ALA762  ILE779  LEU786  VAL792 
 PHE793  MET794  SER795  GLU796  ALA797  LYS798  CYS799  TRP800  GLU811  SER814 

> <Gold.Protein.RotatedAtoms>
  150.9566  133.6491  159.2761 H   0  0  0  0  0  0  0  0  0  0  0  0  # atno 6907 bound_to 6896
  151.3829  135.0941  159.9511 H   0  0  0  0  0  0  0  0  0  0  0  0  # atno 6908 bound_to 6896
  152.5131  133.9096  159.7536 H   0  0  0  0  0  0  0  0  0  0  0  0  # atno 6909 bound_to 6896
  146.1463  140.4944  142.8630 H   0  0  0  0  0  0  0  0  0  0  0  0  # atno 7974 bound_to 7965
  155.6536  140.3497  155.4757 H   0  0  0  0  0  0  0  0  0  0  0  0  # atno 8008 bound_to 7997
  155.9827  140.1178  157.0734 H   0  0  0  0  0  0  0  0  0  0  0  0  # atno 8009 bound_to 7997
  154.4196  140.1135  156.5444 H   0  0  0  0  0  0  0  0  0  0  0  0  # atno 8010 bound_to 7997
  139.5241  144.6548  151.5195 H   0  0  0  0  0  0  0  0  0  0  0  0  # atno 10167 bound_to 10162
  157.4091  131.1026  151.0473 H   0  0  0  0  0  0  0  0  0  0  0  0  # atno 10718 bound_to 10713
  154.7066  135.5153  153.8604 H   0  0  0  0  0  0  0  0  0  0  0  0  # atno 10763 bound_to 10752
  153.0746  135.6612  154.0182 H   0  0  0  0  0  0  0  0  0  0  0  0  # atno 10764 bound_to 10752
  154.0032  135.3009  155.3380 H   0  0  0  0  0  0  0  0  0  0  0  0  # atno 10765 bound_to 10752
  140.7838  134.3048  157.5037 H   0  0  0  0  0  0  0  0  0  0  0  0  # atno 11005 bound_to 11000
  144.7850  140.5917  143.6580 LP  0  0  0  0  0  0  0  0  0  0  0  0  # atno 17320 bound_to 7965
  145.4930  139.1487  143.3699 LP  0  0  0  0  0  0  0  0  0  0  0  0  # atno 17321 bound_to 7965
  140.6369  143.8966  150.6655 LP  0  0  0  0  0  0  0  0  0  0  0  0  # atno 17342 bound_to 10162
  140.2288  143.3751  152.1582 LP  0  0  0  0  0  0  0  0  0  0  0  0  # atno 17343 bound_to 10162
  157.1444  130.6157  149.5564 LP  0  0  0  0  0  0  0  0  0  0  0  0  # atno 17370 bound_to 10713
  155.9845  130.4870  150.6987 LP  0  0  0  0  0  0  0  0  0  0  0  0  # atno 17371 bound_to 10713
  139.8739  134.9334  156.3579 LP  0  0  0  0  0  0  0  0  0  0  0  0  # atno 17394 bound_to 11000
  140.9457  133.7485  156.0205 LP  0  0  0  0  0  0  0  0  0  0  0  0  # atno 17395 bound_to 11000

$$$$
