AV-unprocessed.smi:3208|AV-procd|sdf|12266|dock2
  -GOLD-   2272018103D 1   1.00000     0.00000
 Structure written by MMmdl.
 29 29  0  0  0  0  0  0  0  0  2 V2000
  147.3963  141.6982  153.8334 C   0  0  0  0  0  0  0  0  0  0  0  0
  148.5948  141.6180  154.4307 C   0  0  0  0  0  0  0  0  0  0  0  0
  149.2066  140.3385  154.9569 C   0  0  0  0  0  0  0  0  0  0  0  0
  150.5318  140.1873  154.4618 O   0  0  0  0  0  0  0  0  0  0  0  0
  151.3177  139.1881  155.1077 C   0  0  2  0  0  0  0  0  0  0  0  0
  150.6236  137.8359  154.8848 C   0  0  0  0  0  0  0  0  0  0  0  0
  151.4652  139.5028  156.6052 C   0  0  0  0  0  0  0  0  0  0  0  0
  151.1238  138.6656  157.4420 O   0  0  0  0  0  0  0  0  0  0  0  0
  151.9602  140.7199  156.8955 N   0  0  0  0  0  0  0  0  0  0  0  0
  152.2123  141.3002  158.1690 C   0  0  0  0  0  0  0  0  0  0  0  0
  151.6511  142.4682  158.5714 N   0  0  0  0  0  0  0  0  0  0  0  0
  151.9395  142.9526  159.7969 C   0  0  0  0  0  0  0  0  0  0  0  0
  152.8024  142.3050  160.6984 C   0  0  0  0  0  0  0  0  0  0  0  0
  153.3913  141.0938  160.2960 C   0  0  0  0  0  0  0  0  0  0  0  0
  153.0963  140.5812  159.0167 C   0  0  0  0  0  0  0  0  0  0  0  0
  153.6711  139.4023  158.6252 O   0  5  0  0  0  0  0  0  0  0  0  0
  146.7810  140.8219  153.6900 H   0  0  0  0  0  0  0  0  0  0  0  0
  147.0152  142.6445  153.4790 H   0  0  0  0  0  0  0  0  0  0  0  0
  149.1833  142.5151  154.5570 H   0  0  0  0  0  0  0  0  0  0  0  0
  149.2157  140.3866  156.0466 H   0  0  0  0  0  0  0  0  0  0  0  0
  148.5811  139.4924  154.6699 H   0  0  0  0  0  0  0  0  0  0  0  0
  152.3033  139.1449  154.6395 H   0  0  0  0  0  0  0  0  0  0  0  0
  151.1695  137.0260  155.3700 H   0  0  0  0  0  0  0  0  0  0  0  0
  150.5660  137.6031  153.8214 H   0  0  0  0  0  0  0  0  0  0  0  0
  149.6055  137.8368  155.2762 H   0  0  0  0  0  0  0  0  0  0  0  0
  152.1873  141.3135  156.1106 H   0  0  0  0  0  0  0  0  0  0  0  0
  151.4668  143.8851  160.0669 H   0  0  0  0  0  0  0  0  0  0  0  0
  153.0072  142.7254  161.6715 H   0  0  0  0  0  0  0  0  0  0  0  0
  154.0599  140.5666  160.9610 H   0  0  0  0  0  0  0  0  0  0  0  0
  1  2  2  0  0  0  0
  1 17  1  0  0  0  0
  1 18  1  0  0  0  0
  2  3  1  0  0  0  0
  2 19  1  0  0  0  0
  3  4  1  0  0  0  0
  3 20  1  0  0  0  0
  3 21  1  0  0  0  0
  4  5  1  0  0  0  0
  5  6  1  0  0  0  0
  5  7  1  0  0  0  0
  5 22  1  0  0  0  0
  6 23  1  0  0  0  0
  6 24  1  0  0  0  0
  6 25  1  0  0  0  0
  7  8  2  0  0  0  0
  7  9  1  0  0  0  0
  9 26  1  0  0  0  0
  9 10  1  0  0  0  0
 10 15  2  0  0  0  0
 10 11  1  0  0  0  0
 11 12  2  0  0  0  0
 12 27  1  0  0  0  0
 12 13  1  0  0  0  0
 13 28  1  0  0  0  0
 13 14  2  0  0  0  0
 14 15  1  0  0  0  0
 14 29  1  0  0  0  0
 15 16  1  0  0  0  0
M  CHG  1  16  -1
M  END
> <s_m_source_file>
AV-unprocessed.smi

> <i_m_source_file_index>
3208

> <i_lp_mmshare_version>
43012

> <i_f3d_flags>
0

> <s_epik_input>
W0NIMl09W0NIXVtDSDJdT1tDQEhdKFtDSDNdKUMoPU8pW05IXWMxbltjSF1bY0hdW2NIXWMxW09IXQ==

> <s_epik_cmdline>
J2VwaWtfcHl0aG9uJywgJy1waCcsICc3LjAnLCAnLXRuJywgJzgnLCAnLW1hJywgJzIwMCcsICctbWV0YWxfYmluZGluZycsICctaW1hZScsICc8aW5maWxlLm1hZT4nLCAnLW9tYWUnLCAnPG91dGZpbGUubWFlPic=

> <r_epik_Ionization_Penalty>
4.05889

> <r_epik_Ionization_Penalty_Charging>
2.07983

> <r_epik_Ionization_Penalty_Neutral>
1.97905

> <r_epik_State_Penalty>
2.65143

> <r_epik_Charging_Adjusted_Penalty>
4.73126

> <i_epik_Tot_Q>
-1

> <i_epik_Tot_abs_Q>
1

> <r_epik_Metal_State_Penalty>
0.650759

> <b_epik_Metal_Only>
0

> <s_lp_Force_Field>
OPLS_2005

> <r_lp_Energy>
4.23541

> <b_lp_Chiralities_Consistent>
1

> <s_lp_Variant>
AV-unprocessed.smi:3208-7

> <Gold.Version>
5.8.1

> <Gold.Id.Protein>
6NUR|6NUR_protein|mol2

> <Gold.PLP.Fitness>
39.8122

> <Gold.PLP.PLP>
-32.1051

> <Gold.PLP.part.hbond>
-1.9843

> <Gold.PLP.part.metal>
0.0000

> <Gold.PLP.part.buried>
-2.8962

> <Gold.PLP.part.nonpolar>
-26.2063

> <Gold.PLP.part.repulsive>
0.2610

> <Gold.PLP.ligand.clash>
0.0000

> <Gold.PLP.ligand.torsion>
0.6644

> <Gold.PLP.Chemscore.Hbond>
3.0000

> <Gold.PLP.Chemscore.CHOScore>
0.0000

> <Gold.PLP.Chemscore.Metal>
0.0000

> <Gold.Chemscore.Hbonds>
donor molecule, donor type, donor heavy atom, donor atom, acceptor molecule, acceptor atom, score
      P1  H  7989  7998       L1     4  1.00
      P1  H  7997  8008       L1    16  2.00

> <Gold.PLP.Chemscore.Internal.Correction>
0.0359

> <Gold.Rescore>
     Score         DG    S(hbond)    S(metal)    S(lipo)     H(rot)  DE(clash)    DE(int)     intcor
     15.26     -16.10       1.87        0.00      73.49       1.65       0.02       0.82       ----

> <Gold.Chemscore.Fitness>
15.2580

> <Gold.Chemscore.DG>
-16.0951

> <Gold.Chemscore.ZeroCoef>
-5.4800

> <Gold.Chemscore.Hbond>
1.8711

> <Gold.Chemscore.Metal>
0.0000

> <Gold.Chemscore.Lipo>
73.4880

> <Gold.Chemscore.Internal_Hbond>
0.0000

> <Gold.Chemscore.DEClash>
0.0208

> <Gold.Chemscore.DEInternal>
0.8163

> <Gold.Chemscore.Rot>
1.6533

> <Gold.Chemscore.Internal.Correction>
   9.000000E+99

> <Gold.Chemscore.Hbonds>
donor molecule, donor type, donor heavy atom, donor atom, acceptor molecule, acceptor atom, score
      P1  H  7989  7998       L1     4  0.34
      P1  H  7997  8008       L1    16  0.25

> <Gold.Chemscore.Hbond.Weighted>
-6.2494

> <Gold.Chemscore.Metal.Weighted>
-0.0000

> <Gold.Chemscore.Lipo.Weighted>
-8.5981

> <Gold.Chemscore.Internal_Hbond.Weighted>
0.0000

> <Gold.Chemscore.DEClash.Weighted>
0.0208

> <Gold.Chemscore.DEInternal.Weighted>
0.8163

> <Gold.Chemscore.Rot.Weighted>
4.2324

> <Gold.Chemscore.Internal.Correction.Weighted>
   9.000000E+99

> <Gold.Protein.RotatedTorsions>
[ 6907 6896 6895 6894 ] final  -98.61 input  -60.11 | X-H torsion
[ 7974 7965 7964 7962 ] final  141.02 input  175.53 | X-H torsion
[ 8008 7997 7996 7995 ] final  -98.16 input   59.86 | X-H torsion
[ 10167 10162 10161 10158 ] final  171.67 input  -65.29 | X-H torsion
[ 10718 10713 10712 10709 ] final  135.47 input   66.30 | X-H torsion
[ 10763 10752 10751 10750 ] final   85.83 input  -60.55 | X-H torsion
[ 11005 11000 10999 10996 ] final -122.10 input  -57.11 | X-H torsion

> <Gold.Protein.ActiveResidues>
 VAL166  LYS551  ARG553  GLY616  TRP617  ASP618  TYR619  PRO620  LYS621  CYS622 
 ASP623  PHE694  ASN695  SER759  ASP760  ASP761  ALA762  ILE779  LEU786  VAL792 
 PHE793  MET794  SER795  GLU796  ALA797  LYS798  CYS799  TRP800  GLU811  SER814 

> <Gold.Protein.RotatedAtoms>
  150.7052  134.1168  159.4019 H   0  0  0  0  0  0  0  0  0  0  0  0  # atno 6907 bound_to 6896
  151.9154  135.0319  160.0527 H   0  0  0  0  0  0  0  0  0  0  0  0  # atno 6908 bound_to 6896
  152.2300  133.5016  159.5247 H   0  0  0  0  0  0  0  0  0  0  0  0  # atno 6909 bound_to 6896
  144.9133  139.5263  143.5698 H   0  0  0  0  0  0  0  0  0  0  0  0  # atno 7974 bound_to 7965
  154.7974  140.0457  157.1247 H   0  0  0  0  0  0  0  0  0  0  0  0  # atno 8008 bound_to 7997
  154.9519  140.3066  155.5051 H   0  0  0  0  0  0  0  0  0  0  0  0  # atno 8009 bound_to 7997
  156.2957  140.2286  156.4597 H   0  0  0  0  0  0  0  0  0  0  0  0  # atno 8010 bound_to 7997
  139.5053  144.3460  151.9971 H   0  0  0  0  0  0  0  0  0  0  0  0  # atno 10167 bound_to 10162
  157.4567  131.1070  150.9969 H   0  0  0  0  0  0  0  0  0  0  0  0  # atno 10718 bound_to 10713
  153.1512  135.4603  154.9639 H   0  0  0  0  0  0  0  0  0  0  0  0  # atno 10763 bound_to 10752
  154.7826  135.3193  154.7958 H   0  0  0  0  0  0  0  0  0  0  0  0  # atno 10764 bound_to 10752
  153.8463  135.6925  153.4851 H   0  0  0  0  0  0  0  0  0  0  0  0  # atno 10765 bound_to 10752
  141.0020  134.0388  157.3525 H   0  0  0  0  0  0  0  0  0  0  0  0  # atno 11005 bound_to 11000
  146.3169  139.7957  142.8976 LP  0  0  0  0  0  0  0  0  0  0  0  0  # atno 17320 bound_to 7965
  145.3417  141.0289  143.3388 LP  0  0  0  0  0  0  0  0  0  0  0  0  # atno 17321 bound_to 7965
  140.2897  144.3767  150.6092 LP  0  0  0  0  0  0  0  0  0  0  0  0  # atno 17342 bound_to 10162
  140.5956  143.2167  151.7171 LP  0  0  0  0  0  0  0  0  0  0  0  0  # atno 17343 bound_to 10162
  157.0781  130.5891  149.5415 LP  0  0  0  0  0  0  0  0  0  0  0  0  # atno 17370 bound_to 10713
  156.0010  130.5089  150.7663 LP  0  0  0  0  0  0  0  0  0  0  0  0  # atno 17371 bound_to 10713
  139.9044  135.0175  156.7417 LP  0  0  0  0  0  0  0  0  0  0  0  0  # atno 17394 bound_to 11000
  140.6873  133.9421  155.7945 LP  0  0  0  0  0  0  0  0  0  0  0  0  # atno 17395 bound_to 11000

$$$$
