AV-unprocessed.smi:1001|AV-procd|sdf|4357|dock4
  -GOLD-   22720 2253D 1   1.00000     0.00000
 Structure written by MMmdl.
 47 48  0  0  0  0  0  0  0  0  1 V2000
  146.7983  130.4260  161.8021 N   0  0  0  0  0  0  0  0  0  0  0  0
  147.2841  131.1676  160.7991 C   0  0  0  0  0  0  0  0  0  0  0  0
  147.3316  130.7427  159.6453 O   0  0  0  0  0  0  0  0  0  0  0  0
  147.7605  132.5297  161.1673 C   0  0  0  0  0  0  0  0  0  0  0  0
  147.4738  132.9953  162.5137 C   0  0  0  0  0  0  0  0  0  0  0  0
  147.8936  134.2291  162.8692 C   0  0  0  0  0  0  0  0  0  0  0  0
  148.6223  135.0963  161.9421 C   0  0  0  0  0  0  0  0  0  0  0  0
  149.0132  136.2244  162.2411 O   0  0  0  0  0  0  0  0  0  0  0  0
  148.8321  134.5393  160.7100 N   0  0  0  0  0  0  0  0  0  0  0  0
  149.5652  135.2661  159.6632 C   0  0  0  0  0  0  0  0  0  0  0  0
  149.0338  136.6884  159.4326 C   0  0  0  0  0  0  0  0  0  0  0  0
  147.9243  137.0201  159.8525 O   0  0  0  0  0  0  0  0  0  0  0  0
  149.8489  137.5246  158.7721 N   0  0  0  0  0  0  0  0  0  0  0  0
  149.5273  138.9037  158.4246 C   0  0  0  0  0  0  0  0  0  0  0  0
  150.6691  139.5620  157.6326 C   0  0  0  0  0  0  0  0  0  0  0  0
  151.7031  140.2438  158.5443 C   0  0  0  0  0  0  0  0  0  0  0  0
  151.2247  141.5841  159.1404 C   0  0  0  0  0  0  0  0  0  0  0  0
  150.7410  142.5759  158.0591 C   0  0  0  0  0  0  0  0  0  0  0  0
  150.2801  143.9080  158.6731 C   0  0  0  0  0  0  0  0  0  0  0  0
  151.3870  144.5424  159.5278 C   0  0  0  0  0  0  0  0  0  0  0  0
  151.8760  143.5666  160.6083 C   0  0  0  0  0  0  0  0  0  0  0  0
  152.3351  142.2353  159.9910 C   0  0  0  0  0  0  0  0  0  0  0  0
  148.4030  133.2777  160.3296 N   0  0  0  0  0  0  0  0  0  0  0  0
  146.4567  129.4939  161.6180 H   0  0  0  0  0  0  0  0  0  0  0  0
  146.7730  130.8029  162.7387 H   0  0  0  0  0  0  0  0  0  0  0  0
  146.9388  132.3758  163.2187 H   0  0  0  0  0  0  0  0  0  0  0  0
  147.6880  134.5877  163.8669 H   0  0  0  0  0  0  0  0  0  0  0  0
  150.6227  135.3388  159.9231 H   0  0  0  0  0  0  0  0  0  0  0  0
  149.5317  134.7031  158.7283 H   0  0  0  0  0  0  0  0  0  0  0  0
  150.7463  137.1744  158.4690 H   0  0  0  0  0  0  0  0  0  0  0  0
  148.5950  138.9405  157.8586 H   0  0  0  0  0  0  0  0  0  0  0  0
  149.3508  139.4542  159.3491 H   0  0  0  0  0  0  0  0  0  0  0  0
  151.1550  138.8041  157.0184 H   0  0  0  0  0  0  0  0  0  0  0  0
  150.2574  140.3005  156.9435 H   0  0  0  0  0  0  0  0  0  0  0  0
  151.9376  139.5603  159.3614 H   0  0  0  0  0  0  0  0  0  0  0  0
  152.6361  140.3928  157.9994 H   0  0  0  0  0  0  0  0  0  0  0  0
  150.3862  141.3727  159.8057 H   0  0  0  0  0  0  0  0  0  0  0  0
  151.5441  142.7638  157.3451 H   0  0  0  0  0  0  0  0  0  0  0  0
  149.9162  142.1496  157.4890 H   0  0  0  0  0  0  0  0  0  0  0  0
  149.9803  144.5968  157.8830 H   0  0  0  0  0  0  0  0  0  0  0  0
  149.3947  143.7391  159.2875 H   0  0  0  0  0  0  0  0  0  0  0  0
  152.2227  144.8305  158.8890 H   0  0  0  0  0  0  0  0  0  0  0  0
  151.0203  145.4589  159.9912 H   0  0  0  0  0  0  0  0  0  0  0  0
  152.6939  144.0166  161.1716 H   0  0  0  0  0  0  0  0  0  0  0  0
  151.0736  143.3803  161.3232 H   0  0  0  0  0  0  0  0  0  0  0  0
  152.6418  141.5569  160.7877 H   0  0  0  0  0  0  0  0  0  0  0  0
  153.2189  142.4063  159.3748 H   0  0  0  0  0  0  0  0  0  0  0  0
  1  2  1  0  0  0  0
  1 24  1  0  0  0  0
  1 25  1  0  0  0  0
  2  3  2  0  0  0  0
  2  4  1  0  0  0  0
  4 23  2  0  0  0  0
  4  5  1  0  0  0  0
  5  6  2  0  0  0  0
  5 26  1  0  0  0  0
  6  7  1  0  0  0  0
  6 27  1  0  0  0  0
  7  8  2  0  0  0  0
  7  9  1  0  0  0  0
  9 10  1  0  0  0  0
  9 23  1  0  0  0  0
 10 11  1  0  0  0  0
 10 28  1  0  0  0  0
 10 29  1  0  0  0  0
 11 12  2  0  0  0  0
 11 13  1  0  0  0  0
 13 14  1  0  0  0  0
 13 30  1  0  0  0  0
 14 15  1  0  0  0  0
 14 31  1  0  0  0  0
 14 32  1  0  0  0  0
 15 16  1  0  0  0  0
 15 33  1  0  0  0  0
 15 34  1  0  0  0  0
 16 17  1  0  0  0  0
 16 35  1  0  0  0  0
 16 36  1  0  0  0  0
 17 22  1  0  0  0  0
 17 18  1  0  0  0  0
 17 37  1  0  0  0  0
 18 19  1  0  0  0  0
 18 38  1  0  0  0  0
 18 39  1  0  0  0  0
 19 20  1  0  0  0  0
 19 40  1  0  0  0  0
 19 41  1  0  0  0  0
 20 21  1  0  0  0  0
 20 42  1  0  0  0  0
 20 43  1  0  0  0  0
 21 22  1  0  0  0  0
 21 44  1  0  0  0  0
 21 45  1  0  0  0  0
 22 46  1  0  0  0  0
 22 47  1  0  0  0  0
M  END
> <s_m_source_file>
AV-unprocessed.smi

> <i_m_source_file_index>
1001

> <i_lp_mmshare_version>
43012

> <i_f3d_flags>
0

> <s_epik_input>
W05IMl1DKD1PKWMxW2NIXVtjSF1jKD1PKW4objEpW0NIMl1DKD1PKVtOSF1bQ0gyXVtDSDJdW0NIMl1bQ0hdMltDSDJdW0NIMl1bQ0gyXVtDSDJdW0NIMl0y

> <s_epik_cmdline>
J2VwaWtfcHl0aG9uJywgJy1waCcsICc3LjAnLCAnLXRuJywgJzgnLCAnLW1hJywgJzIwMCcsICctbWV0YWxfYmluZGluZycsICctaW1hZScsICc8aW5maWxlLm1hZT4nLCAnLW9tYWUnLCAnPG91dGZpbGUubWFlPic=

> <r_lp_tautomer_probability>
1

> <r_epik_Ionization_Penalty>
2.90452e-06

> <r_epik_Ionization_Penalty_Charging>
3.08996e-10

> <r_epik_Ionization_Penalty_Neutral>
2.90421e-06

> <r_epik_State_Penalty>
-0

> <r_epik_Charging_Adjusted_Penalty>
3.08996e-10

> <i_epik_Tot_Q>
0

> <i_epik_Tot_abs_Q>
0

> <r_epik_Metal_State_Penalty>
-0

> <b_epik_Metal_Only>
0

> <s_lp_Force_Field>
OPLS_2005

> <r_lp_Energy>
27.0219

> <b_lp_Chiralities_Consistent>
1

> <s_lp_Variant>
AV-unprocessed.smi:1001-1

> <Gold.Version>
5.8.1

> <Gold.Id.Protein>
6NUR|6NUR_protein|mol2

> <Gold.PLP.Fitness>
49.0684

> <Gold.PLP.PLP>
-44.8276

> <Gold.PLP.part.hbond>
-3.0000

> <Gold.PLP.part.metal>
0.0000

> <Gold.PLP.part.buried>
-5.9866

> <Gold.PLP.part.nonpolar>
-37.2505

> <Gold.PLP.part.repulsive>
0.1967

> <Gold.PLP.ligand.clash>
0.0000

> <Gold.PLP.ligand.torsion>
0.5928

> <Gold.PLP.Chemscore.Hbond>
1.7200

> <Gold.PLP.Chemscore.CHOScore>
0.0000

> <Gold.PLP.Chemscore.Metal>
0.0000

> <Gold.Chemscore.Hbonds>
donor molecule, donor type, donor heavy atom, donor atom, acceptor molecule, acceptor atom, score
      P1  H  6931  6943       L1     8  1.00
      P1  H  6934  6947       L1    12  0.10

> <Gold.PLP.Chemscore.Internal.Correction>
0.2663

> <Gold.Rescore>
     Score         DG    S(hbond)    S(metal)    S(lipo)     H(rot)  DE(clash)    DE(int)     intcor
     14.76     -16.05       1.53        0.00     100.42       2.46       0.54       0.75       ----

> <Gold.Chemscore.Fitness>
14.7612

> <Gold.Chemscore.DG>
-16.0493

> <Gold.Chemscore.ZeroCoef>
-5.4800

> <Gold.Chemscore.Hbond>
1.5316

> <Gold.Chemscore.Metal>
0.0000

> <Gold.Chemscore.Lipo>
100.4242

> <Gold.Chemscore.Internal_Hbond>
0.0000

> <Gold.Chemscore.DEClash>
0.5431

> <Gold.Chemscore.DEInternal>
0.7451

> <Gold.Chemscore.Rot>
2.4593

> <Gold.Chemscore.Internal.Correction>
   9.000000E+99

> <Gold.Chemscore.Hbonds>
donor molecule, donor type, donor heavy atom, donor atom, acceptor molecule, acceptor atom, score
      P1  H  6931  6943       L1     8  0.92
      P1  H  6934  6947       L1    12  0.11

> <Gold.Chemscore.Hbond.Weighted>
-5.1155

> <Gold.Chemscore.Metal.Weighted>
-0.0000

> <Gold.Chemscore.Lipo.Weighted>
-11.7496

> <Gold.Chemscore.Internal_Hbond.Weighted>
0.0000

> <Gold.Chemscore.DEClash.Weighted>
0.5431

> <Gold.Chemscore.DEInternal.Weighted>
0.7451

> <Gold.Chemscore.Rot.Weighted>
6.2958

> <Gold.Chemscore.Internal.Correction.Weighted>
   9.000000E+99

> <Gold.Protein.RotatedTorsions>
[ 6907 6896 6895 6894 ] final  -54.02 input  -60.11 | X-H torsion
[ 7974 7965 7964 7962 ] final -142.42 input  175.53 | X-H torsion
[ 8008 7997 7996 7995 ] final -100.53 input   59.86 | X-H torsion
[ 10167 10162 10161 10158 ] final -123.66 input  -65.29 | X-H torsion
[ 10718 10713 10712 10709 ] final   -3.67 input   66.30 | X-H torsion
[ 10763 10752 10751 10750 ] final -149.64 input  -60.55 | X-H torsion
[ 11005 11000 10999 10996 ] final   83.80 input  -57.11 | X-H torsion

> <Gold.Protein.ActiveResidues>
 VAL166  LYS551  ARG553  GLY616  TRP617  ASP618  TYR619  PRO620  LYS621  CYS622 
 ASP623  PHE694  ASN695  SER759  ASP760  ASP761  ALA762  ILE779  LEU786  VAL792 
 PHE793  MET794  SER795  GLU796  ALA797  LYS798  CYS799  TRP800  GLU811  SER814 

> <Gold.Protein.RotatedAtoms>
  150.8374  134.7653  159.6904 H   0  0  0  0  0  0  0  0  0  0  0  0  # atno 6907 bound_to 6896
  152.4468  134.5473  159.9866 H   0  0  0  0  0  0  0  0  0  0  0  0  # atno 6908 bound_to 6896
  151.5621  133.3364  159.3009 H   0  0  0  0  0  0  0  0  0  0  0  0  # atno 6909 bound_to 6896
  144.8445  140.5960  143.5431 H   0  0  0  0  0  0  0  0  0  0  0  0  # atno 7974 bound_to 7965
  154.8299  140.0440  157.1470 H   0  0  0  0  0  0  0  0  0  0  0  0  # atno 8008 bound_to 7997
  154.9164  140.3020  155.5219 H   0  0  0  0  0  0  0  0  0  0  0  0  # atno 8009 bound_to 7997
  156.2986  140.2349  156.4209 H   0  0  0  0  0  0  0  0  0  0  0  0  # atno 8010 bound_to 7997
  140.0011  143.5540  152.2303 H   0  0  0  0  0  0  0  0  0  0  0  0  # atno 10167 bound_to 10162
  156.7727  130.5305  149.5764 H   0  0  0  0  0  0  0  0  0  0  0  0  # atno 10718 bound_to 10713
  154.8165  135.3304  154.7161 H   0  0  0  0  0  0  0  0  0  0  0  0  # atno 10763 bound_to 10752
  153.7800  135.6919  153.4894 H   0  0  0  0  0  0  0  0  0  0  0  0  # atno 10764 bound_to 10752
  153.1986  135.4524  155.0186 H   0  0  0  0  0  0  0  0  0  0  0  0  # atno 10765 bound_to 10752
  139.9020  134.8170  156.2358 H   0  0  0  0  0  0  0  0  0  0  0  0  # atno 11005 bound_to 11000
  145.4626  139.1511  143.3858 LP  0  0  0  0  0  0  0  0  0  0  0  0  # atno 17320 bound_to 7965
  146.2732  140.4757  142.8806 LP  0  0  0  0  0  0  0  0  0  0  0  0  # atno 17321 bound_to 7965
  139.6271  144.7639  151.2615 LP  0  0  0  0  0  0  0  0  0  0  0  0  # atno 17342 bound_to 10162
  140.7418  143.6544  150.8219 LP  0  0  0  0  0  0  0  0  0  0  0  0  # atno 17343 bound_to 10162
  156.1268  130.6149  151.0275 LP  0  0  0  0  0  0  0  0  0  0  0  0  # atno 17370 bound_to 10713
  157.6683  131.0867  150.7673 LP  0  0  0  0  0  0  0  0  0  0  0  0  # atno 17371 bound_to 10713
  141.0316  133.6985  156.1440 LP  0  0  0  0  0  0  0  0  0  0  0  0  # atno 17394 bound_to 11000
  140.7087  134.4485  157.5583 LP  0  0  0  0  0  0  0  0  0  0  0  0  # atno 17395 bound_to 11000

$$$$
