AV-unprocessed.smi:1720|AV-procd|sdf|6931|dock3
  -GOLD-   22720 8143D 1   1.00000     0.00000
 Structure written by MMmdl.
 32 33  0  0  0  0  0  0  0  0  1 V2000
  151.4570  141.3270  158.0673 C   0  0  0  0  0  0  0  0  0  0  0  0
  150.2673  142.2742  158.2868 C   0  0  2  0  0  0  0  0  0  0  0  0
  149.5415  142.4066  157.0252 N   0  0  0  0  0  0  0  0  0  0  0  0
  149.0883  141.3923  156.2743 C   0  0  0  0  0  0  0  0  0  0  0  0
  149.2401  140.2054  156.5642 O   0  0  0  0  0  0  0  0  0  0  0  0
  148.4547  141.8436  155.1795 N   0  0  0  0  0  0  0  0  0  0  0  0
  147.8374  141.0723  154.1624 C   0  0  0  0  0  0  0  0  0  0  0  0
  147.9457  139.6605  154.0388 C   0  0  0  0  0  0  0  0  0  0  0  0
  147.2642  139.2127  152.9938 N   0  0  0  0  0  0  0  0  0  0  0  0
  146.7216  140.3254  152.4497 N   0  0  0  0  0  0  0  0  0  0  0  0
  147.0434  141.4806  153.1274 C   0  0  0  0  0  0  0  0  0  0  0  0
  150.7115  143.6647  158.7867 C   0  0  2  0  0  0  0  0  0  0  0  0
  151.7393  144.3660  157.8976 C   0  0  0  0  0  0  0  0  0  0  0  0
  152.4405  145.3240  158.8472 C   0  0  0  0  0  0  0  0  0  0  0  0
  152.0734  144.8039  160.2395 C   0  0  0  0  0  0  0  0  0  0  0  0
  151.4184  143.5638  160.0137 O   0  0  0  0  0  0  0  0  0  0  0  0
  146.1406  140.2808  151.6246 H   0  0  0  0  0  0  0  0  0  0  0  0
  151.9962  141.1434  158.9967 H   0  0  0  0  0  0  0  0  0  0  0  0
  152.1651  141.7385  157.3473 H   0  0  0  0  0  0  0  0  0  0  0  0
  151.1232  140.3595  157.6911 H   0  0  0  0  0  0  0  0  0  0  0  0
  149.6181  141.8198  159.0375 H   0  0  0  0  0  0  0  0  0  0  0  0
  149.3641  143.3469  156.7044 H   0  0  0  0  0  0  0  0  0  0  0  0
  148.4032  142.8449  155.0641 H   0  0  0  0  0  0  0  0  0  0  0  0
  148.4853  138.9601  154.6593 H   0  0  0  0  0  0  0  0  0  0  0  0
  146.6871  142.4517  152.8170 H   0  0  0  0  0  0  0  0  0  0  0  0
  149.8447  144.3125  158.9325 H   0  0  0  0  0  0  0  0  0  0  0  0
  152.4598  143.6429  157.5128 H   0  0  0  0  0  0  0  0  0  0  0  0
  151.2850  144.8738  157.0461 H   0  0  0  0  0  0  0  0  0  0  0  0
  153.5183  145.3195  158.6825 H   0  0  0  0  0  0  0  0  0  0  0  0
  152.0843  146.3463  158.7155 H   0  0  0  0  0  0  0  0  0  0  0  0
  152.9451  144.6738  160.8812 H   0  0  0  0  0  0  0  0  0  0  0  0
  151.3846  145.4888  160.7359 H   0  0  0  0  0  0  0  0  0  0  0  0
  1  2  1  0  0  0  0
  1 18  1  0  0  0  0
  1 19  1  0  0  0  0
  1 20  1  0  0  0  0
  2  3  1  0  0  0  0
  2 12  1  0  0  0  0
  2 21  1  0  0  0  0
  3  4  1  0  0  0  0
  3 22  1  0  0  0  0
  4  5  2  0  0  0  0
  4  6  1  0  0  0  0
  6  7  1  0  0  0  0
  6 23  1  0  0  0  0
  7 11  2  0  0  0  0
  7  8  1  0  0  0  0
  8  9  2  0  0  0  0
  8 24  1  0  0  0  0
  9 10  1  0  0  0  0
 10 17  1  0  0  0  0
 10 11  1  0  0  0  0
 11 25  1  0  0  0  0
 12 16  1  0  0  0  0
 12 13  1  0  0  0  0
 12 26  1  0  0  0  0
 13 14  1  0  0  0  0
 13 27  1  0  0  0  0
 13 28  1  0  0  0  0
 14 15  1  0  0  0  0
 14 29  1  0  0  0  0
 14 30  1  0  0  0  0
 15 16  1  0  0  0  0
 15 31  1  0  0  0  0
 15 32  1  0  0  0  0
M  END
> <s_m_source_file>
AV-unprocessed.smi

> <i_m_source_file_index>
1720

> <i_lp_mmshare_version>
43012

> <i_f3d_flags>
0

> <s_epik_input>
TzFbQ0gyXVtDSDJdW0NIMl1bQ0BIXTFbQ0BIXShbQ0gzXSlbTkhdQyg9TylbTkhdYzJbY0hdbltuSF1bY0hdMg==

> <s_epik_cmdline>
J2VwaWtfcHl0aG9uJywgJy1waCcsICc3LjAnLCAnLXRuJywgJzgnLCAnLW1hJywgJzIwMCcsICctbWV0YWxfYmluZGluZycsICctaW1hZScsICc8aW5maWxlLm1hZT4nLCAnLW9tYWUnLCAnPG91dGZpbGUubWFlPic=

> <r_lp_tautomer_probability>
1

> <r_epik_Ionization_Penalty>
4.95841e-05

> <r_epik_Ionization_Penalty_Charging>
0

> <r_epik_Ionization_Penalty_Neutral>
4.95841e-05

> <r_epik_State_Penalty>
-0

> <r_epik_Charging_Adjusted_Penalty>
0

> <i_epik_Tot_Q>
0

> <i_epik_Tot_abs_Q>
0

> <r_epik_Metal_State_Penalty>
-0

> <b_epik_Metal_Only>
0

> <s_lp_Force_Field>
OPLS_2005

> <r_lp_Energy>
20.531

> <b_lp_Chiralities_Consistent>
1

> <s_lp_Variant>
AV-unprocessed.smi:1720-1

> <Gold.Version>
5.8.1

> <Gold.Id.Protein>
6NUR|6NUR_protein|mol2

> <Gold.PLP.Fitness>
36.3604

> <Gold.PLP.PLP>
-30.4808

> <Gold.PLP.part.hbond>
-3.8034

> <Gold.PLP.part.metal>
0.0000

> <Gold.PLP.part.buried>
-7.0843

> <Gold.PLP.part.nonpolar>
-21.0779

> <Gold.PLP.part.repulsive>
1.8422

> <Gold.PLP.ligand.clash>
0.0000

> <Gold.PLP.ligand.torsion>
0.0711

> <Gold.PLP.Chemscore.Hbond>
2.0000

> <Gold.PLP.Chemscore.CHOScore>
0.0000

> <Gold.PLP.Chemscore.Metal>
0.0000

> <Gold.Chemscore.Hbonds>
donor molecule, donor type, donor heavy atom, donor atom, acceptor molecule, acceptor atom, score
      L1  H     3    22       P1  8028  1.00
      L1  H     6    23       P1  8028  1.00

> <Gold.PLP.Chemscore.Internal.Correction>
0.0218

> <Gold.Rescore>
     Score         DG    S(hbond)    S(metal)    S(lipo)     H(rot)  DE(clash)    DE(int)     intcor
     15.72     -18.24       1.99        0.00      80.96       1.31       0.09       2.43       ----

> <Gold.Chemscore.Fitness>
15.7223

> <Gold.Chemscore.DG>
-18.2397

> <Gold.Chemscore.ZeroCoef>
-5.4800

> <Gold.Chemscore.Hbond>
1.9866

> <Gold.Chemscore.Metal>
0.0000

> <Gold.Chemscore.Lipo>
80.9632

> <Gold.Chemscore.Internal_Hbond>
0.0000

> <Gold.Chemscore.DEClash>
0.0872

> <Gold.Chemscore.DEInternal>
2.4302

> <Gold.Chemscore.Rot>
1.3079

> <Gold.Chemscore.Internal.Correction>
   9.000000E+99

> <Gold.Chemscore.Hbonds>
donor molecule, donor type, donor heavy atom, donor atom, acceptor molecule, acceptor atom, score
      L1  H     3    22       P1  8028  0.99
      L1  H     6    23       P1  8028  0.92

> <Gold.Chemscore.Hbond.Weighted>
-6.6354

> <Gold.Chemscore.Metal.Weighted>
-0.0000

> <Gold.Chemscore.Lipo.Weighted>
-9.4727

> <Gold.Chemscore.Internal_Hbond.Weighted>
0.0000

> <Gold.Chemscore.DEClash.Weighted>
0.0872

> <Gold.Chemscore.DEInternal.Weighted>
2.4302

> <Gold.Chemscore.Rot.Weighted>
3.3483

> <Gold.Chemscore.Internal.Correction.Weighted>
   9.000000E+99

> <Gold.Protein.RotatedTorsions>
[ 6907 6896 6895 6894 ] final  135.92 input  -60.11 | X-H torsion
[ 7974 7965 7964 7962 ] final    2.30 input  175.53 | X-H torsion
[ 8008 7997 7996 7995 ] final -168.53 input   59.86 | X-H torsion
[ 10167 10162 10161 10158 ] final  107.37 input  -65.29 | X-H torsion
[ 10718 10713 10712 10709 ] final -108.81 input   66.30 | X-H torsion
[ 10763 10752 10751 10750 ] final  149.09 input  -60.55 | X-H torsion
[ 11005 11000 10999 10996 ] final   21.37 input  -57.11 | X-H torsion

> <Gold.Protein.ActiveResidues>
 VAL166  LYS551  ARG553  GLY616  TRP617  ASP618  TYR619  PRO620  LYS621  CYS622 
 ASP623  PHE694  ASN695  SER759  ASP760  ASP761  ALA762  ILE779  LEU786  VAL792 
 PHE793  MET794  SER795  GLU796  ALA797  LYS798  CYS799  TRP800  GLU811  SER814 

> <Gold.Protein.RotatedAtoms>
  152.2951  133.5599  159.5581 H   0  0  0  0  0  0  0  0  0  0  0  0  # atno 6907 bound_to 6896
  150.7252  134.0373  159.3762 H   0  0  0  0  0  0  0  0  0  0  0  0  # atno 6908 bound_to 6896
  151.8276  135.0632  160.0483 H   0  0  0  0  0  0  0  0  0  0  0  0  # atno 6909 bound_to 6896
  146.2443  140.0856  142.8354 H   0  0  0  0  0  0  0  0  0  0  0  0  # atno 7974 bound_to 7965
  155.8927  140.1027  157.1407 H   0  0  0  0  0  0  0  0  0  0  0  0  # atno 8008 bound_to 7997
  154.4017  140.1308  156.4399 H   0  0  0  0  0  0  0  0  0  0  0  0  # atno 8009 bound_to 7997
  155.7515  140.3465  155.5155 H   0  0  0  0  0  0  0  0  0  0  0  0  # atno 8010 bound_to 7997
  139.6933  144.7105  151.1311 H   0  0  0  0  0  0  0  0  0  0  0  0  # atno 10167 bound_to 10162
  156.0504  130.5732  150.8012 H   0  0  0  0  0  0  0  0  0  0  0  0  # atno 10718 bound_to 10713
  154.0654  135.2871  155.3317 H   0  0  0  0  0  0  0  0  0  0  0  0  # atno 10763 bound_to 10752
  154.6781  135.5274  153.8230 H   0  0  0  0  0  0  0  0  0  0  0  0  # atno 10764 bound_to 10752
  153.0506  135.6574  154.0840 H   0  0  0  0  0  0  0  0  0  0  0  0  # atno 10765 bound_to 10752
  140.3923  134.1806  155.7663 H   0  0  0  0  0  0  0  0  0  0  0  0  # atno 11005 bound_to 11000
  145.0695  140.9145  143.4891 LP  0  0  0  0  0  0  0  0  0  0  0  0  # atno 17320 bound_to 7965
  145.0987  139.2838  143.5697 LP  0  0  0  0  0  0  0  0  0  0  0  0  # atno 17321 bound_to 7965
  140.7689  143.5528  150.9185 LP  0  0  0  0  0  0  0  0  0  0  0  0  # atno 17342 bound_to 10162
  139.9206  143.6610  152.3097 LP  0  0  0  0  0  0  0  0  0  0  0  0  # atno 17343 bound_to 10162
  157.5425  131.0941  150.9808 LP  0  0  0  0  0  0  0  0  0  0  0  0  # atno 17370 bound_to 10713
  157.0087  130.5628  149.5318 LP  0  0  0  0  0  0  0  0  0  0  0  0  # atno 17371 bound_to 10713
  141.1886  133.8256  157.0987 LP  0  0  0  0  0  0  0  0  0  0  0  0  # atno 17394 bound_to 11000
  140.0397  134.9860  157.0939 LP  0  0  0  0  0  0  0  0  0  0  0  0  # atno 17395 bound_to 11000

$$$$
