AV-unprocessed.smi:2010|AV-procd|sdf|8149|dock5
  -GOLD-   2272010393D 1   1.00000     0.00000
 Structure written by MMmdl.
 41 42  0  0  0  0  0  0  0  0  1 V2000
  151.7074  145.4091  159.4139 C   0  0  0  0  0  0  0  0  0  0  0  0
  152.1498  144.0307  158.9027 C   0  0  0  0  0  0  0  0  0  0  0  0
  151.0880  143.3899  157.9988 C   0  0  0  0  0  0  0  0  0  0  0  0
  151.5346  142.0079  157.4929 C   0  0  0  0  0  0  0  0  0  0  0  0
  151.8995  141.1119  158.6073 N   0  0  0  0  0  0  0  0  0  0  0  0
  152.0435  139.4262  158.2329 S   0  0  0  0  0  0  0  0  0  0  0  0
  153.4490  139.1217  157.9239 O   0  0  0  0  0  0  0  0  0  0  0  0
  151.3083  138.6545  159.2463 O   0  0  0  0  0  0  0  0  0  0  0  0
  151.1511  139.3855  156.7586 N   0  0  0  0  0  0  0  0  0  0  0  0
  150.9425  138.1097  156.0701 C   0  0  2  0  0  0  0  0  0  0  0  0
  152.2085  137.2444  156.1825 C   0  0  0  0  0  0  0  0  0  0  0  0
  150.4808  138.3680  154.6199 C   0  0  0  0  0  0  0  0  0  0  0  0
  149.5390  139.4686  154.4938 N   0  0  0  0  0  0  0  0  0  0  0  0
  148.2117  139.4212  154.1217 C   0  0  0  0  0  0  0  0  0  0  0  0
  147.7367  140.7012  154.1437 C   0  0  0  0  0  0  0  0  0  0  0  0
  148.8636  141.4728  154.5425 C   0  0  0  0  0  0  0  0  0  0  0  0
  149.9410  140.7331  154.7493 N   0  0  0  0  0  0  0  0  0  0  0  0
  152.8959  141.6880  159.5348 C   0  0  0  0  0  0  0  0  0  0  0  0
  152.4525  143.0647  160.0561 C   0  0  0  0  0  0  0  0  0  0  0  0
  150.7951  145.3387  160.0070 H   0  0  0  0  0  0  0  0  0  0  0  0
  151.5142  146.0909  158.5853 H   0  0  0  0  0  0  0  0  0  0  0  0
  152.4777  145.8612  160.0394 H   0  0  0  0  0  0  0  0  0  0  0  0
  153.0617  144.1679  158.3196 H   0  0  0  0  0  0  0  0  0  0  0  0
  150.1485  143.2897  158.5441 H   0  0  0  0  0  0  0  0  0  0  0  0
  150.8816  144.0389  157.1469 H   0  0  0  0  0  0  0  0  0  0  0  0
  150.7282  141.5604  156.9118 H   0  0  0  0  0  0  0  0  0  0  0  0
  152.3899  142.1061  156.8232 H   0  0  0  0  0  0  0  0  0  0  0  0
  151.3933  140.1516  156.1306 H   0  0  0  0  0  0  0  0  0  0  0  0
  150.1292  137.5877  156.5757 H   0  0  0  0  0  0  0  0  0  0  0  0
  152.0804  136.2972  155.6580 H   0  0  0  0  0  0  0  0  0  0  0  0
  152.4374  137.0139  157.2229 H   0  0  0  0  0  0  0  0  0  0  0  0
  153.0791  137.7447  155.7581 H   0  0  0  0  0  0  0  0  0  0  0  0
  151.3480  138.5821  153.9933 H   0  0  0  0  0  0  0  0  0  0  0  0
  150.0202  137.4711  154.2035 H   0  0  0  0  0  0  0  0  0  0  0  0
  147.7217  138.4901  153.8775 H   0  0  0  0  0  0  0  0  0  0  0  0
  146.7370  141.0355  153.9095 H   0  0  0  0  0  0  0  0  0  0  0  0
  148.9309  142.5411  154.6858 H   0  0  0  0  0  0  0  0  0  0  0  0
  153.0532  141.0179  160.3793 H   0  0  0  0  0  0  0  0  0  0  0  0
  153.8529  141.7704  159.0182 H   0  0  0  0  0  0  0  0  0  0  0  0
  153.2319  143.4793  160.6962 H   0  0  0  0  0  0  0  0  0  0  0  0
  151.5680  142.9471  160.6840 H   0  0  0  0  0  0  0  0  0  0  0  0
  1  2  1  0  0  0  0
  1 20  1  0  0  0  0
  1 21  1  0  0  0  0
  1 22  1  0  0  0  0
  2 19  1  0  0  0  0
  2  3  1  0  0  0  0
  2 23  1  0  0  0  0
  3  4  1  0  0  0  0
  3 24  1  0  0  0  0
  3 25  1  0  0  0  0
  4  5  1  0  0  0  0
  4 26  1  0  0  0  0
  4 27  1  0  0  0  0
  5  6  1  0  0  0  0
  5 18  1  0  0  0  0
  6  7  2  0  0  0  0
  6  8  2  0  0  0  0
  6  9  1  0  0  0  0
  9 10  1  0  0  0  0
  9 28  1  0  0  0  0
 10 11  1  0  0  0  0
 10 12  1  0  0  0  0
 10 29  1  0  0  0  0
 11 30  1  0  0  0  0
 11 31  1  0  0  0  0
 11 32  1  0  0  0  0
 12 13  1  0  0  0  0
 12 33  1  0  0  0  0
 12 34  1  0  0  0  0
 13 17  1  0  0  0  0
 13 14  1  0  0  0  0
 14 15  2  0  0  0  0
 14 35  1  0  0  0  0
 15 16  1  0  0  0  0
 15 36  1  0  0  0  0
 16 17  2  0  0  0  0
 16 37  1  0  0  0  0
 18 19  1  0  0  0  0
 18 38  1  0  0  0  0
 18 39  1  0  0  0  0
 19 40  1  0  0  0  0
 19 41  1  0  0  0  0
M  END
> <s_m_source_file>
AV-unprocessed.smi

> <i_m_source_file_index>
2010

> <i_lp_mmshare_version>
43012

> <i_f3d_flags>
0

> <s_epik_input>
W0NIM11bQ0hdMVtDSDJdW0NIMl1OKFtDSDJdW0NIMl0xKVMoPU8pKD1PKVtOSF1bQ0BIXShbQ0gzXSlbQ0gyXW4yW2NIXVtjSF1bY0hdbjI=

> <s_epik_cmdline>
J2VwaWtfcHl0aG9uJywgJy1waCcsICc3LjAnLCAnLXRuJywgJzgnLCAnLW1hJywgJzIwMCcsICctbWV0YWxfYmluZGluZycsICctaW1hZScsICc8aW5maWxlLm1hZT4nLCAnLW9tYWUnLCAnPG91dGZpbGUubWFlPic=

> <r_lp_tautomer_probability>
1

> <r_epik_Ionization_Penalty>
0.0313937

> <r_epik_Ionization_Penalty_Charging>
0

> <r_epik_Ionization_Penalty_Neutral>
0.0313937

> <r_epik_State_Penalty>
0.0259441

> <r_epik_Charging_Adjusted_Penalty>
0.0259441

> <i_epik_Tot_Q>
0

> <i_epik_Tot_abs_Q>
0

> <r_epik_Metal_State_Penalty>
0.365037

> <b_epik_Metal_Only>
0

> <s_lp_Force_Field>
OPLS_2005

> <r_lp_Energy>
8.42971

> <b_lp_Chiralities_Consistent>
1

> <s_lp_Variant>
AV-unprocessed.smi:2010-1

> <Gold.Version>
5.8.1

> <Gold.Id.Protein>
6NUR|6NUR_protein|mol2

> <Gold.PLP.Fitness>
45.0085

> <Gold.PLP.PLP>
-38.3698

> <Gold.PLP.part.hbond>
-2.2126

> <Gold.PLP.part.metal>
0.0000

> <Gold.PLP.part.buried>
-2.4841

> <Gold.PLP.part.nonpolar>
-33.1285

> <Gold.PLP.part.repulsive>
0.1135

> <Gold.PLP.ligand.clash>
0.0000

> <Gold.PLP.ligand.torsion>
1.2182

> <Gold.PLP.Chemscore.Hbond>
1.7680

> <Gold.PLP.Chemscore.CHOScore>
1.0000

> <Gold.PLP.Chemscore.Metal>
0.0000

> <Gold.Chemscore.Hbonds>
donor molecule, donor type, donor heavy atom, donor atom, acceptor molecule, acceptor atom, score
      P1  H  7989  7998       L1    17  0.65
      P1  H  7997  8009       L1     7  1.00
      L1  C    16    37       P1  8028  1.00

> <Gold.PLP.Chemscore.Internal.Correction>
0.7711

> <Gold.Rescore>
     Score         DG    S(hbond)    S(metal)    S(lipo)     H(rot)  DE(clash)    DE(int)     intcor
     15.22     -19.14       1.82        0.00     103.76       1.78       0.06       3.86       ----

> <Gold.Chemscore.Fitness>
15.2178

> <Gold.Chemscore.DG>
-19.1389

> <Gold.Chemscore.ZeroCoef>
-5.4800

> <Gold.Chemscore.Hbond>
1.8173

> <Gold.Chemscore.Metal>
0.0000

> <Gold.Chemscore.Lipo>
103.7619

> <Gold.Chemscore.Internal_Hbond>
0.0000

> <Gold.Chemscore.DEClash>
0.0587

> <Gold.Chemscore.DEInternal>
3.8624

> <Gold.Chemscore.Rot>
1.7778

> <Gold.Chemscore.Internal.Correction>
   9.000000E+99

> <Gold.Chemscore.Hbonds>
donor molecule, donor type, donor heavy atom, donor atom, acceptor molecule, acceptor atom, score
      P1  H  7989  7998       L1    17  0.19
      P1  H  7997  8009       L1     7  1.00

> <Gold.Chemscore.Hbond.Weighted>
-6.0699

> <Gold.Chemscore.Metal.Weighted>
-0.0000

> <Gold.Chemscore.Lipo.Weighted>
-12.1401

> <Gold.Chemscore.Internal_Hbond.Weighted>
0.0000

> <Gold.Chemscore.DEClash.Weighted>
0.0587

> <Gold.Chemscore.DEInternal.Weighted>
3.8624

> <Gold.Chemscore.Rot.Weighted>
4.5511

> <Gold.Chemscore.Internal.Correction.Weighted>
   9.000000E+99

> <Gold.Protein.RotatedTorsions>
[ 6907 6896 6895 6894 ] final -175.32 input  -60.11 | X-H torsion
[ 7974 7965 7964 7962 ] final -163.20 input  175.53 | X-H torsion
[ 8008 7997 7996 7995 ] final  150.34 input   59.86 | X-H torsion
[ 10167 10162 10161 10158 ] final  -34.65 input  -65.29 | X-H torsion
[ 10718 10713 10712 10709 ] final -138.53 input   66.30 | X-H torsion
[ 10763 10752 10751 10750 ] final   89.58 input  -60.55 | X-H torsion
[ 11005 11000 10999 10996 ] final  -53.35 input  -57.11 | X-H torsion

> <Gold.Protein.ActiveResidues>
 VAL166  LYS551  ARG553  GLY616  TRP617  ASP618  TYR619  PRO620  LYS621  CYS622 
 ASP623  PHE694  ASN695  SER759  ASP760  ASP761  ALA762  ILE779  LEU786  VAL792 
 PHE793  MET794  SER795  GLU796  ALA797  LYS798  CYS799  TRP800  GLU811  SER814 

> <Gold.Protein.RotatedAtoms>
  151.5867  133.3371  159.3019 H   0  0  0  0  0  0  0  0  0  0  0  0  # atno 6907 bound_to 6896
  150.8283  134.7527  159.6843 H   0  0  0  0  0  0  0  0  0  0  0  0  # atno 6908 bound_to 6896
  152.4370  134.5673  159.9963 H   0  0  0  0  0  0  0  0  0  0  0  0  # atno 6909 bound_to 6896
  144.7333  140.3141  143.6182 H   0  0  0  0  0  0  0  0  0  0  0  0  # atno 7974 bound_to 7965
  156.2720  140.2077  156.6001 H   0  0  0  0  0  0  0  0  0  0  0  0  # atno 8008 bound_to 7997
  154.6913  140.0530  157.0390 H   0  0  0  0  0  0  0  0  0  0  0  0  # atno 8009 bound_to 7997
  155.0862  140.3192  155.4590 H   0  0  0  0  0  0  0  0  0  0  0  0  # atno 8010 bound_to 7997
  140.7181  143.3533  151.2111 H   0  0  0  0  0  0  0  0  0  0  0  0  # atno 10167 bound_to 10162
  156.3004  130.7426  151.1476 H   0  0  0  0  0  0  0  0  0  0  0  0  # atno 10718 bound_to 10713
  153.1885  135.4465  155.0120 H   0  0  0  0  0  0  0  0  0  0  0  0  # atno 10763 bound_to 10752
  154.8076  135.3281  154.7394 H   0  0  0  0  0  0  0  0  0  0  0  0  # atno 10764 bound_to 10752
  153.7850  135.6974  153.4937 H   0  0  0  0  0  0  0  0  0  0  0  0  # atno 10765 bound_to 10752
  141.0971  133.6623  156.4159 H   0  0  0  0  0  0  0  0  0  0  0  0  # atno 11005 bound_to 11000
  145.7635  139.1832  143.2253 LP  0  0  0  0  0  0  0  0  0  0  0  0  # atno 17320 bound_to 7965
  146.0968  140.7591  142.9568 LP  0  0  0  0  0  0  0  0  0  0  0  0  # atno 17321 bound_to 7965
  139.7068  143.9441  152.2930 LP  0  0  0  0  0  0  0  0  0  0  0  0  # atno 17342 bound_to 10162
  139.9153  144.6832  150.8519 LP  0  0  0  0  0  0  0  0  0  0  0  0  # atno 17343 bound_to 10162
  157.7366  131.0560  150.5402 LP  0  0  0  0  0  0  0  0  0  0  0  0  # atno 17370 bound_to 10713
  156.5529  130.4236  149.6099 LP  0  0  0  0  0  0  0  0  0  0  0  0  # atno 17371 bound_to 10713
  140.5113  134.6392  157.5285 LP  0  0  0  0  0  0  0  0  0  0  0  0  # atno 17394 bound_to 11000
  139.9811  134.7136  155.9858 LP  0  0  0  0  0  0  0  0  0  0  0  0  # atno 17395 bound_to 11000

$$$$
