AV-unprocessed.smi:1795|AV-procd|sdf|7244|dock5
  -GOLD-   22720 8493D 1   1.00000     0.00000
 Structure written by MMmdl.
 48 49  0  0  0  0  0  0  0  0  2 V2000
  148.1574  130.3296  153.7909 C   0  0  0  0  0  0  0  0  0  0  0  0
  147.3552  131.5860  153.4345 C   0  0  1  0  0  0  0  0  0  0  0  0
  148.2675  132.8186  153.2391 C   0  0  0  0  0  0  0  0  0  0  0  0
  147.4964  134.0097  152.7863 N   0  3  2  0  0  0  0  0  0  0  0  0
  146.7271  134.6994  153.8764 C   0  0  2  0  0  0  0  0  0  0  0  0
  145.9107  135.9152  153.3733 C   0  0  0  0  0  0  0  0  0  0  0  0
  147.6813  135.1410  155.0198 C   0  0  0  0  0  0  0  0  0  0  0  0
  148.7635  136.0005  154.5528 N   0  0  0  0  0  0  0  0  0  0  0  0
  149.7950  136.4159  155.3047 C   0  0  0  0  0  0  0  0  0  0  0  0
  149.9536  136.0775  156.4773 O   0  0  0  0  0  0  0  0  0  0  0  0
  150.7873  137.3788  154.6443 C   0  0  0  0  0  0  0  0  0  0  0  0
  150.5435  138.7758  155.0386 N   0  0  0  0  0  0  0  0  0  0  0  0
  149.3771  139.3819  154.5309 C   0  0  0  0  0  0  0  0  0  0  0  0
  149.0541  140.6533  154.8163 C   0  0  0  0  0  0  0  0  0  0  0  0
  149.9387  141.4055  155.6739 C   0  0  0  0  0  0  0  0  0  0  0  0
  151.0606  140.8385  156.1597 C   0  0  0  0  0  0  0  0  0  0  0  0
  151.4227  139.4526  155.8411 C   0  0  0  0  0  0  0  0  0  0  0  0
  152.4573  138.9353  156.2630 O   0  0  0  0  0  0  0  0  0  0  0  0
  146.7383  133.6390  151.5602 C   0  0  0  0  0  0  0  0  0  0  0  0
  145.8297  132.4193  151.8157 C   0  0  1  0  0  0  0  0  0  0  0  0
  145.0675  131.9935  150.5561 C   0  0  0  0  0  0  0  0  0  0  0  0
  146.6448  131.3273  152.2278 O   0  0  0  0  0  0  0  0  0  0  0  0
  148.7153  130.4695  154.7173 H   0  0  0  0  0  0  0  0  0  0  0  0
  148.8704  130.0790  153.0052 H   0  0  0  0  0  0  0  0  0  0  0  0
  147.4977  129.4722  153.9275 H   0  0  0  0  0  0  0  0  0  0  0  0
  146.6392  131.7648  154.2372 H   0  0  0  0  0  0  0  0  0  0  0  0
  148.8339  133.0155  154.1463 H   0  0  0  0  0  0  0  0  0  0  0  0
  149.0131  132.5935  152.4751 H   0  0  0  0  0  0  0  0  0  0  0  0
  146.0055  133.9912  154.2813 H   0  0  0  0  0  0  0  0  0  0  0  0
  145.4012  136.4280  154.1891 H   0  0  0  0  0  0  0  0  0  0  0  0
  145.1230  135.6218  152.6800 H   0  0  0  0  0  0  0  0  0  0  0  0
  146.5496  136.6467  152.8776 H   0  0  0  0  0  0  0  0  0  0  0  0
  147.1615  135.6710  155.8162 H   0  0  0  0  0  0  0  0  0  0  0  0
  148.1292  134.2624  155.4852 H   0  0  0  0  0  0  0  0  0  0  0  0
  148.7124  136.3252  153.5973 H   0  0  0  0  0  0  0  0  0  0  0  0
  151.8030  137.0876  154.9172 H   0  0  0  0  0  0  0  0  0  0  0  0
  150.7402  137.2542  153.5611 H   0  0  0  0  0  0  0  0  0  0  0  0
  148.7731  138.7514  153.8940 H   0  0  0  0  0  0  0  0  0  0  0  0
  148.1578  141.1021  154.4140 H   0  0  0  0  0  0  0  0  0  0  0  0
  149.6992  142.4275  155.9285 H   0  0  0  0  0  0  0  0  0  0  0  0
  151.7099  141.4164  156.8010 H   0  0  0  0  0  0  0  0  0  0  0  0
  146.1816  134.4779  151.1456 H   0  0  0  0  0  0  0  0  0  0  0  0
  147.4628  133.3815  150.7859 H   0  0  0  0  0  0  0  0  0  0  0  0
  145.1033  132.6449  152.5981 H   0  0  0  0  0  0  0  0  0  0  0  0
  144.4187  132.7945  150.2005 H   0  0  0  0  0  0  0  0  0  0  0  0
  144.4412  131.1236  150.7551 H   0  0  0  0  0  0  0  0  0  0  0  0
  145.7519  131.7329  149.7484 H   0  0  0  0  0  0  0  0  0  0  0  0
  148.1765  134.6918  152.4821 H   0  0  0  0  0  0  0  0  0  0  0  0
  1  2  1  0  0  0  0
  1 23  1  0  0  0  0
  1 24  1  0  0  0  0
  1 25  1  0  0  0  0
  2 22  1  0  0  0  0
  2  3  1  0  0  0  0
  2 26  1  0  0  0  0
  3  4  1  0  0  0  0
  3 27  1  0  0  0  0
  3 28  1  0  0  0  0
  4  5  1  0  0  0  0
  4 19  1  0  0  0  0
  4 48  1  0  0  0  0
  5  6  1  0  0  0  0
  5  7  1  0  0  0  0
  5 29  1  0  0  0  0
  6 30  1  0  0  0  0
  6 31  1  0  0  0  0
  6 32  1  0  0  0  0
  7  8  1  0  0  0  0
  7 33  1  0  0  0  0
  7 34  1  0  0  0  0
  8  9  1  0  0  0  0
  8 35  1  0  0  0  0
  9 10  2  0  0  0  0
  9 11  1  0  0  0  0
 11 12  1  0  0  0  0
 11 36  1  0  0  0  0
 11 37  1  0  0  0  0
 12 17  1  0  0  0  0
 12 13  1  0  0  0  0
 13 14  2  0  0  0  0
 13 38  1  0  0  0  0
 14 15  1  0  0  0  0
 14 39  1  0  0  0  0
 15 16  2  0  0  0  0
 15 40  1  0  0  0  0
 16 17  1  0  0  0  0
 16 41  1  0  0  0  0
 17 18  2  0  0  0  0
 19 20  1  0  0  0  0
 19 42  1  0  0  0  0
 19 43  1  0  0  0  0
 20 21  1  0  0  0  0
 20 22  1  0  0  0  0
 20 44  1  0  0  0  0
 21 45  1  0  0  0  0
 21 46  1  0  0  0  0
 21 47  1  0  0  0  0
M  CHG  1   4   1
M  END
> <s_m_source_file>
AV-unprocessed.smi

> <i_m_source_file_index>
1795

> <i_lp_mmshare_version>
43012

> <i_f3d_flags>
0

> <s_epik_input>
W0NIM11bQ0BASF0xW0NIMl1OKFtDSDJdW0NASF0oTzEpW0NIM10pW0NASF0oW0NIM10pW0NIMl1bTkhdQyg9TylbQ0gyXW4yW2NIXVtjSF1bY0hdW2NIXWMyPU8=

> <s_epik_cmdline>
J2VwaWtfcHl0aG9uJywgJy1waCcsICc3LjAnLCAnLXRuJywgJzgnLCAnLW1hJywgJzIwMCcsICctbWV0YWxfYmluZGluZycsICctaW1hZScsICc8aW5maWxlLm1hZT4nLCAnLW9tYWUnLCAnPG91dGZpbGUubWFlPic=

> <r_lp_tautomer_probability>
1

> <r_epik_Ionization_Penalty>
0.656654

> <r_epik_Ionization_Penalty_Charging>
0.656654

> <r_epik_Ionization_Penalty_Neutral>
8.90321e-08

> <r_epik_State_Penalty>
0.675641

> <r_epik_Charging_Adjusted_Penalty>
1.33229

> <i_epik_Tot_Q>
1

> <i_epik_Tot_abs_Q>
1

> <r_epik_Metal_State_Penalty>
0.675691

> <b_epik_Metal_Only>
0

> <s_lp_Force_Field>
OPLS_2005

> <r_lp_Energy>
32.228

> <b_lp_Chiralities_Consistent>
1

> <s_lp_Variant>
AV-unprocessed.smi:1795-8

> <Gold.Version>
5.8.1

> <Gold.Id.Protein>
6NUR|6NUR_protein|mol2

> <Gold.PLP.Fitness>
50.9850

> <Gold.PLP.PLP>
-39.7846

> <Gold.PLP.part.hbond>
-3.0000

> <Gold.PLP.part.metal>
0.0000

> <Gold.PLP.part.buried>
-4.6377

> <Gold.PLP.part.nonpolar>
-33.1621

> <Gold.PLP.part.repulsive>
0.9837

> <Gold.PLP.ligand.clash>
0.0000

> <Gold.PLP.ligand.torsion>
0.4376

> <Gold.PLP.Chemscore.Hbond>
4.0000

> <Gold.PLP.Chemscore.CHOScore>
0.0000

> <Gold.PLP.Chemscore.Metal>
0.0000

> <Gold.Chemscore.Hbonds>
donor molecule, donor type, donor heavy atom, donor atom, acceptor molecule, acceptor atom, score
      L1  H     4    48       P1  7948  2.00
      L1  H     8    35       P1  7948  1.00
      P1  H  7997  8008       L1    18  0.42

> <Gold.PLP.Chemscore.Internal.Correction>
0.0757

> <Gold.Rescore>
     Score         DG    S(hbond)    S(metal)    S(lipo)     H(rot)  DE(clash)    DE(int)     intcor
     18.05     -18.45       2.66        0.00      76.33       1.89       0.02       0.38       ----

> <Gold.Chemscore.Fitness>
18.0528

> <Gold.Chemscore.DG>
-18.4503

> <Gold.Chemscore.ZeroCoef>
-5.4800

> <Gold.Chemscore.Hbond>
2.6557

> <Gold.Chemscore.Metal>
0.0000

> <Gold.Chemscore.Lipo>
76.3342

> <Gold.Chemscore.Internal_Hbond>
0.0000

> <Gold.Chemscore.DEClash>
0.0153

> <Gold.Chemscore.DEInternal>
0.3822

> <Gold.Chemscore.Rot>
1.8870

> <Gold.Chemscore.Internal.Correction>
   9.000000E+99

> <Gold.Chemscore.Hbonds>
donor molecule, donor type, donor heavy atom, donor atom, acceptor molecule, acceptor atom, score
      L1  H     4    48       P1  7948  0.40
      L1  H     8    35       P1  7948  0.98
      P1  H  7997  8008       L1    18  0.39

> <Gold.Chemscore.Hbond.Weighted>
-8.8700

> <Gold.Chemscore.Metal.Weighted>
-0.0000

> <Gold.Chemscore.Lipo.Weighted>
-8.9311

> <Gold.Chemscore.Internal_Hbond.Weighted>
0.0000

> <Gold.Chemscore.DEClash.Weighted>
0.0153

> <Gold.Chemscore.DEInternal.Weighted>
0.3822

> <Gold.Chemscore.Rot.Weighted>
4.8308

> <Gold.Chemscore.Internal.Correction.Weighted>
   9.000000E+99

> <Gold.Protein.RotatedTorsions>
[ 6907 6896 6895 6894 ] final  139.76 input  -60.11 | X-H torsion
[ 7974 7965 7964 7962 ] final  163.26 input  175.53 | X-H torsion
[ 8008 7997 7996 7995 ] final  -30.19 input   59.86 | X-H torsion
[ 10167 10162 10161 10158 ] final  140.54 input  -65.29 | X-H torsion
[ 10718 10713 10712 10709 ] final  132.62 input   66.30 | X-H torsion
[ 10763 10752 10751 10750 ] final  179.96 input  -60.55 | X-H torsion
[ 11005 11000 10999 10996 ] final  -66.23 input  -57.11 | X-H torsion

> <Gold.Protein.ActiveResidues>
 VAL166  LYS551  ARG553  GLY616  TRP617  ASP618  TYR619  PRO620  LYS621  CYS622 
 ASP623  PHE694  ASN695  SER759  ASP760  ASP761  ALA762  ILE779  LEU786  VAL792 
 PHE793  MET794  SER795  GLU796  ALA797  LYS798  CYS799  TRP800  GLU811  SER814 

> <Gold.Protein.RotatedAtoms>
  152.2511  133.5216  159.5325 H   0  0  0  0  0  0  0  0  0  0  0  0  # atno 6907 bound_to 6896
  150.7094  134.0959  159.3957 H   0  0  0  0  0  0  0  0  0  0  0  0  # atno 6908 bound_to 6896
  151.8878  135.0428  160.0546 H   0  0  0  0  0  0  0  0  0  0  0  0  # atno 6909 bound_to 6896
  144.7598  139.8158  143.6337 H   0  0  0  0  0  0  0  0  0  0  0  0  # atno 7974 bound_to 7965
  154.4260  140.1798  156.1368 H   0  0  0  0  0  0  0  0  0  0  0  0  # atno 8008 bound_to 7997
  156.0024  140.3358  155.6834 H   0  0  0  0  0  0  0  0  0  0  0  0  # atno 8009 bound_to 7997
  155.6225  140.0661  157.2664 H   0  0  0  0  0  0  0  0  0  0  0  0  # atno 8010 bound_to 7997
  139.5046  144.6228  151.6011 H   0  0  0  0  0  0  0  0  0  0  0  0  # atno 10167 bound_to 10162
  157.4853  131.1088  150.9628 H   0  0  0  0  0  0  0  0  0  0  0  0  # atno 10718 bound_to 10713
  154.5273  135.2797  155.1210 H   0  0  0  0  0  0  0  0  0  0  0  0  # atno 10763 bound_to 10752
  154.2744  135.6297  153.5326 H   0  0  0  0  0  0  0  0  0  0  0  0  # atno 10764 bound_to 10752
  152.9949  135.5636  154.5778 H   0  0  0  0  0  0  0  0  0  0  0  0  # atno 10765 bound_to 10752
  141.1476  133.6695  156.6107 H   0  0  0  0  0  0  0  0  0  0  0  0  # atno 11005 bound_to 11000
  146.1648  139.4776  142.9965 LP  0  0  0  0  0  0  0  0  0  0  0  0  # atno 17320 bound_to 7965
  145.6658  141.0229  143.1684 LP  0  0  0  0  0  0  0  0  0  0  0  0  # atno 17321 bound_to 7965
  140.5935  143.9738  150.6339 LP  0  0  0  0  0  0  0  0  0  0  0  0  # atno 17342 bound_to 10162
  140.2926  143.3314  152.1048 LP  0  0  0  0  0  0  0  0  0  0  0  0  # atno 17343 bound_to 10162
  157.0348  130.5725  149.5348 LP  0  0  0  0  0  0  0  0  0  0  0  0  # atno 17370 bound_to 10713
  156.0143  130.5237  150.8087 LP  0  0  0  0  0  0  0  0  0  0  0  0  # atno 17371 bound_to 10713
  140.3616  134.7682  157.4538 LP  0  0  0  0  0  0  0  0  0  0  0  0  # atno 17394 bound_to 11000
  140.0780  134.5770  155.8570 LP  0  0  0  0  0  0  0  0  0  0  0  0  # atno 17395 bound_to 11000

$$$$
