#       Name:                AV-unprocessed.smi:3100
#       Creating user name   scv26
#       Creation time:       Fri Mar 27 17:18:07 2020


#       File generated by GOLD software.
#

@<TRIPOS>MOLECULE
AV-unprocessed.smi:3100
    34    35     1
SMALL
NO_CHARGES


@<TRIPOS>ATOM
      1 ****        -3.1264   2.7194  -0.5506 C.3            1 S1                 0.0000
      2 ****        -2.9203   1.2632  -0.1215 C.3            1 S1                 0.0000
      3 ****        -2.7243   1.0771   1.3789 C.3            1 S1                 0.0000
      4 ****        -2.0604  -0.2839   1.4365 C.3            1 S1                 0.0000
      5 ****        -1.2684  -0.3559   0.1181 C.3            1 S1                 0.0000
      6 ****         0.2493  -0.2285   0.2951 C.2            1 S1                 0.0000
      7 ****         0.7069   0.6156   1.0666 O.2            1 S1                 0.0000
      8 ****         0.9944  -1.0720  -0.4428 N.am           1 S1                 0.0000
      9 ****         2.4094  -1.1750  -0.4957 C.ar           1 S1                 0.0000
     10 ****         2.9206  -2.1886  -1.3406 C.ar           1 S1                 0.0000
     11 ****         4.2450  -2.4083  -1.4977 N.ar           1 S1                 0.0000
     12 ****         5.0771  -1.6035  -0.8026 C.ar           1 S1                 0.0000
     13 ****         4.5862  -0.5886   0.0430 C.ar           1 S1                 0.0000
     14 ****         3.2611  -0.3754   0.1964 N.ar           1 S1                 0.0000
     15 ****        -1.7151   0.7483  -0.6675 O.3            1 S1                 0.0000
     16 ****        -4.0351   3.1315  -0.1115 H              1 S1                 0.0000
     17 ****        -3.2146   2.7964  -1.6344 H              1 S1                 0.0000
     18 ****        -2.2893   3.3452  -0.2394 H              1 S1                 0.0000
     19 ****        -3.7515   0.6462  -0.4673 H              1 S1                 0.0000
     20 ****        -2.0486   1.8376   1.7737 H              1 S1                 0.0000
     21 ****        -3.6576   1.1217   1.9409 H              1 S1                 0.0000
     22 ****        -1.4495  -0.4059   2.3322 H              1 S1                 0.0000
     23 ****        -2.8189  -1.0676   1.4513 H              1 S1                 0.0000
     24 ****        -1.5102  -1.2838  -0.4031 H              1 S1                 0.0000
     25 ****         0.4882  -1.7143  -1.0347 H              1 S1                 0.0000
     26 ****         2.2593  -2.8348  -1.8997 H              1 S1                 0.0000
     27 ****         6.1376  -1.7692  -0.9210 H              1 S1                 0.0000
     28 ****         5.2562   0.0524   0.5966 H              1 S1                 0.0000
     29 ****         0.0890   1.2153   1.5753 LP             1 S1                 0.0000
     30 ****         1.6962   0.7013   1.1843 LP             1 S1                 0.0000
     31 ****         4.5907  -3.1296  -2.0977 LP             1 S1                 0.0000
     32 ****         2.9193   0.3461   0.7986 LP             1 S1                 0.0000
     33 ****        -1.0161   1.4634  -0.6647 LP             1 S1                 0.0000
     34 ****        -1.8778   0.4449  -1.6063 LP             1 S1                 0.0000
@<TRIPOS>BOND
    1    1    2 1     
    2    1   16 1     
    3    1   17 1     
    4    1   18 1     
    5    2   15 1     
    6    2    3 1     
    7    2   19 1     
    8    3    4 1     
    9    3   20 1     
   10    3   21 1     
   11    4    5 1     
   12    4   22 1     
   13    4   23 1     
   14    5    6 1     
   15    5   15 1     
   16    5   24 1     
   17    6    7 2     
   18    6    8 am    
   19    8    9 1     
   20    8   25 1     
   21    9   14 ar    
   22    9   10 ar    
   23   10   11 ar    
   24   10   26 1     
   25   11   12 ar    
   26   12   13 ar    
   27   12   27 1     
   28   13   14 ar    
   29   13   28 1     
   30    7   29 1     
   31    7   30 1     
   32   11   31 1     
   33   14   32 1     
   34   15   33 1     
   35   15   34 1     
@<TRIPOS>SUBSTRUCTURE
      1 S1             1
@<TRIPOS>SET
LONE_PAIRS      STATIC     ATOMS    <user>   **** ""
6 29 30 31 32 33 34
DONOR_HYDROGENS      STATIC     ATOMS    <user>   **** ""
1 25
ATOM$BLUE        STATIC     ATOMS    COLORGROUP SYSTEM
6 29 30 31 32 33 34
ATOM$RED        STATIC     ATOMS    COLORGROUP SYSTEM
1 25
