#       Name:                AV-unprocessed.smi:3133
#       Creating user name   scv26
#       Creation time:       Fri Mar 27 17:32:54 2020


#       File generated by GOLD software.
#

@<TRIPOS>MOLECULE
AV-unprocessed.smi:3133
    38    39     1
SMALL
NO_CHARGES


@<TRIPOS>ATOM
      1 ****        -2.6040  -1.9440  -1.4839 C.3            1 S1                 0.0000
      2 ****        -2.1007  -1.1541  -0.2584 C.3            1 S1                 0.0000
      3 ****        -0.5752  -0.9543  -0.2557 C.2            1 S1                 0.0000
      4 ****         0.1446  -1.5849  -1.0313 O.2            1 S1                 0.0000
      5 ****        -0.0966  -0.0554   0.6198 N.am           1 S1                 0.0000
      6 ****         1.3053   0.3190   0.7634 C.3            1 S1                 0.0000
      7 ****         1.6326   1.5738  -0.0616 C.3            1 S1                 0.0000
      8 ****         3.0537   2.0926   0.1462 C.3            1 S1                 0.0000
      9 ****         3.2733   2.8853  -1.1219 C.3            1 S1                 0.0000
     10 ****         2.5692   2.0163  -2.1609 C.3            1 S1                 0.0000
     11 ****         1.5512   1.3062  -1.4593 O.3            1 S1                 0.0000
     12 ****        -2.5445  -1.7524   0.9953 N.pl3          1 S1                 0.0000
     13 ****        -3.0844  -1.1814   2.0744 C.2            1 S1                 0.0000
     14 ****        -3.3356  -2.0274   3.0634 N.2            1 S1                 0.0000
     15 ****        -2.8868  -3.1847   2.4926 C.2            1 S1                 0.0000
     16 ****        -2.3939  -3.0746   1.2591 N.2            1 S1                 0.0000
     17 ****        -2.3236  -1.4486  -2.4141 H              1 S1                 0.0000
     18 ****        -3.6912  -2.0245  -1.4733 H              1 S1                 0.0000
     19 ****        -2.1982  -2.9561  -1.5128 H              1 S1                 0.0000
     20 ****        -2.5473  -0.1599  -0.3127 H              1 S1                 0.0000
     21 ****        -0.7562   0.4186   1.2193 H              1 S1                 0.0000
     22 ****         1.4853   0.5199   1.8198 H              1 S1                 0.0000
     23 ****         1.9655  -0.5064   0.4912 H              1 S1                 0.0000
     24 ****         0.9265   2.3732   0.1702 H              1 S1                 0.0000
     25 ****         3.1601   2.6924   1.0505 H              1 S1                 0.0000
     26 ****         3.7637   1.2657   0.1969 H              1 S1                 0.0000
     27 ****         2.7800   3.8554  -1.0458 H              1 S1                 0.0000
     28 ****         4.3264   3.0533  -1.3486 H              1 S1                 0.0000
     29 ****         2.1511   2.6058  -2.9774 H              1 S1                 0.0000
     30 ****         3.2632   1.2913  -2.5877 H              1 S1                 0.0000
     31 ****        -3.2955  -0.1239   2.1388 H              1 S1                 0.0000
     32 ****        -2.9195  -4.1355   3.0039 H              1 S1                 0.0000
     33 ****        -0.2612  -2.2359  -1.6727 LP             1 S1                 0.0000
     34 ****         1.1349  -1.4458  -1.0195 LP             1 S1                 0.0000
     35 ****         0.6555   1.5937  -1.7983 LP             1 S1                 0.0000
     36 ****         1.6671   0.3251  -1.6143 LP             1 S1                 0.0000
     37 ****        -3.7368  -1.8657   3.9650 LP             1 S1                 0.0000
     38 ****        -2.0090  -3.7885   0.6741 LP             1 S1                 0.0000
@<TRIPOS>BOND
    1    1    2 1     
    2    1   17 1     
    3    1   18 1     
    4    1   19 1     
    5    2    3 1     
    6    2   12 1     
    7    2   20 1     
    8    3    4 2     
    9    3    5 am    
   10    5    6 1     
   11    5   21 1     
   12    6    7 1     
   13    6   22 1     
   14    6   23 1     
   15    7   11 1     
   16    7    8 1     
   17    7   24 1     
   18    8    9 1     
   19    8   25 1     
   20    8   26 1     
   21    9   10 1     
   22    9   27 1     
   23    9   28 1     
   24   10   11 1     
   25   10   29 1     
   26   10   30 1     
   27   12   16 1     
   28   12   13 1     
   29   13   14 2     
   30   13   31 1     
   31   14   15 1     
   32   15   16 2     
   33   15   32 1     
   34    4   33 1     
   35    4   34 1     
   36   11   35 1     
   37   11   36 1     
   38   14   37 1     
   39   16   38 1     
@<TRIPOS>SUBSTRUCTURE
      1 S1             1
@<TRIPOS>SET
LONE_PAIRS      STATIC     ATOMS    <user>   **** ""
6 33 34 35 36 37 38
DONOR_HYDROGENS      STATIC     ATOMS    <user>   **** ""
1 21
ATOM$BLUE        STATIC     ATOMS    COLORGROUP SYSTEM
6 33 34 35 36 37 38
ATOM$RED        STATIC     ATOMS    COLORGROUP SYSTEM
1 21
