AV-unprocessed.smi:1077|AV-procd|sdf|4701|dock1
  -GOLD-   22720 3223D 1   1.00000     0.00000
 Structure written by MMmdl.
 42 43  0  0  0  0  0  0  0  0  1 V2000
  146.6843  138.9492  152.3686 C   0  0  0  0  0  0  0  0  0  0  0  0
  147.0642  140.1556  153.2406 C   0  0  0  0  0  0  0  0  0  0  0  0
  148.3139  139.9789  153.9340 N   0  0  0  0  0  0  0  0  0  0  0  0
  148.9950  138.7797  153.9088 C   0  0  0  0  0  0  0  0  0  0  0  0
  150.1631  138.5945  154.5573 C   0  0  0  0  0  0  0  0  0  0  0  0
  150.8554  137.3491  154.5172 C   0  0  0  0  0  0  0  0  0  0  0  0
  151.4152  136.3361  154.5089 N   0  0  0  0  0  0  0  0  0  0  0  0
  150.7723  139.6706  155.3349 C   0  0  0  0  0  0  0  0  0  0  0  0
  151.8423  139.5533  155.9351 O   0  0  0  0  0  0  0  0  0  0  0  0
  150.0509  140.8914  155.3592 N   0  0  0  0  0  0  0  0  0  0  0  0
  150.6202  142.0277  156.1164 C   0  0  0  0  0  0  0  0  0  0  0  0
  150.6833  141.7749  157.6300 C   0  0  0  0  0  0  0  0  0  0  0  0
  149.9092  140.9849  158.1726 O   0  0  0  0  0  0  0  0  0  0  0  0
  151.6272  142.4551  158.2979 N   0  0  0  0  0  0  0  0  0  0  0  0
  151.8646  142.3829  159.7364 C   0  0  0  0  0  0  0  0  0  0  0  0
  151.7976  143.7886  160.3708 C   0  0  0  0  0  0  0  0  0  0  0  0
  152.1331  143.7480  161.8703 C   0  0  0  0  0  0  0  0  0  0  0  0
  153.5032  143.0987  162.1176 C   0  0  0  0  0  0  0  0  0  0  0  0
  153.5688  141.6943  161.4977 C   0  0  0  0  0  0  0  0  0  0  0  0
  153.2358  141.7307  159.9974 C   0  0  0  0  0  0  0  0  0  0  0  0
  148.8297  141.0737  154.6661 C   0  0  0  0  0  0  0  0  0  0  0  0
  148.2379  142.1558  154.6995 O   0  0  0  0  0  0  0  0  0  0  0  0
  145.7622  139.1452  151.8213 H   0  0  0  0  0  0  0  0  0  0  0  0
  146.5258  138.0529  152.9686 H   0  0  0  0  0  0  0  0  0  0  0  0
  147.4637  138.7303  151.6385 H   0  0  0  0  0  0  0  0  0  0  0  0
  147.1862  141.0489  152.6264 H   0  0  0  0  0  0  0  0  0  0  0  0
  146.3041  140.3912  153.9880 H   0  0  0  0  0  0  0  0  0  0  0  0
  148.5784  137.9558  153.3472 H   0  0  0  0  0  0  0  0  0  0  0  0
  151.6244  142.2773  155.7720 H   0  0  0  0  0  0  0  0  0  0  0  0
  150.0448  142.9364  155.9293 H   0  0  0  0  0  0  0  0  0  0  0  0
  152.2217  143.0782  157.7708 H   0  0  0  0  0  0  0  0  0  0  0  0
  151.0968  141.7528  160.1896 H   0  0  0  0  0  0  0  0  0  0  0  0
  152.4962  144.4556  159.8633 H   0  0  0  0  0  0  0  0  0  0  0  0
  150.8053  144.2197  160.2331 H   0  0  0  0  0  0  0  0  0  0  0  0
  152.1208  144.7582  162.2808 H   0  0  0  0  0  0  0  0  0  0  0  0
  151.3620  143.1890  162.4016 H   0  0  0  0  0  0  0  0  0  0  0  0
  154.2871  143.7250  161.6898 H   0  0  0  0  0  0  0  0  0  0  0  0
  153.7013  143.0432  163.1883 H   0  0  0  0  0  0  0  0  0  0  0  0
  154.5611  141.2680  161.6478 H   0  0  0  0  0  0  0  0  0  0  0  0
  152.8681  141.0349  162.0115 H   0  0  0  0  0  0  0  0  0  0  0  0
  153.2501  140.7170  159.5948 H   0  0  0  0  0  0  0  0  0  0  0  0
  154.0148  142.2834  159.4696 H   0  0  0  0  0  0  0  0  0  0  0  0
  1  2  1  0  0  0  0
  1 23  1  0  0  0  0
  1 24  1  0  0  0  0
  1 25  1  0  0  0  0
  2  3  1  0  0  0  0
  2 26  1  0  0  0  0
  2 27  1  0  0  0  0
  3 21  1  0  0  0  0
  3  4  1  0  0  0  0
  4  5  2  0  0  0  0
  4 28  1  0  0  0  0
  5  6  1  0  0  0  0
  5  8  1  0  0  0  0
  6  7  3  0  0  0  0
  8  9  2  0  0  0  0
  8 10  1  0  0  0  0
 10 11  1  0  0  0  0
 10 21  1  0  0  0  0
 11 12  1  0  0  0  0
 11 29  1  0  0  0  0
 11 30  1  0  0  0  0
 12 13  2  0  0  0  0
 12 14  1  0  0  0  0
 14 15  1  0  0  0  0
 14 31  1  0  0  0  0
 15 20  1  0  0  0  0
 15 16  1  0  0  0  0
 15 32  1  0  0  0  0
 16 17  1  0  0  0  0
 16 33  1  0  0  0  0
 16 34  1  0  0  0  0
 17 18  1  0  0  0  0
 17 35  1  0  0  0  0
 17 36  1  0  0  0  0
 18 19  1  0  0  0  0
 18 37  1  0  0  0  0
 18 38  1  0  0  0  0
 19 20  1  0  0  0  0
 19 39  1  0  0  0  0
 19 40  1  0  0  0  0
 20 41  1  0  0  0  0
 20 42  1  0  0  0  0
 21 22  2  0  0  0  0
M  END
> <s_m_source_file>
AV-unprocessed.smi

> <i_m_source_file_index>
1077

> <i_lp_mmshare_version>
43012

> <i_f3d_flags>
0

> <s_epik_input>
W0NIM11bQ0gyXW4xW2NIXWMoQyNOKWMoPU8pbihjMT1PKVtDSDJdQyg9TylbTkhdW0NIXTJbQ0gyXVtDSDJdW0NIMl1bQ0gyXVtDSDJdMg==

> <s_epik_cmdline>
J2VwaWtfcHl0aG9uJywgJy1waCcsICc3LjAnLCAnLXRuJywgJzgnLCAnLW1hJywgJzIwMCcsICctbWV0YWxfYmluZGluZycsICctaW1hZScsICc8aW5maWxlLm1hZT4nLCAnLW9tYWUnLCAnPG91dGZpbGUubWFlPic=

> <r_lp_tautomer_probability>
1

> <r_epik_Ionization_Penalty>
1.90876e-08

> <r_epik_Ionization_Penalty_Charging>
4.07395e-11

> <r_epik_Ionization_Penalty_Neutral>
1.90469e-08

> <r_epik_State_Penalty>
-0

> <r_epik_Charging_Adjusted_Penalty>
4.07395e-11

> <i_epik_Tot_Q>
0

> <i_epik_Tot_abs_Q>
0

> <r_epik_Metal_State_Penalty>
-0

> <b_epik_Metal_Only>
0

> <s_lp_Force_Field>
OPLS_2005

> <r_lp_Energy>
10.9803

> <b_lp_Chiralities_Consistent>
1

> <s_lp_Variant>
AV-unprocessed.smi:1077-1

> <Gold.Version>
5.8.1

> <Gold.Id.Protein>
6NUR|6NUR_protein|mol2

> <Gold.PLP.Fitness>
48.7482

> <Gold.PLP.PLP>
-43.6275

> <Gold.PLP.part.hbond>
-1.2504

> <Gold.PLP.part.metal>
0.0000

> <Gold.PLP.part.buried>
-1.8691

> <Gold.PLP.part.nonpolar>
-42.9879

> <Gold.PLP.part.repulsive>
2.5664

> <Gold.PLP.ligand.clash>
0.0000

> <Gold.PLP.ligand.torsion>
0.4544

> <Gold.PLP.Chemscore.Hbond>
1.0000

> <Gold.PLP.Chemscore.CHOScore>
1.0000

> <Gold.PLP.Chemscore.Metal>
0.0000

> <Gold.Chemscore.Hbonds>
donor molecule, donor type, donor heavy atom, donor atom, acceptor molecule, acceptor atom, score
      P1  H 10752 10765       L1     7  1.00
      L1  C     4    28       P1  7948  1.00

> <Gold.PLP.Chemscore.Internal.Correction>
0.0293

> <Gold.Rescore>
     Score         DG    S(hbond)    S(metal)    S(lipo)     H(rot)  DE(clash)    DE(int)     intcor
     13.95     -16.05       1.00        0.00     100.15       1.75       1.68       0.41       ----

> <Gold.Chemscore.Fitness>
13.9497

> <Gold.Chemscore.DG>
-16.0467

> <Gold.Chemscore.ZeroCoef>
-5.4800

> <Gold.Chemscore.Hbond>
0.9983

> <Gold.Chemscore.Metal>
0.0000

> <Gold.Chemscore.Lipo>
100.1505

> <Gold.Chemscore.Internal_Hbond>
0.0000

> <Gold.Chemscore.DEClash>
1.6842

> <Gold.Chemscore.DEInternal>
0.4127

> <Gold.Chemscore.Rot>
1.7520

> <Gold.Chemscore.Internal.Correction>
   9.000000E+99

> <Gold.Chemscore.Hbonds>
donor molecule, donor type, donor heavy atom, donor atom, acceptor molecule, acceptor atom, score
      P1  H 10752 10765       L1     7  1.00

> <Gold.Chemscore.Hbond.Weighted>
-3.3342

> <Gold.Chemscore.Metal.Weighted>
-0.0000

> <Gold.Chemscore.Lipo.Weighted>
-11.7176

> <Gold.Chemscore.Internal_Hbond.Weighted>
0.0000

> <Gold.Chemscore.DEClash.Weighted>
1.6842

> <Gold.Chemscore.DEInternal.Weighted>
0.4127

> <Gold.Chemscore.Rot.Weighted>
4.4852

> <Gold.Chemscore.Internal.Correction.Weighted>
   9.000000E+99

> <Gold.Protein.RotatedTorsions>
[ 6907 6896 6895 6894 ] final  -85.89 input  -60.11 | X-H torsion
[ 7974 7965 7964 7962 ] final  101.58 input  175.53 | X-H torsion
[ 8008 7997 7996 7995 ] final  160.72 input   59.86 | X-H torsion
[ 10167 10162 10161 10158 ] final -105.11 input  -65.29 | X-H torsion
[ 10718 10713 10712 10709 ] final   29.55 input   66.30 | X-H torsion
[ 10763 10752 10751 10750 ] final  169.03 input  -60.55 | X-H torsion
[ 11005 11000 10999 10996 ] final -177.18 input  -57.11 | X-H torsion

> <Gold.Protein.ActiveResidues>
 VAL166  LYS551  ARG553  GLY616  TRP617  ASP618  TYR619  PRO620  LYS621  CYS622 
 ASP623  PHE694  ASN695  SER759  ASP760  ASP761  ALA762  ILE779  LEU786  VAL792 
 PHE793  MET794  SER795  GLU796  ALA797  LYS798  CYS799  TRP800  GLU811  SER814 

> <Gold.Protein.RotatedAtoms>
  150.6868  134.3135  159.4755 H   0  0  0  0  0  0  0  0  0  0  0  0  # atno 6907 bound_to 6896
  152.1018  134.9334  160.0578 H   0  0  0  0  0  0  0  0  0  0  0  0  # atno 6908 bound_to 6896
  152.0610  133.4027  159.4455 H   0  0  0  0  0  0  0  0  0  0  0  0  # atno 6909 bound_to 6896
  145.3704  139.2399  143.3458 H   0  0  0  0  0  0  0  0  0  0  0  0  # atno 7974 bound_to 7965
  156.2153  140.1796  156.7603 H   0  0  0  0  0  0  0  0  0  0  0  0  # atno 8008 bound_to 7997
  154.5782  140.0671  156.9094 H   0  0  0  0  0  0  0  0  0  0  0  0  # atno 8009 bound_to 7997
  155.2550  140.3331  155.4281 H   0  0  0  0  0  0  0  0  0  0  0  0  # atno 8010 bound_to 7997
  140.2020  143.3811  152.1121 H   0  0  0  0  0  0  0  0  0  0  0  0  # atno 10167 bound_to 10162
  157.2480  130.7101  149.6391 H   0  0  0  0  0  0  0  0  0  0  0  0  # atno 10718 bound_to 10713
  154.3772  135.2753  155.2232 H   0  0  0  0  0  0  0  0  0  0  0  0  # atno 10763 bound_to 10752
  154.4355  135.5967  153.6099 H   0  0  0  0  0  0  0  0  0  0  0  0  # atno 10764 bound_to 10752
  152.9836  135.6006  154.4010 H   0  0  0  0  0  0  0  0  0  0  0  0  # atno 10765 bound_to 10752
  140.4438  134.6407  157.4770 H   0  0  0  0  0  0  0  0  0  0  0  0  # atno 11005 bound_to 11000
  146.2888  140.4354  142.8747 LP  0  0  0  0  0  0  0  0  0  0  0  0  # atno 17320 bound_to 7965
  144.8580  140.7099  143.6125 LP  0  0  0  0  0  0  0  0  0  0  0  0  # atno 17321 bound_to 7965
  139.5213  144.7045  151.5396 LP  0  0  0  0  0  0  0  0  0  0  0  0  # atno 17342 bound_to 10162
  140.6384  143.8939  150.6668 LP  0  0  0  0  0  0  0  0  0  0  0  0  # atno 17343 bound_to 10162
  155.9667  130.4437  150.5431 LP  0  0  0  0  0  0  0  0  0  0  0  0  # atno 17370 bound_to 10713
  157.3308  131.0699  151.1862 LP  0  0  0  0  0  0  0  0  0  0  0  0  # atno 17371 bound_to 10713
  140.0052  134.6775  155.9466 LP  0  0  0  0  0  0  0  0  0  0  0  0  # atno 17394 bound_to 11000
  141.1694  133.6537  156.4596 LP  0  0  0  0  0  0  0  0  0  0  0  0  # atno 17395 bound_to 11000

$$$$
