AV-unprocessed.smi:970|AV-procd|sdf|4292|dock9
  -GOLD-   22720 2193D 1   1.00000     0.00000
 Structure written by MMmdl.
 31 31  0  0  0  0  0  0  0  0  1 V2000
  145.4228  135.3279  151.5982 C   0  0  0  0  0  0  0  0  0  0  0  0
  146.4741  135.3317  152.6034 N   0  0  0  0  0  0  0  0  0  0  0  0
  146.2534  135.3526  153.9255 C   0  0  0  0  0  0  0  0  0  0  0  0
  145.1242  135.3823  154.4187 O   0  0  0  0  0  0  0  0  0  0  0  0
  147.5019  135.3559  154.8234 C   0  0  1  0  0  0  0  0  0  0  0  0
  148.1432  133.9602  154.7522 C   0  0  0  0  0  0  0  0  0  0  0  0
  148.4774  136.3268  154.3320 N   0  0  0  0  0  0  0  0  0  0  0  0
  149.1057  137.2451  155.0841 C   0  0  0  0  0  0  0  0  0  0  0  0
  148.9608  137.3272  156.3045 O   0  0  0  0  0  0  0  0  0  0  0  0
  150.0251  138.2201  154.3326 C   0  0  2  0  0  0  0  0  0  0  0  0
  151.5040  138.0912  154.7511 C   0  0  0  0  0  0  0  0  0  0  0  0
  149.5257  139.5827  154.4746 N   0  0  0  0  0  0  0  0  0  0  0  0
  148.3175  140.0845  154.2091 C   0  0  0  0  0  0  0  0  0  0  0  0
  148.1888  141.3690  154.5097 N   0  0  0  0  0  0  0  0  0  0  0  0
  149.4377  141.6125  155.0060 C   0  0  0  0  0  0  0  0  0  0  0  0
  150.2745  140.5752  155.0170 N   0  0  0  0  0  0  0  0  0  0  0  0
  145.8620  135.3045  150.6008 H   0  0  0  0  0  0  0  0  0  0  0  0
  144.8052  136.2235  151.6786 H   0  0  0  0  0  0  0  0  0  0  0  0
  144.7826  134.4516  151.7093 H   0  0  0  0  0  0  0  0  0  0  0  0
  147.4288  135.3102  152.2752 H   0  0  0  0  0  0  0  0  0  0  0  0
  147.2287  135.5838  155.8559 H   0  0  0  0  0  0  0  0  0  0  0  0
  147.4571  133.1903  155.1074 H   0  0  0  0  0  0  0  0  0  0  0  0
  149.0355  133.9105  155.3769 H   0  0  0  0  0  0  0  0  0  0  0  0
  148.4390  133.6988  153.7348 H   0  0  0  0  0  0  0  0  0  0  0  0
  148.6492  136.3310  153.3372 H   0  0  0  0  0  0  0  0  0  0  0  0
  149.9679  137.9682  153.2724 H   0  0  0  0  0  0  0  0  0  0  0  0
  151.8731  137.0793  154.5807 H   0  0  0  0  0  0  0  0  0  0  0  0
  151.6547  138.3237  155.8060 H   0  0  0  0  0  0  0  0  0  0  0  0
  152.1317  138.7686  154.1714 H   0  0  0  0  0  0  0  0  0  0  0  0
  147.5132  139.4963  153.7920 H   0  0  0  0  0  0  0  0  0  0  0  0
  149.7378  142.5822  155.3749 H   0  0  0  0  0  0  0  0  0  0  0  0
  1  2  1  0  0  0  0
  1 17  1  0  0  0  0
  1 18  1  0  0  0  0
  1 19  1  0  0  0  0
  2  3  1  0  0  0  0
  2 20  1  0  0  0  0
  3  4  2  0  0  0  0
  3  5  1  0  0  0  0
  5  6  1  0  0  0  0
  5  7  1  0  0  0  0
  5 21  1  0  0  0  0
  6 22  1  0  0  0  0
  6 23  1  0  0  0  0
  6 24  1  0  0  0  0
  7  8  1  0  0  0  0
  7 25  1  0  0  0  0
  8  9  2  0  0  0  0
  8 10  1  0  0  0  0
 10 11  1  0  0  0  0
 10 12  1  0  0  0  0
 10 26  1  0  0  0  0
 11 27  1  0  0  0  0
 11 28  1  0  0  0  0
 11 29  1  0  0  0  0
 12 16  1  0  0  0  0
 12 13  1  0  0  0  0
 13 14  2  0  0  0  0
 13 30  1  0  0  0  0
 14 15  1  0  0  0  0
 15 16  2  0  0  0  0
 15 31  1  0  0  0  0
M  END
> <s_m_source_file>
AV-unprocessed.smi

> <i_m_source_file_index>
970

> <i_lp_mmshare_version>
43012

> <i_f3d_flags>
0

> <s_epik_input>
W0NIM11bTkhdQyg9TylbQ0BIXShbQ0gzXSlbTkhdQyg9TylbQ0BIXShbQ0gzXSluMVtjSF1uW2NIXW4x

> <s_epik_cmdline>
J2VwaWtfcHl0aG9uJywgJy1waCcsICc3LjAnLCAnLXRuJywgJzgnLCAnLW1hJywgJzIwMCcsICctbWV0YWxfYmluZGluZycsICctaW1hZScsICc8aW5maWxlLm1hZT4nLCAnLW9tYWUnLCAnPG91dGZpbGUubWFlPic=

> <r_lp_tautomer_probability>
1

> <r_epik_Ionization_Penalty>
1.07271e-05

> <r_epik_Ionization_Penalty_Charging>
0

> <r_epik_Ionization_Penalty_Neutral>
1.07271e-05

> <r_epik_State_Penalty>
-0

> <r_epik_Charging_Adjusted_Penalty>
0

> <i_epik_Tot_Q>
0

> <i_epik_Tot_abs_Q>
0

> <r_epik_Metal_State_Penalty>
-0

> <b_epik_Metal_Only>
0

> <s_lp_Force_Field>
OPLS_2005

> <r_lp_Energy>
8.21171

> <b_lp_Chiralities_Consistent>
1

> <s_lp_Variant>
AV-unprocessed.smi:970-2

> <Gold.Version>
5.8.1

> <Gold.Id.Protein>
6NUR|6NUR_protein|mol2

> <Gold.PLP.Fitness>
32.1086

> <Gold.PLP.PLP>
-21.1482

> <Gold.PLP.part.hbond>
-3.0000

> <Gold.PLP.part.metal>
0.0000

> <Gold.PLP.part.buried>
-2.4881

> <Gold.PLP.part.nonpolar>
-16.6937

> <Gold.PLP.part.repulsive>
0.2890

> <Gold.PLP.ligand.clash>
0.0000

> <Gold.PLP.ligand.torsion>
0.4336

> <Gold.PLP.Chemscore.Hbond>
2.9033

> <Gold.PLP.Chemscore.CHOScore>
1.0000

> <Gold.PLP.Chemscore.Metal>
0.0000

> <Gold.Chemscore.Hbonds>
donor molecule, donor type, donor heavy atom, donor atom, acceptor molecule, acceptor atom, score
      L1  H     2    20       P1  7948  0.99
      L1  H     7    25       P1  7948  0.93
      P1  H  7989  7998       L1    16  0.89
      L1  C    15    31       P1  8028  1.00

> <Gold.PLP.Chemscore.Internal.Correction>
0.1178

> <Gold.Rescore>
     Score         DG    S(hbond)    S(metal)    S(lipo)     H(rot)  DE(clash)    DE(int)     intcor
      9.85     -10.54       2.55        0.00      26.95       2.59       0.01       0.68       ----

> <Gold.Chemscore.Fitness>
9.8483

> <Gold.Chemscore.DG>
-10.5385

> <Gold.Chemscore.ZeroCoef>
-5.4800

> <Gold.Chemscore.Hbond>
2.5520

> <Gold.Chemscore.Metal>
0.0000

> <Gold.Chemscore.Lipo>
26.9484

> <Gold.Chemscore.Internal_Hbond>
0.0000

> <Gold.Chemscore.DEClash>
0.0126

> <Gold.Chemscore.DEInternal>
0.6776

> <Gold.Chemscore.Rot>
2.5852

> <Gold.Chemscore.Internal.Correction>
   9.000000E+99

> <Gold.Chemscore.Hbonds>
donor molecule, donor type, donor heavy atom, donor atom, acceptor molecule, acceptor atom, score
      L1  H     2    20       P1  7948  0.94
      L1  H     7    25       P1  7948  0.89
      P1  H  7989  7998       L1    16  0.13

> <Gold.Chemscore.Hbond.Weighted>
-8.5237

> <Gold.Chemscore.Metal.Weighted>
-0.0000

> <Gold.Chemscore.Lipo.Weighted>
-3.1530

> <Gold.Chemscore.Internal_Hbond.Weighted>
0.0000

> <Gold.Chemscore.DEClash.Weighted>
0.0126

> <Gold.Chemscore.DEInternal.Weighted>
0.6776

> <Gold.Chemscore.Rot.Weighted>
6.6182

> <Gold.Chemscore.Internal.Correction.Weighted>
   9.000000E+99

> <Gold.Protein.RotatedTorsions>
[ 6907 6896 6895 6894 ] final   42.46 input  -60.11 | X-H torsion
[ 7974 7965 7964 7962 ] final  -96.97 input  175.53 | X-H torsion
[ 8008 7997 7996 7995 ] final -113.00 input   59.86 | X-H torsion
[ 10167 10162 10161 10158 ] final   84.84 input  -65.29 | X-H torsion
[ 10718 10713 10712 10709 ] final  -83.81 input   66.30 | X-H torsion
[ 10763 10752 10751 10750 ] final  -31.65 input  -60.55 | X-H torsion
[ 11005 11000 10999 10996 ] final -151.60 input  -57.11 | X-H torsion

> <Gold.Protein.ActiveResidues>
 VAL166  LYS551  ARG553  GLY616  TRP617  ASP618  TYR619  PRO620  LYS621  CYS622 
 ASP623  PHE694  ASN695  SER759  ASP760  ASP761  ALA762  ILE779  LEU786  VAL792 
 PHE793  MET794  SER795  GLU796  ALA797  LYS798  CYS799  TRP800  GLU811  SER814 

> <Gold.Protein.RotatedAtoms>
  152.2081  134.8527  160.0500 H   0  0  0  0  0  0  0  0  0  0  0  0  # atno 6907 bound_to 6896
  151.9355  133.3618  159.3954 H   0  0  0  0  0  0  0  0  0  0  0  0  # atno 6908 bound_to 6896
  150.6970  134.4417  159.5339 H   0  0  0  0  0  0  0  0  0  0  0  0  # atno 6909 bound_to 6896
  145.3399  140.9458  143.2614 H   0  0  0  0  0  0  0  0  0  0  0  0  # atno 7974 bound_to 7965
  155.0139  140.0393  157.2410 H   0  0  0  0  0  0  0  0  0  0  0  0  # atno 8008 bound_to 7997
  154.7436  140.2753  155.6329 H   0  0  0  0  0  0  0  0  0  0  0  0  # atno 8009 bound_to 7997
  156.2870  140.2660  156.2170 H   0  0  0  0  0  0  0  0  0  0  0  0  # atno 8010 bound_to 7997
  139.9038  144.6313  150.8608 H   0  0  0  0  0  0  0  0  0  0  0  0  # atno 10167 bound_to 10162
  156.0013  130.4677  150.4314 H   0  0  0  0  0  0  0  0  0  0  0  0  # atno 10718 bound_to 10713
  153.8008  135.6890  153.4856 H   0  0  0  0  0  0  0  0  0  0  0  0  # atno 10763 bound_to 10752
  153.1690  135.4550  154.9875 H   0  0  0  0  0  0  0  0  0  0  0  0  # atno 10764 bound_to 10752
  154.8007  135.3336  154.7496 H   0  0  0  0  0  0  0  0  0  0  0  0  # atno 10765 bound_to 10752
  140.7279  134.3654  157.5172 H   0  0  0  0  0  0  0  0  0  0  0  0  # atno 11005 bound_to 11000
  144.8798  139.4919  143.6728 LP  0  0  0  0  0  0  0  0  0  0  0  0  # atno 17320 bound_to 7965
  146.3012  139.7431  142.9090 LP  0  0  0  0  0  0  0  0  0  0  0  0  # atno 17321 bound_to 7965
  140.7701  143.3416  151.2196 LP  0  0  0  0  0  0  0  0  0  0  0  0  # atno 17342 bound_to 10162
  139.7002  143.9546  152.2901 LP  0  0  0  0  0  0  0  0  0  0  0  0  # atno 17343 bound_to 10162
  157.2363  131.0515  151.2463 LP  0  0  0  0  0  0  0  0  0  0  0  0  # atno 17370 bound_to 10713
  157.3663  130.7158  149.6535 LP  0  0  0  0  0  0  0  0  0  0  0  0  # atno 17371 bound_to 10713
  139.8833  134.8998  156.2776 LP  0  0  0  0  0  0  0  0  0  0  0  0  # atno 17394 bound_to 11000
  140.9947  133.7187  156.0867 LP  0  0  0  0  0  0  0  0  0  0  0  0  # atno 17395 bound_to 11000

$$$$
