#       Name:                AV-unprocessed.smi:1487
#       Creating user name   scv26
#       Creation time:       Fri Mar 27 06:10:57 2020


#       File generated by GOLD software.
#

@<TRIPOS>MOLECULE
AV-unprocessed.smi:1487
    53    55     1
SMALL
NO_CHARGES


@<TRIPOS>ATOM
      1 ****        -3.4676   4.9321  -2.3004 C.3            1 S1                 0.0000
      2 ****        -3.1228   3.7210  -1.4516 C.ar           1 S1                 0.0000
      3 ****        -3.4222   3.7430  -0.0708 C.ar           1 S1                 0.0000
      4 ****        -3.1195   2.6374   0.7535 C.ar           1 S1                 0.0000
      5 ****        -3.3204   2.4454   2.1097 N.2            1 S1                 0.0000
      6 ****        -2.8326   1.2208   2.2827 C.2            1 S1                 0.0000
      7 ****        -2.3329   0.5974   1.1980 N.pl3          1 S1                 0.0000
      8 ****        -1.7499  -0.7311   1.1419 C.3            1 S1                 0.0000
      9 ****        -0.2108  -0.6991   1.0776 C.3            1 S1                 0.0000
     10 ****         0.2914  -0.0290   2.2180 O.3            1 S1                 0.0000
     11 ****         0.3836  -2.1208   1.0396 C.3            1 S1                 0.0000
     12 ****         1.8593  -2.1216   0.8689 N.4            1 S1                 1.0000
     13 ****         2.2922  -1.8659  -0.5304 C.3            1 S1                 0.0000
     14 ****         3.8189  -1.7129  -0.6146 C.3            1 S1                 0.0000
     15 ****         4.5288  -2.9524  -0.0521 C.3            1 S1                 0.0000
     16 ****         4.0287  -3.2791   1.3650 C.3            1 S1                 0.0000
     17 ****         4.4974  -2.3174   2.2896 O.3            1 S1                 0.0000
     18 ****         2.4901  -3.3477   1.4260 C.3            1 S1                 0.0000
     19 ****        -2.5044   1.4996   0.1537 C.ar           1 S1                 0.0000
     20 ****        -2.2022   1.4652  -1.2191 C.ar           1 S1                 0.0000
     21 ****        -2.5111   2.5788  -2.0281 C.ar           1 S1                 0.0000
     22 ****        -2.1802   2.5339  -3.5095 C.3            1 S1                 0.0000
     23 ****        -3.8811   5.7385  -1.6940 H              1 S1                 0.0000
     24 ****        -4.2074   4.6684  -3.0565 H              1 S1                 0.0000
     25 ****        -2.5792   5.3151  -2.8030 H              1 S1                 0.0000
     26 ****        -3.8891   4.6121   0.3687 H              1 S1                 0.0000
     27 ****        -2.8345   0.7506   3.2554 H              1 S1                 0.0000
     28 ****        -2.0846  -1.2955   2.0138 H              1 S1                 0.0000
     29 ****        -2.1533  -1.2419   0.2667 H              1 S1                 0.0000
     30 ****         0.0875  -0.1355   0.1942 H              1 S1                 0.0000
     31 ****        -0.0721   0.8440   2.2378 H              1 S1                 0.0000
     32 ****         0.1191  -2.6262   1.9700 H              1 S1                 0.0000
     33 ****        -0.0706  -2.7061   0.2384 H              1 S1                 0.0000
     34 ****         1.9605  -2.6846  -1.1711 H              1 S1                 0.0000
     35 ****         1.8270  -0.9591  -0.9147 H              1 S1                 0.0000
     36 ****         4.1203  -1.5515  -1.6502 H              1 S1                 0.0000
     37 ****         4.1293  -0.8253  -0.0618 H              1 S1                 0.0000
     38 ****         4.3305  -3.8027  -0.7058 H              1 S1                 0.0000
     39 ****         5.6100  -2.8080  -0.0558 H              1 S1                 0.0000
     40 ****         4.4397  -4.2406   1.6746 H              1 S1                 0.0000
     41 ****         5.4425  -2.3453   2.3013 H              1 S1                 0.0000
     42 ****         2.1733  -3.4962   2.4596 H              1 S1                 0.0000
     43 ****         2.1369  -4.2136   0.8634 H              1 S1                 0.0000
     44 ****        -1.7372   0.5890  -1.6458 H              1 S1                 0.0000
     45 ****        -1.7481   1.5738  -3.7924 H              1 S1                 0.0000
     46 ****        -1.4606   3.3128  -3.7628 H              1 S1                 0.0000
     47 ****        -3.0793   2.6847  -4.1076 H              1 S1                 0.0000
     48 ****         2.2065  -1.3561   1.4302 H              1 S1                 0.0000
     49 ****        -3.7257   3.0648   2.7821 LP             1 S1                 0.0000
     50 ****         1.2888   0.0221   2.1672 LP             1 S1                 0.0000
     51 ****         0.0247  -0.5242   3.0448 LP             1 S1                 0.0000
     52 ****         4.1430  -2.5258   3.2012 LP             1 S1                 0.0000
     53 ****         4.1907  -1.4067   2.0129 LP             1 S1                 0.0000
@<TRIPOS>BOND
    1    1    2 1     
    2    1   23 1     
    3    1   24 1     
    4    1   25 1     
    5    2   21 ar    
    6    2    3 ar    
    7    3    4 ar    
    8    3   26 1     
    9    4   19 ar    
   10    4    5 1     
   11    5    6 2     
   12    6    7 1     
   13    6   27 1     
   14    7    8 1     
   15    7   19 1     
   16    8    9 1     
   17    8   28 1     
   18    8   29 1     
   19    9   10 1     
   20    9   11 1     
   21    9   30 1     
   22   10   31 1     
   23   11   12 1     
   24   11   32 1     
   25   11   33 1     
   26   12   18 1     
   27   12   13 1     
   28   12   48 1     
   29   13   14 1     
   30   13   34 1     
   31   13   35 1     
   32   14   15 1     
   33   14   36 1     
   34   14   37 1     
   35   15   16 1     
   36   15   38 1     
   37   15   39 1     
   38   16   17 1     
   39   16   18 1     
   40   16   40 1     
   41   17   41 1     
   42   18   42 1     
   43   18   43 1     
   44   19   20 ar    
   45   20   21 ar    
   46   20   44 1     
   47   21   22 1     
   48   22   45 1     
   49   22   46 1     
   50   22   47 1     
   51    5   49 1     
   52   10   50 1     
   53   10   51 1     
   54   17   52 1     
   55   17   53 1     
@<TRIPOS>SUBSTRUCTURE
      1 S1             1
@<TRIPOS>SET
LONE_PAIRS      STATIC     ATOMS    <user>   **** ""
5 49 50 51 52 53
DONOR_HYDROGENS      STATIC     ATOMS    <user>   **** ""
3 31 48 41
ATOM$BLUE        STATIC     ATOMS    COLORGROUP SYSTEM
5 49 50 51 52 53
ATOM$RED        STATIC     ATOMS    COLORGROUP SYSTEM
3 31 48 41
