AV-unprocessed.smi:628|AV-procd|sdf|3114|dock4
  -GOLD-   22720 0 33D 1   1.00000     0.00000
 Structure written by MMmdl.
 31 32  0  0  0  0  0  0  0  0  2 V2000
  146.6196  137.4329  154.8667 O   0  0  0  0  0  0  0  0  0  0  0  0
  146.7138  137.8645  153.7164 C   0  0  0  0  0  0  0  0  0  0  0  0
  147.4282  139.1881  153.4156 C   0  0  0  0  0  0  0  0  0  0  0  0
  148.6687  139.3466  154.1567 N   0  0  0  0  0  0  0  0  0  0  0  0
  149.6775  138.4188  154.3376 C   0  0  0  0  0  0  0  0  0  0  0  0
  150.6125  139.0492  155.1015 C   0  0  0  0  0  0  0  0  0  0  0  0
  151.9089  138.4765  155.5798 C   0  0  0  0  0  0  0  0  0  0  0  0
  152.6729  139.2082  156.2470 O   0  0  0  0  0  0  0  0  0  0  0  0
  152.1778  137.2892  155.2920 O   0  5  0  0  0  0  0  0  0  0  0  0
  150.1165  140.3543  155.3546 C   0  0  0  0  0  0  0  0  0  0  0  0
  148.9367  140.5274  154.7744 N   0  0  0  0  0  0  0  0  0  0  0  0
  146.2131  137.2208  152.6509 N   0  0  0  0  0  0  0  0  0  0  0  0
  145.4926  135.9511  152.6974 C   0  0  0  0  0  0  0  0  0  0  0  0
  146.3870  134.8076  153.2184 C   0  0  0  0  0  0  0  0  0  0  0  0
  146.6885  133.9241  152.0081 C   0  0  0  0  0  0  0  0  0  0  0  0
  145.4508  134.0642  151.1280 C   0  0  0  0  0  0  0  0  0  0  0  0
  145.0367  135.5283  151.2873 C   0  0  0  0  0  0  0  0  0  0  0  0
  147.6535  139.2409  152.3497 H   0  0  0  0  0  0  0  0  0  0  0  0
  146.7652  140.0235  153.6460 H   0  0  0  0  0  0  0  0  0  0  0  0
  149.6415  137.4232  153.9207 H   0  0  0  0  0  0  0  0  0  0  0  0
  150.5597  141.1604  155.9206 H   0  0  0  0  0  0  0  0  0  0  0  0
  146.3356  137.6431  151.7419 H   0  0  0  0  0  0  0  0  0  0  0  0
  144.6196  136.0530  153.3453 H   0  0  0  0  0  0  0  0  0  0  0  0
  147.2982  135.1535  153.7081 H   0  0  0  0  0  0  0  0  0  0  0  0
  145.8305  134.2276  153.9557 H   0  0  0  0  0  0  0  0  0  0  0  0
  147.5612  134.3093  151.4792 H   0  0  0  0  0  0  0  0  0  0  0  0
  146.8944  132.8895  152.2837 H   0  0  0  0  0  0  0  0  0  0  0  0
  145.6401  133.7918  150.0894 H   0  0  0  0  0  0  0  0  0  0  0  0
  144.6591  133.4148  151.5037 H   0  0  0  0  0  0  0  0  0  0  0  0
  143.9645  135.6658  151.1432 H   0  0  0  0  0  0  0  0  0  0  0  0
  145.5414  136.1232  150.5239 H   0  0  0  0  0  0  0  0  0  0  0  0
  1  2  2  0  0  0  0
  2  3  1  0  0  0  0
  2 12  1  0  0  0  0
  3  4  1  0  0  0  0
  3 18  1  0  0  0  0
  3 19  1  0  0  0  0
  4 11  1  0  0  0  0
  4  5  1  0  0  0  0
  5  6  2  0  0  0  0
  5 20  1  0  0  0  0
  6  7  1  0  0  0  0
  6 10  1  0  0  0  0
  7  8  2  0  0  0  0
  7  9  1  0  0  0  0
 10 11  2  0  0  0  0
 10 21  1  0  0  0  0
 12 13  1  0  0  0  0
 12 22  1  0  0  0  0
 13 17  1  0  0  0  0
 13 14  1  0  0  0  0
 13 23  1  0  0  0  0
 14 15  1  0  0  0  0
 14 24  1  0  0  0  0
 14 25  1  0  0  0  0
 15 16  1  0  0  0  0
 15 26  1  0  0  0  0
 15 27  1  0  0  0  0
 16 17  1  0  0  0  0
 16 28  1  0  0  0  0
 16 29  1  0  0  0  0
 17 30  1  0  0  0  0
 17 31  1  0  0  0  0
M  CHG  1   9  -1
M  END
> <s_m_source_file>
AV-unprocessed.smi

> <i_m_source_file_index>
628

> <i_lp_mmshare_version>
43012

> <i_f3d_flags>
0

> <s_epik_input>
W0NIMl0xW0NIMl1bQ0gyXVtDSDJdW0NIXTFbTkhdQyg9TylbQ0gyXW4yW2NIXWMoW2NIXW4yKUMoPU8pW09IXQ==

> <s_epik_cmdline>
J2VwaWtfcHl0aG9uJywgJy1waCcsICc3LjAnLCAnLXRuJywgJzgnLCAnLW1hJywgJzIwMCcsICctbWV0YWxfYmluZGluZycsICctaW1hZScsICc8aW5maWxlLm1hZT4nLCAnLW9tYWUnLCAnPG91dGZpbGUubWFlPic=

> <r_epik_Ionization_Penalty>
0.000955839

> <r_epik_Ionization_Penalty_Charging>
0.000925564

> <r_epik_Ionization_Penalty_Neutral>
3.02757e-05

> <r_epik_State_Penalty>
0.000600209

> <r_epik_Charging_Adjusted_Penalty>
0.00152577

> <i_epik_Tot_Q>
-1

> <i_epik_Tot_abs_Q>
1

> <r_epik_Metal_State_Penalty>
-0

> <b_epik_Metal_Only>
0

> <s_lp_Force_Field>
OPLS_2005

> <r_lp_Energy>
22.3574

> <b_lp_Chiralities_Consistent>
1

> <s_lp_Variant>
AV-unprocessed.smi:628-1

> <Gold.Version>
5.8.1

> <Gold.Id.Protein>
6NUR|6NUR_protein|mol2

> <Gold.PLP.Fitness>
38.3721

> <Gold.PLP.PLP>
-25.6788

> <Gold.PLP.part.hbond>
-3.0000

> <Gold.PLP.part.metal>
0.0000

> <Gold.PLP.part.buried>
-1.4730

> <Gold.PLP.part.nonpolar>
-21.9280

> <Gold.PLP.part.repulsive>
0.2643

> <Gold.PLP.ligand.clash>
0.0000

> <Gold.PLP.ligand.torsion>
0.4128

> <Gold.PLP.Chemscore.Hbond>
3.5040

> <Gold.PLP.Chemscore.CHOScore>
1.0000

> <Gold.PLP.Chemscore.Metal>
0.0000

> <Gold.Chemscore.Hbonds>
donor molecule, donor type, donor heavy atom, donor atom, acceptor molecule, acceptor atom, score
      P1  H  7997  8009       L1     8  2.00
      P1  H 10752 10765       L1     9  1.63
      L1  C     5    20       P1  7948  1.00

> <Gold.PLP.Chemscore.Internal.Correction>
0.0070

> <Gold.Rescore>
     Score         DG    S(hbond)    S(metal)    S(lipo)     H(rot)  DE(clash)    DE(int)     intcor
     12.65     -13.24       1.89        0.00      47.67       1.61       0.06       0.53       ----

> <Gold.Chemscore.Fitness>
12.6462

> <Gold.Chemscore.DG>
-13.2373

> <Gold.Chemscore.ZeroCoef>
-5.4800

> <Gold.Chemscore.Hbond>
1.8857

> <Gold.Chemscore.Metal>
0.0000

> <Gold.Chemscore.Lipo>
47.6742

> <Gold.Chemscore.Internal_Hbond>
0.0000

> <Gold.Chemscore.DEClash>
0.0616

> <Gold.Chemscore.DEInternal>
0.5294

> <Gold.Chemscore.Rot>
1.6089

> <Gold.Chemscore.Internal.Correction>
   9.000000E+99

> <Gold.Chemscore.Hbonds>
donor molecule, donor type, donor heavy atom, donor atom, acceptor molecule, acceptor atom, score
      P1  H  7997  8009       L1     8  1.00
      P1  H 10752 10765       L1     9  0.80

> <Gold.Chemscore.Hbond.Weighted>
-6.2982

> <Gold.Chemscore.Metal.Weighted>
-0.0000

> <Gold.Chemscore.Lipo.Weighted>
-5.5779

> <Gold.Chemscore.Internal_Hbond.Weighted>
0.0000

> <Gold.Chemscore.DEClash.Weighted>
0.0616

> <Gold.Chemscore.DEInternal.Weighted>
0.5294

> <Gold.Chemscore.Rot.Weighted>
4.1188

> <Gold.Chemscore.Internal.Correction.Weighted>
   9.000000E+99

> <Gold.Protein.RotatedTorsions>
[ 6907 6896 6895 6894 ] final  -43.34 input  -60.11 | X-H torsion
[ 7974 7965 7964 7962 ] final  -87.11 input  175.53 | X-H torsion
[ 8008 7997 7996 7995 ] final -167.88 input   59.86 | X-H torsion
[ 10167 10162 10161 10158 ] final   -1.73 input  -65.29 | X-H torsion
[ 10718 10713 10712 10709 ] final -127.43 input   66.30 | X-H torsion
[ 10763 10752 10751 10750 ] final -176.49 input  -60.55 | X-H torsion
[ 11005 11000 10999 10996 ] final  165.63 input  -57.11 | X-H torsion

> <Gold.Protein.ActiveResidues>
 VAL166  LYS551  ARG553  GLY616  TRP617  ASP618  TYR619  PRO620  LYS621  CYS622 
 ASP623  PHE694  ASN695  SER759  ASP760  ASP761  ALA762  ILE779  LEU786  VAL792 
 PHE793  MET794  SER795  GLU796  ALA797  LYS798  CYS799  TRP800  GLU811  SER814 

> <Gold.Protein.RotatedAtoms>
  150.9450  134.8856  159.7635 H   0  0  0  0  0  0  0  0  0  0  0  0  # atno 6907 bound_to 6896
  152.5096  134.3887  159.9386 H   0  0  0  0  0  0  0  0  0  0  0  0  # atno 6908 bound_to 6896
  151.3906  133.3750  159.2755 H   0  0  0  0  0  0  0  0  0  0  0  0  # atno 6909 bound_to 6896
  145.4709  140.9559  143.1917 H   0  0  0  0  0  0  0  0  0  0  0  0  # atno 7974 bound_to 7965
  155.8838  140.1013  157.1466 H   0  0  0  0  0  0  0  0  0  0  0  0  # atno 8008 bound_to 7997
  154.4008  140.1324  156.4293 H   0  0  0  0  0  0  0  0  0  0  0  0  # atno 8009 bound_to 7997
  155.7612  140.3463  155.5201 H   0  0  0  0  0  0  0  0  0  0  0  0  # atno 8010 bound_to 7997
  140.6822  143.6741  150.8160 H   0  0  0  0  0  0  0  0  0  0  0  0  # atno 10167 bound_to 10162
  156.1857  130.6761  151.0361 H   0  0  0  0  0  0  0  0  0  0  0  0  # atno 10718 bound_to 10713
  154.5716  135.2828  155.0821 H   0  0  0  0  0  0  0  0  0  0  0  0  # atno 10763 bound_to 10752
  154.2191  135.6394  153.5143 H   0  0  0  0  0  0  0  0  0  0  0  0  # atno 10764 bound_to 10752
  153.0059  135.5510  154.6342 H   0  0  0  0  0  0  0  0  0  0  0  0  # atno 10765 bound_to 10752
  140.2581  134.7924  157.3564 H   0  0  0  0  0  0  0  0  0  0  0  0  # atno 11005 bound_to 11000
  144.7946  139.6261  143.7098 LP  0  0  0  0  0  0  0  0  0  0  0  0  # atno 17320 bound_to 7965
  146.2397  139.5976  142.9500 LP  0  0  0  0  0  0  0  0  0  0  0  0  # atno 17321 bound_to 7965
  140.0443  143.5314  152.2703 LP  0  0  0  0  0  0  0  0  0  0  0  0  # atno 17342 bound_to 10162
  139.6153  144.7618  151.2860 LP  0  0  0  0  0  0  0  0  0  0  0  0  # atno 17343 bound_to 10162
  157.6897  131.0814  150.7143 LP  0  0  0  0  0  0  0  0  0  0  0  0  # atno 17370 bound_to 10713
  156.7199  130.4677  149.5525 LP  0  0  0  0  0  0  0  0  0  0  0  0  # atno 17371 bound_to 10713
  140.1491  134.4872  155.7974 LP  0  0  0  0  0  0  0  0  0  0  0  0  # atno 17394 bound_to 11000
  141.2193  133.6855  156.7347 LP  0  0  0  0  0  0  0  0  0  0  0  0  # atno 17395 bound_to 11000

$$$$
