AV-unprocessed.smi:2213|AV-procd|sdf|8957|dock2
  -GOLD-   2272012173D 1   1.00000     0.00000
 Structure written by MMmdl.
 38 39  0  0  0  0  0  0  0  0  1 V2000
  143.4360  142.1499  155.9131 C   0  0  0  0  0  0  0  0  0  0  0  0
  144.8319  141.7388  155.4798 C   0  0  0  0  0  0  0  0  0  0  0  0
  145.6103  142.7509  154.9104 N   0  0  0  0  0  0  0  0  0  0  0  0
  146.8127  142.4924  154.5113 C   0  0  0  0  0  0  0  0  0  0  0  0
  147.3718  141.2102  154.6368 N   0  0  0  0  0  0  0  0  0  0  0  0
  148.7496  141.0487  154.1439 C   0  0  0  0  0  0  0  0  0  0  0  0
  149.6945  140.4862  155.2297 C   0  0  1  0  0  0  0  0  0  0  0  0
  150.9050  140.0448  154.6489 O   0  0  0  0  0  0  0  0  0  0  0  0
  150.0468  141.5168  156.3154 C   0  0  0  0  0  0  0  0  0  0  0  0
  150.8489  140.9025  157.3165 O   0  0  0  0  0  0  0  0  0  0  0  0
  151.5211  141.7091  158.2104 C   0  0  0  0  0  0  0  0  0  0  0  0
  151.3490  143.1147  158.2920 C   0  0  0  0  0  0  0  0  0  0  0  0
  152.0742  143.8703  159.2339 C   0  0  0  0  0  0  0  0  0  0  0  0
  151.8540  145.5792  159.3210 Cl  0  0  0  0  0  0  0  0  0  0  0  0
  152.9778  143.2336  160.1045 C   0  0  0  0  0  0  0  0  0  0  0  0
  153.1555  141.8402  160.0320 C   0  0  0  0  0  0  0  0  0  0  0  0
  152.4317  141.0827  159.0905 C   0  0  0  0  0  0  0  0  0  0  0  0
  152.6696  139.3731  159.0204 Cl  0  0  0  0  0  0  0  0  0  0  0  0
  146.6774  140.1632  155.1688 C   0  0  0  0  0  0  0  0  0  0  0  0
  147.1710  139.0369  155.2545 O   0  0  0  0  0  0  0  0  0  0  0  0
  145.3123  140.4734  155.6231 C   0  0  0  0  0  0  0  0  0  0  0  0
  144.5104  139.3308  156.2338 C   0  0  0  0  0  0  0  0  0  0  0  0
  143.3053  141.9918  156.9839 H   0  0  0  0  0  0  0  0  0  0  0  0
  142.6845  141.5673  155.3797 H   0  0  0  0  0  0  0  0  0  0  0  0
  143.2496  143.2044  155.7056 H   0  0  0  0  0  0  0  0  0  0  0  0
  147.4585  143.2441  154.0541 H   0  0  0  0  0  0  0  0  0  0  0  0
  148.7942  140.4347  153.2417 H   0  0  0  0  0  0  0  0  0  0  0  0
  149.1148  142.0250  153.8195 H   0  0  0  0  0  0  0  0  0  0  0  0
  149.2373  139.6271  155.7224 H   0  0  0  0  0  0  0  0  0  0  0  0
  151.2944  139.4022  155.2221 H   0  0  0  0  0  0  0  0  0  0  0  0
  150.6125  142.3280  155.8545 H   0  0  0  0  0  0  0  0  0  0  0  0
  149.1396  141.9464  156.7444 H   0  0  0  0  0  0  0  0  0  0  0  0
  150.6645  143.6374  157.6415 H   0  0  0  0  0  0  0  0  0  0  0  0
  153.5343  143.8118  160.8275 H   0  0  0  0  0  0  0  0  0  0  0  0
  153.8493  141.3518  160.7004 H   0  0  0  0  0  0  0  0  0  0  0  0
  144.3824  138.5300  155.5048 H   0  0  0  0  0  0  0  0  0  0  0  0
  143.5191  139.6321  156.5683 H   0  0  0  0  0  0  0  0  0  0  0  0
  145.0359  138.9215  157.0973 H   0  0  0  0  0  0  0  0  0  0  0  0
  1  2  1  0  0  0  0
  1 23  1  0  0  0  0
  1 24  1  0  0  0  0
  1 25  1  0  0  0  0
  2 21  2  0  0  0  0
  2  3  1  0  0  0  0
  3  4  2  0  0  0  0
  4  5  1  0  0  0  0
  4 26  1  0  0  0  0
  5  6  1  0  0  0  0
  5 19  1  0  0  0  0
  6  7  1  0  0  0  0
  6 27  1  0  0  0  0
  6 28  1  0  0  0  0
  7  8  1  0  0  0  0
  7  9  1  0  0  0  0
  7 29  1  0  0  0  0
  8 30  1  0  0  0  0
  9 10  1  0  0  0  0
  9 31  1  0  0  0  0
  9 32  1  0  0  0  0
 10 11  1  0  0  0  0
 11 17  1  0  0  0  0
 11 12  2  0  0  0  0
 12 13  1  0  0  0  0
 12 33  1  0  0  0  0
 13 14  1  0  0  0  0
 13 15  2  0  0  0  0
 15 16  1  0  0  0  0
 15 34  1  0  0  0  0
 16 17  2  0  0  0  0
 16 35  1  0  0  0  0
 17 18  1  0  0  0  0
 19 20  2  0  0  0  0
 19 21  1  0  0  0  0
 21 22  1  0  0  0  0
 22 36  1  0  0  0  0
 22 37  1  0  0  0  0
 22 38  1  0  0  0  0
M  END
> <s_m_source_file>
AV-unprocessed.smi

> <i_m_source_file_index>
2213

> <i_lp_mmshare_version>
43012

> <i_f3d_flags>
0

> <s_epik_input>
W0NIM11jMW5bY0hdbihjKD1PKWMxW0NIM10pW0NIMl1bQ0BIXShbT0hdKVtDSDJdT2MyW2NIXWMoQ2wpW2NIXVtjSF1jMkNs

> <s_epik_cmdline>
J2VwaWtfcHl0aG9uJywgJy1waCcsICc3LjAnLCAnLXRuJywgJzgnLCAnLW1hJywgJzIwMCcsICctbWV0YWxfYmluZGluZycsICctaW1hZScsICc8aW5maWxlLm1hZT4nLCAnLW9tYWUnLCAnPG91dGZpbGUubWFlPic=

> <r_lp_tautomer_probability>
1

> <r_epik_Ionization_Penalty>
3.50205e-05

> <r_epik_Ionization_Penalty_Charging>
7.87908e-08

> <r_epik_Ionization_Penalty_Neutral>
3.49418e-05

> <r_epik_State_Penalty>
-0

> <r_epik_Charging_Adjusted_Penalty>
7.87908e-08

> <i_epik_Tot_Q>
0

> <i_epik_Tot_abs_Q>
0

> <r_epik_Metal_State_Penalty>
-0

> <b_epik_Metal_Only>
0

> <s_lp_Force_Field>
OPLS_2005

> <r_lp_Energy>
23.8454

> <b_lp_Chiralities_Consistent>
1

> <s_lp_Variant>
AV-unprocessed.smi:2213-2

> <Gold.Version>
5.8.1

> <Gold.Id.Protein>
6NUR|6NUR_protein|mol2

> <Gold.PLP.Fitness>
46.3327

> <Gold.PLP.PLP>
-41.6563

> <Gold.PLP.part.hbond>
-1.0000

> <Gold.PLP.part.metal>
0.0000

> <Gold.PLP.part.buried>
-4.2461

> <Gold.PLP.part.nonpolar>
-37.2888

> <Gold.PLP.part.repulsive>
0.2619

> <Gold.PLP.ligand.clash>
0.0000

> <Gold.PLP.ligand.torsion>
0.2177

> <Gold.PLP.Chemscore.Hbond>
1.0000

> <Gold.PLP.Chemscore.CHOScore>
0.6918

> <Gold.PLP.Chemscore.Metal>
0.0000

> <Gold.Chemscore.Hbonds>
donor molecule, donor type, donor heavy atom, donor atom, acceptor molecule, acceptor atom, score
      P1  H  7989  7998       L1     8  1.00
      L1  C     4    26       P1  8028  0.72

> <Gold.PLP.Chemscore.Internal.Correction>
0.0364

> <Gold.Rescore>
     Score         DG    S(hbond)    S(metal)    S(lipo)     H(rot)  DE(clash)    DE(int)     intcor
     14.90     -15.31       0.97        0.00     108.48       2.38       0.16       0.24       ----

> <Gold.Chemscore.Fitness>
14.9021

> <Gold.Chemscore.DG>
-15.3054

> <Gold.Chemscore.ZeroCoef>
-5.4800

> <Gold.Chemscore.Hbond>
0.9679

> <Gold.Chemscore.Metal>
0.0000

> <Gold.Chemscore.Lipo>
108.4815

> <Gold.Chemscore.Internal_Hbond>
0.0000

> <Gold.Chemscore.DEClash>
0.1598

> <Gold.Chemscore.DEInternal>
0.2436

> <Gold.Chemscore.Rot>
2.3826

> <Gold.Chemscore.Internal.Correction>
   9.000000E+99

> <Gold.Chemscore.Hbonds>
donor molecule, donor type, donor heavy atom, donor atom, acceptor molecule, acceptor atom, score
      P1  H  7989  7998       L1     8  0.97

> <Gold.Chemscore.Hbond.Weighted>
-3.2326

> <Gold.Chemscore.Metal.Weighted>
-0.0000

> <Gold.Chemscore.Lipo.Weighted>
-12.6923

> <Gold.Chemscore.Internal_Hbond.Weighted>
0.0000

> <Gold.Chemscore.DEClash.Weighted>
0.1598

> <Gold.Chemscore.DEInternal.Weighted>
0.2436

> <Gold.Chemscore.Rot.Weighted>
6.0996

> <Gold.Chemscore.Internal.Correction.Weighted>
   9.000000E+99

> <Gold.Protein.RotatedTorsions>
[ 6907 6896 6895 6894 ] final   24.49 input  -60.11 | X-H torsion
[ 7974 7965 7964 7962 ] final  -30.96 input  175.53 | X-H torsion
[ 8008 7997 7996 7995 ] final  141.90 input   59.86 | X-H torsion
[ 10167 10162 10161 10158 ] final  104.79 input  -65.29 | X-H torsion
[ 10718 10713 10712 10709 ] final  -64.76 input   66.30 | X-H torsion
[ 10763 10752 10751 10750 ] final  -59.06 input  -60.55 | X-H torsion
[ 11005 11000 10999 10996 ] final   31.35 input  -57.11 | X-H torsion

> <Gold.Protein.ActiveResidues>
 VAL166  LYS551  ARG553  GLY616  TRP617  ASP618  TYR619  PRO620  LYS621  CYS622 
 ASP623  PHE694  ASN695  SER759  ASP760  ASP761  ALA762  ILE779  LEU786  VAL792 
 PHE793  MET794  SER795  GLU796  ALA797  LYS798  CYS799  TRP800  GLU811  SER814 

> <Gold.Protein.RotatedAtoms>
  151.9583  135.0136  160.0545 H   0  0  0  0  0  0  0  0  0  0  0  0  # atno 6907 bound_to 6896
  152.1892  133.4756  159.5007 H   0  0  0  0  0  0  0  0  0  0  0  0  # atno 6908 bound_to 6896
  150.6932  134.1652  159.4234 H   0  0  0  0  0  0  0  0  0  0  0  0  # atno 6909 bound_to 6896
  146.1104  140.5606  142.8780 H   0  0  0  0  0  0  0  0  0  0  0  0  # atno 7974 bound_to 7965
  156.2958  140.2303  156.4640 H   0  0  0  0  0  0  0  0  0  0  0  0  # atno 8008 bound_to 7997
  154.7993  140.0449  157.1281 H   0  0  0  0  0  0  0  0  0  0  0  0  # atno 8009 bound_to 7997
  154.9552  140.3047  155.5059 H   0  0  0  0  0  0  0  0  0  0  0  0  # atno 8010 bound_to 7997
  139.7147  144.7070  151.0969 H   0  0  0  0  0  0  0  0  0  0  0  0  # atno 10167 bound_to 10162
  156.0709  130.4238  150.1467 H   0  0  0  0  0  0  0  0  0  0  0  0  # atno 10718 bound_to 10713
  154.2479  135.6331  153.5230 H   0  0  0  0  0  0  0  0  0  0  0  0  # atno 10763 bound_to 10752
  152.9918  135.5557  154.5840 H   0  0  0  0  0  0  0  0  0  0  0  0  # atno 10764 bound_to 10752
  154.5360  135.2891  155.1112 H   0  0  0  0  0  0  0  0  0  0  0  0  # atno 10765 bound_to 10752
  140.2848  134.2932  155.7791 H   0  0  0  0  0  0  0  0  0  0  0  0  # atno 11005 bound_to 11000
  144.7506  140.5182  143.6804 LP  0  0  0  0  0  0  0  0  0  0  0  0  # atno 17320 bound_to 7965
  145.5676  139.1482  143.3306 LP  0  0  0  0  0  0  0  0  0  0  0  0  # atno 17321 bound_to 7965
  140.7741  143.5245  150.9496 LP  0  0  0  0  0  0  0  0  0  0  0  0  # atno 17342 bound_to 10162
  139.8931  143.6928  152.3142 LP  0  0  0  0  0  0  0  0  0  0  0  0  # atno 17343 bound_to 10162
  156.9518  130.9777  151.3497 LP  0  0  0  0  0  0  0  0  0  0  0  0  # atno 17370 bound_to 10713
  157.5780  130.8356  149.8482 LP  0  0  0  0  0  0  0  0  0  0  0  0  # atno 17371 bound_to 10713
  141.2156  133.7548  156.9535 LP  0  0  0  0  0  0  0  0  0  0  0  0  # atno 17394 bound_to 11000
  140.1250  134.9392  157.2257 LP  0  0  0  0  0  0  0  0  0  0  0  0  # atno 17395 bound_to 11000

$$$$
