AV-unprocessed.smi:1188|AV-procd|sdf|4977|dock10
  -GOLD-   22720 3573D 1   1.00000     0.00000
 Structure written by MMmdl.
 48 49  0  0  0  0  0  0  0  0  1 V2000
  152.3814  144.6752  161.0468 C   0  0  0  0  0  0  0  0  0  0  0  0
  152.4560  143.4639  160.9111 C   0  0  0  0  0  0  0  0  0  0  0  0
  152.5450  142.0074  160.7309 C   0  0  0  0  0  0  0  0  0  0  0  0
  152.0207  141.5919  159.4387 N   0  0  0  0  0  0  0  0  0  0  0  0
  152.5985  140.6848  158.6323 C   0  0  0  0  0  0  0  0  0  0  0  0
  153.6514  140.1251  158.9414 O   0  0  0  0  0  0  0  0  0  0  0  0
  151.8679  140.4354  157.3864 C   0  0  0  0  0  0  0  0  0  0  0  0
  150.9996  141.4691  156.8570 C   0  0  0  0  0  0  0  0  0  0  0  0
  150.3233  141.2803  155.7072 C   0  0  0  0  0  0  0  0  0  0  0  0
  150.4293  140.0315  154.9478 C   0  0  0  0  0  0  0  0  0  0  0  0
  149.8191  139.8544  153.8928 O   0  0  0  0  0  0  0  0  0  0  0  0
  151.2471  139.0764  155.4860 N   0  0  0  0  0  0  0  0  0  0  0  0
  151.4279  137.7784  154.8143 C   0  0  0  0  0  0  0  0  0  0  0  0
  150.6548  136.6364  155.4891 C   0  0  0  0  0  0  0  0  0  0  0  0
  150.9509  136.2592  156.6235 O   0  0  0  0  0  0  0  0  0  0  0  0
  149.6471  136.1080  154.7785 N   0  0  0  0  0  0  0  0  0  0  0  0
  148.7847  135.0207  155.2261 C   0  0  0  0  0  0  0  0  0  0  0  0
  148.6075  133.9512  154.1332 C   0  0  0  0  0  0  0  0  0  0  0  0
  149.1583  132.5951  154.5425 C   0  0  0  0  0  0  0  0  0  0  0  0
  150.0129  132.4542  155.5747 C   0  0  0  0  0  0  0  0  0  0  0  0
  150.6062  131.1279  156.0170 C   0  0  0  0  0  0  0  0  0  0  0  0
  150.4105  130.0201  154.9681 C   0  0  0  0  0  0  0  0  0  0  0  0
  148.9904  130.0508  154.3897 C   0  0  0  0  0  0  0  0  0  0  0  0
  148.6883  131.4021  153.7172 C   0  0  0  0  0  0  0  0  0  0  0  0
  151.9578  139.2833  156.6853 C   0  0  0  0  0  0  0  0  0  0  0  0
  152.3128  145.7335  161.1640 H   0  0  0  0  0  0  0  0  0  0  0  0
  153.5911  141.7127  160.8239 H   0  0  0  0  0  0  0  0  0  0  0  0
  151.9873  141.5302  161.5380 H   0  0  0  0  0  0  0  0  0  0  0  0
  151.1568  142.0175  159.1358 H   0  0  0  0  0  0  0  0  0  0  0  0
  150.8866  142.4086  157.3788 H   0  0  0  0  0  0  0  0  0  0  0  0
  149.6856  142.0683  155.3343 H   0  0  0  0  0  0  0  0  0  0  0  0
  151.1068  137.8360  153.7734 H   0  0  0  0  0  0  0  0  0  0  0  0
  152.4889  137.5244  154.7694 H   0  0  0  0  0  0  0  0  0  0  0  0
  149.4679  136.4826  153.8582 H   0  0  0  0  0  0  0  0  0  0  0  0
  149.1885  134.5826  156.1402 H   0  0  0  0  0  0  0  0  0  0  0  0
  147.8156  135.4473  155.4866 H   0  0  0  0  0  0  0  0  0  0  0  0
  147.5482  133.8518  153.8913 H   0  0  0  0  0  0  0  0  0  0  0  0
  149.1036  134.2619  153.2128 H   0  0  0  0  0  0  0  0  0  0  0  0
  150.3086  133.3195  156.1501 H   0  0  0  0  0  0  0  0  0  0  0  0
  151.6685  131.2600  156.2237 H   0  0  0  0  0  0  0  0  0  0  0  0
  150.1324  130.8443  156.9572 H   0  0  0  0  0  0  0  0  0  0  0  0
  151.1296  130.1536  154.1588 H   0  0  0  0  0  0  0  0  0  0  0  0
  150.6209  129.0459  155.4103 H   0  0  0  0  0  0  0  0  0  0  0  0
  148.8547  129.2403  153.6730 H   0  0  0  0  0  0  0  0  0  0  0  0
  148.2732  129.8756  155.1926 H   0  0  0  0  0  0  0  0  0  0  0  0
  147.6166  131.4850  153.5323 H   0  0  0  0  0  0  0  0  0  0  0  0
  149.1808  131.4447  152.7453 H   0  0  0  0  0  0  0  0  0  0  0  0
  152.5754  138.4450  156.9743 H   0  0  0  0  0  0  0  0  0  0  0  0
  1  2  3  0  0  0  0
  1 26  1  0  0  0  0
  2  3  1  0  0  0  0
  3  4  1  0  0  0  0
  3 27  1  0  0  0  0
  3 28  1  0  0  0  0
  4  5  1  0  0  0  0
  4 29  1  0  0  0  0
  5  6  2  0  0  0  0
  5  7  1  0  0  0  0
  7 25  2  0  0  0  0
  7  8  1  0  0  0  0
  8  9  2  0  0  0  0
  8 30  1  0  0  0  0
  9 10  1  0  0  0  0
  9 31  1  0  0  0  0
 10 11  2  0  0  0  0
 10 12  1  0  0  0  0
 12 13  1  0  0  0  0
 12 25  1  0  0  0  0
 13 14  1  0  0  0  0
 13 32  1  0  0  0  0
 13 33  1  0  0  0  0
 14 15  2  0  0  0  0
 14 16  1  0  0  0  0
 16 17  1  0  0  0  0
 16 34  1  0  0  0  0
 17 18  1  0  0  0  0
 17 35  1  0  0  0  0
 17 36  1  0  0  0  0
 18 19  1  0  0  0  0
 18 37  1  0  0  0  0
 18 38  1  0  0  0  0
 19 24  1  0  0  0  0
 19 20  2  0  0  0  0
 20 21  1  0  0  0  0
 20 39  1  0  0  0  0
 21 22  1  0  0  0  0
 21 40  1  0  0  0  0
 21 41  1  0  0  0  0
 22 23  1  0  0  0  0
 22 42  1  0  0  0  0
 22 43  1  0  0  0  0
 23 24  1  0  0  0  0
 23 44  1  0  0  0  0
 23 45  1  0  0  0  0
 24 46  1  0  0  0  0
 24 47  1  0  0  0  0
 25 48  1  0  0  0  0
M  END
> <s_m_source_file>
AV-unprocessed.smi

> <i_m_source_file_index>
1188

> <i_lp_mmshare_version>
43012

> <i_f3d_flags>
0

> <s_epik_input>
W0NIXSNDW0NIMl1bTkhdQyg9TyljMVtjSF1bY0hdYyg9TyluKFtjSF0xKVtDSDJdQyg9TylbTkhdW0NIMl1bQ0gyXUMyPVtDSF1bQ0gyXVtDSDJdW0NIMl1bQ0gyXTI=

> <s_epik_cmdline>
J2VwaWtfcHl0aG9uJywgJy1waCcsICc3LjAnLCAnLXRuJywgJzgnLCAnLW1hJywgJzIwMCcsICctbWV0YWxfYmluZGluZycsICctaW1hZScsICc8aW5maWxlLm1hZT4nLCAnLW9tYWUnLCAnPG91dGZpbGUubWFlPic=

> <r_lp_tautomer_probability>
1

> <r_epik_Ionization_Penalty>
3.04448e-06

> <r_epik_Ionization_Penalty_Charging>
4.20752e-08

> <r_epik_Ionization_Penalty_Neutral>
3.00241e-06

> <r_epik_State_Penalty>
-0

> <r_epik_Charging_Adjusted_Penalty>
4.20752e-08

> <i_epik_Tot_Q>
0

> <i_epik_Tot_abs_Q>
0

> <r_epik_Metal_State_Penalty>
-0

> <b_epik_Metal_Only>
0

> <s_lp_Force_Field>
OPLS_2005

> <r_lp_Energy>
18.5418

> <b_lp_Chiralities_Consistent>
1

> <s_lp_Variant>
AV-unprocessed.smi:1188-1

> <Gold.Version>
5.8.1

> <Gold.Id.Protein>
6NUR|6NUR_protein|mol2

> <Gold.PLP.Fitness>
51.2915

> <Gold.PLP.PLP>
-48.0079

> <Gold.PLP.part.hbond>
-3.0000

> <Gold.PLP.part.metal>
0.0000

> <Gold.PLP.part.buried>
-4.1217

> <Gold.PLP.part.nonpolar>
-42.5214

> <Gold.PLP.part.repulsive>
2.8337

> <Gold.PLP.ligand.clash>
0.0000

> <Gold.PLP.ligand.torsion>
1.3166

> <Gold.PLP.Chemscore.Hbond>
1.9280

> <Gold.PLP.Chemscore.CHOScore>
0.0000

> <Gold.PLP.Chemscore.Metal>
0.0000

> <Gold.Chemscore.Hbonds>
donor molecule, donor type, donor heavy atom, donor atom, acceptor molecule, acceptor atom, score
      L1  H    16    34       P1  7948  0.96
      P1  H  7997  8010       L1     6  0.86

> <Gold.PLP.Chemscore.Internal.Correction>
0.1329

> <Gold.Rescore>
     Score         DG    S(hbond)    S(metal)    S(lipo)     H(rot)  DE(clash)    DE(int)     intcor
     16.42     -19.13       1.83        0.00     107.42       1.97       1.52       1.19       ----

> <Gold.Chemscore.Fitness>
16.4226

> <Gold.Chemscore.DG>
-19.1294

> <Gold.Chemscore.ZeroCoef>
-5.4800

> <Gold.Chemscore.Hbond>
1.8331

> <Gold.Chemscore.Metal>
0.0000

> <Gold.Chemscore.Lipo>
107.4213

> <Gold.Chemscore.Internal_Hbond>
0.0000

> <Gold.Chemscore.DEClash>
1.5178

> <Gold.Chemscore.DEInternal>
1.1890

> <Gold.Chemscore.Rot>
1.9694

> <Gold.Chemscore.Internal.Correction>
   9.000000E+99

> <Gold.Chemscore.Hbonds>
donor molecule, donor type, donor heavy atom, donor atom, acceptor molecule, acceptor atom, score
      L1  H    16    34       P1  7948  0.70
      P1  H  7997  8010       L1     6  0.40

> <Gold.Chemscore.Hbond.Weighted>
-6.1227

> <Gold.Chemscore.Metal.Weighted>
-0.0000

> <Gold.Chemscore.Lipo.Weighted>
-12.5683

> <Gold.Chemscore.Internal_Hbond.Weighted>
0.0000

> <Gold.Chemscore.DEClash.Weighted>
1.5178

> <Gold.Chemscore.DEInternal.Weighted>
1.1890

> <Gold.Chemscore.Rot.Weighted>
5.0416

> <Gold.Chemscore.Internal.Correction.Weighted>
   9.000000E+99

> <Gold.Protein.RotatedTorsions>
[ 6907 6896 6895 6894 ] final   39.36 input  -60.11 | X-H torsion
[ 7974 7965 7964 7962 ] final -166.47 input  175.53 | X-H torsion
[ 8008 7997 7996 7995 ] final   22.91 input   59.86 | X-H torsion
[ 10167 10162 10161 10158 ] final   48.62 input  -65.29 | X-H torsion
[ 10718 10713 10712 10709 ] final  128.07 input   66.30 | X-H torsion
[ 10763 10752 10751 10750 ] final  -78.59 input  -60.55 | X-H torsion
[ 11005 11000 10999 10996 ] final -106.41 input  -57.11 | X-H torsion

> <Gold.Protein.ActiveResidues>
 VAL166  LYS551  ARG553  GLY616  TRP617  ASP618  TYR619  PRO620  LYS621  CYS622 
 ASP623  PHE694  ASN695  SER759  ASP760  ASP761  ALA762  ILE779  LEU786  VAL792 
 PHE793  MET794  SER795  GLU796  ALA797  LYS798  CYS799  TRP800  GLU811  SER814 

> <Gold.Protein.RotatedAtoms>
  152.1685  134.8853  160.0535 H   0  0  0  0  0  0  0  0  0  0  0  0  # atno 6907 bound_to 6896
  151.9822  133.3757  159.4120 H   0  0  0  0  0  0  0  0  0  0  0  0  # atno 6908 bound_to 6896
  150.6898  134.3949  159.5137 H   0  0  0  0  0  0  0  0  0  0  0  0  # atno 6909 bound_to 6896
  144.7245  140.2662  143.6257 H   0  0  0  0  0  0  0  0  0  0  0  0  # atno 7974 bound_to 7965
  154.9729  140.3092  155.4980 H   0  0  0  0  0  0  0  0  0  0  0  0  # atno 8008 bound_to 7997
  156.2963  140.2280  156.4762 H   0  0  0  0  0  0  0  0  0  0  0  0  # atno 8009 bound_to 7997
  154.7860  140.0443  157.1152 H   0  0  0  0  0  0  0  0  0  0  0  0  # atno 8010 bound_to 7997
  140.2914  144.3042  150.6240 H   0  0  0  0  0  0  0  0  0  0  0  0  # atno 10167 bound_to 10162
  157.5277  131.1098  150.9057 H   0  0  0  0  0  0  0  0  0  0  0  0  # atno 10718 bound_to 10713
  154.5278  135.5725  153.6734 H   0  0  0  0  0  0  0  0  0  0  0  0  # atno 10763 bound_to 10752
  152.9932  135.6197  154.2669 H   0  0  0  0  0  0  0  0  0  0  0  0  # atno 10764 bound_to 10752
  154.2594  135.2856  155.2764 H   0  0  0  0  0  0  0  0  0  0  0  0  # atno 10765 bound_to 10752
  141.1006  133.8892  157.1853 H   0  0  0  0  0  0  0  0  0  0  0  0  # atno 11005 bound_to 11000
  145.8088  139.1994  143.2005 LP  0  0  0  0  0  0  0  0  0  0  0  0  # atno 17320 bound_to 7965
  146.0614  140.7967  142.9733 LP  0  0  0  0  0  0  0  0  0  0  0  0  # atno 17321 bound_to 7965
  140.5729  143.2179  151.7567 LP  0  0  0  0  0  0  0  0  0  0  0  0  # atno 17342 bound_to 10162
  139.4937  144.4191  151.9997 LP  0  0  0  0  0  0  0  0  0  0  0  0  # atno 17343 bound_to 10162
  156.9648  130.5469  149.5287 LP  0  0  0  0  0  0  0  0  0  0  0  0  # atno 17370 bound_to 10713
  156.0399  130.5483  150.8745 LP  0  0  0  0  0  0  0  0  0  0  0  0  # atno 17371 bound_to 10713
  139.9856  135.0083  156.9854 LP  0  0  0  0  0  0  0  0  0  0  0  0  # atno 17394 bound_to 11000
  140.5032  134.1076  155.7255 LP  0  0  0  0  0  0  0  0  0  0  0  0  # atno 17395 bound_to 11000

$$$$
