AV-unprocessed.smi:676|AV-procd|sdf|3310|dock4
  -GOLD-   22720 0273D 1   1.00000     0.00000
 Structure written by MMmdl.
 42 43  0  0  0  0  0  0  0  0  1 V2000
  150.1207  141.0748  155.2941 C   0  0  0  0  0  0  0  0  0  0  0  0
  150.7927  140.0323  154.5994 O   0  0  0  0  0  0  0  0  0  0  0  0
  151.0373  138.8340  155.3376 C   0  0  2  0  0  0  0  0  0  0  0  0
  151.8884  139.1451  156.5788 C   0  0  0  0  0  0  0  0  0  0  0  0
  151.4822  137.6720  154.4302 C   0  0  0  0  0  0  0  0  0  0  0  0
  150.5235  136.7952  155.2325 C   0  0  2  0  0  0  0  0  0  0  0  0
  149.8521  135.7943  154.4108 N   0  0  0  0  0  0  0  0  0  0  0  0
  149.7460  134.4981  154.7361 C   0  0  0  0  0  0  0  0  0  0  0  0
  150.2190  134.0246  155.7706 O   0  0  0  0  0  0  0  0  0  0  0  0
  148.9674  133.6205  153.7458 C   0  0  0  0  0  0  0  0  0  0  0  0
  148.9056  132.2038  154.1422 N   0  0  0  0  0  0  0  0  0  0  0  0
  150.1206  131.5866  154.5017 C   0  0  0  0  0  0  0  0  0  0  0  0
  150.1799  130.2971  154.8706 C   0  0  0  0  0  0  0  0  0  0  0  0
  148.9526  129.5371  154.8951 C   0  0  0  0  0  0  0  0  0  0  0  0
  147.7857  130.1168  154.5495 C   0  0  0  0  0  0  0  0  0  0  0  0
  147.7169  131.5249  154.1413 C   0  0  0  0  0  0  0  0  0  0  0  0
  146.6562  132.0605  153.8183 O   0  0  0  0  0  0  0  0  0  0  0  0
  149.6866  138.0680  155.5208 C   0  0  0  0  0  0  0  0  0  0  0  0
  149.0345  138.1386  156.9053 C   0  0  0  0  0  0  0  0  0  0  0  0
  148.5705  138.4092  154.5125 C   0  0  0  0  0  0  0  0  0  0  0  0
  150.0922  141.9624  154.6622 H   0  0  0  0  0  0  0  0  0  0  0  0
  150.6304  141.3454  156.2188 H   0  0  0  0  0  0  0  0  0  0  0  0
  149.0891  140.8101  155.5254 H   0  0  0  0  0  0  0  0  0  0  0  0
  151.9856  138.2783  157.2321 H   0  0  0  0  0  0  0  0  0  0  0  0
  151.4501  139.9507  157.1681 H   0  0  0  0  0  0  0  0  0  0  0  0
  152.9024  139.4424  156.3130 H   0  0  0  0  0  0  0  0  0  0  0  0
  151.1937  137.7959  153.3846 H   0  0  0  0  0  0  0  0  0  0  0  0
  152.5327  137.3951  154.5241 H   0  0  0  0  0  0  0  0  0  0  0  0
  151.0013  136.3854  156.1253 H   0  0  0  0  0  0  0  0  0  0  0  0
  149.4345  136.1098  153.5474 H   0  0  0  0  0  0  0  0  0  0  0  0
  147.9609  134.0300  153.6481 H   0  0  0  0  0  0  0  0  0  0  0  0
  149.4124  133.7182  152.7539 H   0  0  0  0  0  0  0  0  0  0  0  0
  150.9928  132.2220  154.4492 H   0  0  0  0  0  0  0  0  0  0  0  0
  151.1212  129.8394  155.1375 H   0  0  0  0  0  0  0  0  0  0  0  0
  148.9700  128.4985  155.1907 H   0  0  0  0  0  0  0  0  0  0  0  0
  146.8775  129.5322  154.5728 H   0  0  0  0  0  0  0  0  0  0  0  0
  148.1429  137.5133  156.9609 H   0  0  0  0  0  0  0  0  0  0  0  0
  148.7382  139.1579  157.1540 H   0  0  0  0  0  0  0  0  0  0  0  0
  149.7059  137.7932  157.6912 H   0  0  0  0  0  0  0  0  0  0  0  0
  147.7384  137.7076  154.5793 H   0  0  0  0  0  0  0  0  0  0  0  0
  148.9229  138.3879  153.4811 H   0  0  0  0  0  0  0  0  0  0  0  0
  148.1648  139.4058  154.6898 H   0  0  0  0  0  0  0  0  0  0  0  0
  1  2  1  0  0  0  0
  1 21  1  0  0  0  0
  1 22  1  0  0  0  0
  1 23  1  0  0  0  0
  2  3  1  0  0  0  0
  3 18  1  0  0  0  0
  3  4  1  0  0  0  0
  3  5  1  0  0  0  0
  4 24  1  0  0  0  0
  4 25  1  0  0  0  0
  4 26  1  0  0  0  0
  5  6  1  0  0  0  0
  5 27  1  0  0  0  0
  5 28  1  0  0  0  0
  6  7  1  0  0  0  0
  6 18  1  0  0  0  0
  6 29  1  0  0  0  0
  7  8  1  0  0  0  0
  7 30  1  0  0  0  0
  8  9  2  0  0  0  0
  8 10  1  0  0  0  0
 10 11  1  0  0  0  0
 10 31  1  0  0  0  0
 10 32  1  0  0  0  0
 11 16  1  0  0  0  0
 11 12  1  0  0  0  0
 12 13  2  0  0  0  0
 12 33  1  0  0  0  0
 13 14  1  0  0  0  0
 13 34  1  0  0  0  0
 14 15  2  0  0  0  0
 14 35  1  0  0  0  0
 15 16  1  0  0  0  0
 15 36  1  0  0  0  0
 16 17  2  0  0  0  0
 18 19  1  0  0  0  0
 18 20  1  0  0  0  0
 19 37  1  0  0  0  0
 19 38  1  0  0  0  0
 19 39  1  0  0  0  0
 20 40  1  0  0  0  0
 20 41  1  0  0  0  0
 20 42  1  0  0  0  0
M  END
> <s_m_source_file>
AV-unprocessed.smi

> <i_m_source_file_index>
676

> <i_lp_mmshare_version>
43012

> <i_f3d_flags>
0

> <s_epik_input>
W0NIM11PW0NAQF0xKFtDSDNdKVtDSDJdW0NASF0oQzEoW0NIM10pW0NIM10pW05IXUMoPU8pW0NIMl1uMltjSF1bY0hdW2NIXVtjSF1jMj1P

> <s_epik_cmdline>
J2VwaWtfcHl0aG9uJywgJy1waCcsICc3LjAnLCAnLXRuJywgJzgnLCAnLW1hJywgJzIwMCcsICctbWV0YWxfYmluZGluZycsICctaW1hZScsICc8aW5maWxlLm1hZT4nLCAnLW9tYWUnLCAnPG91dGZpbGUubWFlPic=

> <r_lp_tautomer_probability>
1

> <r_epik_Ionization_Penalty>
4.09771e-07

> <r_epik_Ionization_Penalty_Charging>
3.90712e-07

> <r_epik_Ionization_Penalty_Neutral>
1.90591e-08

> <r_epik_State_Penalty>
-0

> <r_epik_Charging_Adjusted_Penalty>
3.90712e-07

> <i_epik_Tot_Q>
0

> <i_epik_Tot_abs_Q>
0

> <r_epik_Metal_State_Penalty>
-0

> <b_epik_Metal_Only>
0

> <s_lp_Force_Field>
OPLS_2005

> <r_lp_Energy>
31.4384

> <b_lp_Chiralities_Consistent>
1

> <s_lp_Variant>
AV-unprocessed.smi:676-4

> <Gold.Version>
5.8.1

> <Gold.Id.Protein>
6NUR|6NUR_protein|mol2

> <Gold.PLP.Fitness>
35.2824

> <Gold.PLP.PLP>
-29.5054

> <Gold.PLP.part.hbond>
-2.5723

> <Gold.PLP.part.metal>
0.0000

> <Gold.PLP.part.buried>
-2.9828

> <Gold.PLP.part.nonpolar>
-24.2882

> <Gold.PLP.part.repulsive>
0.2736

> <Gold.PLP.ligand.clash>
0.0000

> <Gold.PLP.ligand.torsion>
0.2979

> <Gold.PLP.Chemscore.Hbond>
2.0000

> <Gold.PLP.Chemscore.CHOScore>
0.0000

> <Gold.PLP.Chemscore.Metal>
0.0000

> <Gold.Chemscore.Hbonds>
donor molecule, donor type, donor heavy atom, donor atom, acceptor molecule, acceptor atom, score
      L1  H     7    30       P1  7948  1.00
      P1  H  7989  7998       L1     2  1.00

> <Gold.PLP.Chemscore.Internal.Correction>
0.3729

> <Gold.Rescore>
     Score         DG    S(hbond)    S(metal)    S(lipo)     H(rot)  DE(clash)    DE(int)     intcor
     12.83     -14.53       1.74        0.00      63.04       1.62       0.01       1.69       ----

> <Gold.Chemscore.Fitness>
12.8287

> <Gold.Chemscore.DG>
-14.5287

> <Gold.Chemscore.ZeroCoef>
-5.4800

> <Gold.Chemscore.Hbond>
1.7407

> <Gold.Chemscore.Metal>
0.0000

> <Gold.Chemscore.Lipo>
63.0384

> <Gold.Chemscore.Internal_Hbond>
0.0000

> <Gold.Chemscore.DEClash>
0.0120

> <Gold.Chemscore.DEInternal>
1.6880

> <Gold.Chemscore.Rot>
1.6175

> <Gold.Chemscore.Internal.Correction>
   9.000000E+99

> <Gold.Chemscore.Hbonds>
donor molecule, donor type, donor heavy atom, donor atom, acceptor molecule, acceptor atom, score
      L1  H     7    30       P1  7948  0.60
      P1  H  7989  7998       L1     2  0.30

> <Gold.Chemscore.Hbond.Weighted>
-5.8139

> <Gold.Chemscore.Metal.Weighted>
-0.0000

> <Gold.Chemscore.Lipo.Weighted>
-7.3755

> <Gold.Chemscore.Internal_Hbond.Weighted>
0.0000

> <Gold.Chemscore.DEClash.Weighted>
0.0120

> <Gold.Chemscore.DEInternal.Weighted>
1.6880

> <Gold.Chemscore.Rot.Weighted>
4.1408

> <Gold.Chemscore.Internal.Correction.Weighted>
   9.000000E+99

> <Gold.Protein.RotatedTorsions>
[ 6907 6896 6895 6894 ] final  134.64 input  -60.11 | X-H torsion
[ 7974 7965 7964 7962 ] final  160.53 input  175.53 | X-H torsion
[ 8008 7997 7996 7995 ] final  171.07 input   59.86 | X-H torsion
[ 10167 10162 10161 10158 ] final   19.71 input  -65.29 | X-H torsion
[ 10718 10713 10712 10709 ] final -166.84 input   66.30 | X-H torsion
[ 10763 10752 10751 10750 ] final  -99.25 input  -60.55 | X-H torsion
[ 11005 11000 10999 10996 ] final   63.26 input  -57.11 | X-H torsion

> <Gold.Protein.ActiveResidues>
 VAL166  LYS551  ARG553  GLY616  TRP617  ASP618  TYR619  PRO620  LYS621  CYS622 
 ASP623  PHE694  ASN695  SER759  ASP760  ASP761  ALA762  ILE779  LEU786  VAL792 
 PHE793  MET794  SER795  GLU796  ALA797  LYS798  CYS799  TRP800  GLU811  SER814 

> <Gold.Protein.RotatedAtoms>
  152.3092  133.5734  159.5668 H   0  0  0  0  0  0  0  0  0  0  0  0  # atno 6907 bound_to 6896
  150.7314  134.0178  159.3700 H   0  0  0  0  0  0  0  0  0  0  0  0  # atno 6908 bound_to 6896
  151.8072  135.0692  160.0459 H   0  0  0  0  0  0  0  0  0  0  0  0  # atno 6909 bound_to 6896
  144.7732  139.7770  143.6289 H   0  0  0  0  0  0  0  0  0  0  0  0  # atno 7974 bound_to 7965
  156.1305  140.1521  156.9072 H   0  0  0  0  0  0  0  0  0  0  0  0  # atno 8008 bound_to 7997
  154.4906  140.0852  156.7625 H   0  0  0  0  0  0  0  0  0  0  0  0  # atno 8009 bound_to 7997
  155.4264  140.3425  155.4278 H   0  0  0  0  0  0  0  0  0  0  0  0  # atno 8010 bound_to 7997
  140.5559  143.9426  150.6609 H   0  0  0  0  0  0  0  0  0  0  0  0  # atno 10167 bound_to 10162
  156.6737  130.9094  151.3047 H   0  0  0  0  0  0  0  0  0  0  0  0  # atno 10718 bound_to 10713
  154.7482  135.4979  153.9242 H   0  0  0  0  0  0  0  0  0  0  0  0  # atno 10763 bound_to 10752
  153.1115  135.6710  153.9501 H   0  0  0  0  0  0  0  0  0  0  0  0  # atno 10764 bound_to 10752
  153.9259  135.3083  155.3426 H   0  0  0  0  0  0  0  0  0  0  0  0  # atno 10765 bound_to 10752
  140.0037  134.6403  155.9890 H   0  0  0  0  0  0  0  0  0  0  0  0  # atno 11005 bound_to 11000
  146.1894  139.5126  142.9815 LP  0  0  0  0  0  0  0  0  0  0  0  0  # atno 17320 bound_to 7965
  145.6262  141.0313  143.1888 LP  0  0  0  0  0  0  0  0  0  0  0  0  # atno 17321 bound_to 7965
  140.2864  143.3354  152.1103 LP  0  0  0  0  0  0  0  0  0  0  0  0  # atno 17342 bound_to 10162
  139.5047  144.6781  151.6077 LP  0  0  0  0  0  0  0  0  0  0  0  0  # atno 17343 bound_to 10162
  157.7068  130.9394  150.0957 LP  0  0  0  0  0  0  0  0  0  0  0  0  # atno 17370 bound_to 10713
  156.1919  130.3655  149.8899 LP  0  0  0  0  0  0  0  0  0  0  0  0  # atno 17371 bound_to 10713
  141.1661  133.6537  156.4483 LP  0  0  0  0  0  0  0  0  0  0  0  0  # atno 17394 bound_to 11000
  140.4681  134.6778  157.5117 LP  0  0  0  0  0  0  0  0  0  0  0  0  # atno 17395 bound_to 11000

$$$$
