AV-unprocessed.smi:2269|AV-procd|sdf|9152|dock10
  -GOLD-   2272012363D 1   1.00000     0.00000
 Structure written by MMmdl.
 41 42  0  0  0  0  0  0  0  0  1 V2000
  151.8990  144.1101  160.9790 C   0  0  0  0  0  0  0  0  0  0  0  0
  152.6339  142.7832  160.9074 C   0  0  0  0  0  0  0  0  0  0  0  0
  153.2812  142.3877  162.0814 N   0  0  0  0  0  0  0  0  0  0  0  0
  153.9289  141.2692  162.1151 C   0  0  0  0  0  0  0  0  0  0  0  0
  154.0073  140.4275  160.9935 N   0  0  0  0  0  0  0  0  0  0  0  0
  154.7663  139.1772  161.1676 C   0  0  0  0  0  0  0  0  0  0  0  0
  154.3231  138.3998  162.4279 C   0  0  2  0  0  0  0  0  0  0  0  0
  155.2569  138.6693  163.4554 O   0  0  0  0  0  0  0  0  0  0  0  0
  154.3352  136.8794  162.2000 C   0  0  0  0  0  0  0  0  0  0  0  0
  154.2256  136.2260  163.4562 O   0  0  0  0  0  0  0  0  0  0  0  0
  155.0975  135.1150  163.6013 C   0  0  0  0  0  0  0  0  0  0  0  0
  154.3538  133.8247  163.9211 C   0  0  0  0  0  0  0  0  0  0  0  0
  153.8222  133.6628  165.2187 C   0  0  0  0  0  0  0  0  0  0  0  0
  153.1239  132.4909  165.5658 C   0  0  0  0  0  0  0  0  0  0  0  0
  152.9503  131.4697  164.6140 C   0  0  0  0  0  0  0  0  0  0  0  0
  153.4776  131.6219  163.3179 C   0  0  0  0  0  0  0  0  0  0  0  0
  154.1793  132.7926  162.9651 C   0  0  0  0  0  0  0  0  0  0  0  0
  154.8175  132.9176  161.3632 Cl  0  0  0  0  0  0  0  0  0  0  0  0
  153.4007  140.7352  159.8105 C   0  0  0  0  0  0  0  0  0  0  0  0
  153.4649  139.9831  158.8359 O   0  0  0  0  0  0  0  0  0  0  0  0
  152.6700  142.0127  159.7859 C   0  0  0  0  0  0  0  0  0  0  0  0
  151.9831  142.3915  158.4797 C   0  0  0  0  0  0  0  0  0  0  0  0
  152.3140  144.8162  160.2595 H   0  0  0  0  0  0  0  0  0  0  0  0
  151.9803  144.5565  161.9708 H   0  0  0  0  0  0  0  0  0  0  0  0
  150.8396  143.9718  160.7618 H   0  0  0  0  0  0  0  0  0  0  0  0
  154.4455  140.9123  163.0078 H   0  0  0  0  0  0  0  0  0  0  0  0
  154.6088  138.5587  160.2823 H   0  0  0  0  0  0  0  0  0  0  0  0
  155.8448  139.3490  161.1809 H   0  0  0  0  0  0  0  0  0  0  0  0
  153.3254  138.7128  162.7389 H   0  0  0  0  0  0  0  0  0  0  0  0
  156.1219  138.4593  163.1383 H   0  0  0  0  0  0  0  0  0  0  0  0
  153.4757  136.5849  161.5960 H   0  0  0  0  0  0  0  0  0  0  0  0
  155.2297  136.5741  161.6544 H   0  0  0  0  0  0  0  0  0  0  0  0
  155.6055  134.9720  162.6473 H   0  0  0  0  0  0  0  0  0  0  0  0
  155.8836  135.3437  164.3200 H   0  0  0  0  0  0  0  0  0  0  0  0
  153.9528  134.4422  165.9553 H   0  0  0  0  0  0  0  0  0  0  0  0
  152.7218  132.3764  166.5617 H   0  0  0  0  0  0  0  0  0  0  0  0
  152.4140  130.5700  164.8779 H   0  0  0  0  0  0  0  0  0  0  0  0
  153.3437  130.8338  162.5913 H   0  0  0  0  0  0  0  0  0  0  0  0
  151.2270  141.6486  158.2241 H   0  0  0  0  0  0  0  0  0  0  0  0
  152.7108  142.4271  157.6681 H   0  0  0  0  0  0  0  0  0  0  0  0
  151.4911  143.3619  158.5186 H   0  0  0  0  0  0  0  0  0  0  0  0
  1  2  1  0  0  0  0
  1 23  1  0  0  0  0
  1 24  1  0  0  0  0
  1 25  1  0  0  0  0
  2 21  2  0  0  0  0
  2  3  1  0  0  0  0
  3  4  2  0  0  0  0
  4  5  1  0  0  0  0
  4 26  1  0  0  0  0
  5  6  1  0  0  0  0
  5 19  1  0  0  0  0
  6  7  1  0  0  0  0
  6 27  1  0  0  0  0
  6 28  1  0  0  0  0
  7  8  1  0  0  0  0
  7  9  1  0  0  0  0
  7 29  1  0  0  0  0
  8 30  1  0  0  0  0
  9 10  1  0  0  0  0
  9 31  1  0  0  0  0
  9 32  1  0  0  0  0
 10 11  1  0  0  0  0
 11 12  1  0  0  0  0
 11 33  1  0  0  0  0
 11 34  1  0  0  0  0
 12 17  1  0  0  0  0
 12 13  2  0  0  0  0
 13 14  1  0  0  0  0
 13 35  1  0  0  0  0
 14 15  2  0  0  0  0
 14 36  1  0  0  0  0
 15 16  1  0  0  0  0
 15 37  1  0  0  0  0
 16 17  2  0  0  0  0
 16 38  1  0  0  0  0
 17 18  1  0  0  0  0
 19 20  2  0  0  0  0
 19 21  1  0  0  0  0
 21 22  1  0  0  0  0
 22 39  1  0  0  0  0
 22 40  1  0  0  0  0
 22 41  1  0  0  0  0
M  END
> <s_m_source_file>
AV-unprocessed.smi

> <i_m_source_file_index>
2269

> <i_lp_mmshare_version>
43012

> <i_f3d_flags>
0

> <s_epik_input>
W0NIM11jMW5bY0hdbihjKD1PKWMxW0NIM10pW0NIMl1bQ0BIXShbT0hdKVtDSDJdT1tDSDJdYzJbY0hdW2NIXVtjSF1bY0hdYzJDbA==

> <s_epik_cmdline>
J2VwaWtfcHl0aG9uJywgJy1waCcsICc3LjAnLCAnLXRuJywgJzgnLCAnLW1hJywgJzIwMCcsICctbWV0YWxfYmluZGluZycsICctaW1hZScsICc8aW5maWxlLm1hZT4nLCAnLW9tYWUnLCAnPG91dGZpbGUubWFlPic=

> <r_lp_tautomer_probability>
1

> <r_epik_Ionization_Penalty>
5.36022e-05

> <r_epik_Ionization_Penalty_Charging>
1.17753e-07

> <r_epik_Ionization_Penalty_Neutral>
5.34845e-05

> <r_epik_State_Penalty>
-0

> <r_epik_Charging_Adjusted_Penalty>
1.17753e-07

> <i_epik_Tot_Q>
0

> <i_epik_Tot_abs_Q>
0

> <r_epik_Metal_State_Penalty>
-0

> <b_epik_Metal_Only>
0

> <s_lp_Force_Field>
OPLS_2005

> <r_lp_Energy>
24.1822

> <b_lp_Chiralities_Consistent>
1

> <s_lp_Variant>
AV-unprocessed.smi:2269-1

> <Gold.Version>
5.8.1

> <Gold.Id.Protein>
6NUR|6NUR_protein|mol2

> <Gold.PLP.Fitness>
45.6443

> <Gold.PLP.PLP>
-45.6939

> <Gold.PLP.part.hbond>
-1.0000

> <Gold.PLP.part.metal>
0.0000

> <Gold.PLP.part.buried>
-4.2387

> <Gold.PLP.part.nonpolar>
-40.7849

> <Gold.PLP.part.repulsive>
0.0820

> <Gold.PLP.ligand.clash>
0.0000

> <Gold.PLP.ligand.torsion>
1.5321

> <Gold.PLP.Chemscore.Hbond>
0.9600

> <Gold.PLP.Chemscore.CHOScore>
0.0000

> <Gold.PLP.Chemscore.Metal>
0.0000

> <Gold.Chemscore.Hbonds>
donor molecule, donor type, donor heavy atom, donor atom, acceptor molecule, acceptor atom, score
      P1  H  7997  8010       L1    20  0.80

> <Gold.PLP.Chemscore.Internal.Correction>
0.1346

> <Gold.Rescore>
     Score         DG    S(hbond)    S(metal)    S(lipo)     H(rot)  DE(clash)    DE(int)     intcor
     14.95     -16.57       0.97        0.00     122.07       2.52       0.18       1.44       ----

> <Gold.Chemscore.Fitness>
14.9518

> <Gold.Chemscore.DG>
-16.5673

> <Gold.Chemscore.ZeroCoef>
-5.4800

> <Gold.Chemscore.Hbond>
0.9721

> <Gold.Chemscore.Metal>
0.0000

> <Gold.Chemscore.Lipo>
122.0665

> <Gold.Chemscore.Internal_Hbond>
0.0000

> <Gold.Chemscore.DEClash>
0.1773

> <Gold.Chemscore.DEInternal>
1.4382

> <Gold.Chemscore.Rot>
2.5162

> <Gold.Chemscore.Internal.Correction>
   9.000000E+99

> <Gold.Chemscore.Hbonds>
donor molecule, donor type, donor heavy atom, donor atom, acceptor molecule, acceptor atom, score
      P1  H  7997  8010       L1    20  0.75

> <Gold.Chemscore.Hbond.Weighted>
-3.2469

> <Gold.Chemscore.Metal.Weighted>
-0.0000

> <Gold.Chemscore.Lipo.Weighted>
-14.2818

> <Gold.Chemscore.Internal_Hbond.Weighted>
0.0000

> <Gold.Chemscore.DEClash.Weighted>
0.1773

> <Gold.Chemscore.DEInternal.Weighted>
1.4382

> <Gold.Chemscore.Rot.Weighted>
6.4414

> <Gold.Chemscore.Internal.Correction.Weighted>
   9.000000E+99

> <Gold.Protein.RotatedTorsions>
[ 6907 6896 6895 6894 ] final  128.79 input  -60.11 | X-H torsion
[ 7974 7965 7964 7962 ] final   16.19 input  175.53 | X-H torsion
[ 8008 7997 7996 7995 ] final   16.17 input   59.86 | X-H torsion
[ 10167 10162 10161 10158 ] final  -66.83 input  -65.29 | X-H torsion
[ 10718 10713 10712 10709 ] final  165.72 input   66.30 | X-H torsion
[ 10763 10752 10751 10750 ] final  -16.34 input  -60.55 | X-H torsion
[ 11005 11000 10999 10996 ] final   39.48 input  -57.11 | X-H torsion

> <Gold.Protein.ActiveResidues>
 VAL166  LYS551  ARG553  GLY616  TRP617  ASP618  TYR619  PRO620  LYS621  CYS622 
 ASP623  PHE694  ASN695  SER759  ASP760  ASP761  ALA762  ILE779  LEU786  VAL792 
 PHE793  MET794  SER795  GLU796  ALA797  LYS798  CYS799  TRP800  GLU811  SER814 

> <Gold.Protein.RotatedAtoms>
  152.3685  133.6388  159.6068 H   0  0  0  0  0  0  0  0  0  0  0  0  # atno 6907 bound_to 6896
  150.7652  133.9308  159.3435 H   0  0  0  0  0  0  0  0  0  0  0  0  # atno 6908 bound_to 6896
  151.7135  135.0909  160.0323 H   0  0  0  0  0  0  0  0  0  0  0  0  # atno 6909 bound_to 6896
  146.2256  139.8783  142.8575 H   0  0  0  0  0  0  0  0  0  0  0  0  # atno 7974 bound_to 7965
  154.8731  140.2962  155.5469 H   0  0  0  0  0  0  0  0  0  0  0  0  # atno 8008 bound_to 7997
  156.3021  140.2456  156.3656 H   0  0  0  0  0  0  0  0  0  0  0  0  # atno 8009 bound_to 7997
  154.8796  140.0398  157.1763 H   0  0  0  0  0  0  0  0  0  0  0  0  # atno 8010 bound_to 7997
  140.5628  143.2313  151.6694 H   0  0  0  0  0  0  0  0  0  0  0  0  # atno 10167 bound_to 10162
  157.0761  131.0379  151.2593 H   0  0  0  0  0  0  0  0  0  0  0  0  # atno 10718 bound_to 10713
  153.5571  135.7010  153.5564 H   0  0  0  0  0  0  0  0  0  0  0  0  # atno 10763 bound_to 10752
  153.3462  135.4007  155.1611 H   0  0  0  0  0  0  0  0  0  0  0  0  # atno 10764 bound_to 10752
  154.8653  135.3754  154.5086 H   0  0  0  0  0  0  0  0  0  0  0  0  # atno 10765 bound_to 10752
  140.2023  134.3855  155.8090 H   0  0  0  0  0  0  0  0  0  0  0  0  # atno 11005 bound_to 11000
  145.2538  141.0053  143.3866 LP  0  0  0  0  0  0  0  0  0  0  0  0  # atno 17320 bound_to 7965
  144.9353  139.4251  143.6475 LP  0  0  0  0  0  0  0  0  0  0  0  0  # atno 17321 bound_to 7965
  139.5078  144.3633  152.0541 LP  0  0  0  0  0  0  0  0  0  0  0  0  # atno 17342 bound_to 10162
  140.2761  144.3911  150.6134 LP  0  0  0  0  0  0  0  0  0  0  0  0  # atno 17343 bound_to 10162
  157.4839  130.7781  149.7440 LP  0  0  0  0  0  0  0  0  0  0  0  0  # atno 17370 bound_to 10713
  155.9937  130.3923  150.2891 LP  0  0  0  0  0  0  0  0  0  0  0  0  # atno 17371 bound_to 10713
  141.2227  133.7100  156.8279 LP  0  0  0  0  0  0  0  0  0  0  0  0  # atno 17394 bound_to 11000
  140.2040  134.8876  157.3201 LP  0  0  0  0  0  0  0  0  0  0  0  0  # atno 17395 bound_to 11000

$$$$
