#       Name:                AV-unprocessed.smi:2606
#       Creating user name   scv26
#       Creation time:       Fri Mar 27 14:20:48 2020


#       File generated by GOLD software.
#

@<TRIPOS>MOLECULE
AV-unprocessed.smi:2606
    48    49     1
SMALL
NO_CHARGES


@<TRIPOS>ATOM
      1 ****         0.3302   3.1626  -0.0959 O.2            1 S1                 0.0000
      2 ****         0.9158   2.1476   0.2855 C.2            1 S1                 0.0000
      3 ****         2.4436   2.1663   0.4003 C.3            1 S1                 0.0000
      4 ****         3.0836   1.6459  -0.8179 N.am           1 S1                 0.0000
      5 ****         3.3832   2.5804  -1.8287 C.2            1 S1                 0.0000
      6 ****         3.9558   2.2376  -2.9985 C.2            1 S1                 0.0000
      7 ****         4.3134   3.2777  -4.0488 C.3            1 S1                 0.0000
      8 ****         5.3548   2.8820  -4.7813 F              1 S1                 0.0000
      9 ****         3.2794   3.4692  -4.8666 F              1 S1                 0.0000
     10 ****         4.6183   4.4468  -3.4843 F              1 S1                 0.0000
     11 ****         4.2920   0.8374  -3.1659 C.2            1 S1                 0.0000
     12 ****         4.0178  -0.0685  -2.2071 C.2            1 S1                 0.0000
     13 ****         3.3696   0.3160  -0.9512 C.2            1 S1                 0.0000
     14 ****         3.0984  -0.5062  -0.0756 O.2            1 S1                 0.0000
     15 ****         0.3203   0.9840   0.6180 N.am           1 S1                 0.0000
     16 ****        -0.9947   0.6969   0.5929 C.2            1 S1                 0.0000
     17 ****        -1.8945   1.4737   0.2652 O.2            1 S1                 0.0000
     18 ****        -1.2161  -0.5689   0.9774 N.am           1 S1                 0.0000
     19 ****        -2.5256  -1.2088   1.0630 C.3            1 S1                 0.0000
     20 ****        -3.2238  -0.8456   2.3901 C.3            1 S1                 0.0000
     21 ****        -4.5699  -1.5739   2.5353 C.3            1 S1                 0.0000
     22 ****        -4.3992  -3.0950   2.4015 C.3            1 S1                 0.0000
     23 ****        -3.7105  -3.4604   1.0772 C.3            1 S1                 0.0000
     24 ****        -2.3627  -2.7350   0.9313 C.3            1 S1                 0.0000
     25 ****         2.7708   3.1898   0.5899 H              1 S1                 0.0000
     26 ****         2.7531   1.6061   1.2848 H              1 S1                 0.0000
     27 ****         3.1113   3.5991  -1.5914 H              1 S1                 0.0000
     28 ****         4.7680   0.5076  -4.0776 H              1 S1                 0.0000
     29 ****         4.2801  -1.1041  -2.3675 H              1 S1                 0.0000
     30 ****         0.9356   0.2386   0.9099 H              1 S1                 0.0000
     31 ****        -0.4189  -1.1358   1.2273 H              1 S1                 0.0000
     32 ****        -3.1444  -0.8626   0.2327 H              1 S1                 0.0000
     33 ****        -2.5794  -1.1070   3.2308 H              1 S1                 0.0000
     34 ****        -3.3857   0.2314   2.4495 H              1 S1                 0.0000
     35 ****        -5.0205  -1.3331   3.4985 H              1 S1                 0.0000
     36 ****        -5.2618  -1.2157   1.7720 H              1 S1                 0.0000
     37 ****        -3.8080  -3.4719   3.2372 H              1 S1                 0.0000
     38 ****        -5.3709  -3.5855   2.4635 H              1 S1                 0.0000
     39 ****        -3.5599  -4.5389   1.0220 H              1 S1                 0.0000
     40 ****        -4.3604  -3.1956   0.2421 H              1 S1                 0.0000
     41 ****        -1.9164  -2.9821  -0.0330 H              1 S1                 0.0000
     42 ****        -1.6728  -3.1009   1.6934 H              1 S1                 0.0000
     43 ****         0.8518   3.9842  -0.3258 LP             1 S1                 0.0000
     44 ****        -0.6666   3.1646  -0.1755 LP             1 S1                 0.0000
     45 ****         2.6534  -0.2087   0.7691 LP             1 S1                 0.0000
     46 ****         3.3232  -1.4714  -0.2092 LP             1 S1                 0.0000
     47 ****        -1.6717   2.4080  -0.0131 LP             1 S1                 0.0000
     48 ****        -2.8470   1.1693   0.2778 LP             1 S1                 0.0000
@<TRIPOS>BOND
    1    1    2 2     
    2    2    3 1     
    3    2   15 1     
    4    3    4 1     
    5    3   25 1     
    6    3   26 1     
    7    4   13 am    
    8    4    5 1     
    9    5    6 2     
   10    5   27 1     
   11    6    7 1     
   12    6   11 1     
   13    7    8 1     
   14    7    9 1     
   15    7   10 1     
   16   11   12 2     
   17   11   28 1     
   18   12   13 1     
   19   12   29 1     
   20   13   14 2     
   21   15   16 1     
   22   15   30 1     
   23   16   17 2     
   24   16   18 1     
   25   18   19 1     
   26   18   31 1     
   27   19   24 1     
   28   19   20 1     
   29   19   32 1     
   30   20   21 1     
   31   20   33 1     
   32   20   34 1     
   33   21   22 1     
   34   21   35 1     
   35   21   36 1     
   36   22   23 1     
   37   22   37 1     
   38   22   38 1     
   39   23   24 1     
   40   23   39 1     
   41   23   40 1     
   42   24   41 1     
   43   24   42 1     
   44    1   43 1     
   45    1   44 1     
   46   14   45 1     
   47   14   46 1     
   48   17   47 1     
   49   17   48 1     
@<TRIPOS>SUBSTRUCTURE
      1 S1             1
@<TRIPOS>SET
LONE_PAIRS      STATIC     ATOMS    <user>   **** ""
6 43 44 45 46 47 48
DONOR_HYDROGENS      STATIC     ATOMS    <user>   **** ""
2 30 31
ATOM$BLUE        STATIC     ATOMS    COLORGROUP SYSTEM
6 43 44 45 46 47 48
ATOM$RED        STATIC     ATOMS    COLORGROUP SYSTEM
2 30 31
