AV-unprocessed.smi:2468|AV-procd|sdf|9729|dock3
  -GOLD-   2272013373D 1   1.00000     0.00000
 Structure written by MMmdl.
 32 33  0  0  0  0  0  0  0  0  1 V2000
  152.7408  143.8915  162.6282 C   0  0  0  0  0  0  0  0  0  0  0  0
  152.9800  142.7131  161.7030 C   0  0  0  0  0  0  0  0  0  0  0  0
  153.7956  141.7490  162.1834 N   0  0  0  0  0  0  0  0  0  0  0  0
  154.0488  140.6826  161.3976 C   0  0  0  0  0  0  0  0  0  0  0  0
  153.5032  140.5220  160.1097 C   0  0  0  0  0  0  0  0  0  0  0  0
  152.6348  141.5221  159.6099 C   0  0  0  0  0  0  0  0  0  0  0  0
  152.0475  141.4714  158.3156 N   0  0  0  0  0  0  0  0  0  0  0  0
  152.1461  140.5105  157.3782 C   0  0  0  0  0  0  0  0  0  0  0  0
  152.7966  139.4738  157.5108 O   0  0  0  0  0  0  0  0  0  0  0  0
  151.3701  140.7743  156.0787 C   0  0  2  0  0  0  0  0  0  0  0  0
  150.3581  141.7548  156.3109 O   0  0  0  0  0  0  0  0  0  0  0  0
  149.1703  141.4214  155.5982 C   0  0  0  0  0  0  0  0  0  0  0  0
  149.5385  140.2501  154.6933 C   0  0  0  0  0  0  0  0  0  0  0  0
  150.6297  139.5630  155.4891 C   0  0  1  0  0  0  0  0  0  0  0  0
  151.5038  138.6195  154.6475 C   0  0  0  0  0  0  0  0  0  0  0  0
  152.3793  142.6508  160.4235 C   0  0  0  0  0  0  0  0  0  0  0  0
  151.3476  143.9270  159.8691 Cl  0  0  0  0  0  0  0  0  0  0  0  0
  151.6789  143.9840  162.8571 H   0  0  0  0  0  0  0  0  0  0  0  0
  153.0748  144.8167  162.1580 H   0  0  0  0  0  0  0  0  0  0  0  0
  153.2801  143.7786  163.5695 H   0  0  0  0  0  0  0  0  0  0  0  0
  154.7142  139.9360  161.8051 H   0  0  0  0  0  0  0  0  0  0  0  0
  153.7703  139.6507  159.5320 H   0  0  0  0  0  0  0  0  0  0  0  0
  151.4066  142.2228  158.1034 H   0  0  0  0  0  0  0  0  0  0  0  0
  152.0586  141.1828  155.3372 H   0  0  0  0  0  0  0  0  0  0  0  0
  148.4094  141.1206  156.3194 H   0  0  0  0  0  0  0  0  0  0  0  0
  148.7872  142.2749  155.0386 H   0  0  0  0  0  0  0  0  0  0  0  0
  148.6908  139.5995  154.4761 H   0  0  0  0  0  0  0  0  0  0  0  0
  149.9343  140.6219  153.7468 H   0  0  0  0  0  0  0  0  0  0  0  0
  150.1608  138.9924  156.2932 H   0  0  0  0  0  0  0  0  0  0  0  0
  151.9949  139.1528  153.8332 H   0  0  0  0  0  0  0  0  0  0  0  0
  150.9034  137.8223  154.2083 H   0  0  0  0  0  0  0  0  0  0  0  0
  152.2796  138.1504  155.2523 H   0  0  0  0  0  0  0  0  0  0  0  0
  1  2  1  0  0  0  0
  1 18  1  0  0  0  0
  1 19  1  0  0  0  0
  1 20  1  0  0  0  0
  2 16  1  0  0  0  0
  2  3  2  0  0  0  0
  3  4  1  0  0  0  0
  4  5  2  0  0  0  0
  4 21  1  0  0  0  0
  5  6  1  0  0  0  0
  5 22  1  0  0  0  0
  6  7  1  0  0  0  0
  6 16  2  0  0  0  0
  7  8  1  0  0  0  0
  7 23  1  0  0  0  0
  8  9  2  0  0  0  0
  8 10  1  0  0  0  0
 10 14  1  0  0  0  0
 10 11  1  0  0  0  0
 10 24  1  0  0  0  0
 11 12  1  0  0  0  0
 12 13  1  0  0  0  0
 12 25  1  0  0  0  0
 12 26  1  0  0  0  0
 13 14  1  0  0  0  0
 13 27  1  0  0  0  0
 13 28  1  0  0  0  0
 14 15  1  0  0  0  0
 14 29  1  0  0  0  0
 15 30  1  0  0  0  0
 15 31  1  0  0  0  0
 15 32  1  0  0  0  0
 16 17  1  0  0  0  0
M  END
> <s_m_source_file>
AV-unprocessed.smi

> <i_m_source_file_index>
2468

> <i_lp_mmshare_version>
43012

> <i_f3d_flags>
0

> <s_epik_input>
W0NIM11jMW5bY0hdW2NIXWMoYzFDbClbTkhdQyg9TylbQ0BASF0yT1tDSDJdW0NIMl1bQ0BIXTJbQ0gzXQ==

> <s_epik_cmdline>
J2VwaWtfcHl0aG9uJywgJy1waCcsICc3LjAnLCAnLXRuJywgJzgnLCAnLW1hJywgJzIwMCcsICctbWV0YWxfYmluZGluZycsICctaW1hZScsICc8aW5maWxlLm1hZT4nLCAnLW9tYWUnLCAnPG91dGZpbGUubWFlPic=

> <r_epik_Ionization_Penalty>
0.000361027

> <r_epik_Ionization_Penalty_Charging>
0

> <r_epik_Ionization_Penalty_Neutral>
0.000361027

> <r_epik_State_Penalty>
0.000217849

> <r_epik_Charging_Adjusted_Penalty>
0.000217849

> <i_epik_Tot_Q>
0

> <i_epik_Tot_abs_Q>
0

> <r_epik_Metal_State_Penalty>
-0

> <b_epik_Metal_Only>
0

> <s_lp_Force_Field>
OPLS_2005

> <r_lp_Energy>
24.8892

> <b_lp_Chiralities_Consistent>
1

> <s_lp_Variant>
AV-unprocessed.smi:2468-1

> <Gold.Version>
5.8.1

> <Gold.Id.Protein>
6NUR|6NUR_protein|mol2

> <Gold.PLP.Fitness>
40.0464

> <Gold.PLP.PLP>
-38.1087

> <Gold.PLP.part.hbond>
-1.5312

> <Gold.PLP.part.metal>
0.0000

> <Gold.PLP.part.buried>
-5.3804

> <Gold.PLP.part.nonpolar>
-31.0510

> <Gold.PLP.part.repulsive>
0.1832

> <Gold.PLP.ligand.clash>
0.0000

> <Gold.PLP.ligand.torsion>
0.5324

> <Gold.PLP.Chemscore.Hbond>
1.0000

> <Gold.PLP.Chemscore.CHOScore>
0.0000

> <Gold.PLP.Chemscore.Metal>
0.0000

> <Gold.Chemscore.Hbonds>
donor molecule, donor type, donor heavy atom, donor atom, acceptor molecule, acceptor atom, score
      P1  H  7997  8009       L1     9  0.90

> <Gold.PLP.Chemscore.Internal.Correction>
0.0025

> <Gold.Rescore>
     Score         DG    S(hbond)    S(metal)    S(lipo)     H(rot)  DE(clash)    DE(int)     intcor
     16.64     -18.44       0.92        0.00     106.38       1.00       0.26       1.54       ----

> <Gold.Chemscore.Fitness>
16.6428

> <Gold.Chemscore.DG>
-18.4446

> <Gold.Chemscore.ZeroCoef>
-5.4800

> <Gold.Chemscore.Hbond>
0.9216

> <Gold.Chemscore.Metal>
0.0000

> <Gold.Chemscore.Lipo>
106.3798

> <Gold.Chemscore.Internal_Hbond>
0.0000

> <Gold.Chemscore.DEClash>
0.2614

> <Gold.Chemscore.DEInternal>
1.5405

> <Gold.Chemscore.Rot>
1.0000

> <Gold.Chemscore.Internal.Correction>
   9.000000E+99

> <Gold.Chemscore.Hbonds>
donor molecule, donor type, donor heavy atom, donor atom, acceptor molecule, acceptor atom, score
      P1  H  7997  8009       L1     9  0.18

> <Gold.Chemscore.Hbond.Weighted>
-3.0782

> <Gold.Chemscore.Metal.Weighted>
-0.0000

> <Gold.Chemscore.Lipo.Weighted>
-12.4464

> <Gold.Chemscore.Internal_Hbond.Weighted>
0.0000

> <Gold.Chemscore.DEClash.Weighted>
0.2614

> <Gold.Chemscore.DEInternal.Weighted>
1.5405

> <Gold.Chemscore.Rot.Weighted>
2.5600

> <Gold.Chemscore.Internal.Correction.Weighted>
   9.000000E+99

> <Gold.Protein.RotatedTorsions>
[ 6907 6896 6895 6894 ] final   47.42 input  -60.11 | X-H torsion
[ 7974 7965 7964 7962 ] final -119.95 input  175.53 | X-H torsion
[ 8008 7997 7996 7995 ] final  176.17 input   59.86 | X-H torsion
[ 10167 10162 10161 10158 ] final  -67.17 input  -65.29 | X-H torsion
[ 10718 10713 10712 10709 ] final  128.40 input   66.30 | X-H torsion
[ 10763 10752 10751 10750 ] final  -95.74 input  -60.55 | X-H torsion
[ 11005 11000 10999 10996 ] final -129.76 input  -57.11 | X-H torsion

> <Gold.Protein.ActiveResidues>
 VAL166  LYS551  ARG553  GLY616  TRP617  ASP618  TYR619  PRO620  LYS621  CYS622 
 ASP623  PHE694  ASN695  SER759  ASP760  ASP761  ALA762  ILE779  LEU786  VAL792 
 PHE793  MET794  SER795  GLU796  ALA797  LYS798  CYS799  TRP800  GLU811  SER814 

> <Gold.Protein.RotatedAtoms>
  152.2678  134.7965  160.0419 H   0  0  0  0  0  0  0  0  0  0  0  0  # atno 6907 bound_to 6896
  151.8588  133.3448  159.3705 H   0  0  0  0  0  0  0  0  0  0  0  0  # atno 6908 bound_to 6896
  150.7140  134.5154  159.5672 H   0  0  0  0  0  0  0  0  0  0  0  0  # atno 6909 bound_to 6896
  145.0568  140.8260  143.4176 H   0  0  0  0  0  0  0  0  0  0  0  0  # atno 7974 bound_to 7965
  156.0793  140.1390  156.9732 H   0  0  0  0  0  0  0  0  0  0  0  0  # atno 8008 bound_to 7997
  154.4576  140.0955  156.6851 H   0  0  0  0  0  0  0  0  0  0  0  0  # atno 8009 bound_to 7997
  155.5101  140.3453  155.4389 H   0  0  0  0  0  0  0  0  0  0  0  0  # atno 8010 bound_to 7997
  140.5603  143.2312  151.6741 H   0  0  0  0  0  0  0  0  0  0  0  0  # atno 10167 bound_to 10162
  157.5248  131.1098  150.9099 H   0  0  0  0  0  0  0  0  0  0  0  0  # atno 10718 bound_to 10713
  154.7176  135.5109  153.8762 H   0  0  0  0  0  0  0  0  0  0  0  0  # atno 10763 bound_to 10752
  153.0834  135.6638  154.0007 H   0  0  0  0  0  0  0  0  0  0  0  0  # atno 10764 bound_to 10752
  153.9836  135.3026  155.3397 H   0  0  0  0  0  0  0  0  0  0  0  0  # atno 10765 bound_to 10752
  140.9404  134.1201  157.4156 H   0  0  0  0  0  0  0  0  0  0  0  0  # atno 11005 bound_to 11000
  145.1458  139.2544  143.5466 LP  0  0  0  0  0  0  0  0  0  0  0  0  # atno 17320 bound_to 7965
  146.3522  140.1147  142.8602 LP  0  0  0  0  0  0  0  0  0  0  0  0  # atno 17321 bound_to 7965
  139.5067  144.3673  152.0504 LP  0  0  0  0  0  0  0  0  0  0  0  0  # atno 17342 bound_to 10162
  140.2799  144.3871  150.6122 LP  0  0  0  0  0  0  0  0  0  0  0  0  # atno 17343 bound_to 10162
  156.9699  130.5487  149.5290 LP  0  0  0  0  0  0  0  0  0  0  0  0  # atno 17370 bound_to 10713
  156.0379  130.5464  150.8699 LP  0  0  0  0  0  0  0  0  0  0  0  0  # atno 17371 bound_to 10713
  139.8819  135.0034  156.6188 LP  0  0  0  0  0  0  0  0  0  0  0  0  # atno 17394 bound_to 11000
  140.7742  133.8713  155.8516 LP  0  0  0  0  0  0  0  0  0  0  0  0  # atno 17395 bound_to 11000

$$$$
