#       Name:                AV-unprocessed.smi:36
#       Creating user name   scv26
#       Creation time:       Thu Mar 26 16:10:26 2020


#       File generated by GOLD software.
#

@<TRIPOS>MOLECULE
AV-unprocessed.smi:36
    73    76     1
SMALL
NO_CHARGES


@<TRIPOS>ATOM
      1 ****        -6.7058   1.1135  -1.7705 C.3            1 S1                 0.0000
      2 ****        -5.9113  -0.2029  -1.7860 C.3            1 S1                 0.0000
      3 ****        -6.3574  -1.0977  -0.6173 C.3            1 S1                 0.0000
      4 ****        -6.1408  -0.9369  -3.1175 C.3            1 S1                 0.0000
      5 ****        -4.0491   0.1780  -1.5978 Si             1 S1                 0.0000
      6 ****        -3.4111   1.2434  -3.0354 C.3            1 S1                 0.0000
      7 ****        -3.6971   1.0552   0.0525 C.3            1 S1                 0.0000
      8 ****        -3.2085  -1.2907  -1.6204 O.3            1 S1                 0.0000
      9 ****        -1.8071  -1.3816  -1.4704 C.3            1 S1                 0.0000
     10 ****        -1.4505  -2.5601  -0.5534 C.3            1 S1                 0.0000
     11 ****        -0.0247  -2.6213  -0.4850 O.3            1 S1                 0.0000
     12 ****         0.3890  -2.6014   0.8431 C.3            1 S1                 0.0000
     13 ****         1.6785  -1.8560   0.9284 N.pl3          1 S1                 0.0000
     14 ****         2.8241  -2.2568   1.5144 C.2            1 S1                 0.0000
     15 ****         3.8621  -1.4244   1.4649 N.2            1 S1                 0.0000
     16 ****         3.3315  -0.3558   0.7571 C.ar           1 S1                 0.0000
     17 ****         3.8823   0.8887   0.3448 C.ar           1 S1                 0.0000
     18 ****         5.1482   1.2442   0.6093 N.pl3          1 S1                -1.0000
     19 ****         5.4593   1.7999   1.8078 C.2            1 S1                 0.0000
     20 ****         4.6948   2.0740   2.7356 O.2            1 S1                 0.0000
     21 ****         6.9149   2.1629   1.9354 C.ar           1 S1                 0.0000
     22 ****         7.2859   3.3329   2.6370 C.ar           1 S1                 0.0000
     23 ****         8.6431   3.6782   2.7876 C.ar           1 S1                 0.0000
     24 ****         9.6453   2.8523   2.2455 C.ar           1 S1                 0.0000
     25 ****         9.2892   1.6773   1.5575 C.ar           1 S1                 0.0000
     26 ****         7.9322   1.3310   1.4069 C.ar           1 S1                 0.0000
     27 ****         3.0712   1.7180  -0.3603 N.ar           1 S1                 0.0000
     28 ****         1.8100   1.3618  -0.6294 C.ar           1 S1                 0.0000
     29 ****         1.1656   0.2394  -0.2974 N.ar           1 S1                 0.0000
     30 ****         1.9736  -0.6069   0.4059 C.ar           1 S1                 0.0000
     31 ****        -0.7113  -1.9021   1.6333 C.3            1 S1                 0.0000
     32 ****        -1.9441  -2.3806   0.8953 C.3            1 S1                 0.0000
     33 ****        -2.3874  -3.6175   1.4181 O.3            1 S1                 0.0000
     34 ****        -7.7757   0.9317  -1.8777 H              1 S1                 0.0000
     35 ****        -6.4012   1.7712  -2.5849 H              1 S1                 0.0000
     36 ****        -6.5577   1.6561  -0.8366 H              1 S1                 0.0000
     37 ****        -6.2174  -0.5994   0.3422 H              1 S1                 0.0000
     38 ****        -5.7881  -2.0276  -0.5903 H              1 S1                 0.0000
     39 ****        -7.4128  -1.3599  -0.6990 H              1 S1                 0.0000
     40 ****        -7.1922  -1.1924  -3.2536 H              1 S1                 0.0000
     41 ****        -5.5680  -1.8637  -3.1620 H              1 S1                 0.0000
     42 ****        -5.8402  -0.3234  -3.9672 H              1 S1                 0.0000
     43 ****        -3.9276   2.2016  -3.0843 H              1 S1                 0.0000
     44 ****        -3.5526   0.7479  -3.9955 H              1 S1                 0.0000
     45 ****        -2.3464   1.4532  -2.9335 H              1 S1                 0.0000
     46 ****        -4.2137   2.0127   0.1136 H              1 S1                 0.0000
     47 ****        -2.6336   1.2535   0.1840 H              1 S1                 0.0000
     48 ****        -4.0224   0.4576   0.9035 H              1 S1                 0.0000
     49 ****        -1.3609  -1.5215  -2.4553 H              1 S1                 0.0000
     50 ****        -1.4079  -0.4500  -1.0702 H              1 S1                 0.0000
     51 ****        -1.8324  -3.4842  -0.9903 H              1 S1                 0.0000
     52 ****         0.6005  -3.6122   1.1950 H              1 S1                 0.0000
     53 ****         2.9009  -3.2137   2.0094 H              1 S1                 0.0000
     54 ****         6.5294   3.9774   3.0605 H              1 S1                 0.0000
     55 ****         8.9147   4.5775   3.3203 H              1 S1                 0.0000
     56 ****        10.6858   3.1170   2.3612 H              1 S1                 0.0000
     57 ****        10.0568   1.0385   1.1466 H              1 S1                 0.0000
     58 ****         7.6811   0.4194   0.8838 H              1 S1                 0.0000
     59 ****         1.2327   2.0809  -1.1909 H              1 S1                 0.0000
     60 ****        -0.6796  -2.1678   2.6906 H              1 S1                 0.0000
     61 ****        -0.6149  -0.8205   1.5355 H              1 S1                 0.0000
     62 ****        -2.7641  -1.6675   0.9771 H              1 S1                 0.0000
     63 ****        -1.6891  -4.2478   1.3293 H              1 S1                 0.0000
     64 ****         0.3640  -1.8347  -0.9648 LP             1 S1                 0.0000
     65 ****         0.2918  -3.4654  -0.9179 LP             1 S1                 0.0000
     66 ****         4.7822  -1.5393   1.8394 LP             1 S1                 0.0000
     67 ****         5.8622   1.0999  -0.0759 LP             1 S1                 0.0000
     68 ****         3.7165   1.8857   2.6496 LP             1 S1                 0.0000
     69 ****         5.0532   2.4846   3.5740 LP             1 S1                 0.0000
     70 ****         3.4182   2.5996  -0.6802 LP             1 S1                 0.0000
     71 ****         0.2137   0.0443  -0.5338 LP             1 S1                 0.0000
     72 ****        -3.1904  -3.9300   0.9106 LP             1 S1                 0.0000
     73 ****        -2.6242  -3.5102   2.3837 LP             1 S1                 0.0000
@<TRIPOS>BOND
    1    1    2 1     
    2    1   34 1     
    3    1   35 1     
    4    1   36 1     
    5    2    3 1     
    6    2    4 1     
    7    2    5 1     
    8    3   37 1     
    9    3   38 1     
   10    3   39 1     
   11    4   40 1     
   12    4   41 1     
   13    4   42 1     
   14    5    6 1     
   15    5    7 1     
   16    5    8 1     
   17    6   43 1     
   18    6   44 1     
   19    6   45 1     
   20    7   46 1     
   21    7   47 1     
   22    7   48 1     
   23    8    9 1     
   24    9   10 1     
   25    9   49 1     
   26    9   50 1     
   27   10   32 1     
   28   10   11 1     
   29   10   51 1     
   30   11   12 1     
   31   12   13 1     
   32   12   31 1     
   33   12   52 1     
   34   13   30 1     
   35   13   14 1     
   36   14   15 2     
   37   14   53 1     
   38   15   16 1     
   39   16   30 ar    
   40   16   17 ar    
   41   17   18 1     
   42   17   27 ar    
   43   18   19 1     
   44   19   20 2     
   45   19   21 1     
   46   21   26 ar    
   47   21   22 ar    
   48   22   23 ar    
   49   22   54 1     
   50   23   24 ar    
   51   23   55 1     
   52   24   25 ar    
   53   24   56 1     
   54   25   26 ar    
   55   25   57 1     
   56   26   58 1     
   57   27   28 ar    
   58   28   29 ar    
   59   28   59 1     
   60   29   30 ar    
   61   31   32 1     
   62   31   60 1     
   63   31   61 1     
   64   32   33 1     
   65   32   62 1     
   66   33   63 1     
   67   11   64 1     
   68   11   65 1     
   69   15   66 1     
   70   18   67 1     
   71   20   68 1     
   72   20   69 1     
   73   27   70 1     
   74   29   71 1     
   75   33   72 1     
   76   33   73 1     
@<TRIPOS>SUBSTRUCTURE
      1 S1             1
@<TRIPOS>SET
LONE_PAIRS      STATIC     ATOMS    <user>   **** ""
10 64 65 66 67 68 69 70 71 72 73
DONOR_HYDROGENS      STATIC     ATOMS    <user>   **** ""
1 63
ATOM$BLUE        STATIC     ATOMS    COLORGROUP SYSTEM
10 64 65 66 67 68 69 70 71 72 73
ATOM$RED        STATIC     ATOMS    COLORGROUP SYSTEM
1 63
