AV-unprocessed.smi:2297|AV-procd|sdf|9222|dock5
  -GOLD-   2272012443D 1   1.00000     0.00000
 Structure written by MMmdl.
 44 45  0  0  0  0  0  0  0  0  1 V2000
  153.6020  141.3683  161.4669 C   0  0  0  0  0  0  0  0  0  0  0  0
  152.8704  141.9679  160.2838 C   0  0  0  0  0  0  0  0  0  0  0  0
  152.4681  143.3183  160.3048 C   0  0  0  0  0  0  0  0  0  0  0  0
  151.7875  143.8695  159.2019 C   0  0  0  0  0  0  0  0  0  0  0  0
  151.3567  145.3214  159.2320 C   0  0  0  0  0  0  0  0  0  0  0  0
  151.5114  143.0654  158.0773 C   0  0  0  0  0  0  0  0  0  0  0  0
  151.9066  141.7127  158.0401 C   0  0  0  0  0  0  0  0  0  0  0  0
  151.5950  141.0029  156.9007 O   0  0  0  0  0  0  0  0  0  0  0  0
  151.7647  139.5903  156.9177 C   0  0  0  0  0  0  0  0  0  0  0  0
  151.9255  139.0599  155.4828 C   0  0  2  0  0  0  0  0  0  0  0  0
  152.8785  139.8714  154.8259 O   0  0  0  0  0  0  0  0  0  0  0  0
  150.5972  139.0389  154.6931 C   0  0  0  0  0  0  0  0  0  0  0  0
  149.8078  137.8259  154.9634 N   0  0  0  0  0  0  0  0  0  0  0  0
  148.4430  138.0184  155.2324 C   0  0  0  0  0  0  0  0  0  0  0  0
  147.6534  137.0253  155.4817 N   0  0  0  0  0  0  0  0  0  0  0  0
  148.1554  135.7207  155.4913 C   0  0  0  0  0  0  0  0  0  0  0  0
  147.1455  134.6312  155.8049 C   0  0  0  0  0  0  0  0  0  0  0  0
  149.4678  135.4663  155.2352 C   0  0  0  0  0  0  0  0  0  0  0  0
  150.0728  134.0678  155.2387 C   0  0  0  0  0  0  0  0  0  0  0  0
  150.3762  136.5857  154.9394 C   0  0  0  0  0  0  0  0  0  0  0  0
  151.5711  136.4268  154.6823 O   0  0  0  0  0  0  0  0  0  0  0  0
  152.5898  141.1688  159.1570 C   0  0  0  0  0  0  0  0  0  0  0  0
  153.8396  142.1257  162.2147 H   0  0  0  0  0  0  0  0  0  0  0  0
  154.5356  140.9085  161.1418 H   0  0  0  0  0  0  0  0  0  0  0  0
  152.9879  140.6021  161.9404 H   0  0  0  0  0  0  0  0  0  0  0  0
  152.6803  143.9343  161.1667 H   0  0  0  0  0  0  0  0  0  0  0  0
  150.8571  145.6086  158.3063 H   0  0  0  0  0  0  0  0  0  0  0  0
  152.2223  145.9702  159.3670 H   0  0  0  0  0  0  0  0  0  0  0  0
  150.6666  145.4929  160.0585 H   0  0  0  0  0  0  0  0  0  0  0  0
  150.9901  143.4862  157.2298 H   0  0  0  0  0  0  0  0  0  0  0  0
  152.6226  139.3032  157.5288 H   0  0  0  0  0  0  0  0  0  0  0  0
  150.8773  139.1330  157.3581 H   0  0  0  0  0  0  0  0  0  0  0  0
  152.3462  138.0557  155.5477 H   0  0  0  0  0  0  0  0  0  0  0  0
  152.4220  140.4725  154.2575 H   0  0  0  0  0  0  0  0  0  0  0  0
  149.9974  139.9067  154.9740 H   0  0  0  0  0  0  0  0  0  0  0  0
  150.7842  139.1794  153.6262 H   0  0  0  0  0  0  0  0  0  0  0  0
  148.1012  139.0547  155.2123 H   0  0  0  0  0  0  0  0  0  0  0  0
  147.4273  134.1008  156.7148 H   0  0  0  0  0  0  0  0  0  0  0  0
  147.0899  133.9141  154.9856 H   0  0  0  0  0  0  0  0  0  0  0  0
  146.1474  135.0447  155.9538 H   0  0  0  0  0  0  0  0  0  0  0  0
  150.5147  133.8456  154.2667 H   0  0  0  0  0  0  0  0  0  0  0  0
  149.3470  133.2858  155.4548 H   0  0  0  0  0  0  0  0  0  0  0  0
  150.8596  134.0015  155.9909 H   0  0  0  0  0  0  0  0  0  0  0  0
  152.9097  140.1379  159.1721 H   0  0  0  0  0  0  0  0  0  0  0  0
  1  2  1  0  0  0  0
  1 23  1  0  0  0  0
  1 24  1  0  0  0  0
  1 25  1  0  0  0  0
  2 22  1  0  0  0  0
  2  3  2  0  0  0  0
  3  4  1  0  0  0  0
  3 26  1  0  0  0  0
  4  5  1  0  0  0  0
  4  6  2  0  0  0  0
  5 27  1  0  0  0  0
  5 28  1  0  0  0  0
  5 29  1  0  0  0  0
  6  7  1  0  0  0  0
  6 30  1  0  0  0  0
  7  8  1  0  0  0  0
  7 22  2  0  0  0  0
  8  9  1  0  0  0  0
  9 10  1  0  0  0  0
  9 31  1  0  0  0  0
  9 32  1  0  0  0  0
 10 11  1  0  0  0  0
 10 12  1  0  0  0  0
 10 33  1  0  0  0  0
 11 34  1  0  0  0  0
 12 13  1  0  0  0  0
 12 35  1  0  0  0  0
 12 36  1  0  0  0  0
 13 20  1  0  0  0  0
 13 14  1  0  0  0  0
 14 15  2  0  0  0  0
 14 37  1  0  0  0  0
 15 16  1  0  0  0  0
 16 17  1  0  0  0  0
 16 18  2  0  0  0  0
 17 38  1  0  0  0  0
 17 39  1  0  0  0  0
 17 40  1  0  0  0  0
 18 19  1  0  0  0  0
 18 20  1  0  0  0  0
 19 41  1  0  0  0  0
 19 42  1  0  0  0  0
 19 43  1  0  0  0  0
 20 21  2  0  0  0  0
 22 44  1  0  0  0  0
M  END
> <s_m_source_file>
AV-unprocessed.smi

> <i_m_source_file_index>
2297

> <i_lp_mmshare_version>
43012

> <i_f3d_flags>
0

> <s_epik_input>
W0NIM11jMVtjSF1jKFtDSDNdKVtjSF1jKFtjSF0xKU9bQ0gyXVtDQEhdKFtPSF0pW0NIMl1uMltjSF1uYyhbQ0gzXSljKFtDSDNdKWMyPU8=

> <s_epik_cmdline>
J2VwaWtfcHl0aG9uJywgJy1waCcsICc3LjAnLCAnLXRuJywgJzgnLCAnLW1hJywgJzIwMCcsICctbWV0YWxfYmluZGluZycsICctaW1hZScsICc8aW5maWxlLm1hZT4nLCAnLW9tYWUnLCAnPG91dGZpbGUubWFlPic=

> <r_lp_tautomer_probability>
1

> <r_epik_Ionization_Penalty>
3.72236e-05

> <r_epik_Ionization_Penalty_Charging>
8.38864e-08

> <r_epik_Ionization_Penalty_Neutral>
3.71397e-05

> <r_epik_State_Penalty>
-0

> <r_epik_Charging_Adjusted_Penalty>
8.38864e-08

> <i_epik_Tot_Q>
0

> <i_epik_Tot_abs_Q>
0

> <r_epik_Metal_State_Penalty>
-0

> <b_epik_Metal_Only>
0

> <s_lp_Force_Field>
OPLS_2005

> <r_lp_Energy>
24.6499

> <b_lp_Chiralities_Consistent>
1

> <s_lp_Variant>
AV-unprocessed.smi:2297-1

> <Gold.Version>
5.8.1

> <Gold.Id.Protein>
6NUR|6NUR_protein|mol2

> <Gold.PLP.Fitness>
47.4215

> <Gold.PLP.PLP>
-42.8156

> <Gold.PLP.part.hbond>
-3.0000

> <Gold.PLP.part.metal>
0.0000

> <Gold.PLP.part.buried>
-4.5286

> <Gold.PLP.part.nonpolar>
-35.7370

> <Gold.PLP.part.repulsive>
0.2149

> <Gold.PLP.ligand.clash>
0.0000

> <Gold.PLP.ligand.torsion>
0.7276

> <Gold.PLP.Chemscore.Hbond>
1.9913

> <Gold.PLP.Chemscore.CHOScore>
0.0000

> <Gold.PLP.Chemscore.Metal>
0.0000

> <Gold.Chemscore.Hbonds>
donor molecule, donor type, donor heavy atom, donor atom, acceptor molecule, acceptor atom, score
      P1  H  7997  8010       L1    11  1.00
      P1  H 10752 10764       L1    21  1.00

> <Gold.PLP.Chemscore.Internal.Correction>
0.0874

> <Gold.Rescore>
     Score         DG    S(hbond)    S(metal)    S(lipo)     H(rot)  DE(clash)    DE(int)     intcor
     17.19     -19.18       1.92        0.00     113.19       2.32       0.00       1.99       ----

> <Gold.Chemscore.Fitness>
17.1904

> <Gold.Chemscore.DG>
-19.1793

> <Gold.Chemscore.ZeroCoef>
-5.4800

> <Gold.Chemscore.Hbond>
1.9176

> <Gold.Chemscore.Metal>
0.0000

> <Gold.Chemscore.Lipo>
113.1860

> <Gold.Chemscore.Internal_Hbond>
0.0000

> <Gold.Chemscore.DEClash>
0.0000

> <Gold.Chemscore.DEInternal>
1.9889

> <Gold.Chemscore.Rot>
2.3236

> <Gold.Chemscore.Internal.Correction>
   9.000000E+99

> <Gold.Chemscore.Hbonds>
donor molecule, donor type, donor heavy atom, donor atom, acceptor molecule, acceptor atom, score
      P1  H  7997  8010       L1    11  0.51
      P1  H 10752 10764       L1    21  0.97

> <Gold.Chemscore.Hbond.Weighted>
-6.4049

> <Gold.Chemscore.Metal.Weighted>
-0.0000

> <Gold.Chemscore.Lipo.Weighted>
-13.2428

> <Gold.Chemscore.Internal_Hbond.Weighted>
0.0000

> <Gold.Chemscore.DEClash.Weighted>
0.0000

> <Gold.Chemscore.DEInternal.Weighted>
1.9889

> <Gold.Chemscore.Rot.Weighted>
5.9484

> <Gold.Chemscore.Internal.Correction.Weighted>
   9.000000E+99

> <Gold.Protein.RotatedTorsions>
[ 6907 6896 6895 6894 ] final  126.64 input  -60.11 | X-H torsion
[ 7974 7965 7964 7962 ] final  152.98 input  175.53 | X-H torsion
[ 8008 7997 7996 7995 ] final   87.70 input   59.86 | X-H torsion
[ 10167 10162 10161 10158 ] final  -89.81 input  -65.29 | X-H torsion
[ 10718 10713 10712 10709 ] final  145.39 input   66.30 | X-H torsion
[ 10763 10752 10751 10750 ] final  -48.69 input  -60.55 | X-H torsion
[ 11005 11000 10999 10996 ] final   36.64 input  -57.11 | X-H torsion

> <Gold.Protein.ActiveResidues>
 VAL166  LYS551  ARG553  GLY616  TRP617  ASP618  TYR619  PRO620  LYS621  CYS622 
 ASP623  PHE694  ASN695  SER759  ASP760  ASP761  ALA762  ILE779  LEU786  VAL792 
 PHE793  MET794  SER795  GLU796  ALA797  LYS798  CYS799  TRP800  GLU811  SER814 

> <Gold.Protein.RotatedAtoms>
  152.3885  133.6646  159.6218 H   0  0  0  0  0  0  0  0  0  0  0  0  # atno 6907 bound_to 6896
  150.7799  133.8994  159.3345 H   0  0  0  0  0  0  0  0  0  0  0  0  # atno 6908 bound_to 6896
  151.6785  135.0967  160.0263 H   0  0  0  0  0  0  0  0  0  0  0  0  # atno 6909 bound_to 6896
  144.8186  139.6739  143.6110 H   0  0  0  0  0  0  0  0  0  0  0  0  # atno 7974 bound_to 7965
  155.9786  140.3379  155.6642 H   0  0  0  0  0  0  0  0  0  0  0  0  # atno 8008 bound_to 7997
  155.6579  140.0713  157.2582 H   0  0  0  0  0  0  0  0  0  0  0  0  # atno 8009 bound_to 7997
  154.4185  140.1714  156.1732 H   0  0  0  0  0  0  0  0  0  0  0  0  # atno 8010 bound_to 7997
  140.3611  143.2841  151.9613 H   0  0  0  0  0  0  0  0  0  0  0  0  # atno 10167 bound_to 10162
  157.3458  131.0943  151.1043 H   0  0  0  0  0  0  0  0  0  0  0  0  # atno 10718 bound_to 10713
  154.0818  135.6590  153.4839 H   0  0  0  0  0  0  0  0  0  0  0  0  # atno 10763 bound_to 10752
  153.0353  135.5182  154.7466 H   0  0  0  0  0  0  0  0  0  0  0  0  # atno 10764 bound_to 10752
  154.6563  135.3008  154.9891 H   0  0  0  0  0  0  0  0  0  0  0  0  # atno 10765 bound_to 10752
  140.2306  134.3532  155.7965 H   0  0  0  0  0  0  0  0  0  0  0  0  # atno 11005 bound_to 11000
  146.2490  139.6159  142.9440 LP  0  0  0  0  0  0  0  0  0  0  0  0  # atno 17320 bound_to 7965
  145.5158  141.0434  143.2463 LP  0  0  0  0  0  0  0  0  0  0  0  0  # atno 17321 bound_to 7965
  139.4814  144.5991  151.7637 LP  0  0  0  0  0  0  0  0  0  0  0  0  # atno 17342 bound_to 10162
  140.5126  144.1002  150.5999 LP  0  0  0  0  0  0  0  0  0  0  0  0  # atno 17343 bound_to 10162
  157.2238  130.6493  149.5822 LP  0  0  0  0  0  0  0  0  0  0  0  0  # atno 17370 bound_to 10713
  155.9714  130.4621  150.6132 LP  0  0  0  0  0  0  0  0  0  0  0  0  # atno 17371 bound_to 10713
  141.2218  133.7243  156.8725 LP  0  0  0  0  0  0  0  0  0  0  0  0  # atno 17394 bound_to 11000
  140.1755  134.9070  157.2885 LP  0  0  0  0  0  0  0  0  0  0  0  0  # atno 17395 bound_to 11000

$$$$
