#       Name:                AV-unprocessed.smi:2353
#       Creating user name   scv26
#       Creation time:       Fri Mar 27 13:00:50 2020


#       File generated by GOLD software.
#

@<TRIPOS>MOLECULE
AV-unprocessed.smi:2353
    53    55     1
SMALL
NO_CHARGES


@<TRIPOS>ATOM
      1 ****        -6.4726  -0.4931   0.7926 C.3            1 S1                 0.0000
      2 ****        -5.4656   0.6376   0.8407 C.ar           1 S1                 0.0000
      3 ****        -5.8923   1.9611   1.0631 C.ar           1 S1                 0.0000
      4 ****        -4.9502   3.0041   1.1109 C.ar           1 S1                 0.0000
      5 ****        -3.5777   2.7317   0.9360 C.ar           1 S1                 0.0000
      6 ****        -2.5748   3.8688   0.9907 C.3            1 S1                 0.0000
      7 ****        -3.1355   1.4080   0.7077 C.ar           1 S1                 0.0000
      8 ****        -1.7801   1.2121   0.5400 O.3            1 S1                 0.0000
      9 ****        -1.3123  -0.0967   0.2433 C.3            1 S1                 0.0000
     10 ****         0.2124  -0.0410   0.0508 C.3            1 S1                 0.0000
     11 ****         0.4522   0.4558  -1.2518 O.3            1 S1                 0.0000
     12 ****         0.8568  -1.4416   0.1511 C.3            1 S1                 0.0000
     13 ****         2.3066  -1.3658   0.3674 N.am           1 S1                 0.0000
     14 ****         3.0544  -1.5234  -0.7854 N.2            1 S1                 0.0000
     15 ****         4.3451  -1.4562  -0.7576 C.2            1 S1                 0.0000
     16 ****         5.1140  -1.6120  -1.9794 N.pl3          1 S1                 0.0000
     17 ****         6.5035  -1.4868  -2.0158 C.2            1 S1                 0.0000
     18 ****         6.8661  -1.6932  -3.3287 C.2            1 S1                 0.0000
     19 ****         5.7352  -1.9404  -4.1046 N.2            1 S1                 0.0000
     20 ****         4.7335  -1.8737  -3.2376 C.2            1 S1                 0.0000
     21 ****         5.0289  -1.2265   0.5106 C.2            1 S1                 0.0000
     22 ****         4.2889  -1.0781   1.6307 C.2            1 S1                 0.0000
     23 ****         2.8289  -1.1389   1.6083 C.2            1 S1                 0.0000
     24 ****         2.1325  -0.9957   2.6128 O.2            1 S1                 0.0000
     25 ****        -4.0941   0.3633   0.6650 C.ar           1 S1                 0.0000
     26 ****        -7.4954  -0.1154   0.7893 H              1 S1                 0.0000
     27 ****        -6.3509  -1.1425   1.6597 H              1 S1                 0.0000
     28 ****        -6.3296  -1.0911  -0.1077 H              1 S1                 0.0000
     29 ****        -6.9410   2.1820   1.1990 H              1 S1                 0.0000
     30 ****        -5.2868   4.0160   1.2828 H              1 S1                 0.0000
     31 ****        -2.0796   3.9828   0.0259 H              1 S1                 0.0000
     32 ****        -1.8146   3.6673   1.7459 H              1 S1                 0.0000
     33 ****        -3.0563   4.8147   1.2406 H              1 S1                 0.0000
     34 ****        -1.5488  -0.7418   1.0908 H              1 S1                 0.0000
     35 ****        -1.8012  -0.5115  -0.6402 H              1 S1                 0.0000
     36 ****         0.6469   0.6322   0.7910 H              1 S1                 0.0000
     37 ****         0.0420  -0.1235  -1.8754 H              1 S1                 0.0000
     38 ****         0.4119  -1.9971   0.9786 H              1 S1                 0.0000
     39 ****         0.6258  -2.0335  -0.7371 H              1 S1                 0.0000
     40 ****         7.1320  -1.2678  -1.1681 H              1 S1                 0.0000
     41 ****         7.8503  -1.6802  -3.7731 H              1 S1                 0.0000
     42 ****         3.7029  -2.0200  -3.5261 H              1 S1                 0.0000
     43 ****         6.1016  -1.1766   0.5908 H              1 S1                 0.0000
     44 ****         4.7889  -0.9099   2.5734 H              1 S1                 0.0000
     45 ****        -3.7997  -0.6620   0.5000 H              1 S1                 0.0000
     46 ****        -1.3339   1.4992   1.3876 LP             1 S1                 0.0000
     47 ****        -1.4871   1.8064  -0.2089 LP             1 S1                 0.0000
     48 ****         1.4368   0.4920  -1.4226 LP             1 S1                 0.0000
     49 ****         0.0647   1.3735  -1.3390 LP             1 S1                 0.0000
     50 ****         2.5891  -1.6921  -1.6544 LP             1 S1                 0.0000
     51 ****         5.6894  -2.1251  -5.0864 LP             1 S1                 0.0000
     52 ****         1.1362  -1.0437   2.5415 LP             1 S1                 0.0000
     53 ****         2.5629  -0.8314   3.5003 LP             1 S1                 0.0000
@<TRIPOS>BOND
    1    1    2 1     
    2    1   26 1     
    3    1   27 1     
    4    1   28 1     
    5    2   25 ar    
    6    2    3 ar    
    7    3    4 ar    
    8    3   29 1     
    9    4    5 ar    
   10    4   30 1     
   11    5    6 1     
   12    5    7 ar    
   13    6   31 1     
   14    6   32 1     
   15    6   33 1     
   16    7    8 1     
   17    7   25 ar    
   18    8    9 1     
   19    9   10 1     
   20    9   34 1     
   21    9   35 1     
   22   10   11 1     
   23   10   12 1     
   24   10   36 1     
   25   11   37 1     
   26   12   13 1     
   27   12   38 1     
   28   12   39 1     
   29   13   23 am    
   30   13   14 1     
   31   14   15 2     
   32   15   16 1     
   33   15   21 1     
   34   16   20 1     
   35   16   17 1     
   36   17   18 2     
   37   17   40 1     
   38   18   19 1     
   39   18   41 1     
   40   19   20 2     
   41   20   42 1     
   42   21   22 2     
   43   21   43 1     
   44   22   23 1     
   45   22   44 1     
   46   23   24 2     
   47   25   45 1     
   48    8   46 1     
   49    8   47 1     
   50   11   48 1     
   51   11   49 1     
   52   14   50 1     
   53   19   51 1     
   54   24   52 1     
   55   24   53 1     
@<TRIPOS>SUBSTRUCTURE
      1 S1             1
@<TRIPOS>SET
LONE_PAIRS      STATIC     ATOMS    <user>   **** ""
8 46 47 48 49 50 51 52 53
DONOR_HYDROGENS      STATIC     ATOMS    <user>   **** ""
1 37
ATOM$BLUE        STATIC     ATOMS    COLORGROUP SYSTEM
8 46 47 48 49 50 51 52 53
ATOM$RED        STATIC     ATOMS    COLORGROUP SYSTEM
1 37
