#       Name:                AV-unprocessed.smi:2105
#       Creating user name   scv26
#       Creation time:       Fri Mar 27 11:32:28 2020


#       File generated by GOLD software.
#

@<TRIPOS>MOLECULE
AV-unprocessed.smi:2105
    48    49     1
SMALL
NO_CHARGES


@<TRIPOS>ATOM
      1 ****        -4.2833   1.1108  -2.8353 C.3            1 S1                 0.0000
      2 ****        -3.1451   0.1524  -2.5036 C.2            1 S1                 0.0000
      3 ****        -2.6073   0.1935  -1.3973 O.2            1 S1                 0.0000
      4 ****        -2.7898  -0.7058  -3.4720 N.am           1 S1                 0.0000
      5 ****        -1.7378  -1.7092  -3.3533 C.3            1 S1                 0.0000
      6 ****        -0.3404  -1.1166  -3.6267 C.3            1 S1                 0.0000
      7 ****         0.2937  -0.6338  -2.4049 N.am           1 S1                 0.0000
      8 ****         0.8627  -1.4041  -1.4679 C.2            1 S1                 0.0000
      9 ****         0.9719  -2.6265  -1.5647 O.2            1 S1                 0.0000
     10 ****         1.2598  -0.6677  -0.4176 N.am           1 S1                 0.0000
     11 ****         1.8192  -1.1144   0.8125 C.ar           1 S1                 0.0000
     12 ****         2.6048  -2.2875   0.9172 C.ar           1 S1                 0.0000
     13 ****         3.1397  -2.6436   2.1687 C.ar           1 S1                 0.0000
     14 ****         2.8786  -1.8086   3.2700 C.ar           1 S1                 0.0000
     15 ****         2.1452  -0.6800   3.1838 N.ar           1 S1                 0.0000
     16 ****         1.6222  -0.3360   1.9818 C.ar           1 S1                 0.0000
     17 ****         0.8775   0.8551   1.9134 N.3            1 S1                 0.0000
     18 ****        -0.2219   1.0041   2.8601 C.3            1 S1                 0.0000
     19 ****        -0.3876   2.5089   3.0541 C.3            1 S1                 0.0000
     20 ****         1.0469   3.0135   2.9454 C.3            1 S1                 0.0000
     21 ****         1.6796   2.0737   1.9146 C.3            1 S1                 0.0000
     22 ****        -4.0632   1.6665  -3.7470 H              1 S1                 0.0000
     23 ****        -4.4336   1.8276  -2.0274 H              1 S1                 0.0000
     24 ****        -5.2128   0.5599  -2.9803 H              1 S1                 0.0000
     25 ****        -3.2894  -0.6683  -4.3486 H              1 S1                 0.0000
     26 ****        -1.7887  -2.2256  -2.3931 H              1 S1                 0.0000
     27 ****        -1.9491  -2.4656  -4.1094 H              1 S1                 0.0000
     28 ****         0.2988  -1.8814  -4.0708 H              1 S1                 0.0000
     29 ****        -0.3917  -0.3071  -4.3558 H              1 S1                 0.0000
     30 ****         0.2459   0.3600  -2.2337 H              1 S1                 0.0000
     31 ****         1.0203   0.3126  -0.4493 H              1 S1                 0.0000
     32 ****         2.8184  -2.9085   0.0610 H              1 S1                 0.0000
     33 ****         3.7416  -3.5333   2.2798 H              1 S1                 0.0000
     34 ****         3.2762  -2.0485   4.2451 H              1 S1                 0.0000
     35 ****        -1.1332   0.5502   2.4702 H              1 S1                 0.0000
     36 ****         0.0056   0.5290   3.8149 H              1 S1                 0.0000
     37 ****        -0.9907   2.9254   2.2457 H              1 S1                 0.0000
     38 ****        -0.8625   2.7655   4.0011 H              1 S1                 0.0000
     39 ****         1.1102   4.0633   2.6573 H              1 S1                 0.0000
     40 ****         1.5495   2.8961   3.9066 H              1 S1                 0.0000
     41 ****         2.7312   1.8883   2.1387 H              1 S1                 0.0000
     42 ****         1.6273   2.5137   0.9182 H              1 S1                 0.0000
     43 ****        -2.9169   0.8560  -0.7152 LP             1 S1                 0.0000
     44 ****        -1.8607  -0.4355  -1.1806 LP             1 S1                 0.0000
     45 ****         0.6257  -3.0966  -2.3766 LP             1 S1                 0.0000
     46 ****         1.4068  -3.1492  -0.8315 LP             1 S1                 0.0000
     47 ****         1.9906  -0.1089   3.9900 LP             1 S1                 0.0000
     48 ****         0.4581   0.7385   1.0131 LP             1 S1                 0.0000
@<TRIPOS>BOND
    1    1    2 1     
    2    1   22 1     
    3    1   23 1     
    4    1   24 1     
    5    2    3 2     
    6    2    4 am    
    7    4    5 1     
    8    4   25 1     
    9    5    6 1     
   10    5   26 1     
   11    5   27 1     
   12    6    7 1     
   13    6   28 1     
   14    6   29 1     
   15    7    8 am    
   16    7   30 1     
   17    8    9 2     
   18    8   10 am    
   19   10   11 1     
   20   10   31 1     
   21   11   16 ar    
   22   11   12 ar    
   23   12   13 ar    
   24   12   32 1     
   25   13   14 ar    
   26   13   33 1     
   27   14   15 ar    
   28   14   34 1     
   29   15   16 ar    
   30   16   17 1     
   31   17   21 1     
   32   17   18 1     
   33   18   19 1     
   34   18   35 1     
   35   18   36 1     
   36   19   20 1     
   37   19   37 1     
   38   19   38 1     
   39   20   21 1     
   40   20   39 1     
   41   20   40 1     
   42   21   41 1     
   43   21   42 1     
   44    3   43 1     
   45    3   44 1     
   46    9   45 1     
   47    9   46 1     
   48   15   47 1     
   49   17   48 1     
@<TRIPOS>SUBSTRUCTURE
      1 S1             1
@<TRIPOS>SET
LONE_PAIRS      STATIC     ATOMS    <user>   **** ""
6 43 44 45 46 47 48
DONOR_HYDROGENS      STATIC     ATOMS    <user>   **** ""
3 25 30 31
ATOM$BLUE        STATIC     ATOMS    COLORGROUP SYSTEM
6 43 44 45 46 47 48
ATOM$RED        STATIC     ATOMS    COLORGROUP SYSTEM
3 25 30 31
