AV-unprocessed.smi:644|AV-procd|sdf|3156|dock5
  -GOLD-   22720 0 83D 1   1.00000     0.00000
 Structure written by MMmdl.
 37 39  0  0  0  0  0  0  0  0  1 V2000
  153.1606  142.6329  161.8198 C   0  0  0  0  0  0  0  0  0  0  0  0
  152.6148  142.3344  160.4346 C   0  0  0  0  0  0  0  0  0  0  0  0
  152.9757  141.1243  159.7996 C   0  0  0  0  0  0  0  0  0  0  0  0
  152.4883  140.8084  158.5126 C   0  0  0  0  0  0  0  0  0  0  0  0
  152.7081  139.6984  157.7150 N   0  0  0  0  0  0  0  0  0  0  0  0
  151.9800  139.9913  156.6411 C   0  0  0  0  0  0  0  0  0  0  0  0
  151.3170  141.1637  156.6475 N   0  0  0  0  0  0  0  0  0  0  0  0
  150.4618  141.6947  155.6014 C   0  0  0  0  0  0  0  0  0  0  0  0
  148.9766  141.3497  155.8205 C   0  0  1  0  0  0  0  0  0  0  0  0
  148.4062  142.2730  156.7285 O   0  0  0  0  0  0  0  0  0  0  0  0
  148.1840  141.3733  154.5037 C   0  0  0  0  0  0  0  0  0  0  0  0
  146.5255  140.6477  154.6886 S   0  0  0  0  0  0  0  0  0  0  0  0
  145.5770  142.1081  154.9720 C   0  0  0  0  0  0  0  0  0  0  0  0
  144.7666  142.3134  156.0205 N   0  0  0  0  0  0  0  0  0  0  0  0
  144.1521  143.5577  155.9781 N   0  0  0  0  0  0  0  0  0  0  0  0
  144.5215  144.2481  154.8969 C   0  0  0  0  0  0  0  0  0  0  0  0
  145.6558  143.4435  153.8284 S   0  0  0  0  0  0  0  0  0  0  0  0
  151.6225  141.7433  157.8736 C   0  0  0  0  0  0  0  0  0  0  0  0
  151.2563  142.9504  158.4945 C   0  0  0  0  0  0  0  0  0  0  0  0
  151.7533  143.2511  159.7799 C   0  0  0  0  0  0  0  0  0  0  0  0
  151.3537  144.5583  160.4412 C   0  0  0  0  0  0  0  0  0  0  0  0
  153.8072  141.8300  162.1749 H   0  0  0  0  0  0  0  0  0  0  0  0
  152.3452  142.7464  162.5344 H   0  0  0  0  0  0  0  0  0  0  0  0
  153.7449  143.5531  161.8115 H   0  0  0  0  0  0  0  0  0  0  0  0
  153.6316  140.4259  160.2980 H   0  0  0  0  0  0  0  0  0  0  0  0
  151.9274  139.3157  155.7995 H   0  0  0  0  0  0  0  0  0  0  0  0
  150.5995  142.7759  155.5506 H   0  0  0  0  0  0  0  0  0  0  0  0
  150.8058  141.2921  154.6477 H   0  0  0  0  0  0  0  0  0  0  0  0
  148.9020  140.3544  156.2601 H   0  0  0  0  0  0  0  0  0  0  0  0
  148.5531  143.1467  156.3993 H   0  0  0  0  0  0  0  0  0  0  0  0
  148.0950  142.3959  154.1346 H   0  0  0  0  0  0  0  0  0  0  0  0
  148.7220  140.8022  153.7460 H   0  0  0  0  0  0  0  0  0  0  0  0
  144.1248  145.2384  154.7283 H   0  0  0  0  0  0  0  0  0  0  0  0
  150.5992  143.6393  157.9847 H   0  0  0  0  0  0  0  0  0  0  0  0
  150.7038  145.1492  159.7950 H   0  0  0  0  0  0  0  0  0  0  0  0
  152.2360  145.1582  160.6651 H   0  0  0  0  0  0  0  0  0  0  0  0
  150.8180  144.3678  161.3713 H   0  0  0  0  0  0  0  0  0  0  0  0
  1  2  1  0  0  0  0
  1 22  1  0  0  0  0
  1 23  1  0  0  0  0
  1 24  1  0  0  0  0
  2 20  1  0  0  0  0
  2  3  2  0  0  0  0
  3  4  1  0  0  0  0
  3 25  1  0  0  0  0
  4 18  2  0  0  0  0
  4  5  1  0  0  0  0
  5  6  2  0  0  0  0
  6  7  1  0  0  0  0
  6 26  1  0  0  0  0
  7  8  1  0  0  0  0
  7 18  1  0  0  0  0
  8  9  1  0  0  0  0
  8 27  1  0  0  0  0
  8 28  1  0  0  0  0
  9 10  1  0  0  0  0
  9 11  1  0  0  0  0
  9 29  1  0  0  0  0
 10 30  1  0  0  0  0
 11 12  1  0  0  0  0
 11 31  1  0  0  0  0
 11 32  1  0  0  0  0
 12 13  1  0  0  0  0
 13 17  1  0  0  0  0
 13 14  2  0  0  0  0
 14 15  1  0  0  0  0
 15 16  2  0  0  0  0
 16 17  1  0  0  0  0
 16 33  1  0  0  0  0
 18 19  1  0  0  0  0
 19 20  2  0  0  0  0
 19 34  1  0  0  0  0
 20 21  1  0  0  0  0
 21 35  1  0  0  0  0
 21 36  1  0  0  0  0
 21 37  1  0  0  0  0
M  END
> <s_m_source_file>
AV-unprocessed.smi

> <i_m_source_file_index>
644

> <i_lp_mmshare_version>
43012

> <i_f3d_flags>
0

> <s_epik_input>
W0NIM11jKFtjSF0xKWMoW0NIM10pW2NIXWMoYzEyKW4oW2NIXW4yKVtDSDJdW0NASF0oW09IXSlbQ0gyXVNjM25uW2NIXXMz

> <s_epik_cmdline>
J2VwaWtfcHl0aG9uJywgJy1waCcsICc3LjAnLCAnLXRuJywgJzgnLCAnLW1hJywgJzIwMCcsICctbWV0YWxfYmluZGluZycsICctaW1hZScsICc8aW5maWxlLm1hZT4nLCAnLW9tYWUnLCAnPG91dGZpbGUubWFlPic=

> <r_lp_tautomer_probability>
1

> <r_epik_Ionization_Penalty>
0.105397

> <r_epik_Ionization_Penalty_Charging>
0

> <r_epik_Ionization_Penalty_Neutral>
0.105397

> <r_epik_State_Penalty>
0.0952713

> <r_epik_Charging_Adjusted_Penalty>
0.0952713

> <i_epik_Tot_Q>
0

> <i_epik_Tot_abs_Q>
0

> <r_epik_Metal_State_Penalty>
0.0807681

> <b_epik_Metal_Only>
0

> <s_lp_Force_Field>
OPLS_2005

> <r_lp_Energy>
7.47595

> <b_lp_Chiralities_Consistent>
1

> <s_lp_Variant>
AV-unprocessed.smi:644-2

> <Gold.Version>
5.8.1

> <Gold.Id.Protein>
6NUR|6NUR_protein|mol2

> <Gold.PLP.Fitness>
48.7025

> <Gold.PLP.PLP>
-44.4976

> <Gold.PLP.part.hbond>
-2.0000

> <Gold.PLP.part.metal>
0.0000

> <Gold.PLP.part.buried>
-6.6709

> <Gold.PLP.part.nonpolar>
-35.9675

> <Gold.PLP.part.repulsive>
0.1677

> <Gold.PLP.ligand.clash>
0.0000

> <Gold.PLP.ligand.torsion>
0.9312

> <Gold.PLP.Chemscore.Hbond>
2.0000

> <Gold.PLP.Chemscore.CHOScore>
0.0000

> <Gold.PLP.Chemscore.Metal>
0.0000

> <Gold.Chemscore.Hbonds>
donor molecule, donor type, donor heavy atom, donor atom, acceptor molecule, acceptor atom, score
      L1  H    10    30       P1  8028  1.00
      P1  H  7997  8010       L1     5  1.00

> <Gold.PLP.Chemscore.Internal.Correction>
0.0673

> <Gold.Rescore>
     Score         DG    S(hbond)    S(metal)    S(lipo)     H(rot)  DE(clash)    DE(int)     intcor
     15.50     -16.51       0.93        0.00     121.41       2.46       0.08       0.93       ----

> <Gold.Chemscore.Fitness>
15.5013

> <Gold.Chemscore.DG>
-16.5112

> <Gold.Chemscore.ZeroCoef>
-5.4800

> <Gold.Chemscore.Hbond>
0.9343

> <Gold.Chemscore.Metal>
0.0000

> <Gold.Chemscore.Lipo>
121.4129

> <Gold.Chemscore.Internal_Hbond>
0.0000

> <Gold.Chemscore.DEClash>
0.0762

> <Gold.Chemscore.DEInternal>
0.9337

> <Gold.Chemscore.Rot>
2.4588

> <Gold.Chemscore.Internal.Correction>
   9.000000E+99

> <Gold.Chemscore.Hbonds>
donor molecule, donor type, donor heavy atom, donor atom, acceptor molecule, acceptor atom, score
      L1  H    10    30       P1  8028  0.85
      P1  H  7997  8010       L1     5  0.08

> <Gold.Chemscore.Hbond.Weighted>
-3.1204

> <Gold.Chemscore.Metal.Weighted>
-0.0000

> <Gold.Chemscore.Lipo.Weighted>
-14.2053

> <Gold.Chemscore.Internal_Hbond.Weighted>
0.0000

> <Gold.Chemscore.DEClash.Weighted>
0.0762

> <Gold.Chemscore.DEInternal.Weighted>
0.9337

> <Gold.Chemscore.Rot.Weighted>
6.2946

> <Gold.Chemscore.Internal.Correction.Weighted>
   9.000000E+99

> <Gold.Protein.RotatedTorsions>
[ 6907 6896 6895 6894 ] final  171.16 input  -60.11 | X-H torsion
[ 7974 7965 7964 7962 ] final  -94.59 input  175.53 | X-H torsion
[ 8008 7997 7996 7995 ] final   36.56 input   59.86 | X-H torsion
[ 10167 10162 10161 10158 ] final  119.15 input  -65.29 | X-H torsion
[ 10718 10713 10712 10709 ] final -179.24 input   66.30 | X-H torsion
[ 10763 10752 10751 10750 ] final  165.71 input  -60.55 | X-H torsion
[ 11005 11000 10999 10996 ] final -123.67 input  -57.11 | X-H torsion

> <Gold.Protein.ActiveResidues>
 VAL166  LYS551  ARG553  GLY616  TRP617  ASP618  TYR619  PRO620  LYS621  CYS622 
 ASP623  PHE694  ASN695  SER759  ASP760  ASP761  ALA762  ILE779  LEU786  VAL792 
 PHE793  MET794  SER795  GLU796  ALA797  LYS798  CYS799  TRP800  GLU811  SER814 

> <Gold.Protein.RotatedAtoms>
  151.8046  133.3374  159.3536 H   0  0  0  0  0  0  0  0  0  0  0  0  # atno 6907 bound_to 6896
  150.7347  134.5721  159.5905 H   0  0  0  0  0  0  0  0  0  0  0  0  # atno 6908 bound_to 6896
  152.3119  134.7488  160.0386 H   0  0  0  0  0  0  0  0  0  0  0  0  # atno 6909 bound_to 6896
  145.3712  140.9505  143.2446 H   0  0  0  0  0  0  0  0  0  0  0  0  # atno 7974 bound_to 7965
  155.1894  140.3306  155.4361 H   0  0  0  0  0  0  0  0  0  0  0  0  # atno 8008 bound_to 7997
  156.2448  140.1913  156.6938 H   0  0  0  0  0  0  0  0  0  0  0  0  # atno 8009 bound_to 7997
  154.6216  140.0594  156.9608 H   0  0  0  0  0  0  0  0  0  0  0  0  # atno 8010 bound_to 7997
  139.6065  144.7071  151.2942 H   0  0  0  0  0  0  0  0  0  0  0  0  # atno 10167 bound_to 10162
  156.8562  130.9736  151.3088 H   0  0  0  0  0  0  0  0  0  0  0  0  # atno 10718 bound_to 10713
  154.3281  135.2755  155.2485 H   0  0  0  0  0  0  0  0  0  0  0  0  # atno 10763 bound_to 10752
  154.4809  135.5858  153.6392 H   0  0  0  0  0  0  0  0  0  0  0  0  # atno 10764 bound_to 10752
  152.9869  135.6111  154.3472 H   0  0  0  0  0  0  0  0  0  0  0  0  # atno 10765 bound_to 10752
  140.9901  134.0551  157.3664 H   0  0  0  0  0  0  0  0  0  0  0  0  # atno 11005 bound_to 11000
  144.8575  139.5228  143.6828 LP  0  0  0  0  0  0  0  0  0  0  0  0  # atno 17320 bound_to 7965
  146.2884  139.7070  142.9178 LP  0  0  0  0  0  0  0  0  0  0  0  0  # atno 17321 bound_to 7965
  140.7288  143.6925  150.7910 LP  0  0  0  0  0  0  0  0  0  0  0  0  # atno 17342 bound_to 10162
  140.0511  143.5248  152.2673 LP  0  0  0  0  0  0  0  0  0  0  0  0  # atno 17343 bound_to 10162
  157.6275  130.8703  149.9216 LP  0  0  0  0  0  0  0  0  0  0  0  0  # atno 17370 bound_to 10713
  156.0801  130.3674  150.0598 LP  0  0  0  0  0  0  0  0  0  0  0  0  # atno 17371 bound_to 10713
  139.8988  135.0156  156.7167 LP  0  0  0  0  0  0  0  0  0  0  0  0  # atno 17394 bound_to 11000
  140.7053  133.9270  155.8050 LP  0  0  0  0  0  0  0  0  0  0  0  0  # atno 17395 bound_to 11000

$$$$
