AV-unprocessed.smi:3241|AV-procd|sdf|12391|dock3
  -GOLD-   2272018263D 1   1.00000     0.00000
 Structure written by MMmdl.
 43 44  0  0  0  0  0  0  0  0  1 V2000
  152.8695  141.7510  160.6933 C   0  0  0  0  0  0  0  0  0  0  0  0
  152.6348  143.1321  160.0622 C   0  0  2  0  0  0  0  0  0  0  0  0
  151.7547  144.0301  160.9554 C   0  0  0  0  0  0  0  0  0  0  0  0
  151.5522  145.4217  160.3342 C   0  0  0  0  0  0  0  0  0  0  0  0
  150.9768  145.3215  158.9136 C   0  0  0  0  0  0  0  0  0  0  0  0
  151.8519  144.4281  158.0199 C   0  0  0  0  0  0  0  0  0  0  0  0
  152.0564  143.0270  158.6333 C   0  0  2  0  0  0  0  0  0  0  0  0
  150.8001  142.3554  158.6904 O   0  0  0  0  0  0  0  0  0  0  0  0
  150.5372  141.4256  157.6447 C   0  0  0  0  0  0  0  0  0  0  0  0
  150.6619  142.0597  156.2504 C   0  0  0  0  0  0  0  0  0  0  0  0
  149.3460  142.2754  155.6619 N   0  0  0  0  0  0  0  0  0  0  0  0
  148.8130  141.1124  154.9605 C   0  0  0  0  0  0  0  0  0  0  0  0
  147.5861  141.4830  154.1127 C   0  0  0  0  0  0  0  0  0  0  0  0
  147.0718  140.3428  153.3731 N   0  0  0  0  0  0  0  0  0  0  0  0
  147.0972  140.1237  152.0117 C   0  0  0  0  0  0  0  0  0  0  0  0
  146.4871  138.9242  151.7813 C   0  0  0  0  0  0  0  0  0  0  0  0
  146.1180  138.4779  153.0812 C   0  0  0  0  0  0  0  0  0  0  0  0
  146.4704  139.3280  154.0318 N   0  0  0  0  0  0  0  0  0  0  0  0
  151.9314  141.2148  160.8401 H   0  0  0  0  0  0  0  0  0  0  0  0
  153.3543  141.8422  161.6656 H   0  0  0  0  0  0  0  0  0  0  0  0
  153.5100  141.1349  160.0617 H   0  0  0  0  0  0  0  0  0  0  0  0
  153.6115  143.6115  159.9813 H   0  0  0  0  0  0  0  0  0  0  0  0
  150.7840  143.5583  161.1139 H   0  0  0  0  0  0  0  0  0  0  0  0
  152.2089  144.1350  161.9412 H   0  0  0  0  0  0  0  0  0  0  0  0
  150.8883  146.0159  160.9628 H   0  0  0  0  0  0  0  0  0  0  0  0
  152.5054  145.9508  160.3049 H   0  0  0  0  0  0  0  0  0  0  0  0
  149.9638  144.9187  158.9547 H   0  0  0  0  0  0  0  0  0  0  0  0
  150.8939  146.3163  158.4756 H   0  0  0  0  0  0  0  0  0  0  0  0
  151.4074  144.3549  157.0280 H   0  0  0  0  0  0  0  0  0  0  0  0
  152.8232  144.9038  157.8800 H   0  0  0  0  0  0  0  0  0  0  0  0
  152.7657  142.4713  158.0172 H   0  0  0  0  0  0  0  0  0  0  0  0
  151.2090  140.5710  157.7372 H   0  0  0  0  0  0  0  0  0  0  0  0
  149.5278  141.0371  157.7825 H   0  0  0  0  0  0  0  0  0  0  0  0
  151.2152  142.9972  156.3039 H   0  0  0  0  0  0  0  0  0  0  0  0
  151.2444  141.3971  155.6094 H   0  0  0  0  0  0  0  0  0  0  0  0
  148.6908  142.5894  156.3708 H   0  0  0  0  0  0  0  0  0  0  0  0
  149.5800  140.6761  154.3194 H   0  0  0  0  0  0  0  0  0  0  0  0
  148.5359  140.3430  155.6817 H   0  0  0  0  0  0  0  0  0  0  0  0
  146.7893  141.8531  154.7587 H   0  0  0  0  0  0  0  0  0  0  0  0
  147.8262  142.2905  153.4188 H   0  0  0  0  0  0  0  0  0  0  0  0
  147.5387  140.8340  151.3284 H   0  0  0  0  0  0  0  0  0  0  0  0
  146.3264  138.4399  150.8297 H   0  0  0  0  0  0  0  0  0  0  0  0
  145.6065  137.5684  153.3601 H   0  0  0  0  0  0  0  0  0  0  0  0
  1  2  1  0  0  0  0
  1 19  1  0  0  0  0
  1 20  1  0  0  0  0
  1 21  1  0  0  0  0
  2  7  1  0  0  0  0
  2  3  1  0  0  0  0
  2 22  1  0  0  0  0
  3  4  1  0  0  0  0
  3 23  1  0  0  0  0
  3 24  1  0  0  0  0
  4  5  1  0  0  0  0
  4 25  1  0  0  0  0
  4 26  1  0  0  0  0
  5  6  1  0  0  0  0
  5 27  1  0  0  0  0
  5 28  1  0  0  0  0
  6  7  1  0  0  0  0
  6 29  1  0  0  0  0
  6 30  1  0  0  0  0
  7  8  1  0  0  0  0
  7 31  1  0  0  0  0
  8  9  1  0  0  0  0
  9 10  1  0  0  0  0
  9 32  1  0  0  0  0
  9 33  1  0  0  0  0
 10 11  1  0  0  0  0
 10 34  1  0  0  0  0
 10 35  1  0  0  0  0
 11 12  1  0  0  0  0
 11 36  1  0  0  0  0
 12 13  1  0  0  0  0
 12 37  1  0  0  0  0
 12 38  1  0  0  0  0
 13 14  1  0  0  0  0
 13 39  1  0  0  0  0
 13 40  1  0  0  0  0
 14 18  1  0  0  0  0
 14 15  1  0  0  0  0
 15 16  2  0  0  0  0
 15 41  1  0  0  0  0
 16 17  1  0  0  0  0
 16 42  1  0  0  0  0
 17 18  2  0  0  0  0
 17 43  1  0  0  0  0
M  END
> <s_m_source_file>
AV-unprocessed.smi

> <i_m_source_file_index>
3241

> <i_lp_mmshare_version>
43012

> <i_f3d_flags>
0

> <s_epik_input>
W0NIM11bQ0BASF0xW0NIMl1bQ0gyXVtDSDJdW0NIMl1bQ0BIXTFPW0NIMl1bQ0gyXVtOSF1bQ0gyXVtDSDJdbjJbY0hdW2NIXVtjSF1uMg==

> <s_epik_cmdline>
J2VwaWtfcHl0aG9uJywgJy1waCcsICc3LjAnLCAnLXRuJywgJzgnLCAnLW1hJywgJzIwMCcsICctbWV0YWxfYmluZGluZycsICctaW1hZScsICc8aW5maWxlLm1hZT4nLCAnLW9tYWUnLCAnPG91dGZpbGUubWFlPic=

> <r_lp_tautomer_probability>
1

> <r_epik_Ionization_Penalty>
2.47055

> <r_epik_Ionization_Penalty_Charging>
0

> <r_epik_Ionization_Penalty_Neutral>
2.47055

> <r_epik_State_Penalty>
2.6322

> <r_epik_Charging_Adjusted_Penalty>
2.6322

> <i_epik_Tot_Q>
0

> <i_epik_Tot_abs_Q>
0

> <r_epik_Metal_State_Penalty>
2.63108

> <b_epik_Metal_Only>
0

> <s_lp_Force_Field>
OPLS_2005

> <r_lp_Energy>
17.4206

> <b_lp_Chiralities_Consistent>
1

> <s_lp_Variant>
AV-unprocessed.smi:3241-7

> <Gold.Version>
5.8.1

> <Gold.Id.Protein>
6NUR|6NUR_protein|mol2

> <Gold.PLP.Fitness>
47.3422

> <Gold.PLP.PLP>
-47.9602

> <Gold.PLP.part.hbond>
-1.0000

> <Gold.PLP.part.metal>
0.0000

> <Gold.PLP.part.buried>
-2.9437

> <Gold.PLP.part.nonpolar>
-44.9650

> <Gold.PLP.part.repulsive>
0.1729

> <Gold.PLP.ligand.clash>
0.0000

> <Gold.PLP.ligand.torsion>
1.1503

> <Gold.PLP.Chemscore.Hbond>
0.0000

> <Gold.PLP.Chemscore.CHOScore>
0.5139

> <Gold.PLP.Chemscore.Metal>
0.0000

> <Gold.Chemscore.Hbonds>
donor molecule, donor type, donor heavy atom, donor atom, acceptor molecule, acceptor atom, score
      L1  C    15    41       P1  7957  0.45

> <Gold.PLP.Chemscore.Internal.Correction>
0.1407

> <Gold.Rescore>
     Score         DG    S(hbond)    S(metal)    S(lipo)     H(rot)  DE(clash)    DE(int)     intcor
     14.53     -16.97       0.01        0.00     137.21       1.79       1.27       1.17       ----

> <Gold.Chemscore.Fitness>
14.5290

> <Gold.Chemscore.DG>
-16.9681

> <Gold.Chemscore.ZeroCoef>
-5.4800

> <Gold.Chemscore.Hbond>
0.0051

> <Gold.Chemscore.Metal>
0.0000

> <Gold.Chemscore.Lipo>
137.2118

> <Gold.Chemscore.Internal_Hbond>
0.0000

> <Gold.Chemscore.DEClash>
1.2668

> <Gold.Chemscore.DEInternal>
1.1723

> <Gold.Chemscore.Rot>
1.7901

> <Gold.Chemscore.Internal.Correction>
   9.000000E+99

> <Gold.Chemscore.Hbond.Weighted>
-0.0170

> <Gold.Chemscore.Metal.Weighted>
-0.0000

> <Gold.Chemscore.Lipo.Weighted>
-16.0538

> <Gold.Chemscore.Internal_Hbond.Weighted>
0.0000

> <Gold.Chemscore.DEClash.Weighted>
1.2668

> <Gold.Chemscore.DEInternal.Weighted>
1.1723

> <Gold.Chemscore.Rot.Weighted>
4.5827

> <Gold.Chemscore.Internal.Correction.Weighted>
   9.000000E+99

> <Gold.Protein.RotatedTorsions>
[ 6907 6896 6895 6894 ] final  113.62 input  -60.11 | X-H torsion
[ 7974 7965 7964 7962 ] final -158.00 input  175.53 | X-H torsion
[ 8008 7997 7996 7995 ] final   61.83 input   59.86 | X-H torsion
[ 10167 10162 10161 10158 ] final  -95.14 input  -65.29 | X-H torsion
[ 10718 10713 10712 10709 ] final   71.95 input   66.30 | X-H torsion
[ 10763 10752 10751 10750 ] final   14.45 input  -60.55 | X-H torsion
[ 11005 11000 10999 10996 ] final -174.37 input  -57.11 | X-H torsion

> <Gold.Protein.ActiveResidues>
 VAL166  LYS551  ARG553  GLY616  TRP617  ASP618  TYR619  PRO620  LYS621  CYS622 
 ASP623  PHE694  ASN695  SER759  ASP760  ASP761  ALA762  ILE779  LEU786  VAL792 
 PHE793  MET794  SER795  GLU796  ALA797  LYS798  CYS799  TRP800  GLU811  SER814 

> <Gold.Protein.RotatedAtoms>
  152.4850  133.8351  159.7122 H   0  0  0  0  0  0  0  0  0  0  0  0  # atno 6907 bound_to 6896
  150.8930  133.7209  159.2906 H   0  0  0  0  0  0  0  0  0  0  0  0  # atno 6908 bound_to 6896
  151.4675  135.1047  159.9794 H   0  0  0  0  0  0  0  0  0  0  0  0  # atno 6909 bound_to 6896
  144.7524  140.3890  143.6038 H   0  0  0  0  0  0  0  0  0  0  0  0  # atno 7974 bound_to 7965
  155.6046  140.3494  155.4604 H   0  0  0  0  0  0  0  0  0  0  0  0  # atno 8008 bound_to 7997
  156.0201  140.1252  157.0390 H   0  0  0  0  0  0  0  0  0  0  0  0  # atno 8009 bound_to 7997
  154.4312  140.1064  156.5938 H   0  0  0  0  0  0  0  0  0  0  0  0  # atno 8010 bound_to 7997
  140.3072  143.3126  152.0186 H   0  0  0  0  0  0  0  0  0  0  0  0  # atno 10167 bound_to 10162
  157.6477  130.9554  150.0861 H   0  0  0  0  0  0  0  0  0  0  0  0  # atno 10718 bound_to 10713
  153.1620  135.6797  153.8728 H   0  0  0  0  0  0  0  0  0  0  0  0  # atno 10763 bound_to 10752
  153.8120  135.3141  155.3403 H   0  0  0  0  0  0  0  0  0  0  0  0  # atno 10764 bound_to 10752
  154.7939  135.4818  154.0205 H   0  0  0  0  0  0  0  0  0  0  0  0  # atno 10765 bound_to 10752
  140.4752  134.6127  157.4898 H   0  0  0  0  0  0  0  0  0  0  0  0  # atno 11005 bound_to 11000
  145.6897  139.1636  143.2654 LP  0  0  0  0  0  0  0  0  0  0  0  0  # atno 17320 bound_to 7965
  146.1492  140.6949  142.9330 LP  0  0  0  0  0  0  0  0  0  0  0  0  # atno 17321 bound_to 7965
  139.4901  144.6412  151.6874 LP  0  0  0  0  0  0  0  0  0  0  0  0  # atno 17342 bound_to 10162
  140.5600  144.0285  150.6165 LP  0  0  0  0  0  0  0  0  0  0  0  0  # atno 17343 bound_to 10162
  156.1823  130.3650  149.9019 LP  0  0  0  0  0  0  0  0  0  0  0  0  # atno 17370 bound_to 10713
  156.6968  130.8917  151.3595 LP  0  0  0  0  0  0  0  0  0  0  0  0  # atno 17371 bound_to 10713
  139.9860  134.7061  155.9773 LP  0  0  0  0  0  0  0  0  0  0  0  0  # atno 17394 bound_to 11000
  141.1558  133.6543  156.4156 LP  0  0  0  0  0  0  0  0  0  0  0  0  # atno 17395 bound_to 11000

$$$$
