AV-unprocessed.smi:265|AV-procd|sdf|2028|dock2
  -GOLD-   2262021233D 1   1.00000     0.00000
 Structure written by MMmdl.
 52 56  0  0  0  0  0  0  0  0  1 V2000
  151.8528  145.0372  158.5906 C   0  0  0  0  0  0  0  0  0  0  0  0
  152.4271  143.6289  158.8088 C   0  0  1  0  0  0  0  0  0  0  0  0
  152.9903  143.4966  160.1132 O   0  0  0  0  0  0  0  0  0  0  0  0
  152.5800  142.2721  160.7106 C   0  0  0  0  0  0  0  0  0  0  0  0
  152.0662  141.4141  159.5593 C   0  0  0  0  0  0  0  0  0  0  0  0
  151.4463  142.4474  158.6287 C   0  0  1  0  0  0  0  0  0  0  0  0
  150.1637  142.7895  159.1275 O   0  0  0  0  0  0  0  0  0  0  0  0
  151.2247  141.9691  157.1700 C   0  0  0  0  0  0  0  0  0  0  0  0
  150.8838  140.5619  157.0286 N   0  0  0  0  0  0  0  0  0  0  0  0
  149.8316  139.9019  157.6222 C   0  0  0  0  0  0  0  0  0  0  0  0
  149.7332  138.6339  157.3301 N   0  0  0  0  0  0  0  0  0  0  0  0
  150.7917  138.4022  156.4592 C   0  0  0  0  0  0  0  0  0  0  0  0
  151.2670  137.2578  155.7578 C   0  0  0  0  0  0  0  0  0  0  0  0
  150.6876  136.0353  155.8683 N   0  0  0  0  0  0  0  0  0  0  0  0
  151.4634  135.0582  156.6376 C   0  0  0  0  0  0  0  0  0  0  0  0
  150.6009  133.8462  157.0367 C   0  0  0  0  0  0  0  0  0  0  0  0
  149.9329  133.2463  155.7927 C   0  0  1  0  0  0  0  0  0  0  0  0
  149.0456  132.1885  156.1225 O   0  0  0  0  0  0  0  0  0  0  0  0
  148.5263  131.5045  154.9767 C   0  0  0  0  0  0  0  0  0  0  0  0
  148.0187  132.4680  153.8825 C   0  0  0  0  0  0  0  0  0  0  0  0
  147.3350  132.0370  152.9568 O   0  0  0  0  0  0  0  0  0  0  0  0
  148.3809  133.7594  153.9562 N   0  0  0  0  0  0  0  0  0  0  0  0
  149.0902  134.3256  155.0959 C   0  0  2  0  0  0  0  0  0  0  0  0
  149.9836  135.5098  154.6942 C   0  0  0  0  0  0  0  0  0  0  0  0
  152.3493  137.4251  154.9509 N   0  0  0  0  0  0  0  0  0  0  0  0
  152.9327  138.6223  154.8423 C   0  0  0  0  0  0  0  0  0  0  0  0
  152.6022  139.7686  155.4394 N   0  0  0  0  0  0  0  0  0  0  0  0
  151.5149  139.6097  156.2468 C   0  0  0  0  0  0  0  0  0  0  0  0
  150.7104  132.8715  155.1230 H   0  0  0  0  0  0  0  0  0  0  0  0
  148.3292  134.6860  155.7906 H   0  0  0  0  0  0  0  0  0  0  0  0
  151.4180  145.1321  157.5954 H   0  0  0  0  0  0  0  0  0  0  0  0
  152.6352  145.7905  158.6835 H   0  0  0  0  0  0  0  0  0  0  0  0
  151.0806  145.2761  159.3220 H   0  0  0  0  0  0  0  0  0  0  0  0
  153.2730  143.5002  158.1353 H   0  0  0  0  0  0  0  0  0  0  0  0
  153.3985  141.7988  161.2531 H   0  0  0  0  0  0  0  0  0  0  0  0
  151.7786  142.4796  161.4207 H   0  0  0  0  0  0  0  0  0  0  0  0
  152.9182  140.9254  159.0882 H   0  0  0  0  0  0  0  0  0  0  0  0
  151.3707  140.6376  159.8799 H   0  0  0  0  0  0  0  0  0  0  0  0
  150.1249  143.7265  159.2422 H   0  0  0  0  0  0  0  0  0  0  0  0
  150.4307  142.5541  156.7038 H   0  0  0  0  0  0  0  0  0  0  0  0
  152.1224  142.1569  156.5792 H   0  0  0  0  0  0  0  0  0  0  0  0
  149.1363  140.3928  158.2877 H   0  0  0  0  0  0  0  0  0  0  0  0
  152.3042  134.7266  156.0270 H   0  0  0  0  0  0  0  0  0  0  0  0
  151.8900  135.5038  157.5352 H   0  0  0  0  0  0  0  0  0  0  0  0
  151.2160  133.0960  157.5341 H   0  0  0  0  0  0  0  0  0  0  0  0
  149.8407  134.1561  157.7551 H   0  0  0  0  0  0  0  0  0  0  0  0
  149.3077  130.8735  154.5516 H   0  0  0  0  0  0  0  0  0  0  0  0
  147.7166  130.8464  155.2927 H   0  0  0  0  0  0  0  0  0  0  0  0
  148.0817  134.3907  153.2271 H   0  0  0  0  0  0  0  0  0  0  0  0
  149.3703  136.2937  154.2472 H   0  0  0  0  0  0  0  0  0  0  0  0
  150.7114  135.1967  153.9438 H   0  0  0  0  0  0  0  0  0  0  0  0
  153.7875  138.6680  154.1837 H   0  0  0  0  0  0  0  0  0  0  0  0
  1  2  1  0  0  0  0
  1 31  1  0  0  0  0
  1 32  1  0  0  0  0
  1 33  1  0  0  0  0
  2  6  1  0  0  0  0
  2  3  1  0  0  0  0
  2 34  1  0  0  0  0
  3  4  1  0  0  0  0
  4  5  1  0  0  0  0
  4 35  1  0  0  0  0
  4 36  1  0  0  0  0
  5  6  1  0  0  0  0
  5 37  1  0  0  0  0
  5 38  1  0  0  0  0
  6  7  1  0  0  0  0
  6  8  1  0  0  0  0
  7 39  1  0  0  0  0
  8  9  1  0  0  0  0
  8 40  1  0  0  0  0
  8 41  1  0  0  0  0
  9 28  1  0  0  0  0
  9 10  1  0  0  0  0
 10 11  2  0  0  0  0
 10 42  1  0  0  0  0
 11 12  1  0  0  0  0
 12 28  2  0  0  0  0
 12 13  1  0  0  0  0
 13 14  1  0  0  0  0
 13 25  2  0  0  0  0
 14 24  1  0  0  0  0
 14 15  1  0  0  0  0
 15 16  1  0  0  0  0
 15 43  1  0  0  0  0
 15 44  1  0  0  0  0
 16 17  1  0  0  0  0
 16 45  1  0  0  0  0
 16 46  1  0  0  0  0
 17 29  1  0  0  0  0
 17 23  1  0  0  0  0
 17 18  1  0  0  0  0
 18 19  1  0  0  0  0
 19 20  1  0  0  0  0
 19 47  1  0  0  0  0
 19 48  1  0  0  0  0
 20 21  2  0  0  0  0
 20 22  1  0  0  0  0
 22 23  1  0  0  0  0
 22 49  1  0  0  0  0
 23 30  1  0  0  0  0
 23 24  1  0  0  0  0
 24 50  1  0  0  0  0
 24 51  1  0  0  0  0
 25 26  1  0  0  0  0
 26 27  2  0  0  0  0
 26 52  1  0  0  0  0
 27 28  1  0  0  0  0
M  END
> <s_m_source_file>
AV-unprocessed.smi

> <i_m_source_file_index>
265

> <i_lp_mmshare_version>
43012

> <i_f3d_flags>
0

> <s_epik_input>
W0NIMl0xW0NIMl1PW0NAQEhdKFtDSDNdKVtDQEBdMShbT0hdKVtDSDJdbihbY0hdbjIpYyhjMjMpbltjSF1uYzNOKFtDSDJdW0NIMl00KVtDSDJdW0NAQEhdKFtDQEhdNDUpW05IXUMoPU8pW0NIMl1PNQ==

> <s_epik_cmdline>
J2VwaWtfcHl0aG9uJywgJy1waCcsICc3LjAnLCAnLXRuJywgJzgnLCAnLW1hJywgJzIwMCcsICctbWV0YWxfYmluZGluZycsICctaW1hZScsICc8aW5maWxlLm1hZT4nLCAnLW9tYWUnLCAnPG91dGZpbGUubWFlPic=

> <r_lp_tautomer_probability>
1

> <r_epik_Ionization_Penalty>
0.00221504

> <r_epik_Ionization_Penalty_Charging>
0

> <r_epik_Ionization_Penalty_Neutral>
0.00221504

> <r_epik_State_Penalty>
-0

> <r_epik_Charging_Adjusted_Penalty>
0

> <i_epik_Tot_Q>
0

> <i_epik_Tot_abs_Q>
0

> <r_epik_Metal_State_Penalty>
-0

> <b_epik_Metal_Only>
0

> <s_lp_Force_Field>
OPLS_2005

> <r_lp_Energy>
47.2889

> <b_lp_Chiralities_Consistent>
1

> <s_lp_Variant>
AV-unprocessed.smi:265-14

> <Gold.Version>
5.8.1

> <Gold.Id.Protein>
6NUR|6NUR_protein|mol2

> <Gold.PLP.Fitness>
49.8693

> <Gold.PLP.PLP>
-43.7121

> <Gold.PLP.part.hbond>
-4.6690

> <Gold.PLP.part.metal>
0.0000

> <Gold.PLP.part.buried>
-2.3895

> <Gold.PLP.part.nonpolar>
-36.1264

> <Gold.PLP.part.repulsive>
0.3120

> <Gold.PLP.ligand.clash>
0.0000

> <Gold.PLP.ligand.torsion>
0.7086

> <Gold.PLP.Chemscore.Hbond>
2.3788

> <Gold.PLP.Chemscore.CHOScore>
0.0000

> <Gold.PLP.Chemscore.Metal>
0.0000

> <Gold.Chemscore.Hbonds>
donor molecule, donor type, donor heavy atom, donor atom, acceptor molecule, acceptor atom, score
      L1  H    22    49       P1  7948  0.03
      P1  H  7989  7998       L1    27  0.03
      P1  H  7997  8009       L1    27  0.80
      P1  H 10752 10765       L1    25  0.67

> <Gold.PLP.Chemscore.Internal.Correction>
0.4379

> <Gold.Rescore>
     Score         DG    S(hbond)    S(metal)    S(lipo)     H(rot)  DE(clash)    DE(int)     intcor
     14.87     -16.44       1.80        0.00      91.43       2.25       0.80       0.77       ----

> <Gold.Chemscore.Fitness>
14.8705

> <Gold.Chemscore.DG>
-16.4423

> <Gold.Chemscore.ZeroCoef>
-5.4800

> <Gold.Chemscore.Hbond>
1.8002

> <Gold.Chemscore.Metal>
0.0000

> <Gold.Chemscore.Lipo>
91.4332

> <Gold.Chemscore.Internal_Hbond>
0.0000

> <Gold.Chemscore.DEClash>
0.8041

> <Gold.Chemscore.DEInternal>
0.7676

> <Gold.Chemscore.Rot>
2.2453

> <Gold.Chemscore.Internal.Correction>
   9.000000E+99

> <Gold.Chemscore.Hbonds>
donor molecule, donor type, donor heavy atom, donor atom, acceptor molecule, acceptor atom, score
      L1  H    22    49       P1  7948  0.04
      P1  H  7997  8009       L1    27  0.12
      P1  H 10752 10765       L1    25  0.43

> <Gold.Chemscore.Hbond.Weighted>
-6.0125

> <Gold.Chemscore.Metal.Weighted>
-0.0000

> <Gold.Chemscore.Lipo.Weighted>
-10.6977

> <Gold.Chemscore.Internal_Hbond.Weighted>
0.0000

> <Gold.Chemscore.DEClash.Weighted>
0.8041

> <Gold.Chemscore.DEInternal.Weighted>
0.7676

> <Gold.Chemscore.Rot.Weighted>
5.7479

> <Gold.Chemscore.Internal.Correction.Weighted>
   9.000000E+99

> <Gold.Protein.RotatedTorsions>
[ 6907 6896 6895 6894 ] final  176.77 input  -60.11 | X-H torsion
[ 7974 7965 7964 7962 ] final -151.50 input  175.53 | X-H torsion
[ 8008 7997 7996 7995 ] final -148.36 input   59.86 | X-H torsion
[ 10167 10162 10161 10158 ] final  150.05 input  -65.29 | X-H torsion
[ 10718 10713 10712 10709 ] final -134.75 input   66.30 | X-H torsion
[ 10763 10752 10751 10750 ] final  166.88 input  -60.55 | X-H torsion
[ 11005 11000 10999 10996 ] final -123.62 input  -57.11 | X-H torsion

> <Gold.Protein.ActiveResidues>
 VAL166  LYS551  ARG553  GLY616  TRP617  ASP618  TYR619  PRO620  LYS621  CYS622 
 ASP623  PHE694  ASN695  SER759  ASP760  ASP761  ALA762  ILE779  LEU786  VAL792 
 PHE793  MET794  SER795  GLU796  ALA797  LYS798  CYS799  TRP800  GLU811  SER814 

> <Gold.Protein.RotatedAtoms>
  151.7147  133.3313  159.3299 H   0  0  0  0  0  0  0  0  0  0  0  0  # atno 6907 bound_to 6896
  150.7679  134.6501  159.6293 H   0  0  0  0  0  0  0  0  0  0  0  0  # atno 6908 bound_to 6896
  152.3689  134.6765  160.0234 H   0  0  0  0  0  0  0  0  0  0  0  0  # atno 6909 bound_to 6896
  144.7846  140.4789  143.5815 H   0  0  0  0  0  0  0  0  0  0  0  0  # atno 7974 bound_to 7965
  155.5904  140.0652  157.2760 H   0  0  0  0  0  0  0  0  0  0  0  0  # atno 8008 bound_to 7997
  154.4307  140.1836  156.1115 H   0  0  0  0  0  0  0  0  0  0  0  0  # atno 8009 bound_to 7997
  156.0237  140.3314  155.7069 H   0  0  0  0  0  0  0  0  0  0  0  0  # atno 8010 bound_to 7997
  139.4854  144.5553  151.7329 H   0  0  0  0  0  0  0  0  0  0  0  0  # atno 10167 bound_to 10162
  156.2588  130.7197  151.1124 H   0  0  0  0  0  0  0  0  0  0  0  0  # atno 10718 bound_to 10713
  154.3456  135.2753  155.2400 H   0  0  0  0  0  0  0  0  0  0  0  0  # atno 10763 bound_to 10752
  154.4651  135.5897  153.6286 H   0  0  0  0  0  0  0  0  0  0  0  0  # atno 10764 bound_to 10752
  152.9854  135.6074  154.3661 H   0  0  0  0  0  0  0  0  0  0  0  0  # atno 10765 bound_to 10752
  140.9905  134.0546  157.3660 H   0  0  0  0  0  0  0  0  0  0  0  0  # atno 11005 bound_to 11000
  145.5956  139.1499  143.3158 LP  0  0  0  0  0  0  0  0  0  0  0  0  # atno 17320 bound_to 7965
  146.2072  140.6080  142.9076 LP  0  0  0  0  0  0  0  0  0  0  0  0  # atno 17321 bound_to 7965
  140.5113  144.1020  150.5996 LP  0  0  0  0  0  0  0  0  0  0  0  0  # atno 17342 bound_to 10162
  140.3947  143.2734  152.0019 LP  0  0  0  0  0  0  0  0  0  0  0  0  # atno 17343 bound_to 10162
  157.7243  131.0661  150.6002 LP  0  0  0  0  0  0  0  0  0  0  0  0  # atno 17370 bound_to 10713
  156.6088  130.4374  149.5867 LP  0  0  0  0  0  0  0  0  0  0  0  0  # atno 17371 bound_to 10713
  139.8990  135.0157  156.7175 LP  0  0  0  0  0  0  0  0  0  0  0  0  # atno 17394 bound_to 11000
  140.7048  133.9275  155.8046 LP  0  0  0  0  0  0  0  0  0  0  0  0  # atno 17395 bound_to 11000

$$$$
