AV-unprocessed.smi:1491|AV-procd|sdf|6034|dock5
  -GOLD-   22720 6133D 1   1.00000     0.00000
 Structure written by MMmdl.
 38 39  0  0  0  0  0  0  0  0  1 V2000
  147.1203  133.6843  155.0036 O   0  0  0  0  0  0  0  0  0  0  0  0
  147.4587  134.4695  154.1179 C   0  0  0  0  0  0  0  0  0  0  0  0
  148.4059  135.4066  154.2673 N   0  0  0  0  0  0  0  0  0  0  0  0
  149.1976  135.6186  155.4755 C   0  0  0  0  0  0  0  0  0  0  0  0
  150.6864  135.8495  155.1558 C   0  0  0  0  0  0  0  0  0  0  0  0
  151.0258  137.2570  155.0547 N   0  0  0  0  0  0  0  0  0  0  0  0
  152.0221  137.9319  155.7481 C   0  0  0  0  0  0  0  0  0  0  0  0
  151.9685  139.2438  155.3351 C   0  0  0  0  0  0  0  0  0  0  0  0
  150.9582  139.3969  154.3888 N   0  0  0  0  0  0  0  0  0  0  0  0
  150.4458  138.1784  154.2734 C   0  0  0  0  0  0  0  0  0  0  0  0
  146.9380  134.4868  152.8831 N   0  0  0  0  0  0  0  0  0  0  0  0
  145.9074  133.5840  152.3785 C   0  0  2  0  0  0  0  0  0  0  0  0
  146.4783  132.7371  151.2246 C   0  0  0  0  0  0  0  0  0  0  0  0
  145.4004  131.8356  150.6011 C   0  0  0  0  0  0  0  0  0  0  0  0
  144.1894  132.6617  150.1348 C   0  0  1  0  0  0  0  0  0  0  0  0
  143.1934  131.7964  149.6321 O   0  0  0  0  0  0  0  0  0  0  0  0
  143.6102  133.4963  151.2898 C   0  0  0  0  0  0  0  0  0  0  0  0
  144.6858  134.3996  151.9141 C   0  0  0  0  0  0  0  0  0  0  0  0
  148.6088  136.0059  153.4807 H   0  0  0  0  0  0  0  0  0  0  0  0
  148.7985  136.5011  155.9758 H   0  0  0  0  0  0  0  0  0  0  0  0
  149.0758  134.7925  156.1785 H   0  0  0  0  0  0  0  0  0  0  0  0
  151.3176  135.3863  155.9156 H   0  0  0  0  0  0  0  0  0  0  0  0
  150.9382  135.3735  154.2077 H   0  0  0  0  0  0  0  0  0  0  0  0
  152.6640  137.4384  156.4626 H   0  0  0  0  0  0  0  0  0  0  0  0
  152.5746  140.0828  155.6434 H   0  0  0  0  0  0  0  0  0  0  0  0
  149.6243  137.9515  153.6096 H   0  0  0  0  0  0  0  0  0  0  0  0
  147.2930  135.1719  152.2324 H   0  0  0  0  0  0  0  0  0  0  0  0
  145.5786  132.9041  153.1670 H   0  0  0  0  0  0  0  0  0  0  0  0
  146.8896  133.3909  150.4540 H   0  0  0  0  0  0  0  0  0  0  0  0
  147.3060  132.1244  151.5847 H   0  0  0  0  0  0  0  0  0  0  0  0
  145.8232  131.2828  149.7615 H   0  0  0  0  0  0  0  0  0  0  0  0
  145.0832  131.0922  151.3340 H   0  0  0  0  0  0  0  0  0  0  0  0
  144.4952  133.3268  149.3259 H   0  0  0  0  0  0  0  0  0  0  0  0
  142.4943  131.7428  150.2658 H   0  0  0  0  0  0  0  0  0  0  0  0
  142.7793  134.1061  150.9326 H   0  0  0  0  0  0  0  0  0  0  0  0
  143.2028  132.8365  152.0573 H   0  0  0  0  0  0  0  0  0  0  0  0
  144.2611  134.9474  152.7562 H   0  0  0  0  0  0  0  0  0  0  0  0
  144.9958  135.1480  151.1834 H   0  0  0  0  0  0  0  0  0  0  0  0
  1  2  2  0  0  0  0
  2  3  1  0  0  0  0
  2 11  1  0  0  0  0
  3  4  1  0  0  0  0
  3 19  1  0  0  0  0
  4  5  1  0  0  0  0
  4 20  1  0  0  0  0
  4 21  1  0  0  0  0
  5  6  1  0  0  0  0
  5 22  1  0  0  0  0
  5 23  1  0  0  0  0
  6 10  1  0  0  0  0
  6  7  1  0  0  0  0
  7  8  2  0  0  0  0
  7 24  1  0  0  0  0
  8  9  1  0  0  0  0
  8 25  1  0  0  0  0
  9 10  2  0  0  0  0
 10 26  1  0  0  0  0
 11 12  1  0  0  0  0
 11 27  1  0  0  0  0
 12 18  1  0  0  0  0
 12 13  1  0  0  0  0
 12 28  1  0  0  0  0
 13 14  1  0  0  0  0
 13 29  1  0  0  0  0
 13 30  1  0  0  0  0
 14 15  1  0  0  0  0
 14 31  1  0  0  0  0
 14 32  1  0  0  0  0
 15 16  1  0  0  0  0
 15 17  1  0  0  0  0
 15 33  1  0  0  0  0
 16 34  1  0  0  0  0
 17 18  1  0  0  0  0
 17 35  1  0  0  0  0
 17 36  1  0  0  0  0
 18 37  1  0  0  0  0
 18 38  1  0  0  0  0
M  END
> <s_m_source_file>
AV-unprocessed.smi

> <i_m_source_file_index>
1491

> <i_lp_mmshare_version>
43012

> <i_f3d_flags>
0

> <s_epik_input>
W0NIMl0xW0NIMl1bQ0BIXShbT0hdKVtDSDJdW0NIMl1bQ0BIXTFbTkhdQyg9TylbTkhdW0NIMl1bQ0gyXW4yW2NIXVtjSF1uW2NIXTI=

> <s_epik_cmdline>
J2VwaWtfcHl0aG9uJywgJy1waCcsICc3LjAnLCAnLXRuJywgJzgnLCAnLW1hJywgJzIwMCcsICctbWV0YWxfYmluZGluZycsICctaW1hZScsICc8aW5maWxlLm1hZT4nLCAnLW9tYWUnLCAnPG91dGZpbGUubWFlPic=

> <r_lp_tautomer_probability>
1

> <r_epik_Ionization_Penalty>
0.623245

> <r_epik_Ionization_Penalty_Charging>
0.623187

> <r_epik_Ionization_Penalty_Neutral>
5.75214e-05

> <r_epik_State_Penalty>
0.639392

> <r_epik_Charging_Adjusted_Penalty>
1.26258

> <i_epik_Tot_Q>
0

> <i_epik_Tot_abs_Q>
0

> <r_epik_Metal_State_Penalty>
0.307266

> <b_epik_Metal_Only>
0

> <s_lp_Force_Field>
OPLS_2005

> <r_lp_Energy>
7.54437

> <b_lp_Chiralities_Consistent>
1

> <s_lp_Variant>
AV-unprocessed.smi:1491-3

> <Gold.Version>
5.8.1

> <Gold.Id.Protein>
6NUR|6NUR_protein|mol2

> <Gold.PLP.Fitness>
47.2930

> <Gold.PLP.PLP>
-33.2600

> <Gold.PLP.part.hbond>
-5.0000

> <Gold.PLP.part.metal>
0.0000

> <Gold.PLP.part.buried>
-4.7675

> <Gold.PLP.part.nonpolar>
-24.0115

> <Gold.PLP.part.repulsive>
0.1719

> <Gold.PLP.ligand.clash>
0.0000

> <Gold.PLP.ligand.torsion>
0.3743

> <Gold.PLP.Chemscore.Hbond>
3.9235

> <Gold.PLP.Chemscore.CHOScore>
1.0000

> <Gold.PLP.Chemscore.Metal>
0.0000

> <Gold.Chemscore.Hbonds>
donor molecule, donor type, donor heavy atom, donor atom, acceptor molecule, acceptor atom, score
      L1  H     3    19       P1  7948  1.00
      L1  H    11    27       P1  7948  0.82
      L1  H    16    34       P1 10952  0.10
      P1  H  7989  7998       L1     9  0.95
      P1  H 10785 10796       L1    16  1.00
      L1  C    10    26       P1  7948  1.00

> <Gold.PLP.Chemscore.Internal.Correction>
0.0110

> <Gold.Rescore>
     Score         DG    S(hbond)    S(metal)    S(lipo)     H(rot)  DE(clash)    DE(int)     intcor
     18.37     -18.84       3.76        0.00      63.20       2.57       0.02       0.45       ----

> <Gold.Chemscore.Fitness>
18.3734

> <Gold.Chemscore.DG>
-18.8385

> <Gold.Chemscore.ZeroCoef>
-5.4800

> <Gold.Chemscore.Hbond>
3.7584

> <Gold.Chemscore.Metal>
0.0000

> <Gold.Chemscore.Lipo>
63.1989

> <Gold.Chemscore.Internal_Hbond>
0.0000

> <Gold.Chemscore.DEClash>
0.0197

> <Gold.Chemscore.DEInternal>
0.4454

> <Gold.Chemscore.Rot>
2.5738

> <Gold.Chemscore.Internal.Correction>
   9.000000E+99

> <Gold.Chemscore.Hbonds>
donor molecule, donor type, donor heavy atom, donor atom, acceptor molecule, acceptor atom, score
      L1  H     3    19       P1  7948  0.95
      L1  H    11    27       P1  7948  0.79
      L1  H    16    34       P1 10952  0.07
      P1  H  7989  7998       L1     9  0.22
      P1  H 10785 10796       L1    16  0.55

> <Gold.Chemscore.Hbond.Weighted>
-12.5531

> <Gold.Chemscore.Metal.Weighted>
-0.0000

> <Gold.Chemscore.Lipo.Weighted>
-7.3943

> <Gold.Chemscore.Internal_Hbond.Weighted>
0.0000

> <Gold.Chemscore.DEClash.Weighted>
0.0197

> <Gold.Chemscore.DEInternal.Weighted>
0.4454

> <Gold.Chemscore.Rot.Weighted>
6.5890

> <Gold.Chemscore.Internal.Correction.Weighted>
   9.000000E+99

> <Gold.Protein.RotatedTorsions>
[ 6907 6896 6895 6894 ] final   64.38 input  -60.11 | X-H torsion
[ 7974 7965 7964 7962 ] final  108.89 input  175.53 | X-H torsion
[ 8008 7997 7996 7995 ] final  173.67 input   59.86 | X-H torsion
[ 10167 10162 10161 10158 ] final   12.02 input  -65.29 | X-H torsion
[ 10718 10713 10712 10709 ] final -103.86 input   66.30 | X-H torsion
[ 10763 10752 10751 10750 ] final -169.61 input  -60.55 | X-H torsion
[ 11005 11000 10999 10996 ] final -129.49 input  -57.11 | X-H torsion

> <Gold.Protein.ActiveResidues>
 VAL166  LYS551  ARG553  GLY616  TRP617  ASP618  TYR619  PRO620  LYS621  CYS622 
 ASP623  PHE694  ASN695  SER759  ASP760  ASP761  ALA762  ILE779  LEU786  VAL792 
 PHE793  MET794  SER795  GLU796  ALA797  LYS798  CYS799  TRP800  GLU811  SER814 

> <Gold.Protein.RotatedAtoms>
  152.4327  134.5747  159.9930 H   0  0  0  0  0  0  0  0  0  0  0  0  # atno 6907 bound_to 6896
  151.5866  133.3365  159.3027 H   0  0  0  0  0  0  0  0  0  0  0  0  # atno 6908 bound_to 6896
  150.8221  134.7469  159.6846 H   0  0  0  0  0  0  0  0  0  0  0  0  # atno 6909 bound_to 6896
  145.2749  139.2653  143.3947 H   0  0  0  0  0  0  0  0  0  0  0  0  # atno 7974 bound_to 7965
  156.1052  140.1454  156.9414 H   0  0  0  0  0  0  0  0  0  0  0  0  # atno 8008 bound_to 7997
  154.4729  140.0904  156.7234 H   0  0  0  0  0  0  0  0  0  0  0  0  # atno 8009 bound_to 7997
  155.4692  140.3441  155.4325 H   0  0  0  0  0  0  0  0  0  0  0  0  # atno 8010 bound_to 7997
  140.6095  143.8438  150.7049 H   0  0  0  0  0  0  0  0  0  0  0  0  # atno 10167 bound_to 10162
  156.0281  130.5487  150.7313 H   0  0  0  0  0  0  0  0  0  0  0  0  # atno 10718 bound_to 10713
  154.6505  135.2910  154.9993 H   0  0  0  0  0  0  0  0  0  0  0  0  # atno 10763 bound_to 10752
  154.1088  135.6565  153.4885 H   0  0  0  0  0  0  0  0  0  0  0  0  # atno 10764 bound_to 10752
  153.0374  135.5260  154.7410 H   0  0  0  0  0  0  0  0  0  0  0  0  # atno 10765 bound_to 10752
  140.9427  134.1172  157.4136 H   0  0  0  0  0  0  0  0  0  0  0  0  # atno 11005 bound_to 11000
  146.3235  140.3201  142.8632 LP  0  0  0  0  0  0  0  0  0  0  0  0  # atno 17320 bound_to 7965
  144.9303  140.7968  143.5693 LP  0  0  0  0  0  0  0  0  0  0  0  0  # atno 17321 bound_to 7965
  140.2003  143.3964  152.1796 LP  0  0  0  0  0  0  0  0  0  0  0  0  # atno 17342 bound_to 10162
  139.5350  144.7200  151.4925 LP  0  0  0  0  0  0  0  0  0  0  0  0  # atno 17343 bound_to 10162
  157.4905  131.0910  151.0432 LP  0  0  0  0  0  0  0  0  0  0  0  0  # atno 17370 bound_to 10713
  157.0840  130.5915  149.5426 LP  0  0  0  0  0  0  0  0  0  0  0  0  # atno 17371 bound_to 10713
  139.8825  135.0041  156.6231 LP  0  0  0  0  0  0  0  0  0  0  0  0  # atno 17394 bound_to 11000
  140.7712  133.8737  155.8493 LP  0  0  0  0  0  0  0  0  0  0  0  0  # atno 17395 bound_to 11000

$$$$
