AV-unprocessed.smi:2508|AV-procd|sdf|9865|dock10
  -GOLD-   2272013493D 1   1.00000     0.00000
 Structure written by MMmdl.
 46 47  0  0  0  0  0  0  0  0  1 V2000
  153.7444  141.4799  160.7385 C   0  0  0  0  0  0  0  0  0  0  0  0
  152.7248  142.4555  160.3428 N   0  0  0  0  0  0  0  0  0  0  0  0
  152.1066  142.2875  159.0882 C   0  0  0  0  0  0  0  0  0  0  0  0
  151.1568  143.1341  158.6324 C   0  0  0  0  0  0  0  0  0  0  0  0
  150.4929  143.0319  157.4004 N   0  0  0  0  0  0  0  0  0  0  0  0
  150.2776  141.9487  156.6236 C   0  0  0  0  0  0  0  0  0  0  0  0
  150.6656  140.8083  156.8665 O   0  0  0  0  0  0  0  0  0  0  0  0
  149.5842  142.2150  155.5031 N   0  0  0  0  0  0  0  0  0  0  0  0
  149.1846  141.2741  154.4548 C   0  0  0  0  0  0  0  0  0  0  0  0
  147.6478  141.0370  154.4181 C   0  0  0  0  0  0  0  0  0  0  0  0
  146.9352  142.3277  153.9531 C   0  0  0  0  0  0  0  0  0  0  0  0
  147.3161  139.9214  153.4004 C   0  0  0  0  0  0  0  0  0  0  0  0
  147.0741  140.6256  155.8123 C   0  0  0  0  0  0  0  0  0  0  0  0
  147.7330  139.4273  156.5121 C   0  0  0  0  0  0  0  0  0  0  0  0
  146.7737  139.0616  157.6494 C   0  0  0  0  0  0  0  0  0  0  0  0
  145.3900  139.5803  157.2299 C   0  0  0  0  0  0  0  0  0  0  0  0
  145.5793  140.2747  155.8761 C   0  0  0  0  0  0  0  0  0  0  0  0
  150.7912  144.2337  159.5001 C   0  0  0  0  0  0  0  0  0  0  0  0
  151.3775  144.4015  160.7014 C   0  0  0  0  0  0  0  0  0  0  0  0
  152.4085  143.4809  161.1854 C   0  0  0  0  0  0  0  0  0  0  0  0
  152.9539  143.6220  162.2803 O   0  0  0  0  0  0  0  0  0  0  0  0
  153.8987  140.7003  159.9919 H   0  0  0  0  0  0  0  0  0  0  0  0
  153.4609  140.9852  161.6687 H   0  0  0  0  0  0  0  0  0  0  0  0
  154.7046  141.9735  160.8954 H   0  0  0  0  0  0  0  0  0  0  0  0
  152.4637  141.4265  158.5471 H   0  0  0  0  0  0  0  0  0  0  0  0
  150.1261  143.9040  157.0477 H   0  0  0  0  0  0  0  0  0  0  0  0
  149.3154  143.1770  155.3556 H   0  0  0  0  0  0  0  0  0  0  0  0
  149.5344  141.6663  153.5000 H   0  0  0  0  0  0  0  0  0  0  0  0
  149.7118  140.3364  154.6286 H   0  0  0  0  0  0  0  0  0  0  0  0
  145.8508  142.2126  153.9724 H   0  0  0  0  0  0  0  0  0  0  0  0
  147.2079  142.5991  152.9329 H   0  0  0  0  0  0  0  0  0  0  0  0
  147.1868  143.1767  154.5891 H   0  0  0  0  0  0  0  0  0  0  0  0
  146.2501  139.6913  153.3972 H   0  0  0  0  0  0  0  0  0  0  0  0
  147.8505  138.9986  153.6276 H   0  0  0  0  0  0  0  0  0  0  0  0
  147.5837  140.2047  152.3821 H   0  0  0  0  0  0  0  0  0  0  0  0
  147.2125  141.4790  156.4793 H   0  0  0  0  0  0  0  0  0  0  0  0
  147.8140  138.5751  155.8385 H   0  0  0  0  0  0  0  0  0  0  0  0
  148.7339  139.6525  156.8816 H   0  0  0  0  0  0  0  0  0  0  0  0
  146.7686  137.9877  157.8379 H   0  0  0  0  0  0  0  0  0  0  0  0
  147.0843  139.5526  158.5724 H   0  0  0  0  0  0  0  0  0  0  0  0
  144.6576  138.7752  157.1618 H   0  0  0  0  0  0  0  0  0  0  0  0
  145.0228  140.2917  157.9707 H   0  0  0  0  0  0  0  0  0  0  0  0
  144.9374  141.1504  155.7773 H   0  0  0  0  0  0  0  0  0  0  0  0
  145.3058  139.5769  155.0861 H   0  0  0  0  0  0  0  0  0  0  0  0
  150.0347  144.9367  159.1825 H   0  0  0  0  0  0  0  0  0  0  0  0
  151.0816  145.2333  161.3235 H   0  0  0  0  0  0  0  0  0  0  0  0
  1  2  1  0  0  0  0
  1 22  1  0  0  0  0
  1 23  1  0  0  0  0
  1 24  1  0  0  0  0
  2 20  1  0  0  0  0
  2  3  1  0  0  0  0
  3  4  2  0  0  0  0
  3 25  1  0  0  0  0
  4  5  1  0  0  0  0
  4 18  1  0  0  0  0
  5  6  1  0  0  0  0
  5 26  1  0  0  0  0
  6  7  2  0  0  0  0
  6  8  1  0  0  0  0
  8  9  1  0  0  0  0
  8 27  1  0  0  0  0
  9 10  1  0  0  0  0
  9 28  1  0  0  0  0
  9 29  1  0  0  0  0
 10 11  1  0  0  0  0
 10 12  1  0  0  0  0
 10 13  1  0  0  0  0
 11 30  1  0  0  0  0
 11 31  1  0  0  0  0
 11 32  1  0  0  0  0
 12 33  1  0  0  0  0
 12 34  1  0  0  0  0
 12 35  1  0  0  0  0
 13 17  1  0  0  0  0
 13 14  1  0  0  0  0
 13 36  1  0  0  0  0
 14 15  1  0  0  0  0
 14 37  1  0  0  0  0
 14 38  1  0  0  0  0
 15 16  1  0  0  0  0
 15 39  1  0  0  0  0
 15 40  1  0  0  0  0
 16 17  1  0  0  0  0
 16 41  1  0  0  0  0
 16 42  1  0  0  0  0
 17 43  1  0  0  0  0
 17 44  1  0  0  0  0
 18 19  2  0  0  0  0
 18 45  1  0  0  0  0
 19 20  1  0  0  0  0
 19 46  1  0  0  0  0
 20 21  2  0  0  0  0
M  END
> <s_m_source_file>
AV-unprocessed.smi

> <i_m_source_file_index>
2508

> <i_lp_mmshare_version>
43012

> <i_f3d_flags>
0

> <s_epik_input>
Tz1jMVtjSF1bY0hdYyhbY0hdbjFbQ0gzXSlbTkhdQyg9TylbTkhdW0NIMl1DKFtDSDNdKShbQ0gzXSlbQ0hdMltDSDJdW0NIMl1bQ0gyXVtDSDJdMg==

> <s_epik_cmdline>
J2VwaWtfcHl0aG9uJywgJy1waCcsICc3LjAnLCAnLXRuJywgJzgnLCAnLW1hJywgJzIwMCcsICctbWV0YWxfYmluZGluZycsICctaW1hZScsICc8aW5maWxlLm1hZT4nLCAnLW9tYWUnLCAnPG91dGZpbGUubWFlPic=

> <r_lp_tautomer_probability>
1

> <r_epik_Ionization_Penalty>
2.69566e-05

> <r_epik_Ionization_Penalty_Charging>
5.95678e-06

> <r_epik_Ionization_Penalty_Neutral>
2.09998e-05

> <r_epik_State_Penalty>
-0

> <r_epik_Charging_Adjusted_Penalty>
5.95678e-06

> <i_epik_Tot_Q>
0

> <i_epik_Tot_abs_Q>
0

> <r_epik_Metal_State_Penalty>
-0

> <b_epik_Metal_Only>
0

> <s_lp_Force_Field>
OPLS_2005

> <r_lp_Energy>
55.0143

> <b_lp_Chiralities_Consistent>
1

> <s_lp_Variant>
AV-unprocessed.smi:2508-1

> <Gold.Version>
5.8.1

> <Gold.Id.Protein>
6NUR|6NUR_protein|mol2

> <Gold.PLP.Fitness>
43.9080

> <Gold.PLP.PLP>
-38.7617

> <Gold.PLP.part.hbond>
-2.0000

> <Gold.PLP.part.metal>
0.0000

> <Gold.PLP.part.buried>
-3.8057

> <Gold.PLP.part.nonpolar>
-32.4431

> <Gold.PLP.part.repulsive>
0.3637

> <Gold.PLP.ligand.clash>
0.0000

> <Gold.PLP.ligand.torsion>
0.2535

> <Gold.PLP.Chemscore.Hbond>
1.8800

> <Gold.PLP.Chemscore.CHOScore>
0.0000

> <Gold.PLP.Chemscore.Metal>
0.0000

> <Gold.Chemscore.Hbonds>
donor molecule, donor type, donor heavy atom, donor atom, acceptor molecule, acceptor atom, score
      L1  H     5    26       P1  8028  0.90
      L1  H     8    27       P1  8028  1.00

> <Gold.PLP.Chemscore.Internal.Correction>
0.0133

> <Gold.Rescore>
     Score         DG    S(hbond)    S(metal)    S(lipo)     H(rot)  DE(clash)    DE(int)     intcor
     16.47     -17.74       1.94        0.00      79.57       1.37       0.06       1.22       ----

> <Gold.Chemscore.Fitness>
16.4675

> <Gold.Chemscore.DG>
-17.7424

> <Gold.Chemscore.ZeroCoef>
-5.4800

> <Gold.Chemscore.Hbond>
1.9372

> <Gold.Chemscore.Metal>
0.0000

> <Gold.Chemscore.Lipo>
79.5726

> <Gold.Chemscore.Internal_Hbond>
0.0000

> <Gold.Chemscore.DEClash>
0.0578

> <Gold.Chemscore.DEInternal>
1.2171

> <Gold.Chemscore.Rot>
1.3742

> <Gold.Chemscore.Internal.Correction>
   9.000000E+99

> <Gold.Chemscore.Hbonds>
donor molecule, donor type, donor heavy atom, donor atom, acceptor molecule, acceptor atom, score
      L1  H     5    26       P1  8028  0.80
      L1  H     8    27       P1  8028  0.99

> <Gold.Chemscore.Hbond.Weighted>
-6.4703

> <Gold.Chemscore.Metal.Weighted>
-0.0000

> <Gold.Chemscore.Lipo.Weighted>
-9.3100

> <Gold.Chemscore.Internal_Hbond.Weighted>
0.0000

> <Gold.Chemscore.DEClash.Weighted>
0.0578

> <Gold.Chemscore.DEInternal.Weighted>
1.2171

> <Gold.Chemscore.Rot.Weighted>
3.5179

> <Gold.Chemscore.Internal.Correction.Weighted>
   9.000000E+99

> <Gold.Protein.RotatedTorsions>
[ 6907 6896 6895 6894 ] final  -10.43 input  -60.11 | X-H torsion
[ 7974 7965 7964 7962 ] final -177.54 input  175.53 | X-H torsion
[ 8008 7997 7996 7995 ] final    1.77 input   59.86 | X-H torsion
[ 10167 10162 10161 10158 ] final -145.37 input  -65.29 | X-H torsion
[ 10718 10713 10712 10709 ] final   26.78 input   66.30 | X-H torsion
[ 10763 10752 10751 10750 ] final -171.73 input  -60.55 | X-H torsion
[ 11005 11000 10999 10996 ] final -175.63 input  -57.11 | X-H torsion

> <Gold.Protein.ActiveResidues>
 VAL166  LYS551  ARG553  GLY616  TRP617  ASP618  TYR619  PRO620  LYS621  CYS622 
 ASP623  PHE694  ASN695  SER759  ASP760  ASP761  ALA762  ILE779  LEU786  VAL792 
 PHE793  MET794  SER795  GLU796  ALA797  LYS798  CYS799  TRP800  GLU811  SER814 

> <Gold.Protein.RotatedAtoms>
  151.4021  135.0972  159.9558 H   0  0  0  0  0  0  0  0  0  0  0  0  # atno 6907 bound_to 6896
  152.5047  133.8878  159.7389 H   0  0  0  0  0  0  0  0  0  0  0  0  # atno 6908 bound_to 6896
  150.9354  133.6661  159.2830 H   0  0  0  0  0  0  0  0  0  0  0  0  # atno 6909 bound_to 6896
  144.7128  140.1004  143.6417 H   0  0  0  0  0  0  0  0  0  0  0  0  # atno 7974 bound_to 7965
  154.6837  140.2638  155.6882 H   0  0  0  0  0  0  0  0  0  0  0  0  # atno 8008 bound_to 7997
  156.2706  140.2805  156.1313 H   0  0  0  0  0  0  0  0  0  0  0  0  # atno 8009 bound_to 7997
  155.0995  140.0374  157.2683 H   0  0  0  0  0  0  0  0  0  0  0  0  # atno 8010 bound_to 7997
  139.7812  143.8098  152.2639 H   0  0  0  0  0  0  0  0  0  0  0  0  # atno 10167 bound_to 10162
  157.2115  130.6936  149.6230 H   0  0  0  0  0  0  0  0  0  0  0  0  # atno 10718 bound_to 10713
  154.6273  135.2882  155.0257 H   0  0  0  0  0  0  0  0  0  0  0  0  # atno 10763 bound_to 10752
  154.1431  135.6515  153.4950 H   0  0  0  0  0  0  0  0  0  0  0  0  # atno 10764 bound_to 10752
  153.0263  135.5337  154.7086 H   0  0  0  0  0  0  0  0  0  0  0  0  # atno 10765 bound_to 10752
  140.4612  134.6253  157.4843 H   0  0  0  0  0  0  0  0  0  0  0  0  # atno 11005 bound_to 11000
  145.9543  139.2755  143.1194 LP  0  0  0  0  0  0  0  0  0  0  0  0  # atno 17320 bound_to 7965
  145.9290  140.9062  143.0366 LP  0  0  0  0  0  0  0  0  0  0  0  0  # atno 17321 bound_to 7965
  139.8161  144.7315  150.9633 LP  0  0  0  0  0  0  0  0  0  0  0  0  # atno 17342 bound_to 10162
  140.7818  143.4203  151.0851 LP  0  0  0  0  0  0  0  0  0  0  0  0  # atno 17343 bound_to 10162
  155.9690  130.4550  150.5870 LP  0  0  0  0  0  0  0  0  0  0  0  0  # atno 17370 bound_to 10713
  157.3668  131.0759  151.1591 LP  0  0  0  0  0  0  0  0  0  0  0  0  # atno 17371 bound_to 10713
  139.9944  134.6934  155.9634 LP  0  0  0  0  0  0  0  0  0  0  0  0  # atno 17394 bound_to 11000
  141.1620  133.6538  156.4352 LP  0  0  0  0  0  0  0  0  0  0  0  0  # atno 17395 bound_to 11000

$$$$
