AV-unprocessed.smi:851|AV-procd|sdf|3950|dock10
  -GOLD-   22720 1423D 1   1.00000     0.00000
 Structure written by MMmdl.
 34 35  0  0  0  0  0  0  0  0  1 V2000
  146.3695  132.8830  151.7643 C   0  0  0  0  0  0  0  0  0  0  0  0
  147.3912  133.4039  152.6069 O   0  0  0  0  0  0  0  0  0  0  0  0
  147.9842  132.5594  153.5264 C   0  0  0  0  0  0  0  0  0  0  0  0
  147.5639  131.2709  153.5866 N   0  0  0  0  0  0  0  0  0  0  0  0
  148.1406  130.4491  154.4877 C   0  0  0  0  0  0  0  0  0  0  0  0
  149.1521  130.8647  155.3730 C   0  0  0  0  0  0  0  0  0  0  0  0
  149.5899  132.2006  155.3121 C   0  0  0  0  0  0  0  0  0  0  0  0
  149.0040  133.0712  154.3616 C   0  0  0  0  0  0  0  0  0  0  0  0
  149.3519  134.4420  154.2213 N   0  0  0  0  0  0  0  0  0  0  0  0
  150.2173  135.1786  154.9440 C   0  0  0  0  0  0  0  0  0  0  0  0
  150.8539  134.7662  155.9109 O   0  0  0  0  0  0  0  0  0  0  0  0
  150.3609  136.4417  154.5032 N   0  0  0  0  0  0  0  0  0  0  0  0
  151.2130  137.4987  155.0517 C   0  0  1  0  0  0  0  0  0  0  0  0
  150.7901  138.8808  154.5199 C   0  0  0  0  0  0  0  0  0  0  0  0
  151.4661  139.9638  155.3705 C   0  0  0  0  0  0  0  0  0  0  0  0
  151.6612  139.2470  157.0468 S   0  0  0  0  0  0  0  0  0  0  0  0
  153.0889  139.2457  157.4001 O   0  0  0  0  0  0  0  0  0  0  0  0
  150.6570  139.8246  157.9526 O   0  0  0  0  0  0  0  0  0  0  0  0
  151.1485  137.5502  156.5872 C   0  0  0  0  0  0  0  0  0  0  0  0
  146.0131  133.6717  151.1018 H   0  0  0  0  0  0  0  0  0  0  0  0
  145.5166  132.5280  152.3445 H   0  0  0  0  0  0  0  0  0  0  0  0
  146.7424  132.0700  151.1395 H   0  0  0  0  0  0  0  0  0  0  0  0
  147.7807  129.4310  154.5076 H   0  0  0  0  0  0  0  0  0  0  0  0
  149.5794  130.1755  156.0861 H   0  0  0  0  0  0  0  0  0  0  0  0
  150.3510  132.5303  156.0018 H   0  0  0  0  0  0  0  0  0  0  0  0
  148.9567  134.9006  153.4133 H   0  0  0  0  0  0  0  0  0  0  0  0
  149.8310  136.6902  153.6800 H   0  0  0  0  0  0  0  0  0  0  0  0
  152.2487  137.3365  154.7472 H   0  0  0  0  0  0  0  0  0  0  0  0
  151.0265  138.9985  153.4619 H   0  0  0  0  0  0  0  0  0  0  0  0
  149.7087  138.9871  154.6176 H   0  0  0  0  0  0  0  0  0  0  0  0
  152.4601  140.1930  154.9857 H   0  0  0  0  0  0  0  0  0  0  0  0
  150.8897  140.8878  155.4187 H   0  0  0  0  0  0  0  0  0  0  0  0
  150.1284  137.4033  156.9440 H   0  0  0  0  0  0  0  0  0  0  0  0
  151.7955  136.8196  157.0735 H   0  0  0  0  0  0  0  0  0  0  0  0
  1  2  1  0  0  0  0
  1 20  1  0  0  0  0
  1 21  1  0  0  0  0
  1 22  1  0  0  0  0
  2  3  1  0  0  0  0
  3  8  1  0  0  0  0
  3  4  2  0  0  0  0
  4  5  1  0  0  0  0
  5  6  2  0  0  0  0
  5 23  1  0  0  0  0
  6  7  1  0  0  0  0
  6 24  1  0  0  0  0
  7  8  2  0  0  0  0
  7 25  1  0  0  0  0
  8  9  1  0  0  0  0
  9 10  1  0  0  0  0
  9 26  1  0  0  0  0
 10 11  2  0  0  0  0
 10 12  1  0  0  0  0
 12 13  1  0  0  0  0
 12 27  1  0  0  0  0
 13 19  1  0  0  0  0
 13 14  1  0  0  0  0
 13 28  1  0  0  0  0
 14 15  1  0  0  0  0
 14 29  1  0  0  0  0
 14 30  1  0  0  0  0
 15 16  1  0  0  0  0
 15 31  1  0  0  0  0
 15 32  1  0  0  0  0
 16 17  2  0  0  0  0
 16 18  2  0  0  0  0
 16 19  1  0  0  0  0
 19 33  1  0  0  0  0
 19 34  1  0  0  0  0
M  END
> <s_m_source_file>
AV-unprocessed.smi

> <i_m_source_file_index>
851

> <i_lp_mmshare_version>
43012

> <i_f3d_flags>
0

> <s_epik_input>
W0NIM11PYzFuW2NIXVtjSF1bY0hdYzFbTkhdQyg9TylbTkhdW0NAQEhdKFtDSDJdMilbQ0gyXVtDSDJdUzIoPU8pPU8=

> <s_epik_cmdline>
J2VwaWtfcHl0aG9uJywgJy1waCcsICc3LjAnLCAnLXRuJywgJzgnLCAnLW1hJywgJzIwMCcsICctbWV0YWxfYmluZGluZycsICctaW1hZScsICc8aW5maWxlLm1hZT4nLCAnLW9tYWUnLCAnPG91dGZpbGUubWFlPic=

> <r_lp_tautomer_probability>
1

> <r_epik_Ionization_Penalty>
7.64927e-05

> <r_epik_Ionization_Penalty_Charging>
0

> <r_epik_Ionization_Penalty_Neutral>
7.64927e-05

> <r_epik_State_Penalty>
-0

> <r_epik_Charging_Adjusted_Penalty>
0

> <i_epik_Tot_Q>
0

> <i_epik_Tot_abs_Q>
0

> <r_epik_Metal_State_Penalty>
-0

> <b_epik_Metal_Only>
0

> <s_lp_Force_Field>
OPLS_2005

> <r_lp_Energy>
17.9576

> <b_lp_Chiralities_Consistent>
1

> <s_lp_Variant>
AV-unprocessed.smi:851-2

> <Gold.Version>
5.8.1

> <Gold.Id.Protein>
6NUR|6NUR_protein|mol2

> <Gold.PLP.Fitness>
38.4474

> <Gold.PLP.PLP>
-30.5101

> <Gold.PLP.part.hbond>
-4.9479

> <Gold.PLP.part.metal>
0.0000

> <Gold.PLP.part.buried>
-2.1677

> <Gold.PLP.part.nonpolar>
-24.6019

> <Gold.PLP.part.repulsive>
0.4518

> <Gold.PLP.ligand.clash>
0.0000

> <Gold.PLP.ligand.torsion>
0.2196

> <Gold.PLP.Chemscore.Hbond>
2.7920

> <Gold.PLP.Chemscore.CHOScore>
0.0000

> <Gold.PLP.Chemscore.Metal>
0.0000

> <Gold.Chemscore.Hbonds>
donor molecule, donor type, donor heavy atom, donor atom, acceptor molecule, acceptor atom, score
      L1  H     9    26       P1  7948  1.00
      L1  H    12    27       P1  7948  0.99
      P1  H  7997  8010       L1    17  1.00

> <Gold.PLP.Chemscore.Internal.Correction>
0.0006

> <Gold.Rescore>
     Score         DG    S(hbond)    S(metal)    S(lipo)     H(rot)  DE(clash)    DE(int)     intcor
     12.75     -15.41       2.25        0.00      49.40       1.31       0.04       2.62       ----

> <Gold.Chemscore.Fitness>
12.7538

> <Gold.Chemscore.DG>
-15.4141

> <Gold.Chemscore.ZeroCoef>
-5.4800

> <Gold.Chemscore.Hbond>
2.2487

> <Gold.Chemscore.Metal>
0.0000

> <Gold.Chemscore.Lipo>
49.3967

> <Gold.Chemscore.Internal_Hbond>
0.0000

> <Gold.Chemscore.DEClash>
0.0407

> <Gold.Chemscore.DEInternal>
2.6195

> <Gold.Chemscore.Rot>
1.3109

> <Gold.Chemscore.Internal.Correction>
   9.000000E+99

> <Gold.Chemscore.Hbonds>
donor molecule, donor type, donor heavy atom, donor atom, acceptor molecule, acceptor atom, score
      L1  H     9    26       P1  7948  0.28
      L1  H    12    27       P1  7948  0.39
      P1  H  7997  8010       L1    17  1.00

> <Gold.Chemscore.Hbond.Weighted>
-7.5106

> <Gold.Chemscore.Metal.Weighted>
-0.0000

> <Gold.Chemscore.Lipo.Weighted>
-5.7794

> <Gold.Chemscore.Internal_Hbond.Weighted>
0.0000

> <Gold.Chemscore.DEClash.Weighted>
0.0407

> <Gold.Chemscore.DEInternal.Weighted>
2.6195

> <Gold.Chemscore.Rot.Weighted>
3.3559

> <Gold.Chemscore.Internal.Correction.Weighted>
   9.000000E+99

> <Gold.Protein.RotatedTorsions>
[ 6907 6896 6895 6894 ] final   -7.06 input  -60.11 | X-H torsion
[ 7974 7965 7964 7962 ] final -174.38 input  175.53 | X-H torsion
[ 8008 7997 7996 7995 ] final   48.04 input   59.86 | X-H torsion
[ 10167 10162 10161 10158 ] final   40.95 input  -65.29 | X-H torsion
[ 10718 10713 10712 10709 ] final  -22.96 input   66.30 | X-H torsion
[ 10763 10752 10751 10750 ] final -106.30 input  -60.55 | X-H torsion
[ 11005 11000 10999 10996 ] final  131.80 input  -57.11 | X-H torsion

> <Gold.Protein.ActiveResidues>
 VAL166  LYS551  ARG553  GLY616  TRP617  ASP618  TYR619  PRO620  LYS621  CYS622 
 ASP623  PHE694  ASN695  SER759  ASP760  ASP761  ALA762  ILE779  LEU786  VAL792 
 PHE793  MET794  SER795  GLU796  ALA797  LYS798  CYS799  TRP800  GLU811  SER814 

> <Gold.Protein.RotatedAtoms>
  151.4556  135.1034  159.9710 H   0  0  0  0  0  0  0  0  0  0  0  0  # atno 6907 bound_to 6896
  152.4872  133.8399  159.7158 H   0  0  0  0  0  0  0  0  0  0  0  0  # atno 6908 bound_to 6896
  150.8992  133.7081  159.2911 H   0  0  0  0  0  0  0  0  0  0  0  0  # atno 6909 bound_to 6896
  144.7132  140.1481  143.6386 H   0  0  0  0  0  0  0  0  0  0  0  0  # atno 7974 bound_to 7965
  155.3790  140.3427  155.4246 H   0  0  0  0  0  0  0  0  0  0  0  0  # atno 8008 bound_to 7997
  156.1621  140.1604  156.8628 H   0  0  0  0  0  0  0  0  0  0  0  0  # atno 8009 bound_to 7997
  154.5149  140.0781  156.8044 H   0  0  0  0  0  0  0  0  0  0  0  0  # atno 8010 bound_to 7997
  140.3692  144.2127  150.6134 H   0  0  0  0  0  0  0  0  0  0  0  0  # atno 10167 bound_to 10162
  156.4975  130.4580  149.6720 H   0  0  0  0  0  0  0  0  0  0  0  0  # atno 10718 bound_to 10713
  154.8003  135.4717  154.0259 H   0  0  0  0  0  0  0  0  0  0  0  0  # atno 10763 bound_to 10752
  153.1770  135.6834  153.8536 H   0  0  0  0  0  0  0  0  0  0  0  0  # atno 10764 bound_to 10752
  153.8099  135.3218  155.3377 H   0  0  0  0  0  0  0  0  0  0  0  0  # atno 10765 bound_to 10752
  139.9752  134.9565  156.9491 H   0  0  0  0  0  0  0  0  0  0  0  0  # atno 11005 bound_to 11000
  145.9141  139.2505  143.1420 LP  0  0  0  0  0  0  0  0  0  0  0  0  # atno 17320 bound_to 7965
  145.9686  140.8778  143.0174 LP  0  0  0  0  0  0  0  0  0  0  0  0  # atno 17321 bound_to 7965
  140.5050  143.2306  151.8621 LP  0  0  0  0  0  0  0  0  0  0  0  0  # atno 17342 bound_to 10162
  139.4805  144.5015  151.9053 LP  0  0  0  0  0  0  0  0  0  0  0  0  # atno 17343 bound_to 10162
  156.3366  130.7359  151.2298 LP  0  0  0  0  0  0  0  0  0  0  0  0  # atno 17370 bound_to 10713
  157.7467  131.0415  150.4650 LP  0  0  0  0  0  0  0  0  0  0  0  0  # atno 17371 bound_to 10713
  140.5210  134.0907  155.7292 LP  0  0  0  0  0  0  0  0  0  0  0  0  # atno 17394 bound_to 11000
  141.1429  133.9106  157.2283 LP  0  0  0  0  0  0  0  0  0  0  0  0  # atno 17395 bound_to 11000

$$$$
