AV-unprocessed.smi:2033|AV-procd|sdf|8259|dock6
  -GOLD-   2272010533D 1   1.00000     0.00000
 Structure written by MMmdl.
 33 34  0  0  0  0  0  0  0  0  1 V2000
  146.6770  142.6835  153.7213 C   0  0  0  0  0  0  0  0  0  0  0  0
  146.6705  141.1938  153.6732 C   0  0  0  0  0  0  0  0  0  0  0  0
  146.3991  140.4349  154.7421 N   0  0  0  0  0  0  0  0  0  0  0  0
  146.4556  139.0787  154.4523 N   0  0  0  0  0  0  0  0  0  0  0  0
  146.7692  138.8543  153.1688 C   0  0  0  0  0  0  0  0  0  0  0  0
  146.8938  137.5582  152.6021 N   0  0  0  0  0  0  0  0  0  0  0  0
  145.9330  136.6375  152.4086 C   0  0  0  0  0  0  0  0  0  0  0  0
  144.7455  136.7748  152.7035 O   0  0  0  0  0  0  0  0  0  0  0  0
  146.4318  135.5279  151.8442 N   0  0  0  0  0  0  0  0  0  0  0  0
  145.6619  134.3423  151.4674 C   0  0  2  0  0  0  0  0  0  0  0  0
  146.5923  133.2426  150.8947 C   0  0  0  0  0  0  0  0  0  0  0  0
  145.9251  132.2081  149.9641 C   0  0  0  0  0  0  0  0  0  0  0  0
  144.6751  131.5087  150.5356 C   0  0  0  0  0  0  0  0  0  0  0  0
  143.5200  132.4235  151.0104 C   0  0  0  0  0  0  0  0  0  0  0  0
  143.5110  133.7539  150.4024 N   0  0  0  0  0  0  0  0  0  0  0  0
  144.4484  134.6994  150.5879 C   0  0  0  0  0  0  0  0  0  0  0  0
  144.3588  135.8060  150.0577 O   0  0  0  0  0  0  0  0  0  0  0  0
  147.0255  140.2969  152.2019 S   0  0  0  0  0  0  0  0  0  0  0  0
  146.2123  143.0409  154.6408 H   0  0  0  0  0  0  0  0  0  0  0  0
  146.1244  143.0870  152.8727 H   0  0  0  0  0  0  0  0  0  0  0  0
  147.7018  143.0522  153.6807 H   0  0  0  0  0  0  0  0  0  0  0  0
  147.8248  137.3030  152.3068 H   0  0  0  0  0  0  0  0  0  0  0  0
  147.4187  135.5037  151.6322 H   0  0  0  0  0  0  0  0  0  0  0  0
  145.2356  133.9571  152.3947 H   0  0  0  0  0  0  0  0  0  0  0  0
  147.4031  133.7111  150.3349 H   0  0  0  0  0  0  0  0  0  0  0  0
  147.0719  132.7212  151.7239 H   0  0  0  0  0  0  0  0  0  0  0  0
  145.6685  132.6847  149.0169 H   0  0  0  0  0  0  0  0  0  0  0  0
  146.6623  131.4476  149.7051 H   0  0  0  0  0  0  0  0  0  0  0  0
  144.2897  130.8450  149.7612 H   0  0  0  0  0  0  0  0  0  0  0  0
  144.9674  130.8549  151.3579 H   0  0  0  0  0  0  0  0  0  0  0  0
  142.5651  131.9424  150.7974 H   0  0  0  0  0  0  0  0  0  0  0  0
  143.5495  132.5298  152.0952 H   0  0  0  0  0  0  0  0  0  0  0  0
  142.7231  133.9807  149.8129 H   0  0  0  0  0  0  0  0  0  0  0  0
  1  2  1  0  0  0  0
  1 19  1  0  0  0  0
  1 20  1  0  0  0  0
  1 21  1  0  0  0  0
  2 18  1  0  0  0  0
  2  3  2  0  0  0  0
  3  4  1  0  0  0  0
  4  5  2  0  0  0  0
  5  6  1  0  0  0  0
  5 18  1  0  0  0  0
  6  7  1  0  0  0  0
  6 22  1  0  0  0  0
  7  8  2  0  0  0  0
  7  9  1  0  0  0  0
  9 10  1  0  0  0  0
  9 23  1  0  0  0  0
 10 16  1  0  0  0  0
 10 11  1  0  0  0  0
 10 24  1  0  0  0  0
 11 12  1  0  0  0  0
 11 25  1  0  0  0  0
 11 26  1  0  0  0  0
 12 13  1  0  0  0  0
 12 27  1  0  0  0  0
 12 28  1  0  0  0  0
 13 14  1  0  0  0  0
 13 29  1  0  0  0  0
 13 30  1  0  0  0  0
 14 15  1  0  0  0  0
 14 31  1  0  0  0  0
 14 32  1  0  0  0  0
 15 16  1  0  0  0  0
 15 33  1  0  0  0  0
 16 17  2  0  0  0  0
M  END
> <s_m_source_file>
AV-unprocessed.smi

> <i_m_source_file_index>
2033

> <i_lp_mmshare_version>
43012

> <i_f3d_flags>
0

> <s_epik_input>
W0NIM11jMW5uYyhzMSlbTkhdQyg9TylbTkhdW0NAQEhdMltDSDJdW0NIMl1bQ0gyXVtDSDJdW05IXUMyPU8=

> <s_epik_cmdline>
J2VwaWtfcHl0aG9uJywgJy1waCcsICc3LjAnLCAnLXRuJywgJzgnLCAnLW1hJywgJzIwMCcsICctbWV0YWxfYmluZGluZycsICctaW1hZScsICc8aW5maWxlLm1hZT4nLCAnLW9tYWUnLCAnPG91dGZpbGUubWFlPic=

> <r_lp_tautomer_probability>
1

> <r_epik_Ionization_Penalty>
0.00079266

> <r_epik_Ionization_Penalty_Charging>
0

> <r_epik_Ionization_Penalty_Neutral>
0.00079266

> <r_epik_State_Penalty>
-0

> <r_epik_Charging_Adjusted_Penalty>
0

> <i_epik_Tot_Q>
0

> <i_epik_Tot_abs_Q>
0

> <r_epik_Metal_State_Penalty>
0.265831

> <b_epik_Metal_Only>
0

> <s_lp_Force_Field>
OPLS_2005

> <r_lp_Energy>
13.3352

> <b_lp_Chiralities_Consistent>
1

> <s_lp_Variant>
AV-unprocessed.smi:2033-1

> <Gold.Version>
5.8.1

> <Gold.Id.Protein>
6NUR|6NUR_protein|mol2

> <Gold.PLP.Fitness>
36.6393

> <Gold.PLP.PLP>
-28.9403

> <Gold.PLP.part.hbond>
-3.0000

> <Gold.PLP.part.metal>
0.0000

> <Gold.PLP.part.buried>
-3.2977

> <Gold.PLP.part.nonpolar>
-25.7772

> <Gold.PLP.part.repulsive>
2.7431

> <Gold.PLP.ligand.clash>
0.0000

> <Gold.PLP.ligand.torsion>
0.6642

> <Gold.PLP.Chemscore.Hbond>
2.9920

> <Gold.PLP.Chemscore.CHOScore>
0.0000

> <Gold.PLP.Chemscore.Metal>
0.0000

> <Gold.Chemscore.Hbonds>
donor molecule, donor type, donor heavy atom, donor atom, acceptor molecule, acceptor atom, score
      L1  H     6    22       P1  7948  1.00
      L1  H     9    23       P1  7948  0.98
      L1  H    15    33       P1 10186  1.00

> <Gold.PLP.Chemscore.Internal.Correction>
0.0513

> <Gold.Rescore>
     Score         DG    S(hbond)    S(metal)    S(lipo)     H(rot)  DE(clash)    DE(int)     intcor
     18.24     -19.32       2.89        0.00      57.65       1.00       0.29       0.80       ----

> <Gold.Chemscore.Fitness>
18.2372

> <Gold.Chemscore.DG>
-19.3222

> <Gold.Chemscore.ZeroCoef>
-5.4800

> <Gold.Chemscore.Hbond>
2.8913

> <Gold.Chemscore.Metal>
0.0000

> <Gold.Chemscore.Lipo>
57.6514

> <Gold.Chemscore.Internal_Hbond>
0.0000

> <Gold.Chemscore.DEClash>
0.2891

> <Gold.Chemscore.DEInternal>
0.7959

> <Gold.Chemscore.Rot>
1.0000

> <Gold.Chemscore.Internal.Correction>
   9.000000E+99

> <Gold.Chemscore.Hbonds>
donor molecule, donor type, donor heavy atom, donor atom, acceptor molecule, acceptor atom, score
      L1  H     6    22       P1  7948  0.96
      L1  H     9    23       P1  7948  0.91
      L1  H    15    33       P1 10186  0.97

> <Gold.Chemscore.Hbond.Weighted>
-9.6570

> <Gold.Chemscore.Metal.Weighted>
-0.0000

> <Gold.Chemscore.Lipo.Weighted>
-6.7452

> <Gold.Chemscore.Internal_Hbond.Weighted>
0.0000

> <Gold.Chemscore.DEClash.Weighted>
0.2891

> <Gold.Chemscore.DEInternal.Weighted>
0.7959

> <Gold.Chemscore.Rot.Weighted>
2.5600

> <Gold.Chemscore.Internal.Correction.Weighted>
   9.000000E+99

> <Gold.Protein.RotatedTorsions>
[ 6907 6896 6895 6894 ] final   98.16 input  -60.11 | X-H torsion
[ 7974 7965 7964 7962 ] final  159.29 input  175.53 | X-H torsion
[ 8008 7997 7996 7995 ] final -148.99 input   59.86 | X-H torsion
[ 10167 10162 10161 10158 ] final  153.50 input  -65.29 | X-H torsion
[ 10718 10713 10712 10709 ] final  162.42 input   66.30 | X-H torsion
[ 10763 10752 10751 10750 ] final -169.57 input  -60.55 | X-H torsion
[ 11005 11000 10999 10996 ] final  -31.15 input  -57.11 | X-H torsion

> <Gold.Protein.ActiveResidues>
 VAL166  LYS551  ARG553  GLY616  TRP617  ASP618  TYR619  PRO620  LYS621  CYS622 
 ASP623  PHE694  ASN695  SER759  ASP760  ASP761  ALA762  ILE779  LEU786  VAL792 
 PHE793  MET794  SER795  GLU796  ALA797  LYS798  CYS799  TRP800  GLU811  SER814 

> <Gold.Protein.RotatedAtoms>
  152.5413  134.0623  159.8157 H   0  0  0  0  0  0  0  0  0  0  0  0  # atno 6907 bound_to 6896
  151.0749  133.5428  159.2632 H   0  0  0  0  0  0  0  0  0  0  0  0  # atno 6908 bound_to 6896
  151.2277  135.0551  159.9029 H   0  0  0  0  0  0  0  0  0  0  0  0  # atno 6909 bound_to 6896
  144.7798  139.7597  143.6264 H   0  0  0  0  0  0  0  0  0  0  0  0  # atno 7974 bound_to 7965
  155.6005  140.0661  157.2734 H   0  0  0  0  0  0  0  0  0  0  0  0  # atno 8008 bound_to 7997
  154.4280  140.1819  156.1215 H   0  0  0  0  0  0  0  0  0  0  0  0  # atno 8009 bound_to 7997
  156.0163  140.3321  155.6996 H   0  0  0  0  0  0  0  0  0  0  0  0  # atno 8010 bound_to 7997
  139.4827  144.5268  151.7788 H   0  0  0  0  0  0  0  0  0  0  0  0  # atno 10167 bound_to 10162
  157.1228  131.0497  151.2407 H   0  0  0  0  0  0  0  0  0  0  0  0  # atno 10718 bound_to 10713
  154.6508  135.2911  154.9989 H   0  0  0  0  0  0  0  0  0  0  0  0  # atno 10763 bound_to 10752
  154.1082  135.6566  153.4884 H   0  0  0  0  0  0  0  0  0  0  0  0  # atno 10764 bound_to 10752
  153.0375  135.5259  154.7416 H   0  0  0  0  0  0  0  0  0  0  0  0  # atno 10765 bound_to 10752
  140.9443  133.7259  156.1123 H   0  0  0  0  0  0  0  0  0  0  0  0  # atno 11005 bound_to 11000
  146.2000  139.5288  142.9750 LP  0  0  0  0  0  0  0  0  0  0  0  0  # atno 17320 bound_to 7965
  145.6082  141.0344  143.1981 LP  0  0  0  0  0  0  0  0  0  0  0  0  # atno 17321 bound_to 7965
  140.4789  144.1479  150.5929 LP  0  0  0  0  0  0  0  0  0  0  0  0  # atno 17342 bound_to 10162
  140.4300  143.2572  151.9607 LP  0  0  0  0  0  0  0  0  0  0  0  0  # atno 17343 bound_to 10162
  157.4461  130.7572  149.7111 LP  0  0  0  0  0  0  0  0  0  0  0  0  # atno 17370 bound_to 10713
  155.9825  130.4009  150.3415 LP  0  0  0  0  0  0  0  0  0  0  0  0  # atno 17371 bound_to 10713
  140.7691  134.3853  157.5511 LP  0  0  0  0  0  0  0  0  0  0  0  0  # atno 17394 bound_to 11000
  139.8829  134.9010  156.2801 LP  0  0  0  0  0  0  0  0  0  0  0  0  # atno 17395 bound_to 11000

$$$$
