AV-unprocessed.smi:72|AV-procd|sdf|671|dock4
  -GOLD-   2262016573D 1   1.00000     0.00000
 Structure written by MMmdl.
 29 30  0  0  0  0  0  0  0  0  1 V2000
  153.7842  138.2688  155.2155 N   0  0  0  0  0  0  0  0  0  0  0  0
  152.5429  138.5827  155.1046 C   0  0  0  0  0  0  0  0  0  0  0  0
  151.6691  138.0964  154.1203 N   0  0  0  0  0  0  0  0  0  0  0  0
  150.4350  138.4963  154.1325 C   0  0  0  0  0  0  0  0  0  0  0  0
  149.9304  139.4238  155.1334 N   0  0  0  0  0  0  0  0  0  0  0  0
  148.4805  139.8618  155.1208 C   0  0  2  0  0  0  0  0  0  0  0  0
  147.6848  138.7320  154.9350 O   0  0  0  0  0  0  0  0  0  0  0  0
  146.6052  139.0503  154.0705 C   0  0  2  0  0  0  0  0  0  0  0  0
  146.0965  137.7616  153.4054 C   0  0  0  0  0  0  0  0  0  0  0  0
  145.2250  138.0630  152.3368 O   0  0  0  0  0  0  0  0  0  0  0  0
  147.2008  140.0846  153.1077 C   0  0  1  0  0  0  0  0  0  0  0  0
  146.1899  140.9281  152.5928 O   0  0  0  0  0  0  0  0  0  0  0  0
  148.1525  140.8743  153.9987 C   0  0  2  0  0  0  0  0  0  0  0  0
  149.2752  141.3263  153.2629 O   0  0  0  0  0  0  0  0  0  0  0  0
  150.8027  139.9379  156.1233 C   0  0  0  0  0  0  0  0  0  0  0  0
  150.4373  140.7485  156.9740 O   0  0  0  0  0  0  0  0  0  0  0  0
  152.0751  139.4877  156.0675 N   0  0  0  0  0  0  0  0  0  0  0  0
  148.2612  140.2590  156.1127 H   0  0  0  0  0  0  0  0  0  0  0  0
  145.8235  139.5022  154.6847 H   0  0  0  0  0  0  0  0  0  0  0  0
  147.7419  139.5884  152.3003 H   0  0  0  0  0  0  0  0  0  0  0  0
  147.6480  141.7250  154.4594 H   0  0  0  0  0  0  0  0  0  0  0  0
  154.0513  137.6166  154.4927 H   0  0  0  0  0  0  0  0  0  0  0  0
  149.6994  138.1701  153.3958 H   0  0  0  0  0  0  0  0  0  0  0  0
  146.9252  137.1510  153.0463 H   0  0  0  0  0  0  0  0  0  0  0  0
  145.5453  137.1613  154.1296 H   0  0  0  0  0  0  0  0  0  0  0  0
  144.7874  138.8787  152.5264 H   0  0  0  0  0  0  0  0  0  0  0  0
  145.3836  140.4379  152.5466 H   0  0  0  0  0  0  0  0  0  0  0  0
  149.6116  140.6037  152.7555 H   0  0  0  0  0  0  0  0  0  0  0  0
  152.7215  139.8344  156.7610 H   0  0  0  0  0  0  0  0  0  0  0  0
  1  2  2  0  0  0  0
  1 22  1  0  0  0  0
  2 17  1  0  0  0  0
  2  3  1  0  0  0  0
  3  4  2  0  0  0  0
  4  5  1  0  0  0  0
  4 23  1  0  0  0  0
  5  6  1  0  0  0  0
  5 15  1  0  0  0  0
  6 18  1  0  0  0  0
  6 13  1  0  0  0  0
  6  7  1  0  0  0  0
  7  8  1  0  0  0  0
  8 19  1  0  0  0  0
  8  9  1  0  0  0  0
  8 11  1  0  0  0  0
  9 10  1  0  0  0  0
  9 24  1  0  0  0  0
  9 25  1  0  0  0  0
 10 26  1  0  0  0  0
 11 20  1  0  0  0  0
 11 12  1  0  0  0  0
 11 13  1  0  0  0  0
 12 27  1  0  0  0  0
 13 21  1  0  0  0  0
 13 14  1  0  0  0  0
 14 28  1  0  0  0  0
 15 16  2  0  0  0  0
 15 17  1  0  0  0  0
 17 29  1  0  0  0  0
M  END
> <s_m_source_file>
AV-unprocessed.smi

> <i_m_source_file_index>
72

> <i_lp_mmshare_version>
43012

> <i_f3d_flags>
0

> <s_epik_input>
W05IMl1jMW5bY0hdbihjKD1PKW4xKVtDQEBIXTJPW0NASF0oW0NIMl1bT0hdKVtDQEBIXShbT0hdKVtDQEhdMltPSF0=

> <s_epik_cmdline>
J2VwaWtfcHl0aG9uJywgJy1waCcsICc3LjAnLCAnLXRuJywgJzgnLCAnLW1hJywgJzIwMCcsICctbWV0YWxfYmluZGluZycsICctaW1hZScsICc8aW5maWxlLm1hZT4nLCAnLW9tYWUnLCAnPG91dGZpbGUubWFlPic=

> <r_lp_tautomer_probability>
7.17554e-07

> <r_epik_Ionization_Penalty>
0.0066451

> <r_epik_Ionization_Penalty_Charging>
0.00663793

> <r_epik_Ionization_Penalty_Neutral>
7.17052e-06

> <r_epik_State_Penalty>
0.419231

> <r_epik_Charging_Adjusted_Penalty>
0.425868

> <i_epik_Tot_Q>
0

> <i_epik_Tot_abs_Q>
0

> <r_epik_Metal_State_Penalty>
1.44144

> <b_epik_Metal_Only>
0

> <s_epik_Chemistry_Notes>
This compound contains an acetal/aminal-like group ( X-CH(R)-Y where X, Y are N, S, or O) that may be acid/base labile, releasing an aldehyde.

> <s_lp_Force_Field>
OPLS_2005

> <r_lp_Energy>
42.2993

> <b_lp_Chiralities_Consistent>
1

> <s_lp_Variant>
AV-unprocessed.smi:72-9

> <Gold.Version>
5.8.1

> <Gold.Id.Protein>
6NUR|6NUR_protein|mol2

> <Gold.PLP.Fitness>
36.9676

> <Gold.PLP.PLP>
-22.9767

> <Gold.PLP.part.hbond>
-7.4358

> <Gold.PLP.part.metal>
0.0000

> <Gold.PLP.part.buried>
-0.1286

> <Gold.PLP.part.nonpolar>
-15.7517

> <Gold.PLP.part.repulsive>
0.4428

> <Gold.PLP.ligand.clash>
0.0000

> <Gold.PLP.ligand.torsion>
0.4176

> <Gold.PLP.Chemscore.Hbond>
3.8508

> <Gold.PLP.Chemscore.CHOScore>
1.0557

> <Gold.PLP.Chemscore.Metal>
0.0000

> <Gold.Chemscore.Hbonds>
donor molecule, donor type, donor heavy atom, donor atom, acceptor molecule, acceptor atom, score
      L1  H    10    26       P1 10175  1.00
      L1  H    12    27       P1 10175  0.93
      L1  H    14    28       P1  7957  0.78
      P1  H  7997  8008       L1     1  0.43
      P1  H  8011  8017       L1    14  0.73
      L1  C     4    23       P1  7948  0.97
      L1  C     4    23       P1  7957  0.05

> <Gold.PLP.Chemscore.Internal.Correction>
0.1066

> <Gold.Rescore>
     Score         DG    S(hbond)    S(metal)    S(lipo)     H(rot)  DE(clash)    DE(int)     intcor
      6.14      -6.91       2.79        0.00      21.31       4.06       0.31       0.46       ----

> <Gold.Chemscore.Fitness>
6.1368

> <Gold.Chemscore.DG>
-6.9058

> <Gold.Chemscore.ZeroCoef>
-5.4800

> <Gold.Chemscore.Hbond>
2.7924

> <Gold.Chemscore.Metal>
0.0000

> <Gold.Chemscore.Lipo>
21.3063

> <Gold.Chemscore.Internal_Hbond>
0.0000

> <Gold.Chemscore.DEClash>
0.3090

> <Gold.Chemscore.DEInternal>
0.4600

> <Gold.Chemscore.Rot>
4.0600

> <Gold.Chemscore.Internal.Correction>
   9.000000E+99

> <Gold.Chemscore.Hbonds>
donor molecule, donor type, donor heavy atom, donor atom, acceptor molecule, acceptor atom, score
      L1  H    10    26       P1 10175  0.99
      L1  H    12    27       P1 10175  0.59
      L1  H    14    28       P1  7957  0.78
      P1  H  7997  8008       L1     1  0.07
      P1  H  8011  8017       L1    14  0.08

> <Gold.Chemscore.Hbond.Weighted>
-9.3266

> <Gold.Chemscore.Metal.Weighted>
-0.0000

> <Gold.Chemscore.Lipo.Weighted>
-2.4928

> <Gold.Chemscore.Internal_Hbond.Weighted>
0.0000

> <Gold.Chemscore.DEClash.Weighted>
0.3090

> <Gold.Chemscore.DEInternal.Weighted>
0.4600

> <Gold.Chemscore.Rot.Weighted>
10.3936

> <Gold.Chemscore.Internal.Correction.Weighted>
   9.000000E+99

> <Gold.Protein.RotatedTorsions>
[ 6907 6896 6895 6894 ] final   72.13 input  -60.11 | X-H torsion
[ 7974 7965 7964 7962 ] final  -93.27 input  175.53 | X-H torsion
[ 8008 7997 7996 7995 ] final  -21.96 input   59.86 | X-H torsion
[ 10167 10162 10161 10158 ] final -163.72 input  -65.29 | X-H torsion
[ 10718 10713 10712 10709 ] final -136.32 input   66.30 | X-H torsion
[ 10763 10752 10751 10750 ] final -135.27 input  -60.55 | X-H torsion
[ 11005 11000 10999 10996 ] final  176.57 input  -57.11 | X-H torsion

> <Gold.Protein.ActiveResidues>
 VAL166  LYS551  ARG553  GLY616  TRP617  ASP618  TYR619  PRO620  LYS621  CYS622 
 ASP623  PHE694  ASN695  SER759  ASP760  ASP761  ALA762  ILE779  LEU786  VAL792 
 PHE793  MET794  SER795  GLU796  ALA797  LYS798  CYS799  TRP800  GLU811  SER814 

> <Gold.Protein.RotatedAtoms>
  152.4850  134.4617  159.9607 H   0  0  0  0  0  0  0  0  0  0  0  0  # atno 6907 bound_to 6896
  151.4615  133.3585  159.2818 H   0  0  0  0  0  0  0  0  0  0  0  0  # atno 6908 bound_to 6896
  150.8953  134.8386  159.7383 H   0  0  0  0  0  0  0  0  0  0  0  0  # atno 6909 bound_to 6896
  145.3887  140.9526  143.2352 H   0  0  0  0  0  0  0  0  0  0  0  0  # atno 7974 bound_to 7965
  154.4673  140.2020  156.0085 H   0  0  0  0  0  0  0  0  0  0  0  0  # atno 8008 bound_to 7997
  156.0950  140.3252  155.7836 H   0  0  0  0  0  0  0  0  0  0  0  0  # atno 8009 bound_to 7997
  155.4894  140.0545  157.2946 H   0  0  0  0  0  0  0  0  0  0  0  0  # atno 8010 bound_to 7997
  139.6301  144.0456  152.2008 H   0  0  0  0  0  0  0  0  0  0  0  0  # atno 10167 bound_to 10162
  156.2758  130.7292  151.1273 H   0  0  0  0  0  0  0  0  0  0  0  0  # atno 10718 bound_to 10713
  154.8706  135.3708  154.4871 H   0  0  0  0  0  0  0  0  0  0  0  0  # atno 10763 bound_to 10752
  153.5521  135.7024  153.5591 H   0  0  0  0  0  0  0  0  0  0  0  0  # atno 10764 bound_to 10752
  153.3706  135.4022  155.1749 H   0  0  0  0  0  0  0  0  0  0  0  0  # atno 10765 bound_to 10752
  140.3746  134.7000  157.4413 H   0  0  0  0  0  0  0  0  0  0  0  0  # atno 11005 bound_to 11000
  144.8455  139.5403  143.6880 LP  0  0  0  0  0  0  0  0  0  0  0  0  # atno 17320 bound_to 7965
  146.2808  139.6871  142.9230 LP  0  0  0  0  0  0  0  0  0  0  0  0  # atno 17321 bound_to 7965
  140.0120  144.6217  150.7639 LP  0  0  0  0  0  0  0  0  0  0  0  0  # atno 17342 bound_to 10162
  140.7434  143.2845  151.3502 LP  0  0  0  0  0  0  0  0  0  0  0  0  # atno 17343 bound_to 10162
  157.7298  131.0621  150.5754 LP  0  0  0  0  0  0  0  0  0  0  0  0  # atno 17370 bound_to 10713
  156.5855  130.4315  149.5959 LP  0  0  0  0  0  0  0  0  0  0  0  0  # atno 17371 bound_to 10713
  140.0525  134.6110  155.8844 LP  0  0  0  0  0  0  0  0  0  0  0  0  # atno 17394 bound_to 11000
  141.1943  133.6582  156.5591 LP  0  0  0  0  0  0  0  0  0  0  0  0  # atno 17395 bound_to 11000

$$$$
