AV-unprocessed.smi:2151|AV-procd|sdf|8761|dock3
  -GOLD-   2272011543D 1   1.00000     0.00000
 Structure written by MMmdl.
 39 40  0  0  0  0  0  0  0  0  1 V2000
  149.3484  141.8019  154.6240 C   0  0  0  0  0  0  0  0  0  0  0  0
  148.6888  140.5345  155.1894 C   0  0  1  0  0  0  0  0  0  0  0  0
  149.4776  140.0682  156.3280 N   0  0  0  0  0  0  0  0  0  0  0  0
  150.8173  140.0045  156.3768 C   0  0  0  0  0  0  0  0  0  0  0  0
  151.5445  140.3533  155.4455 O   0  0  0  0  0  0  0  0  0  0  0  0
  151.4110  139.4418  157.6762 C   0  0  0  0  0  0  0  0  0  0  0  0
  151.9903  140.4751  158.5509 N   0  0  0  0  0  0  0  0  0  0  0  0
  151.6372  141.8117  158.2801 C   0  0  0  0  0  0  0  0  0  0  0  0
  152.0956  142.8521  159.0022 C   0  0  0  0  0  0  0  0  0  0  0  0
  151.6421  144.2775  158.7268 C   0  0  0  0  0  0  0  0  0  0  0  0
  152.2328  145.1386  159.5558 F   0  0  0  0  0  0  0  0  0  0  0  0
  151.9576  144.6193  157.4785 F   0  0  0  0  0  0  0  0  0  0  0  0
  150.3215  144.3986  158.8685 F   0  0  0  0  0  0  0  0  0  0  0  0
  152.9671  142.5300  160.1152 C   0  0  0  0  0  0  0  0  0  0  0  0
  153.3026  141.2559  160.3971 C   0  0  0  0  0  0  0  0  0  0  0  0
  152.8056  140.1362  159.5940 C   0  0  0  0  0  0  0  0  0  0  0  0
  153.1024  138.9677  159.8444 O   0  0  0  0  0  0  0  0  0  0  0  0
  147.2282  140.7774  155.6255 C   0  0  1  0  0  0  0  0  0  0  0  0
  147.0604  141.7989  156.7510 C   0  0  0  0  0  0  0  0  0  0  0  0
  145.6230  142.2273  156.5639 C   0  0  0  0  0  0  0  0  0  0  0  0
  145.4912  142.2418  155.0435 C   0  0  0  0  0  0  0  0  0  0  0  0
  146.4596  141.3185  154.5525 O   0  0  0  0  0  0  0  0  0  0  0  0
  148.8338  142.1532  153.7295 H   0  0  0  0  0  0  0  0  0  0  0  0
  150.3860  141.6124  154.3463 H   0  0  0  0  0  0  0  0  0  0  0  0
  149.3414  142.6130  155.3529 H   0  0  0  0  0  0  0  0  0  0  0  0
  148.6996  139.7787  154.4019 H   0  0  0  0  0  0  0  0  0  0  0  0
  148.9617  139.7553  157.1375 H   0  0  0  0  0  0  0  0  0  0  0  0
  150.6396  138.8791  158.2054 H   0  0  0  0  0  0  0  0  0  0  0  0
  152.1710  138.7039  157.4140 H   0  0  0  0  0  0  0  0  0  0  0  0
  150.9542  141.9353  157.4520 H   0  0  0  0  0  0  0  0  0  0  0  0
  153.3603  143.3239  160.7330 H   0  0  0  0  0  0  0  0  0  0  0  0
  153.9550  141.0531  161.2339 H   0  0  0  0  0  0  0  0  0  0  0  0
  146.7624  139.8368  155.9251 H   0  0  0  0  0  0  0  0  0  0  0  0
  147.2534  141.3815  157.7395 H   0  0  0  0  0  0  0  0  0  0  0  0
  147.7262  142.6500  156.6010 H   0  0  0  0  0  0  0  0  0  0  0  0
  144.9531  141.4800  156.9914 H   0  0  0  0  0  0  0  0  0  0  0  0
  145.3971  143.1908  157.0214 H   0  0  0  0  0  0  0  0  0  0  0  0
  144.4869  141.9735  154.7156 H   0  0  0  0  0  0  0  0  0  0  0  0
  145.7243  143.2300  154.6459 H   0  0  0  0  0  0  0  0  0  0  0  0
  1  2  1  0  0  0  0
  1 23  1  0  0  0  0
  1 24  1  0  0  0  0
  1 25  1  0  0  0  0
  2  3  1  0  0  0  0
  2 18  1  0  0  0  0
  2 26  1  0  0  0  0
  3  4  1  0  0  0  0
  3 27  1  0  0  0  0
  4  5  2  0  0  0  0
  4  6  1  0  0  0  0
  6  7  1  0  0  0  0
  6 28  1  0  0  0  0
  6 29  1  0  0  0  0
  7 16  1  0  0  0  0
  7  8  1  0  0  0  0
  8  9  2  0  0  0  0
  8 30  1  0  0  0  0
  9 10  1  0  0  0  0
  9 14  1  0  0  0  0
 10 11  1  0  0  0  0
 10 12  1  0  0  0  0
 10 13  1  0  0  0  0
 14 15  2  0  0  0  0
 14 31  1  0  0  0  0
 15 16  1  0  0  0  0
 15 32  1  0  0  0  0
 16 17  2  0  0  0  0
 18 22  1  0  0  0  0
 18 19  1  0  0  0  0
 18 33  1  0  0  0  0
 19 20  1  0  0  0  0
 19 34  1  0  0  0  0
 19 35  1  0  0  0  0
 20 21  1  0  0  0  0
 20 36  1  0  0  0  0
 20 37  1  0  0  0  0
 21 22  1  0  0  0  0
 21 38  1  0  0  0  0
 21 39  1  0  0  0  0
M  END
> <s_m_source_file>
AV-unprocessed.smi

> <i_m_source_file_index>
2151

> <i_lp_mmshare_version>
43012

> <i_f3d_flags>
0

> <s_epik_input>
TzFbQ0gyXVtDSDJdW0NIMl1bQ0BIXTFbQ0BIXShbQ0gzXSlbTkhdQyg9TylbQ0gyXW4yW2NIXWMoQyhGKShGKUYpW2NIXVtjSF1jMj1P

> <s_epik_cmdline>
J2VwaWtfcHl0aG9uJywgJy1waCcsICc3LjAnLCAnLXRuJywgJzgnLCAnLW1hJywgJzIwMCcsICctbWV0YWxfYmluZGluZycsICctaW1hZScsICc8aW5maWxlLm1hZT4nLCAnLW9tYWUnLCAnPG91dGZpbGUubWFlPic=

> <r_lp_tautomer_probability>
1

> <r_epik_Ionization_Penalty>
4.20109e-08

> <r_epik_Ionization_Penalty_Charging>
1.89977e-08

> <r_epik_Ionization_Penalty_Neutral>
2.30132e-08

> <r_epik_State_Penalty>
-0

> <r_epik_Charging_Adjusted_Penalty>
1.89977e-08

> <i_epik_Tot_Q>
0

> <i_epik_Tot_abs_Q>
0

> <r_epik_Metal_State_Penalty>
-0

> <b_epik_Metal_Only>
0

> <s_lp_Force_Field>
OPLS_2005

> <r_lp_Energy>
30.384

> <b_lp_Chiralities_Consistent>
1

> <s_lp_Variant>
AV-unprocessed.smi:2151-4

> <Gold.Version>
5.8.1

> <Gold.Id.Protein>
6NUR|6NUR_protein|mol2

> <Gold.PLP.Fitness>
44.0378

> <Gold.PLP.PLP>
-42.5482

> <Gold.PLP.part.hbond>
-1.0000

> <Gold.PLP.part.metal>
0.0000

> <Gold.PLP.part.buried>
-5.2285

> <Gold.PLP.part.nonpolar>
-36.3864

> <Gold.PLP.part.repulsive>
0.1567

> <Gold.PLP.ligand.clash>
0.0125

> <Gold.PLP.ligand.torsion>
0.6234

> <Gold.PLP.Chemscore.Hbond>
0.8960

> <Gold.PLP.Chemscore.CHOScore>
0.0000

> <Gold.PLP.Chemscore.Metal>
0.0000

> <Gold.Chemscore.Hbonds>
donor molecule, donor type, donor heavy atom, donor atom, acceptor molecule, acceptor atom, score
      P1  H  7989  7998       L1     5  0.88

> <Gold.PLP.Chemscore.Internal.Correction>
0.0610

> <Gold.Rescore>
     Score         DG    S(hbond)    S(metal)    S(lipo)     H(rot)  DE(clash)    DE(int)     intcor
     11.11     -13.15       0.96        0.00      77.95       1.82       0.06       1.98       ----

> <Gold.Chemscore.Fitness>
11.1063

> <Gold.Chemscore.DG>
-13.1460

> <Gold.Chemscore.ZeroCoef>
-5.4800

> <Gold.Chemscore.Hbond>
0.9618

> <Gold.Chemscore.Metal>
0.0000

> <Gold.Chemscore.Lipo>
77.9495

> <Gold.Chemscore.Internal_Hbond>
0.0000

> <Gold.Chemscore.DEClash>
0.0560

> <Gold.Chemscore.DEInternal>
1.9837

> <Gold.Chemscore.Rot>
1.8228

> <Gold.Chemscore.Internal.Correction>
   9.000000E+99

> <Gold.Chemscore.Hbonds>
donor molecule, donor type, donor heavy atom, donor atom, acceptor molecule, acceptor atom, score
      P1  H  7989  7998       L1     5  0.82

> <Gold.Chemscore.Hbond.Weighted>
-3.2124

> <Gold.Chemscore.Metal.Weighted>
-0.0000

> <Gold.Chemscore.Lipo.Weighted>
-9.1201

> <Gold.Chemscore.Internal_Hbond.Weighted>
0.0000

> <Gold.Chemscore.DEClash.Weighted>
0.0560

> <Gold.Chemscore.DEInternal.Weighted>
1.9837

> <Gold.Chemscore.Rot.Weighted>
4.6665

> <Gold.Chemscore.Internal.Correction.Weighted>
   9.000000E+99

> <Gold.Protein.RotatedTorsions>
[ 6907 6896 6895 6894 ] final   50.73 input  -60.11 | X-H torsion
[ 7974 7965 7964 7962 ] final   70.12 input  175.53 | X-H torsion
[ 8008 7997 7996 7995 ] final -128.94 input   59.86 | X-H torsion
[ 10167 10162 10161 10158 ] final  120.03 input  -65.29 | X-H torsion
[ 10718 10713 10712 10709 ] final -155.18 input   66.30 | X-H torsion
[ 10763 10752 10751 10750 ] final   79.27 input  -60.55 | X-H torsion
[ 11005 11000 10999 10996 ] final  178.95 input  -57.11 | X-H torsion

> <Gold.Protein.ActiveResidues>
 VAL166  LYS551  ARG553  GLY616  TRP617  ASP618  TYR619  PRO620  LYS621  CYS622 
 ASP623  PHE694  ASN695  SER759  ASP760  ASP761  ALA762  ILE779  LEU786  VAL792 
 PHE793  MET794  SER795  GLU796  ALA797  LYS798  CYS799  TRP800  GLU811  SER814 

> <Gold.Protein.RotatedAtoms>
  152.3050  134.7566  160.0349 H   0  0  0  0  0  0  0  0  0  0  0  0  # atno 6907 bound_to 6896
  151.8066  133.3371  159.3551 H   0  0  0  0  0  0  0  0  0  0  0  0  # atno 6908 bound_to 6896
  150.7292  134.5633  159.5898 H   0  0  0  0  0  0  0  0  0  0  0  0  # atno 6909 bound_to 6896
  145.7821  139.2893  143.1259 H   0  0  0  0  0  0  0  0  0  0  0  0  # atno 7974 bound_to 7965
  155.2711  140.0440  157.3007 H   0  0  0  0  0  0  0  0  0  0  0  0  # atno 8008 bound_to 7997
  154.5653  140.2358  155.8242 H   0  0  0  0  0  0  0  0  0  0  0  0  # atno 8009 bound_to 7997
  156.2080  140.3007  155.9677 H   0  0  0  0  0  0  0  0  0  0  0  0  # atno 8010 bound_to 7997
  139.6008  144.7056  151.3068 H   0  0  0  0  0  0  0  0  0  0  0  0  # atno 10167 bound_to 10162
  156.5093  130.8427  151.2640 H   0  0  0  0  0  0  0  0  0  0  0  0  # atno 10718 bound_to 10713
  153.0939  135.4846  154.8742 H   0  0  0  0  0  0  0  0  0  0  0  0  # atno 10763 bound_to 10752
  154.7302  135.3058  154.8907 H   0  0  0  0  0  0  0  0  0  0  0  0  # atno 10764 bound_to 10752
  153.9545  135.6819  153.4797 H   0  0  0  0  0  0  0  0  0  0  0  0  # atno 10765 bound_to 10752
  140.4008  134.6779  157.4560 H   0  0  0  0  0  0  0  0  0  0  0  0  # atno 11005 bound_to 11000
  146.0063  140.8475  142.9993 LP  0  0  0  0  0  0  0  0  0  0  0  0  # atno 17320 bound_to 7965
  144.6795  140.2425  143.7342 LP  0  0  0  0  0  0  0  0  0  0  0  0  # atno 17321 bound_to 7965
  140.7248  143.7035  150.7826 LP  0  0  0  0  0  0  0  0  0  0  0  0  # atno 17342 bound_to 10162
  140.0611  143.5154  152.2627 LP  0  0  0  0  0  0  0  0  0  0  0  0  # atno 17343 bound_to 10162
  157.7452  130.9955  150.2746 LP  0  0  0  0  0  0  0  0  0  0  0  0  # atno 17370 bound_to 10713
  156.3256  130.3792  149.7536 LP  0  0  0  0  0  0  0  0  0  0  0  0  # atno 17371 bound_to 10713
  140.0338  134.6367  155.9071 LP  0  0  0  0  0  0  0  0  0  0  0  0  # atno 17394 bound_to 11000
  141.1857  133.6555  156.5210 LP  0  0  0  0  0  0  0  0  0  0  0  0  # atno 17395 bound_to 11000

$$$$
