AV-unprocessed.smi:170|AV-procd|sdf|1408|dock9
  -GOLD-   2262019163D 1   1.00000     0.00000
 Structure written by MMmdl.
 57 61  0  0  0  0  0  0  0  0  1 V2000
  144.4167  138.4952  154.3880 O   0  0  0  0  0  0  0  0  0  0  0  0
  145.3009  137.5744  153.7767 C   0  0  2  0  0  0  0  0  0  0  0  0
  146.5565  138.3224  153.2871 C   0  0  0  0  0  0  0  0  0  0  0  0
  147.5600  138.4615  154.3273 N   0  0  0  0  0  0  0  0  0  0  0  0
  147.9637  137.4949  155.2210 C   0  0  0  0  0  0  0  0  0  0  0  0
  148.8881  137.8678  156.0642 N   0  0  0  0  0  0  0  0  0  0  0  0
  149.1389  139.1909  155.7230 C   0  0  0  0  0  0  0  0  0  0  0  0
  150.0145  140.1898  156.2254 C   0  0  0  0  0  0  0  0  0  0  0  0
  150.8685  139.9416  157.2477 N   0  0  0  0  0  0  0  0  0  0  0  0
  151.6001  138.7056  156.9892 C   0  0  0  0  0  0  0  0  0  0  0  0
  152.4426  138.3126  158.2091 C   0  0  0  0  0  0  0  0  0  0  0  0
  153.3155  139.3868  158.5268 O   0  0  0  0  0  0  0  0  0  0  0  0
  152.5969  140.5595  158.8896 C   0  0  0  0  0  0  0  0  0  0  0  0
  151.7138  141.0497  157.7164 C   0  0  2  0  0  0  0  0  0  0  0  0
  150.8769  142.2896  158.1307 C   0  0  0  0  0  0  0  0  0  0  0  0
  151.6982  143.4269  158.7363 C   0  0  0  0  0  0  0  0  0  0  0  0
  150.9969  144.7164  159.1900 C   0  0  0  0  0  0  0  0  0  0  0  0
  152.2408  145.4922  158.7475 C   0  0  0  0  0  0  0  0  0  0  0  0
  152.5697  144.3109  157.8310 C   0  0  0  0  0  0  0  0  0  0  0  0
  150.0017  141.4070  155.6184 N   0  0  0  0  0  0  0  0  0  0  0  0
  149.1703  141.6365  154.5972 C   0  0  0  0  0  0  0  0  0  0  0  0
  148.2926  140.8047  154.0310 N   0  0  0  0  0  0  0  0  0  0  0  0
  148.3136  139.5802  154.6318 C   0  0  0  0  0  0  0  0  0  0  0  0
  144.5883  136.8297  152.6289 C   0  0  2  0  0  0  0  0  0  0  0  0
  143.3494  136.0039  152.9923 C   0  0  0  0  0  0  0  0  0  0  0  0
  143.3226  135.0022  151.8599 C   0  0  0  0  0  0  0  0  0  0  0  0
  144.8096  134.7198  151.6616 C   0  0  0  0  0  0  0  0  0  0  0  0
  145.4809  135.9408  151.9620 O   0  0  0  0  0  0  0  0  0  0  0  0
  144.2593  139.2021  153.7806 H   0  0  0  0  0  0  0  0  0  0  0  0
  145.6025  136.8458  154.5305 H   0  0  0  0  0  0  0  0  0  0  0  0
  147.0088  137.7922  152.4482 H   0  0  0  0  0  0  0  0  0  0  0  0
  146.2945  139.3163  152.9222 H   0  0  0  0  0  0  0  0  0  0  0  0
  147.5497  136.4970  155.2247 H   0  0  0  0  0  0  0  0  0  0  0  0
  150.9072  137.8975  156.7502 H   0  0  0  0  0  0  0  0  0  0  0  0
  152.2467  138.8423  156.1210 H   0  0  0  0  0  0  0  0  0  0  0  0
  151.8088  138.0702  159.0638 H   0  0  0  0  0  0  0  0  0  0  0  0
  153.0356  137.4256  157.9870 H   0  0  0  0  0  0  0  0  0  0  0  0
  151.9928  140.3630  159.7771 H   0  0  0  0  0  0  0  0  0  0  0  0
  153.3288  141.3181  159.1654 H   0  0  0  0  0  0  0  0  0  0  0  0
  152.3772  141.3319  156.8976 H   0  0  0  0  0  0  0  0  0  0  0  0
  150.3353  142.6806  157.2699 H   0  0  0  0  0  0  0  0  0  0  0  0
  150.1071  141.9805  158.8387 H   0  0  0  0  0  0  0  0  0  0  0  0
  152.3105  143.0666  159.5652 H   0  0  0  0  0  0  0  0  0  0  0  0
  150.1172  144.9580  158.5911 H   0  0  0  0  0  0  0  0  0  0  0  0
  150.7821  144.7685  160.2577 H   0  0  0  0  0  0  0  0  0  0  0  0
  152.0359  146.4300  158.2304 H   0  0  0  0  0  0  0  0  0  0  0  0
  152.9684  145.6202  159.5506 H   0  0  0  0  0  0  0  0  0  0  0  0
  153.6237  144.0332  157.8008 H   0  0  0  0  0  0  0  0  0  0  0  0
  152.1557  144.4269  156.8278 H   0  0  0  0  0  0  0  0  0  0  0  0
  149.2162  142.6281  154.1716 H   0  0  0  0  0  0  0  0  0  0  0  0
  144.2953  137.5598  151.8725 H   0  0  0  0  0  0  0  0  0  0  0  0
  143.4745  135.4789  153.9396 H   0  0  0  0  0  0  0  0  0  0  0  0
  142.4415  136.6048  153.0537 H   0  0  0  0  0  0  0  0  0  0  0  0
  142.7448  134.1067  152.0902 H   0  0  0  0  0  0  0  0  0  0  0  0
  142.9035  135.4606  150.9631 H   0  0  0  0  0  0  0  0  0  0  0  0
  145.1468  133.9583  152.3660 H   0  0  0  0  0  0  0  0  0  0  0  0
  145.0392  134.3741  150.6533 H   0  0  0  0  0  0  0  0  0  0  0  0
  1  2  1  0  0  0  0
  1 29  1  0  0  0  0
  2  3  1  0  0  0  0
  2 24  1  0  0  0  0
  2 30  1  0  0  0  0
  3  4  1  0  0  0  0
  3 31  1  0  0  0  0
  3 32  1  0  0  0  0
  4 23  1  0  0  0  0
  4  5  1  0  0  0  0
  5  6  2  0  0  0  0
  5 33  1  0  0  0  0
  6  7  1  0  0  0  0
  7 23  2  0  0  0  0
  7  8  1  0  0  0  0
  8  9  1  0  0  0  0
  8 20  2  0  0  0  0
  9 14  1  0  0  0  0
  9 10  1  0  0  0  0
 10 11  1  0  0  0  0
 10 34  1  0  0  0  0
 10 35  1  0  0  0  0
 11 12  1  0  0  0  0
 11 36  1  0  0  0  0
 11 37  1  0  0  0  0
 12 13  1  0  0  0  0
 13 14  1  0  0  0  0
 13 38  1  0  0  0  0
 13 39  1  0  0  0  0
 14 15  1  0  0  0  0
 14 40  1  0  0  0  0
 15 16  1  0  0  0  0
 15 41  1  0  0  0  0
 15 42  1  0  0  0  0
 16 19  1  0  0  0  0
 16 17  1  0  0  0  0
 16 43  1  0  0  0  0
 17 18  1  0  0  0  0
 17 44  1  0  0  0  0
 17 45  1  0  0  0  0
 18 19  1  0  0  0  0
 18 46  1  0  0  0  0
 18 47  1  0  0  0  0
 19 48  1  0  0  0  0
 19 49  1  0  0  0  0
 20 21  1  0  0  0  0
 21 22  2  0  0  0  0
 21 50  1  0  0  0  0
 22 23  1  0  0  0  0
 24 28  1  0  0  0  0
 24 25  1  0  0  0  0
 24 51  1  0  0  0  0
 25 26  1  0  0  0  0
 25 52  1  0  0  0  0
 25 53  1  0  0  0  0
 26 27  1  0  0  0  0
 26 54  1  0  0  0  0
 26 55  1  0  0  0  0
 27 28  1  0  0  0  0
 27 56  1  0  0  0  0
 27 57  1  0  0  0  0
M  END
> <s_m_source_file>
AV-unprocessed.smi

> <i_m_source_file_index>
170

> <i_lp_mmshare_version>
43012

> <i_f3d_flags>
0

> <s_epik_input>
TzFbQ0gyXVtDSDJdW0NIMl1bQ0BIXTFbQ0BIXShbT0hdKVtDSDJdbihbY0hdbjIpYyhjMjMpbltjSF1uYzNONFtDSDJdW0NIMl1PW0NIMl1bQ0BIXTRbQ0gyXVtDSF01W0NIMl1bQ0gyXVtDSDJdNQ==

> <s_epik_cmdline>
J2VwaWtfcHl0aG9uJywgJy1waCcsICc3LjAnLCAnLXRuJywgJzgnLCAnLW1hJywgJzIwMCcsICctbWV0YWxfYmluZGluZycsICctaW1hZScsICc8aW5maWxlLm1hZT4nLCAnLW9tYWUnLCAnPG91dGZpbGUubWFlPic=

> <r_lp_tautomer_probability>
1

> <r_epik_Ionization_Penalty>
4.98275e-05

> <r_epik_Ionization_Penalty_Charging>
0

> <r_epik_Ionization_Penalty_Neutral>
4.98275e-05

> <r_epik_State_Penalty>
-0

> <r_epik_Charging_Adjusted_Penalty>
0

> <i_epik_Tot_Q>
0

> <i_epik_Tot_abs_Q>
0

> <r_epik_Metal_State_Penalty>
-0

> <b_epik_Metal_Only>
0

> <s_lp_Force_Field>
OPLS_2005

> <r_lp_Energy>
52.7672

> <b_lp_Chiralities_Consistent>
1

> <s_lp_Variant>
AV-unprocessed.smi:170-3

> <Gold.Version>
5.8.1

> <Gold.Id.Protein>
6NUR|6NUR_protein|mol2

> <Gold.PLP.Fitness>
50.8576

> <Gold.PLP.PLP>
-42.9310

> <Gold.PLP.part.hbond>
-2.0000

> <Gold.PLP.part.metal>
0.0000

> <Gold.PLP.part.buried>
-2.8854

> <Gold.PLP.part.nonpolar>
-39.6994

> <Gold.PLP.part.repulsive>
0.8677

> <Gold.PLP.ligand.clash>
0.0000

> <Gold.PLP.ligand.torsion>
0.7198

> <Gold.PLP.Chemscore.Hbond>
2.0000

> <Gold.PLP.Chemscore.CHOScore>
1.0316

> <Gold.PLP.Chemscore.Metal>
0.0000

> <Gold.Chemscore.Hbonds>
donor molecule, donor type, donor heavy atom, donor atom, acceptor molecule, acceptor atom, score
      L1  H     1    29       P1 10175  1.00
      P1  H  7997  8009       L1    12  0.91
      L1  C    21    50       P1  8028  0.76

> <Gold.PLP.Chemscore.Internal.Correction>
0.2715

> <Gold.Rescore>
     Score         DG    S(hbond)    S(metal)    S(lipo)     H(rot)  DE(clash)    DE(int)     intcor
     13.78     -18.12       1.83        0.00     113.05       2.61       0.70       3.63       ----

> <Gold.Chemscore.Fitness>
13.7797

> <Gold.Chemscore.DG>
-18.1168

> <Gold.Chemscore.ZeroCoef>
-5.4800

> <Gold.Chemscore.Hbond>
1.8271

> <Gold.Chemscore.Metal>
0.0000

> <Gold.Chemscore.Lipo>
113.0532

> <Gold.Chemscore.Internal_Hbond>
0.0000

> <Gold.Chemscore.DEClash>
0.7043

> <Gold.Chemscore.DEInternal>
3.6328

> <Gold.Chemscore.Rot>
2.6144

> <Gold.Chemscore.Internal.Correction>
   9.000000E+99

> <Gold.Chemscore.Hbonds>
donor molecule, donor type, donor heavy atom, donor atom, acceptor molecule, acceptor atom, score
      L1  H     1    29       P1 10175  1.00
      P1  H  7997  8009       L1    12  0.43

> <Gold.Chemscore.Hbond.Weighted>
-6.1025

> <Gold.Chemscore.Metal.Weighted>
-0.0000

> <Gold.Chemscore.Lipo.Weighted>
-13.2272

> <Gold.Chemscore.Internal_Hbond.Weighted>
0.0000

> <Gold.Chemscore.DEClash.Weighted>
0.7043

> <Gold.Chemscore.DEInternal.Weighted>
3.6328

> <Gold.Chemscore.Rot.Weighted>
6.6929

> <Gold.Chemscore.Internal.Correction.Weighted>
   9.000000E+99

> <Gold.Protein.RotatedTorsions>
[ 6907 6896 6895 6894 ] final  -79.90 input  -60.11 | X-H torsion
[ 7974 7965 7964 7962 ] final  166.64 input  175.53 | X-H torsion
[ 8008 7997 7996 7995 ] final  144.38 input   59.86 | X-H torsion
[ 10167 10162 10161 10158 ] final  -45.47 input  -65.29 | X-H torsion
[ 10718 10713 10712 10709 ] final  -25.50 input   66.30 | X-H torsion
[ 10763 10752 10751 10750 ] final   25.83 input  -60.55 | X-H torsion
[ 11005 11000 10999 10996 ] final  -93.43 input  -57.11 | X-H torsion

> <Gold.Protein.ActiveResidues>
 VAL166  LYS551  ARG553  GLY616  TRP617  ASP618  TYR619  PRO620  LYS621  CYS622 
 ASP623  PHE694  ASN695  SER759  ASP760  ASP761  ALA762  ILE779  LEU786  VAL792 
 PHE793  MET794  SER795  GLU796  ALA797  LYS798  CYS799  TRP800  GLU811  SER814 

> <Gold.Protein.RotatedAtoms>
  150.6940  134.4051  159.5136 H   0  0  0  0  0  0  0  0  0  0  0  0  # atno 6907 bound_to 6896
  152.1818  134.8744  160.0535 H   0  0  0  0  0  0  0  0  0  0  0  0  # atno 6908 bound_to 6896
  151.9732  133.3698  159.4116 H   0  0  0  0  0  0  0  0  0  0  0  0  # atno 6909 bound_to 6896
  144.7455  139.8644  143.6383 H   0  0  0  0  0  0  0  0  0  0  0  0  # atno 7974 bound_to 7965
  156.2909  140.2237  156.5043 H   0  0  0  0  0  0  0  0  0  0  0  0  # atno 8008 bound_to 7997
  154.7663  140.0470  157.1036 H   0  0  0  0  0  0  0  0  0  0  0  0  # atno 8009 bound_to 7997
  154.9929  140.3092  155.4902 H   0  0  0  0  0  0  0  0  0  0  0  0  # atno 8010 bound_to 7997
  140.6856  143.2878  151.3644 H   0  0  0  0  0  0  0  0  0  0  0  0  # atno 10167 bound_to 10162
  156.4635  130.4509  149.6914 H   0  0  0  0  0  0  0  0  0  0  0  0  # atno 10718 bound_to 10713
  153.0664  135.6574  154.0345 H   0  0  0  0  0  0  0  0  0  0  0  0  # atno 10763 bound_to 10752
  154.0000  135.2938  155.3405 H   0  0  0  0  0  0  0  0  0  0  0  0  # atno 10764 bound_to 10752
  154.7023  135.5239  153.8614 H   0  0  0  0  0  0  0  0  0  0  0  0  # atno 10765 bound_to 10752
  141.1497  133.7887  157.0159 H   0  0  0  0  0  0  0  0  0  0  0  0  # atno 11005 bound_to 11000
  146.1325  139.4363  143.0160 LP  0  0  0  0  0  0  0  0  0  0  0  0  # atno 17320 bound_to 7965
  145.7142  141.0096  143.1437 LP  0  0  0  0  0  0  0  0  0  0  0  0  # atno 17321 bound_to 7965
  139.6213  144.0902  152.2393 LP  0  0  0  0  0  0  0  0  0  0  0  0  # atno 17342 bound_to 10162
  140.0347  144.6054  150.7459 LP  0  0  0  0  0  0  0  0  0  0  0  0  # atno 17343 bound_to 10162
  156.3692  130.7521  151.2503 LP  0  0  0  0  0  0  0  0  0  0  0  0  # atno 17370 bound_to 10713
  157.7496  131.0328  150.4243 LP  0  0  0  0  0  0  0  0  0  0  0  0  # atno 17371 bound_to 10713
  140.0847  134.9627  157.1681 LP  0  0  0  0  0  0  0  0  0  0  0  0  # atno 17394 bound_to 11000
  140.3528  134.2580  155.7196 LP  0  0  0  0  0  0  0  0  0  0  0  0  # atno 17395 bound_to 11000

$$$$
