AV-unprocessed.smi:2949|AV-procd|sdf|11286|dock5
  -GOLD-   2272016173D 1   1.00000     0.00000
 Structure written by MMmdl.
 34 35  0  0  0  0  0  0  0  0  1 V2000
  146.0568  139.1925  156.8534 N   0  0  0  0  0  0  0  0  0  0  0  0
  146.6242  139.8891  155.9325 C   0  0  0  0  0  0  0  0  0  0  0  0
  147.2989  139.2655  154.3529 S   0  0  0  0  0  0  0  0  0  0  0  0
  147.7567  140.8976  153.9144 C   0  0  0  0  0  0  0  0  0  0  0  0
  147.4354  141.7801  154.8588 C   0  0  0  0  0  0  0  0  0  0  0  0
  146.8213  141.2704  155.9844 N   0  0  0  0  0  0  0  0  0  0  0  0
  146.3342  142.1251  157.0668 C   0  0  0  0  0  0  0  0  0  0  0  0
  147.3096  142.3360  158.2319 C   0  0  0  0  0  0  0  0  0  0  0  0
  147.0336  141.8900  159.3486 O   0  0  0  0  0  0  0  0  0  0  0  0
  148.4277  143.0292  157.9149 N   0  0  0  0  0  0  0  0  0  0  0  0
  149.4903  143.3976  158.6694 C   0  0  0  0  0  0  0  0  0  0  0  0
  149.4666  143.2643  159.8921 O   0  0  0  0  0  0  0  0  0  0  0  0
  150.5541  143.9109  158.0231 N   0  0  0  0  0  0  0  0  0  0  0  0
  151.8780  144.1201  158.6014 C   0  0  0  0  0  0  0  0  0  0  0  0
  152.4752  142.8093  159.1561 C   0  0  0  0  0  0  0  0  0  0  0  0
  152.8995  143.1086  160.5957 C   0  0  0  0  0  0  0  0  0  0  0  0
  151.9608  144.2238  161.0441 C   0  0  0  0  0  0  0  0  0  0  0  0
  151.7919  145.0878  159.7949 C   0  0  0  0  0  0  0  0  0  0  0  0
  148.2384  141.1104  152.9716 H   0  0  0  0  0  0  0  0  0  0  0  0
  147.6078  142.8462  154.8253 H   0  0  0  0  0  0  0  0  0  0  0  0
  146.0438  143.0969  156.6634 H   0  0  0  0  0  0  0  0  0  0  0  0
  145.4181  141.6924  157.4711 H   0  0  0  0  0  0  0  0  0  0  0  0
  148.4800  143.3242  156.9509 H   0  0  0  0  0  0  0  0  0  0  0  0
  150.4332  144.1753  157.0554 H   0  0  0  0  0  0  0  0  0  0  0  0
  152.5369  144.5489  157.8440 H   0  0  0  0  0  0  0  0  0  0  0  0
  151.7264  142.0155  159.1632 H   0  0  0  0  0  0  0  0  0  0  0  0
  153.3119  142.4547  158.5537 H   0  0  0  0  0  0  0  0  0  0  0  0
  152.8473  142.2307  161.2401 H   0  0  0  0  0  0  0  0  0  0  0  0
  153.9286  143.4699  160.6078 H   0  0  0  0  0  0  0  0  0  0  0  0
  150.9975  143.8011  161.3324 H   0  0  0  0  0  0  0  0  0  0  0  0
  152.3486  144.7847  161.8946 H   0  0  0  0  0  0  0  0  0  0  0  0
  152.6172  145.7990  159.7400 H   0  0  0  0  0  0  0  0  0  0  0  0
  150.8695  145.6698  159.8171 H   0  0  0  0  0  0  0  0  0  0  0  0
  145.7747  139.7884  157.6186 H   0  0  0  0  0  0  0  0  0  0  0  0
  1  2  2  0  0  0  0
  1 34  1  0  0  0  0
  2  6  1  0  0  0  0
  2  3  1  0  0  0  0
  3  4  1  0  0  0  0
  4  5  2  0  0  0  0
  4 19  1  0  0  0  0
  5  6  1  0  0  0  0
  5 20  1  0  0  0  0
  6  7  1  0  0  0  0
  7  8  1  0  0  0  0
  7 21  1  0  0  0  0
  7 22  1  0  0  0  0
  8  9  2  0  0  0  0
  8 10  1  0  0  0  0
 10 11  1  0  0  0  0
 10 23  1  0  0  0  0
 11 12  2  0  0  0  0
 11 13  1  0  0  0  0
 13 14  1  0  0  0  0
 13 24  1  0  0  0  0
 14 18  1  0  0  0  0
 14 15  1  0  0  0  0
 14 25  1  0  0  0  0
 15 16  1  0  0  0  0
 15 26  1  0  0  0  0
 15 27  1  0  0  0  0
 16 17  1  0  0  0  0
 16 28  1  0  0  0  0
 16 29  1  0  0  0  0
 17 18  1  0  0  0  0
 17 30  1  0  0  0  0
 17 31  1  0  0  0  0
 18 32  1  0  0  0  0
 18 33  1  0  0  0  0
M  END
> <s_m_source_file>
AV-unprocessed.smi

> <i_m_source_file_index>
2949

> <i_lp_mmshare_version>
43012

> <i_f3d_flags>
0

> <s_epik_input>
W0hdL049YzFcc1tjSF1bY0hdbjFbQ0gyXUMoPU8pW05IXUMoPU8pW05IXVtDSF0yW0NIMl1bQ0gyXVtDSDJdW0NIMl0y

> <s_epik_cmdline>
J2VwaWtfcHl0aG9uJywgJy1waCcsICc3LjAnLCAnLXRuJywgJzgnLCAnLW1hJywgJzIwMCcsICctbWV0YWxfYmluZGluZycsICctaW1hZScsICc8aW5maWxlLm1hZT4nLCAnLW9tYWUnLCAnPG91dGZpbGUubWFlPic=

> <r_epik_Ionization_Penalty>
2.0346

> <r_epik_Ionization_Penalty_Charging>
2.03458

> <r_epik_Ionization_Penalty_Neutral>
2.61125e-05

> <r_epik_State_Penalty>
2.18096

> <r_epik_Charging_Adjusted_Penalty>
4.21554

> <i_epik_Tot_Q>
0

> <i_epik_Tot_abs_Q>
0

> <r_epik_Metal_State_Penalty>
2.18096

> <b_epik_Metal_Only>
0

> <s_lp_Force_Field>
OPLS_2005

> <r_lp_Energy>
22.3694

> <b_lp_Chiralities_Consistent>
1

> <s_lp_Variant>
AV-unprocessed.smi:2949-2

> <Gold.Version>
5.8.1

> <Gold.Id.Protein>
6NUR|6NUR_protein|mol2

> <Gold.PLP.Fitness>
47.8502

> <Gold.PLP.PLP>
-34.9725

> <Gold.PLP.part.hbond>
-5.0000

> <Gold.PLP.part.metal>
0.0000

> <Gold.PLP.part.buried>
-1.3428

> <Gold.PLP.part.nonpolar>
-28.8160

> <Gold.PLP.part.repulsive>
0.2358

> <Gold.PLP.ligand.clash>
0.0000

> <Gold.PLP.ligand.torsion>
0.4671

> <Gold.PLP.Chemscore.Hbond>
2.5962

> <Gold.PLP.Chemscore.CHOScore>
2.0000

> <Gold.PLP.Chemscore.Metal>
0.0000

> <Gold.Chemscore.Hbonds>
donor molecule, donor type, donor heavy atom, donor atom, acceptor molecule, acceptor atom, score
      L1  H    10    23       P1  8028  0.96
      L1  H    13    24       P1  8028  0.61
      P1  H  6933  6944       L1    12  0.19
      P1  H  6934  6946       L1     9  0.67
      L1  C     4    19       P1  7957  1.00
      L1  C     5    20       P1  8028  1.00

> <Gold.PLP.Chemscore.Internal.Correction>
0.0234

> <Gold.Rescore>
     Score         DG    S(hbond)    S(metal)    S(lipo)     H(rot)  DE(clash)    DE(int)     intcor
     12.61     -16.84       2.00        0.00      76.94       1.69       0.12       4.10       ----

> <Gold.Chemscore.Fitness>
12.6114

> <Gold.Chemscore.DG>
-16.8357

> <Gold.Chemscore.ZeroCoef>
-5.4800

> <Gold.Chemscore.Hbond>
1.9979

> <Gold.Chemscore.Metal>
0.0000

> <Gold.Chemscore.Lipo>
76.9392

> <Gold.Chemscore.Internal_Hbond>
0.0000

> <Gold.Chemscore.DEClash>
0.1205

> <Gold.Chemscore.DEInternal>
4.1039

> <Gold.Chemscore.Rot>
1.6871

> <Gold.Chemscore.Internal.Correction>
   9.000000E+99

> <Gold.Chemscore.Hbonds>
donor molecule, donor type, donor heavy atom, donor atom, acceptor molecule, acceptor atom, score
      L1  H    10    23       P1  8028  0.28
      L1  H    13    24       P1  8028  0.57
      P1  H  6933  6944       L1    12  0.20
      P1  H  6934  6946       L1     9  0.68

> <Gold.Chemscore.Hbond.Weighted>
-6.6729

> <Gold.Chemscore.Metal.Weighted>
-0.0000

> <Gold.Chemscore.Lipo.Weighted>
-9.0019

> <Gold.Chemscore.Internal_Hbond.Weighted>
0.0000

> <Gold.Chemscore.DEClash.Weighted>
0.1205

> <Gold.Chemscore.DEInternal.Weighted>
4.1039

> <Gold.Chemscore.Rot.Weighted>
4.3191

> <Gold.Chemscore.Internal.Correction.Weighted>
   9.000000E+99

> <Gold.Protein.RotatedTorsions>
[ 6907 6896 6895 6894 ] final  -73.64 input  -60.11 | X-H torsion
[ 7974 7965 7964 7962 ] final  -23.82 input  175.53 | X-H torsion
[ 8008 7997 7996 7995 ] final -153.11 input   59.86 | X-H torsion
[ 10167 10162 10161 10158 ] final  -75.33 input  -65.29 | X-H torsion
[ 10718 10713 10712 10709 ] final -125.11 input   66.30 | X-H torsion
[ 10763 10752 10751 10750 ] final  100.92 input  -60.55 | X-H torsion
[ 11005 11000 10999 10996 ] final -132.21 input  -57.11 | X-H torsion

> <Gold.Protein.ActiveResidues>
 VAL166  LYS551  ARG553  GLY616  TRP617  ASP618  TYR619  PRO620  LYS621  CYS622 
 ASP623  PHE694  ASN695  SER759  ASP760  ASP761  ALA762  ILE779  LEU786  VAL792 
 PHE793  MET794  SER795  GLU796  ALA797  LYS798  CYS799  TRP800  GLU811  SER814 

> <Gold.Protein.RotatedAtoms>
  150.7122  134.4986  159.5550 H   0  0  0  0  0  0  0  0  0  0  0  0  # atno 6907 bound_to 6896
  152.2588  134.8053  160.0443 H   0  0  0  0  0  0  0  0  0  0  0  0  # atno 6908 bound_to 6896
  151.8774  133.3453  159.3791 H   0  0  0  0  0  0  0  0  0  0  0  0  # atno 6909 bound_to 6896
  146.1593  140.4667  142.8578 H   0  0  0  0  0  0  0  0  0  0  0  0  # atno 7974 bound_to 7965
  155.6657  140.0727  157.2538 H   0  0  0  0  0  0  0  0  0  0  0  0  # atno 8008 bound_to 7997
  154.4133  140.1708  156.1876 H   0  0  0  0  0  0  0  0  0  0  0  0  # atno 8009 bound_to 7997
  155.9659  140.3366  155.6535 H   0  0  0  0  0  0  0  0  0  0  0  0  # atno 8010 bound_to 7997
  140.4952  143.2372  151.7843 H   0  0  0  0  0  0  0  0  0  0  0  0  # atno 10167 bound_to 10162
  156.1647  130.6626  151.0098 H   0  0  0  0  0  0  0  0  0  0  0  0  # atno 10718 bound_to 10713
  153.3201  135.4062  155.1409 H   0  0  0  0  0  0  0  0  0  0  0  0  # atno 10763 bound_to 10752
  154.8598  135.3585  154.5608 H   0  0  0  0  0  0  0  0  0  0  0  0  # atno 10764 bound_to 10752
  153.6041  135.7070  153.5431 H   0  0  0  0  0  0  0  0  0  0  0  0  # atno 10765 bound_to 10752
  140.9190  134.1468  157.4329 H   0  0  0  0  0  0  0  0  0  0  0  0  # atno 11005 bound_to 11000
  144.8005  140.6204  143.6481 LP  0  0  0  0  0  0  0  0  0  0  0  0  # atno 17320 bound_to 7965
  145.4629  139.1511  143.3856 LP  0  0  0  0  0  0  0  0  0  0  0  0  # atno 17321 bound_to 7965
  139.4859  144.4597  151.9556 LP  0  0  0  0  0  0  0  0  0  0  0  0  # atno 17342 bound_to 10162
  140.3684  144.2886  150.5923 LP  0  0  0  0  0  0  0  0  0  0  0  0  # atno 17343 bound_to 10162
  157.6759  131.0850  150.7496 LP  0  0  0  0  0  0  0  0  0  0  0  0  # atno 17370 bound_to 10713
  156.7558  130.4783  149.5447 LP  0  0  0  0  0  0  0  0  0  0  0  0  # atno 17371 bound_to 10713
  139.8772  134.9964  156.5795 LP  0  0  0  0  0  0  0  0  0  0  0  0  # atno 17394 bound_to 11000
  140.8012  133.8504  155.8728 LP  0  0  0  0  0  0  0  0  0  0  0  0  # atno 17395 bound_to 11000

$$$$
