AV-unprocessed.smi:867|AV-procd|sdf|4000|dock6
  -GOLD-   22720 1483D 1   1.00000     0.00000
 Structure written by MMmdl.
 54 57  0  0  0  0  0  0  0  0  3 V2000
  148.9282  138.9260  153.9202 O   0  0  0  0  0  0  0  0  0  0  0  0
  148.1683  139.5899  154.6261 C   0  0  0  0  0  0  0  0  0  0  0  0
  147.0078  139.0948  155.0893 N   0  0  0  0  0  0  0  0  0  0  0  0
  146.5131  137.7458  154.8411 C   0  0  0  0  0  0  0  0  0  0  0  0
  145.0953  137.5513  155.4025 C   0  0  0  0  0  0  0  0  0  0  0  0
  144.2316  136.7039  154.4890 C   0  0  0  0  0  0  0  0  0  0  0  0
  143.7741  137.2183  153.2555 C   0  0  0  0  0  0  0  0  0  0  0  0
  142.9680  136.4110  152.4260 C   0  0  0  0  0  0  0  0  0  0  0  0
  142.6368  135.1075  152.8493 C   0  0  0  0  0  0  0  0  0  0  0  0
  143.0921  134.6500  154.0366 N   0  3  0  0  0  0  0  0  0  0  0  0
  143.8663  135.3914  154.8594 C   0  0  0  0  0  0  0  0  0  0  0  0
  148.3957  140.8889  154.9427 N   0  0  0  0  0  0  0  0  0  0  0  0
  147.6154  141.6990  155.8851 C   0  0  0  0  0  0  0  0  0  0  0  0
  148.4219  141.8574  157.1863 C   0  0  0  0  0  0  0  0  0  0  0  0
  149.7688  142.4576  156.9444 N   0  3  0  0  0  0  0  0  0  0  0  0
  150.5461  142.6132  158.2132 C   0  0  2  0  0  0  0  0  0  0  0  0
  150.0227  143.7889  159.0820 C   0  0  0  0  0  0  0  0  0  0  0  0
  151.2791  144.6332  159.3495 C   0  0  1  0  0  0  0  0  0  0  0  0
  152.2258  143.8684  160.2893 C   0  0  0  0  0  0  0  0  0  0  0  0
  152.7749  142.7587  159.3760 C   0  0  0  0  0  0  0  0  0  0  0  0
  152.0410  143.0105  158.0435 C   0  0  2  0  0  0  0  0  0  0  0  0
  151.9970  144.5341  158.0104 C   0  0  0  0  0  0  0  0  0  0  0  0
  150.5055  141.7429  155.8600 C   0  0  0  0  0  0  0  0  0  0  0  0
  149.6448  141.5670  154.5953 C   0  0  0  0  0  0  0  0  0  0  0  0
  146.4181  139.7034  155.6384 H   0  0  0  0  0  0  0  0  0  0  0  0
  146.5135  137.5777  153.7637 H   0  0  0  0  0  0  0  0  0  0  0  0
  147.1998  137.0131  155.2689 H   0  0  0  0  0  0  0  0  0  0  0  0
  145.1371  137.0767  156.3839 H   0  0  0  0  0  0  0  0  0  0  0  0
  144.6153  138.5195  155.5503 H   0  0  0  0  0  0  0  0  0  0  0  0
  144.0355  138.2207  152.9478 H   0  0  0  0  0  0  0  0  0  0  0  0
  142.6083  136.7872  151.4794 H   0  0  0  0  0  0  0  0  0  0  0  0
  142.0256  134.4231  152.2794 H   0  0  0  0  0  0  0  0  0  0  0  0
  144.1652  134.9156  155.7823 H   0  0  0  0  0  0  0  0  0  0  0  0
  147.4228  142.6779  155.4431 H   0  0  0  0  0  0  0  0  0  0  0  0
  146.6333  141.2854  156.1138 H   0  0  0  0  0  0  0  0  0  0  0  0
  147.8428  142.4654  157.8797 H   0  0  0  0  0  0  0  0  0  0  0  0
  148.5445  140.8812  157.6586 H   0  0  0  0  0  0  0  0  0  0  0  0
  150.4793  141.6722  158.7622 H   0  0  0  0  0  0  0  0  0  0  0  0
  149.2996  144.4047  158.5462 H   0  0  0  0  0  0  0  0  0  0  0  0
  149.5479  143.4455  160.0018 H   0  0  0  0  0  0  0  0  0  0  0  0
  151.0605  145.6488  159.6809 H   0  0  0  0  0  0  0  0  0  0  0  0
  153.0337  144.5123  160.6391 H   0  0  0  0  0  0  0  0  0  0  0  0
  151.7088  143.4723  161.1643 H   0  0  0  0  0  0  0  0  0  0  0  0
  153.8527  142.8705  159.2491 H   0  0  0  0  0  0  0  0  0  0  0  0
  152.5909  141.7603  159.7742 H   0  0  0  0  0  0  0  0  0  0  0  0
  152.5742  142.5520  157.2142 H   0  0  0  0  0  0  0  0  0  0  0  0
  151.4191  144.9337  157.1753 H   0  0  0  0  0  0  0  0  0  0  0  0
  152.9855  144.9970  158.0159 H   0  0  0  0  0  0  0  0  0  0  0  0
  151.3956  142.2941  155.5653 H   0  0  0  0  0  0  0  0  0  0  0  0
  150.8339  140.7687  156.2256 H   0  0  0  0  0  0  0  0  0  0  0  0
  150.2113  141.0358  153.8286 H   0  0  0  0  0  0  0  0  0  0  0  0
  149.4135  142.5420  154.1632 H   0  0  0  0  0  0  0  0  0  0  0  0
  149.6037  143.3908  156.5951 H   0  0  0  0  0  0  0  0  0  0  0  0
  142.8396  133.7040  154.3243 H   0  0  0  0  0  0  0  0  0  0  0  0
  1  2  2  0  0  0  0
  2  3  1  0  0  0  0
  2 12  1  0  0  0  0
  3  4  1  0  0  0  0
  3 25  1  0  0  0  0
  4  5  1  0  0  0  0
  4 26  1  0  0  0  0
  4 27  1  0  0  0  0
  5  6  1  0  0  0  0
  5 28  1  0  0  0  0
  5 29  1  0  0  0  0
  6 11  1  0  0  0  0
  6  7  2  0  0  0  0
  7  8  1  0  0  0  0
  7 30  1  0  0  0  0
  8  9  2  0  0  0  0
  8 31  1  0  0  0  0
  9 10  1  0  0  0  0
  9 32  1  0  0  0  0
 10 11  2  0  0  0  0
 10 54  1  0  0  0  0
 11 33  1  0  0  0  0
 12 24  1  0  0  0  0
 12 13  1  0  0  0  0
 13 14  1  0  0  0  0
 13 34  1  0  0  0  0
 13 35  1  0  0  0  0
 14 15  1  0  0  0  0
 14 36  1  0  0  0  0
 14 37  1  0  0  0  0
 15 16  1  0  0  0  0
 15 23  1  0  0  0  0
 15 53  1  0  0  0  0
 16 21  1  0  0  0  0
 16 17  1  0  0  0  0
 16 38  1  0  0  0  0
 17 18  1  0  0  0  0
 17 39  1  0  0  0  0
 17 40  1  0  0  0  0
 18 22  1  0  0  0  0
 18 19  1  0  0  0  0
 18 41  1  0  0  0  0
 19 20  1  0  0  0  0
 19 42  1  0  0  0  0
 19 43  1  0  0  0  0
 20 21  1  0  0  0  0
 20 44  1  0  0  0  0
 20 45  1  0  0  0  0
 21 22  1  0  0  0  0
 21 46  1  0  0  0  0
 22 47  1  0  0  0  0
 22 48  1  0  0  0  0
 23 24  1  0  0  0  0
 23 49  1  0  0  0  0
 23 50  1  0  0  0  0
 24 51  1  0  0  0  0
 24 52  1  0  0  0  0
M  CHG  1  10   1
M  CHG  1  15   1
M  END
> <s_m_source_file>
AV-unprocessed.smi

> <i_m_source_file_index>
867

> <i_lp_mmshare_version>
43012

> <i_f3d_flags>
0

> <s_epik_input>
W0NIMl0xW0NIMl1bQ0BASF0oW0NIMl0yKVtDQEBIXShbQ0gyXVtDQEhdMTIpTihbQ0gyXVtDSDJdMylbQ0gyXVtDSDJdTjNDKD1PKVtOSF1bQ0gyXVtDSDJdYzRbY0hdW2NIXVtjSF1uW2NIXTQ=

> <s_epik_cmdline>
J2VwaWtfcHl0aG9uJywgJy1waCcsICc3LjAnLCAnLXRuJywgJzgnLCAnLW1hJywgJzIwMCcsICctbWV0YWxfYmluZGluZycsICctaW1hZScsICc8aW5maWxlLm1hZT4nLCAnLW9tYWUnLCAnPG91dGZpbGUubWFlPic=

> <r_epik_Ionization_Penalty>
2.25108

> <r_epik_Ionization_Penalty_Charging>
2.25105

> <r_epik_Ionization_Penalty_Neutral>
2.64641e-05

> <r_epik_State_Penalty>
2.39519

> <r_epik_Charging_Adjusted_Penalty>
4.64625

> <i_epik_Tot_Q>
2

> <i_epik_Tot_abs_Q>
2

> <r_epik_Metal_State_Penalty>
2.40865

> <b_epik_Metal_Only>
0

> <s_lp_Force_Field>
OPLS_2005

> <r_lp_Energy>
104.696

> <b_lp_Chiralities_Consistent>
1

> <s_lp_Variant>
AV-unprocessed.smi:867-7

> <Gold.Version>
5.8.1

> <Gold.Id.Protein>
6NUR|6NUR_protein|mol2

> <Gold.PLP.Fitness>
52.3863

> <Gold.PLP.PLP>
-41.6956

> <Gold.PLP.part.hbond>
-2.4331

> <Gold.PLP.part.metal>
0.0000

> <Gold.PLP.part.buried>
-6.9768

> <Gold.PLP.part.nonpolar>
-32.3894

> <Gold.PLP.part.repulsive>
0.2190

> <Gold.PLP.ligand.clash>
0.0000

> <Gold.PLP.ligand.torsion>
0.6863

> <Gold.PLP.Chemscore.Hbond>
3.9840

> <Gold.PLP.Chemscore.CHOScore>
0.0000

> <Gold.PLP.Chemscore.Metal>
0.0000

> <Gold.Chemscore.Hbonds>
donor molecule, donor type, donor heavy atom, donor atom, acceptor molecule, acceptor atom, score
      L1  H    10    54       P1 10957  2.00
      L1  H    15    53       P1  8028  2.00

> <Gold.PLP.Chemscore.Internal.Correction>
0.1112

> <Gold.Rescore>
     Score         DG    S(hbond)    S(metal)    S(lipo)     H(rot)  DE(clash)    DE(int)     intcor
     20.65     -21.61       1.98        0.00     113.24       1.46       0.19       0.76       ----

> <Gold.Chemscore.Fitness>
20.6548

> <Gold.Chemscore.DG>
-21.6059

> <Gold.Chemscore.ZeroCoef>
-5.4800

> <Gold.Chemscore.Hbond>
1.9784

> <Gold.Chemscore.Metal>
0.0000

> <Gold.Chemscore.Lipo>
113.2365

> <Gold.Chemscore.Internal_Hbond>
0.0000

> <Gold.Chemscore.DEClash>
0.1907

> <Gold.Chemscore.DEInternal>
0.7603

> <Gold.Chemscore.Rot>
1.4572

> <Gold.Chemscore.Internal.Correction>
   9.000000E+99

> <Gold.Chemscore.Hbonds>
donor molecule, donor type, donor heavy atom, donor atom, acceptor molecule, acceptor atom, score
      L1  H    10    54       P1 10957  0.97
      L1  H    15    53       P1  8028  1.00

> <Gold.Chemscore.Hbond.Weighted>
-6.6077

> <Gold.Chemscore.Metal.Weighted>
-0.0000

> <Gold.Chemscore.Lipo.Weighted>
-13.2487

> <Gold.Chemscore.Internal_Hbond.Weighted>
0.0000

> <Gold.Chemscore.DEClash.Weighted>
0.1907

> <Gold.Chemscore.DEInternal.Weighted>
0.7603

> <Gold.Chemscore.Rot.Weighted>
3.7305

> <Gold.Chemscore.Internal.Correction.Weighted>
   9.000000E+99

> <Gold.Protein.RotatedTorsions>
[ 6907 6896 6895 6894 ] final -163.97 input  -60.11 | X-H torsion
[ 7974 7965 7964 7962 ] final   66.86 input  175.53 | X-H torsion
[ 8008 7997 7996 7995 ] final    8.29 input   59.86 | X-H torsion
[ 10167 10162 10161 10158 ] final   76.42 input  -65.29 | X-H torsion
[ 10718 10713 10712 10709 ] final -120.85 input   66.30 | X-H torsion
[ 10763 10752 10751 10750 ] final  -51.05 input  -60.55 | X-H torsion
[ 11005 11000 10999 10996 ] final  -39.34 input  -57.11 | X-H torsion

> <Gold.Protein.ActiveResidues>
 VAL166  LYS551  ARG553  GLY616  TRP617  ASP618  TYR619  PRO620  LYS621  CYS622 
 ASP623  PHE694  ASN695  SER759  ASP760  ASP761  ALA762  ILE779  LEU786  VAL792 
 PHE793  MET794  SER795  GLU796  ALA797  LYS798  CYS799  TRP800  GLU811  SER814 

> <Gold.Protein.RotatedAtoms>
  151.4044  133.3747  159.2735 H   0  0  0  0  0  0  0  0  0  0  0  0  # atno 6907 bound_to 6896
  150.9409  134.8820  159.7622 H   0  0  0  0  0  0  0  0  0  0  0  0  # atno 6908 bound_to 6896
  152.5071  134.3994  159.9463 H   0  0  0  0  0  0  0  0  0  0  0  0  # atno 6909 bound_to 6896
  145.8215  139.3087  143.1040 H   0  0  0  0  0  0  0  0  0  0  0  0  # atno 7974 bound_to 7965
  154.7649  140.2791  155.6184 H   0  0  0  0  0  0  0  0  0  0  0  0  # atno 8008 bound_to 7997
  156.2923  140.2653  156.2364 H   0  0  0  0  0  0  0  0  0  0  0  0  # atno 8009 bound_to 7997
  154.9972  140.0373  157.2334 H   0  0  0  0  0  0  0  0  0  0  0  0  # atno 8010 bound_to 7997
  139.9925  144.5746  150.7806 H   0  0  0  0  0  0  0  0  0  0  0  0  # atno 10167 bound_to 10162
  156.1291  130.6381  150.9591 H   0  0  0  0  0  0  0  0  0  0  0  0  # atno 10718 bound_to 10713
  154.1203  135.6535  153.4902 H   0  0  0  0  0  0  0  0  0  0  0  0  # atno 10763 bound_to 10752
  153.0227  135.5269  154.7103 H   0  0  0  0  0  0  0  0  0  0  0  0  # atno 10764 bound_to 10752
  154.6309  135.2976  155.0188 H   0  0  0  0  0  0  0  0  0  0  0  0  # atno 10765 bound_to 10752
  141.0095  133.6915  156.2174 H   0  0  0  0  0  0  0  0  0  0  0  0  # atno 11005 bound_to 11000
  145.9669  140.8791  143.0182 LP  0  0  0  0  0  0  0  0  0  0  0  0  # atno 17320 bound_to 7965
  144.6747  140.1891  143.7398 LP  0  0  0  0  0  0  0  0  0  0  0  0  # atno 17321 bound_to 7965
  140.7449  143.2868  151.3441 LP  0  0  0  0  0  0  0  0  0  0  0  0  # atno 17342 bound_to 10162
  139.6330  144.0685  152.2492 LP  0  0  0  0  0  0  0  0  0  0  0  0  # atno 17343 bound_to 10162
  157.6470  131.0902  150.8132 LP  0  0  0  0  0  0  0  0  0  0  0  0  # atno 17370 bound_to 10713
  156.8219  130.4987  149.5342 LP  0  0  0  0  0  0  0  0  0  0  0  0  # atno 17371 bound_to 10713
  140.6757  134.4820  157.5588 LP  0  0  0  0  0  0  0  0  0  0  0  0  # atno 17394 bound_to 11000
  139.9082  134.8403  156.1627 LP  0  0  0  0  0  0  0  0  0  0  0  0  # atno 17395 bound_to 11000

$$$$
