AV-unprocessed.smi:2923|AV-procd|sdf|11212|dock7
  -GOLD-   2272016103D 1   1.00000     0.00000
 Structure written by MMmdl.
 46 48  0  0  0  0  0  0  0  0  1 V2000
  153.8972  132.1904  157.4209 C   0  0  0  0  0  0  0  0  0  0  0  0
  153.2284  133.4808  157.4853 N   0  0  0  0  0  0  0  0  0  0  0  0
  154.0909  134.6517  157.5094 C   0  0  0  0  0  0  0  0  0  0  0  0
  152.1746  133.5978  156.5693 C   0  0  0  0  0  0  0  0  0  0  0  0
  151.5423  132.4565  156.0259 C   0  0  0  0  0  0  0  0  0  0  0  0
  150.4855  132.6364  155.1129 C   0  0  0  0  0  0  0  0  0  0  0  0
  150.0891  133.9527  154.7772 C   0  0  0  0  0  0  0  0  0  0  0  0
  149.0505  134.2664  153.8598 N   0  0  0  0  0  0  0  0  0  0  0  0
  147.8671  133.6508  153.6953 C   0  0  0  0  0  0  0  0  0  0  0  0
  147.4750  132.6755  154.3354 O   0  0  0  0  0  0  0  0  0  0  0  0
  147.1362  134.2527  152.7475 N   0  0  0  0  0  0  0  0  0  0  0  0
  145.7910  133.8403  152.3594 C   0  0  2  0  0  0  0  0  0  0  0  0
  145.7403  133.2516  150.9407 C   0  0  1  0  0  0  0  0  0  0  0  0
  145.3803  131.8042  150.7416 C   0  0  0  0  0  0  0  0  0  0  0  0
  143.8767  131.8621  150.4566 C   0  0  0  0  0  0  0  0  0  0  0  0
  143.4522  133.1039  151.0134 O   0  0  0  0  0  0  0  0  0  0  0  0
  144.4699  134.0646  150.7428 C   0  0  1  0  0  0  0  0  0  0  0  0
  144.8668  134.9991  151.9053 C   0  0  0  0  0  0  0  0  0  0  0  0
  143.7447  135.3840  152.8707 C   0  0  0  0  0  0  0  0  0  0  0  0
  145.5358  136.3079  151.4600 C   0  0  0  0  0  0  0  0  0  0  0  0
  150.7984  135.0214  155.3640 C   0  0  0  0  0  0  0  0  0  0  0  0
  151.8113  134.8562  156.2407 N   0  0  0  0  0  0  0  0  0  0  0  0
  153.1710  131.3766  157.4070 H   0  0  0  0  0  0  0  0  0  0  0  0
  154.5370  132.0549  158.2933 H   0  0  0  0  0  0  0  0  0  0  0  0
  154.5182  132.1156  156.5274 H   0  0  0  0  0  0  0  0  0  0  0  0
  153.5009  135.5668  157.5749 H   0  0  0  0  0  0  0  0  0  0  0  0
  154.7085  134.7014  156.6118 H   0  0  0  0  0  0  0  0  0  0  0  0
  154.7513  134.6145  158.3762 H   0  0  0  0  0  0  0  0  0  0  0  0
  151.8605  131.4607  156.2976 H   0  0  0  0  0  0  0  0  0  0  0  0
  150.0138  131.7668  154.6825 H   0  0  0  0  0  0  0  0  0  0  0  0
  149.1955  135.1021  153.3126 H   0  0  0  0  0  0  0  0  0  0  0  0
  147.5284  135.0511  152.2704 H   0  0  0  0  0  0  0  0  0  0  0  0
  145.3051  133.1844  153.0856 H   0  0  0  0  0  0  0  0  0  0  0  0
  146.5502  133.6128  150.3042 H   0  0  0  0  0  0  0  0  0  0  0  0
  145.9268  131.3449  149.9176 H   0  0  0  0  0  0  0  0  0  0  0  0
  145.5830  131.2253  151.6433 H   0  0  0  0  0  0  0  0  0  0  0  0
  143.6906  131.8743  149.3817 H   0  0  0  0  0  0  0  0  0  0  0  0
  143.3329  131.0214  150.8879 H   0  0  0  0  0  0  0  0  0  0  0  0
  144.3846  134.5270  149.7582 H   0  0  0  0  0  0  0  0  0  0  0  0
  142.9921  136.0040  152.3830 H   0  0  0  0  0  0  0  0  0  0  0  0
  144.1280  135.9395  153.7272 H   0  0  0  0  0  0  0  0  0  0  0  0
  143.2333  134.5053  153.2644 H   0  0  0  0  0  0  0  0  0  0  0  0
  144.8288  136.9618  150.9487 H   0  0  0  0  0  0  0  0  0  0  0  0
  146.3593  136.1271  150.7687 H   0  0  0  0  0  0  0  0  0  0  0  0
  145.9395  136.8633  152.3072 H   0  0  0  0  0  0  0  0  0  0  0  0
  150.5424  136.0440  155.1282 H   0  0  0  0  0  0  0  0  0  0  0  0
  1  2  1  0  0  0  0
  1 23  1  0  0  0  0
  1 24  1  0  0  0  0
  1 25  1  0  0  0  0
  2  3  1  0  0  0  0
  2  4  1  0  0  0  0
  3 26  1  0  0  0  0
  3 27  1  0  0  0  0
  3 28  1  0  0  0  0
  4 22  1  0  0  0  0
  4  5  2  0  0  0  0
  5  6  1  0  0  0  0
  5 29  1  0  0  0  0
  6  7  2  0  0  0  0
  6 30  1  0  0  0  0
  7  8  1  0  0  0  0
  7 21  1  0  0  0  0
  8  9  1  0  0  0  0
  8 31  1  0  0  0  0
  9 10  2  0  0  0  0
  9 11  1  0  0  0  0
 11 12  1  0  0  0  0
 11 32  1  0  0  0  0
 12 18  1  0  0  0  0
 12 13  1  0  0  0  0
 12 33  1  0  0  0  0
 13 17  1  0  0  0  0
 13 14  1  0  0  0  0
 13 34  1  0  0  0  0
 14 15  1  0  0  0  0
 14 35  1  0  0  0  0
 14 36  1  0  0  0  0
 15 16  1  0  0  0  0
 15 37  1  0  0  0  0
 15 38  1  0  0  0  0
 16 17  1  0  0  0  0
 17 18  1  0  0  0  0
 17 39  1  0  0  0  0
 18 19  1  0  0  0  0
 18 20  1  0  0  0  0
 19 40  1  0  0  0  0
 19 41  1  0  0  0  0
 19 42  1  0  0  0  0
 20 43  1  0  0  0  0
 20 44  1  0  0  0  0
 20 45  1  0  0  0  0
 21 22  2  0  0  0  0
 21 46  1  0  0  0  0
M  END
> <s_m_source_file>
AV-unprocessed.smi

> <i_m_source_file_index>
2923

> <i_lp_mmshare_version>
43012

> <i_f3d_flags>
0

> <s_epik_input>
W0NIM11OKFtDSDNdKWMxW2NIXVtjSF1jKFtjSF1uMSlbTkhdQyg9TylbTkhdW0NASF0yQyhbQ0gzXSkoW0NIM10pW0NAQEhdKFtDQEhdMjMpT1tDSDJdW0NIMl0z

> <s_epik_cmdline>
J2VwaWtfcHl0aG9uJywgJy1waCcsICc3LjAnLCAnLXRuJywgJzgnLCAnLW1hJywgJzIwMCcsICctbWV0YWxfYmluZGluZycsICctaW1hZScsICc8aW5maWxlLm1hZT4nLCAnLW9tYWUnLCAnPG91dGZpbGUubWFlPic=

> <r_lp_tautomer_probability>
1

> <r_epik_Ionization_Penalty>
0.628785

> <r_epik_Ionization_Penalty_Charging>
0

> <r_epik_Ionization_Penalty_Neutral>
0.628785

> <r_epik_State_Penalty>
0.644286

> <r_epik_Charging_Adjusted_Penalty>
0.644286

> <i_epik_Tot_Q>
0

> <i_epik_Tot_abs_Q>
0

> <r_epik_Metal_State_Penalty>
0.308404

> <b_epik_Metal_Only>
0

> <s_lp_Force_Field>
OPLS_2005

> <r_lp_Energy>
42.6723

> <b_lp_Chiralities_Consistent>
1

> <s_lp_Variant>
AV-unprocessed.smi:2923-11

> <Gold.Version>
5.8.1

> <Gold.Id.Protein>
6NUR|6NUR_protein|mol2

> <Gold.PLP.Fitness>
40.8693

> <Gold.PLP.PLP>
-32.8636

> <Gold.PLP.part.hbond>
-4.0000

> <Gold.PLP.part.metal>
0.0000

> <Gold.PLP.part.buried>
-4.0357

> <Gold.PLP.part.nonpolar>
-25.1388

> <Gold.PLP.part.repulsive>
0.2575

> <Gold.PLP.ligand.clash>
0.0003

> <Gold.PLP.ligand.torsion>
1.1519

> <Gold.PLP.Chemscore.Hbond>
3.3085

> <Gold.PLP.Chemscore.CHOScore>
0.0000

> <Gold.PLP.Chemscore.Metal>
0.0000

> <Gold.Chemscore.Hbonds>
donor molecule, donor type, donor heavy atom, donor atom, acceptor molecule, acceptor atom, score
      L1  H     8    31       P1  7948  0.85
      L1  H    11    32       P1  7948  1.00
      P1  H  6896  6908       L1     2  0.16
      P1  H 10752 10763       L1    22  0.90

> <Gold.PLP.Chemscore.Internal.Correction>
0.3843

> <Gold.Rescore>
     Score         DG    S(hbond)    S(metal)    S(lipo)     H(rot)  DE(clash)    DE(int)     intcor
     15.28     -16.17       1.46        0.00      75.68       1.19       0.07       0.83       ----

> <Gold.Chemscore.Fitness>
15.2765

> <Gold.Chemscore.DG>
-16.1703

> <Gold.Chemscore.ZeroCoef>
-5.4800

> <Gold.Chemscore.Hbond>
1.4647

> <Gold.Chemscore.Metal>
0.0000

> <Gold.Chemscore.Lipo>
75.6757

> <Gold.Chemscore.Internal_Hbond>
0.0000

> <Gold.Chemscore.DEClash>
0.0670

> <Gold.Chemscore.DEInternal>
0.8267

> <Gold.Chemscore.Rot>
1.1937

> <Gold.Chemscore.Internal.Correction>
   9.000000E+99

> <Gold.Chemscore.Hbonds>
donor molecule, donor type, donor heavy atom, donor atom, acceptor molecule, acceptor atom, score
      L1  H     8    31       P1  7948  0.14
      L1  H    11    32       P1  7948  0.94
      P1  H  6896  6908       L1     2  0.01
      P1  H 10752 10763       L1    22  0.07

> <Gold.Chemscore.Hbond.Weighted>
-4.8921

> <Gold.Chemscore.Metal.Weighted>
-0.0000

> <Gold.Chemscore.Lipo.Weighted>
-8.8541

> <Gold.Chemscore.Internal_Hbond.Weighted>
0.0000

> <Gold.Chemscore.DEClash.Weighted>
0.0670

> <Gold.Chemscore.DEInternal.Weighted>
0.8267

> <Gold.Chemscore.Rot.Weighted>
3.0559

> <Gold.Chemscore.Internal.Correction.Weighted>
   9.000000E+99

> <Gold.Protein.RotatedTorsions>
[ 6907 6896 6895 6894 ] final   -1.75 input  -60.11 | X-H torsion
[ 7974 7965 7964 7962 ] final   23.11 input  175.53 | X-H torsion
[ 8008 7997 7996 7995 ] final -156.28 input   59.86 | X-H torsion
[ 10167 10162 10161 10158 ] final  -74.88 input  -65.29 | X-H torsion
[ 10718 10713 10712 10709 ] final   56.36 input   66.30 | X-H torsion
[ 10763 10752 10751 10750 ] final  100.26 input  -60.55 | X-H torsion
[ 11005 11000 10999 10996 ] final  -14.69 input  -57.11 | X-H torsion

> <Gold.Protein.ActiveResidues>
 VAL166  LYS551  ARG553  GLY616  TRP617  ASP618  TYR619  PRO620  LYS621  CYS622 
 ASP623  PHE694  ASN695  SER759  ASP760  ASP761  ALA762  ILE779  LEU786  VAL792 
 PHE793  MET794  SER795  GLU796  ALA797  LYS798  CYS799  TRP800  GLU811  SER814 

> <Gold.Protein.RotatedAtoms>
  151.5411  135.1068  159.9926 H   0  0  0  0  0  0  0  0  0  0  0  0  # atno 6907 bound_to 6896
  152.4535  133.7672  159.6789 H   0  0  0  0  0  0  0  0  0  0  0  0  # atno 6908 bound_to 6896
  150.8471  133.7779  159.3063 H   0  0  0  0  0  0  0  0  0  0  0  0  # atno 6909 bound_to 6896
  146.1999  139.7790  142.8769 H   0  0  0  0  0  0  0  0  0  0  0  0  # atno 7974 bound_to 7965
  155.7148  140.0783  157.2356 H   0  0  0  0  0  0  0  0  0  0  0  0  # atno 8008 bound_to 7997
  154.4053  140.1623  156.2390 H   0  0  0  0  0  0  0  0  0  0  0  0  # atno 8009 bound_to 7997
  155.9250  140.3395  155.6206 H   0  0  0  0  0  0  0  0  0  0  0  0  # atno 8010 bound_to 7997
  140.4990  143.2365  151.7783 H   0  0  0  0  0  0  0  0  0  0  0  0  # atno 10167 bound_to 10162
  157.5424  130.8707  149.8842 H   0  0  0  0  0  0  0  0  0  0  0  0  # atno 10718 bound_to 10713
  153.3117  135.4085  155.1341 H   0  0  0  0  0  0  0  0  0  0  0  0  # atno 10763 bound_to 10752
  154.8577  135.3566  154.5715 H   0  0  0  0  0  0  0  0  0  0  0  0  # atno 10764 bound_to 10752
  153.6144  135.7066  153.5393 H   0  0  0  0  0  0  0  0  0  0  0  0  # atno 10765 bound_to 10752
  140.7889  133.8303  155.9361 H   0  0  0  0  0  0  0  0  0  0  0  0  # atno 11005 bound_to 11000
  145.3519  141.0309  143.3333 LP  0  0  0  0  0  0  0  0  0  0  0  0  # atno 17320 bound_to 7965
  144.8660  139.5107  143.6790 LP  0  0  0  0  0  0  0  0  0  0  0  0  # atno 17321 bound_to 7965
  139.4868  144.4547  151.9612 LP  0  0  0  0  0  0  0  0  0  0  0  0  # atno 17342 bound_to 10162
  140.3636  144.2942  150.5930 LP  0  0  0  0  0  0  0  0  0  0  0  0  # atno 17343 bound_to 10162
  156.0508  130.3718  150.1206 LP  0  0  0  0  0  0  0  0  0  0  0  0  # atno 17370 bound_to 10713
  156.9385  130.9737  151.3520 LP  0  0  0  0  0  0  0  0  0  0  0  0  # atno 17371 bound_to 10713
  140.9409  134.1902  157.4798 LP  0  0  0  0  0  0  0  0  0  0  0  0  # atno 17394 bound_to 11000
  139.8733  134.9871  156.5354 LP  0  0  0  0  0  0  0  0  0  0  0  0  # atno 17395 bound_to 11000

$$$$
