AV-unprocessed.smi:1801|AV-procd|sdf|7269|dock5
  -GOLD-   22720 8523D 1   1.00000     0.00000
 Structure written by MMmdl.
 37 38  0  0  0  0  0  0  0  0  3 V2000
  149.8949  132.0147  154.1065 C   0  0  0  0  0  0  0  0  0  0  0  0
  148.6937  132.6992  153.4334 C   0  0  2  0  0  0  0  0  0  0  0  0
  148.2778  133.9543  154.2335 C   0  0  0  0  0  0  0  0  0  0  0  0
  149.3453  134.9472  154.3227 N   0  0  0  0  0  0  0  0  0  0  0  0
  150.3362  134.9624  155.2255 C   0  0  0  0  0  0  0  0  0  0  0  0
  150.3761  134.1054  156.1110 O   0  0  0  0  0  0  0  0  0  0  0  0
  151.2268  135.9613  155.0359 N   0  5  0  0  0  0  0  0  0  0  0  0
  150.7977  137.2281  154.9106 C   0  0  0  0  0  0  0  0  0  0  0  0
  151.5889  138.2122  154.4543 N   0  0  0  0  0  0  0  0  0  0  0  0
  150.9535  139.4457  154.4069 N   0  0  0  0  0  0  0  0  0  0  0  0
  149.6955  139.3611  154.8390 C   0  0  0  0  0  0  0  0  0  0  0  0
  149.1735  137.7681  155.3453 S   0  0  0  0  0  0  0  0  0  0  0  0
  147.5182  131.7113  153.2436 C   0  0  0  0  0  0  0  0  0  0  0  0
  146.9012  131.8203  151.9009 N   0  3  0  0  0  0  0  0  0  0  0  0
  145.6587  131.0375  151.7432 C   0  0  0  0  0  0  0  0  0  0  0  0
  144.8988  131.7233  150.6128 C   0  0  0  0  0  0  0  0  0  0  0  0
  145.2049  133.1983  150.8490 C   0  0  0  0  0  0  0  0  0  0  0  0
  146.6160  133.2059  151.4510 C   0  0  0  0  0  0  0  0  0  0  0  0
  149.6381  131.6508  155.1017 H   0  0  0  0  0  0  0  0  0  0  0  0
  150.7304  132.7073  154.2125 H   0  0  0  0  0  0  0  0  0  0  0  0
  150.2501  131.1657  153.5222 H   0  0  0  0  0  0  0  0  0  0  0  0
  149.0270  133.0369  152.4522 H   0  0  0  0  0  0  0  0  0  0  0  0
  147.4174  134.4290  153.7612 H   0  0  0  0  0  0  0  0  0  0  0  0
  147.9614  133.6776  155.2406 H   0  0  0  0  0  0  0  0  0  0  0  0
  149.3458  135.6792  153.6272 H   0  0  0  0  0  0  0  0  0  0  0  0
  149.0722  140.2425  154.8628 H   0  0  0  0  0  0  0  0  0  0  0  0
  147.8787  130.6927  153.3944 H   0  0  0  0  0  0  0  0  0  0  0  0
  146.7365  131.8701  153.9875 H   0  0  0  0  0  0  0  0  0  0  0  0
  145.8686  129.9883  151.5333 H   0  0  0  0  0  0  0  0  0  0  0  0
  145.0708  131.0881  152.6615 H   0  0  0  0  0  0  0  0  0  0  0  0
  145.3006  131.4087  149.6485 H   0  0  0  0  0  0  0  0  0  0  0  0
  143.8309  131.5033  150.6232 H   0  0  0  0  0  0  0  0  0  0  0  0
  145.1311  133.7948  149.9393 H   0  0  0  0  0  0  0  0  0  0  0  0
  144.4972  133.6064  151.5723 H   0  0  0  0  0  0  0  0  0  0  0  0
  146.6793  133.9288  152.2663 H   0  0  0  0  0  0  0  0  0  0  0  0
  147.3582  133.4881  150.7037 H   0  0  0  0  0  0  0  0  0  0  0  0
  147.5584  131.4358  151.2374 H   0  0  0  0  0  0  0  0  0  0  0  0
  1  2  1  0  0  0  0
  1 19  1  0  0  0  0
  1 20  1  0  0  0  0
  1 21  1  0  0  0  0
  2  3  1  0  0  0  0
  2 13  1  0  0  0  0
  2 22  1  0  0  0  0
  3  4  1  0  0  0  0
  3 23  1  0  0  0  0
  3 24  1  0  0  0  0
  4  5  1  0  0  0  0
  4 25  1  0  0  0  0
  5  6  2  0  0  0  0
  5  7  1  0  0  0  0
  7  8  1  0  0  0  0
  8 12  1  0  0  0  0
  8  9  2  0  0  0  0
  9 10  1  0  0  0  0
 10 11  2  0  0  0  0
 11 12  1  0  0  0  0
 11 26  1  0  0  0  0
 13 14  1  0  0  0  0
 13 27  1  0  0  0  0
 13 28  1  0  0  0  0
 14 18  1  0  0  0  0
 14 15  1  0  0  0  0
 14 37  1  0  0  0  0
 15 16  1  0  0  0  0
 15 29  1  0  0  0  0
 15 30  1  0  0  0  0
 16 17  1  0  0  0  0
 16 31  1  0  0  0  0
 16 32  1  0  0  0  0
 17 18  1  0  0  0  0
 17 33  1  0  0  0  0
 17 34  1  0  0  0  0
 18 35  1  0  0  0  0
 18 36  1  0  0  0  0
M  CHG  1   7  -1
M  CHG  1  14   1
M  END
> <s_m_source_file>
AV-unprocessed.smi

> <i_m_source_file_index>
1801

> <i_lp_mmshare_version>
43012

> <i_f3d_flags>
0

> <s_epik_input>
W0NIMl0xW0NIMl1bQ0gyXVtDSDJdTjFbQ0gyXVtDQEhdKFtDSDNdKVtDSDJdW05IXUMoPU8pW05IXWMybm5bY0hdczI=

> <s_epik_cmdline>
J2VwaWtfcHl0aG9uJywgJy1waCcsICc3LjAnLCAnLXRuJywgJzgnLCAnLW1hJywgJzIwMCcsICctbWV0YWxfYmluZGluZycsICctaW1hZScsICc8aW5maWxlLm1hZT4nLCAnLW9tYWUnLCAnPG91dGZpbGUubWFlPic=

> <r_lp_tautomer_probability>
1

> <r_epik_Ionization_Penalty>
3.29721

> <r_epik_Ionization_Penalty_Charging>
3.25987

> <r_epik_Ionization_Penalty_Neutral>
0.0373399

> <r_epik_State_Penalty>
3.2571

> <r_epik_Charging_Adjusted_Penalty>
6.51697

> <i_epik_Tot_Q>
0

> <i_epik_Tot_abs_Q>
2

> <r_epik_Metal_State_Penalty>
0.477553

> <b_epik_Metal_Only>
1

> <s_lp_Force_Field>
OPLS_2005

> <r_lp_Energy>
22.4794

> <b_lp_Chiralities_Consistent>
1

> <s_lp_Variant>
AV-unprocessed.smi:1801-3

> <Gold.Version>
5.8.1

> <Gold.Id.Protein>
6NUR|6NUR_protein|mol2

> <Gold.PLP.Fitness>
43.8410

> <Gold.PLP.PLP>
-31.3981

> <Gold.PLP.part.hbond>
-4.0000

> <Gold.PLP.part.metal>
0.0000

> <Gold.PLP.part.buried>
-6.6241

> <Gold.PLP.part.nonpolar>
-21.9869

> <Gold.PLP.part.repulsive>
0.4237

> <Gold.PLP.ligand.clash>
0.0000

> <Gold.PLP.ligand.torsion>
1.3453

> <Gold.PLP.Chemscore.Hbond>
4.9920

> <Gold.PLP.Chemscore.CHOScore>
0.0000

> <Gold.PLP.Chemscore.Metal>
0.0000

> <Gold.Chemscore.Hbonds>
donor molecule, donor type, donor heavy atom, donor atom, acceptor molecule, acceptor atom, score
      L1  H     4    25       P1  7948  0.96
      L1  H    14    37       P1 10747  1.00
      P1  H  7989  7998       L1    10  1.00
      P1  H 10752 10763       L1     7  2.00

> <Gold.PLP.Chemscore.Internal.Correction>
0.1575

> <Gold.Rescore>
     Score         DG    S(hbond)    S(metal)    S(lipo)     H(rot)  DE(clash)    DE(int)     intcor
     16.97     -19.97       3.53        0.00      65.11       1.93       0.03       2.97       ----

> <Gold.Chemscore.Fitness>
16.9652

> <Gold.Chemscore.DG>
-19.9691

> <Gold.Chemscore.ZeroCoef>
-5.4800

> <Gold.Chemscore.Hbond>
3.5340

> <Gold.Chemscore.Metal>
0.0000

> <Gold.Chemscore.Lipo>
65.1085

> <Gold.Chemscore.Internal_Hbond>
0.0000

> <Gold.Chemscore.DEClash>
0.0319

> <Gold.Chemscore.DEInternal>
2.9720

> <Gold.Chemscore.Rot>
1.9266

> <Gold.Chemscore.Internal.Correction>
   9.000000E+99

> <Gold.Chemscore.Hbonds>
donor molecule, donor type, donor heavy atom, donor atom, acceptor molecule, acceptor atom, score
      L1  H     4    25       P1  7948  0.41
      L1  H    14    37       P1 10747  1.00
      P1  H  7989  7998       L1    10  0.99
      P1  H 10752 10763       L1     7  0.95

> <Gold.Chemscore.Hbond.Weighted>
-11.8034

> <Gold.Chemscore.Metal.Weighted>
-0.0000

> <Gold.Chemscore.Lipo.Weighted>
-7.6177

> <Gold.Chemscore.Internal_Hbond.Weighted>
0.0000

> <Gold.Chemscore.DEClash.Weighted>
0.0319

> <Gold.Chemscore.DEInternal.Weighted>
2.9720

> <Gold.Chemscore.Rot.Weighted>
4.9321

> <Gold.Chemscore.Internal.Correction.Weighted>
   9.000000E+99

> <Gold.Protein.RotatedTorsions>
[ 6907 6896 6895 6894 ] final   -7.33 input  -60.11 | X-H torsion
[ 7974 7965 7964 7962 ] final  100.30 input  175.53 | X-H torsion
[ 8008 7997 7996 7995 ] final   83.67 input   59.86 | X-H torsion
[ 10167 10162 10161 10158 ] final  130.31 input  -65.29 | X-H torsion
[ 10718 10713 10712 10709 ] final    3.08 input   66.30 | X-H torsion
[ 10763 10752 10751 10750 ] final   59.62 input  -60.55 | X-H torsion
[ 11005 11000 10999 10996 ] final  -15.53 input  -57.11 | X-H torsion

> <Gold.Protein.ActiveResidues>
 VAL166  LYS551  ARG553  GLY616  TRP617  ASP618  TYR619  PRO620  LYS621  CYS622 
 ASP623  PHE694  ASN695  SER759  ASP760  ASP761  ALA762  ILE779  LEU786  VAL792 
 PHE793  MET794  SER795  GLU796  ALA797  LYS798  CYS799  TRP800  GLU811  SER814 

> <Gold.Protein.RotatedAtoms>
  151.4513  135.1030  159.9698 H   0  0  0  0  0  0  0  0  0  0  0  0  # atno 6907 bound_to 6896
  152.4887  133.8438  159.7177 H   0  0  0  0  0  0  0  0  0  0  0  0  # atno 6908 bound_to 6896
  150.9020  133.7046  159.2903 H   0  0  0  0  0  0  0  0  0  0  0  0  # atno 6909 bound_to 6896
  145.3874  139.2369  143.3370 H   0  0  0  0  0  0  0  0  0  0  0  0  # atno 7974 bound_to 7965
  155.9270  140.3417  155.6219 H   0  0  0  0  0  0  0  0  0  0  0  0  # atno 8008 bound_to 7997
  155.7203  140.0783  157.2352 H   0  0  0  0  0  0  0  0  0  0  0  0  # atno 8009 bound_to 7997
  154.4079  140.1606  156.2382 H   0  0  0  0  0  0  0  0  0  0  0  0  # atno 8010 bound_to 7997
  139.5436  144.6753  151.4545 H   0  0  0  0  0  0  0  0  0  0  0  0  # atno 10167 bound_to 10162
  156.8726  130.5625  149.5656 H   0  0  0  0  0  0  0  0  0  0  0  0  # atno 10718 bound_to 10713
  152.9899  135.5565  154.5742 H   0  0  0  0  0  0  0  0  0  0  0  0  # atno 10763 bound_to 10752
  154.5136  135.2803  155.1324 H   0  0  0  0  0  0  0  0  0  0  0  0  # atno 10764 bound_to 10752
  154.2706  135.6364  153.5361 H   0  0  0  0  0  0  0  0  0  0  0  0  # atno 10765 bound_to 10752
  140.7976  133.8239  155.9439 H   0  0  0  0  0  0  0  0  0  0  0  0  # atno 11005 bound_to 11000
  146.2814  140.4551  142.8775 LP  0  0  0  0  0  0  0  0  0  0  0  0  # atno 17320 bound_to 7965
  144.8464  140.6936  143.6196 LP  0  0  0  0  0  0  0  0  0  0  0  0  # atno 17321 bound_to 7965
  140.6676  143.8365  150.6960 LP  0  0  0  0  0  0  0  0  0  0  0  0  # atno 17342 bound_to 10162
  140.1779  143.4140  152.1954 LP  0  0  0  0  0  0  0  0  0  0  0  0  # atno 17343 bound_to 10162
  156.0719  130.5750  150.9399 LP  0  0  0  0  0  0  0  0  0  0  0  0  # atno 17370 bound_to 10713
  157.6187  131.0931  150.8663 LP  0  0  0  0  0  0  0  0  0  0  0  0  # atno 17371 bound_to 10713
  140.9327  134.2001  157.4853 LP  0  0  0  0  0  0  0  0  0  0  0  0  # atno 17394 bound_to 11000
  139.8725  134.9839  156.5219 LP  0  0  0  0  0  0  0  0  0  0  0  0  # atno 17395 bound_to 11000

$$$$
