AV-unprocessed.smi:1703|AV-procd|sdf|6870|dock3
  -GOLD-   22720 8 63D 1   1.00000     0.00000
 Structure written by MMmdl.
 49 51  0  0  0  0  0  0  0  0  2 V2000
  146.8798  134.4051  157.3626 C   0  0  0  0  0  0  0  0  0  0  0  0
  147.8674  134.8756  158.4353 C   0  0  1  0  0  0  0  0  0  0  0  0
  148.8729  135.9071  157.8886 C   0  0  0  0  0  0  0  0  0  0  0  0
  149.7592  136.4154  158.9322 N   0  0  0  0  0  0  0  0  0  0  0  0
  150.7035  137.4156  158.4344 C   0  0  0  0  0  0  0  0  0  0  0  0
  150.1481  138.3667  157.3492 C   0  0  1  0  0  0  0  0  0  0  0  0
  149.2364  139.2649  157.9466 O   0  0  0  0  0  0  0  0  0  0  0  0
  151.2281  139.2275  156.6593 C   0  0  0  0  0  0  0  0  0  0  0  0
  151.0070  140.6742  156.8134 N   0  0  0  0  0  0  0  0  0  0  0  0
  150.2463  141.5435  156.0848 C   0  0  0  0  0  0  0  0  0  0  0  0
  149.4051  141.2259  154.8892 C   0  0  0  0  0  0  0  0  0  0  0  0
  148.7961  142.3696  154.3286 O   0  0  0  0  0  0  0  0  0  0  0  0
  150.3964  142.7765  156.6479 N   0  3  0  0  0  0  0  0  0  0  0  0
  151.2628  142.6988  157.7381 C   0  0  0  0  0  0  0  0  0  0  0  0
  151.7183  143.6806  158.6129 C   0  0  0  0  0  0  0  0  0  0  0  0
  152.6073  143.2626  159.6250 C   0  0  0  0  0  0  0  0  0  0  0  0
  153.0104  141.9160  159.7381 C   0  0  0  0  0  0  0  0  0  0  0  0
  152.5418  140.9300  158.8450 C   0  0  0  0  0  0  0  0  0  0  0  0
  151.6617  141.3514  157.8485 C   0  0  0  0  0  0  0  0  0  0  0  0
  148.9483  136.9611  160.0155 C   0  0  0  0  0  0  0  0  0  0  0  0
  147.9449  135.9304  160.5669 C   0  0  1  0  0  0  0  0  0  0  0  0
  147.0365  136.5270  161.6473 C   0  0  0  0  0  0  0  0  0  0  0  0
  147.1250  135.4649  159.4990 O   0  0  0  0  0  0  0  0  0  0  0  0
  147.4008  133.9321  156.5299 H   0  0  0  0  0  0  0  0  0  0  0  0
  146.3010  135.2397  156.9658 H   0  0  0  0  0  0  0  0  0  0  0  0
  146.1782  133.6779  157.7719 H   0  0  0  0  0  0  0  0  0  0  0  0
  148.4068  134.0079  158.8194 H   0  0  0  0  0  0  0  0  0  0  0  0
  149.4567  135.4371  157.0975 H   0  0  0  0  0  0  0  0  0  0  0  0
  148.3314  136.7358  157.4293 H   0  0  0  0  0  0  0  0  0  0  0  0
  151.1282  137.9871  159.2614 H   0  0  0  0  0  0  0  0  0  0  0  0
  151.5431  136.8710  158.0061 H   0  0  0  0  0  0  0  0  0  0  0  0
  149.6147  137.7913  156.5919 H   0  0  0  0  0  0  0  0  0  0  0  0
  149.0497  138.9641  158.8229 H   0  0  0  0  0  0  0  0  0  0  0  0
  152.2183  138.9960  157.0542 H   0  0  0  0  0  0  0  0  0  0  0  0
  151.2690  139.0045  155.5928 H   0  0  0  0  0  0  0  0  0  0  0  0
  150.0279  140.7467  154.1337 H   0  0  0  0  0  0  0  0  0  0  0  0
  148.6229  140.5179  155.1608 H   0  0  0  0  0  0  0  0  0  0  0  0
  149.1319  143.1352  154.7698 H   0  0  0  0  0  0  0  0  0  0  0  0
  151.4123  144.7132  158.5270 H   0  0  0  0  0  0  0  0  0  0  0  0
  152.9884  143.9895  160.3277 H   0  0  0  0  0  0  0  0  0  0  0  0
  153.6936  141.6329  160.5258 H   0  0  0  0  0  0  0  0  0  0  0  0
  152.8574  139.9014  158.9397 H   0  0  0  0  0  0  0  0  0  0  0  0
  149.5954  137.3007  160.8250 H   0  0  0  0  0  0  0  0  0  0  0  0
  148.4066  137.8402  159.6618 H   0  0  0  0  0  0  0  0  0  0  0  0
  148.4861  135.0834  160.9926 H   0  0  0  0  0  0  0  0  0  0  0  0
  147.6200  136.8897  162.4939 H   0  0  0  0  0  0  0  0  0  0  0  0
  146.3351  135.7813  162.0226 H   0  0  0  0  0  0  0  0  0  0  0  0
  146.4559  137.3635  161.2571 H   0  0  0  0  0  0  0  0  0  0  0  0
  149.9333  143.6087  156.3056 H   0  0  0  0  0  0  0  0  0  0  0  0
  1  2  1  0  0  0  0
  1 24  1  0  0  0  0
  1 25  1  0  0  0  0
  1 26  1  0  0  0  0
  2 23  1  0  0  0  0
  2  3  1  0  0  0  0
  2 27  1  0  0  0  0
  3  4  1  0  0  0  0
  3 28  1  0  0  0  0
  3 29  1  0  0  0  0
  4  5  1  0  0  0  0
  4 20  1  0  0  0  0
  5  6  1  0  0  0  0
  5 30  1  0  0  0  0
  5 31  1  0  0  0  0
  6  7  1  0  0  0  0
  6  8  1  0  0  0  0
  6 32  1  0  0  0  0
  7 33  1  0  0  0  0
  8  9  1  0  0  0  0
  8 34  1  0  0  0  0
  8 35  1  0  0  0  0
  9 19  1  0  0  0  0
  9 10  1  0  0  0  0
 10 11  1  0  0  0  0
 10 13  2  0  0  0  0
 11 12  1  0  0  0  0
 11 36  1  0  0  0  0
 11 37  1  0  0  0  0
 12 38  1  0  0  0  0
 13 14  1  0  0  0  0
 13 49  1  0  0  0  0
 14 19  2  0  0  0  0
 14 15  1  0  0  0  0
 15 16  2  0  0  0  0
 15 39  1  0  0  0  0
 16 17  1  0  0  0  0
 16 40  1  0  0  0  0
 17 18  2  0  0  0  0
 17 41  1  0  0  0  0
 18 19  1  0  0  0  0
 18 42  1  0  0  0  0
 20 21  1  0  0  0  0
 20 43  1  0  0  0  0
 20 44  1  0  0  0  0
 21 22  1  0  0  0  0
 21 23  1  0  0  0  0
 21 45  1  0  0  0  0
 22 46  1  0  0  0  0
 22 47  1  0  0  0  0
 22 48  1  0  0  0  0
M  CHG  1  13   1
M  END
> <s_m_source_file>
AV-unprocessed.smi

> <i_m_source_file_index>
1703

> <i_lp_mmshare_version>
43012

> <i_f3d_flags>
0

> <s_epik_input>
W0NIM11bQ0BASF0xW0NIMl1OKFtDSDJdW0NASF0oTzEpW0NIM10pW0NIMl1bQ0BIXShbT0hdKVtDSDJdbihjKG4yKVtDSDJdW09IXSljKGMyMylbY0hdW2NIXVtjSF1bY0hdMw==

> <s_epik_cmdline>
J2VwaWtfcHl0aG9uJywgJy1waCcsICc3LjAnLCAnLXRuJywgJzgnLCAnLW1hJywgJzIwMCcsICctbWV0YWxfYmluZGluZycsICctaW1hZScsICc8aW5maWxlLm1hZT4nLCAnLW9tYWUnLCAnPG91dGZpbGUubWFlPic=

> <r_epik_Ionization_Penalty>
1.7682

> <r_epik_Ionization_Penalty_Charging>
1.55298

> <r_epik_Ionization_Penalty_Neutral>
0.215215

> <r_epik_State_Penalty>
1.83821

> <r_epik_Charging_Adjusted_Penalty>
3.39119

> <i_epik_Tot_Q>
1

> <i_epik_Tot_abs_Q>
1

> <r_epik_Metal_State_Penalty>
5.89206

> <b_epik_Metal_Only>
0

> <s_lp_Force_Field>
OPLS_2005

> <r_lp_Energy>
33.2802

> <b_lp_Chiralities_Consistent>
1

> <s_lp_Variant>
AV-unprocessed.smi:1703-18

> <Gold.Version>
5.8.1

> <Gold.Id.Protein>
6NUR|6NUR_protein|mol2

> <Gold.PLP.Fitness>
51.6028

> <Gold.PLP.PLP>
-41.5829

> <Gold.PLP.part.hbond>
-4.0000

> <Gold.PLP.part.metal>
0.0000

> <Gold.PLP.part.buried>
-3.9588

> <Gold.PLP.part.nonpolar>
-33.1177

> <Gold.PLP.part.repulsive>
0.0785

> <Gold.PLP.ligand.clash>
0.0000

> <Gold.PLP.ligand.torsion>
1.4447

> <Gold.PLP.Chemscore.Hbond>
4.2720

> <Gold.PLP.Chemscore.CHOScore>
0.0000

> <Gold.PLP.Chemscore.Metal>
0.0000

> <Gold.Chemscore.Hbonds>
donor molecule, donor type, donor heavy atom, donor atom, acceptor molecule, acceptor atom, score
      L1  H    12    38       P1  8028  1.00
      L1  H    13    49       P1  8028  2.00
      P1  H  6896  6908       L1     4  0.91
      P1  H  8011  8017       L1    12  0.10

> <Gold.PLP.Chemscore.Internal.Correction>
0.0933

> <Gold.Rescore>
     Score         DG    S(hbond)    S(metal)    S(lipo)     H(rot)  DE(clash)    DE(int)     intcor
     15.50     -16.95       2.04        0.00     104.38       2.96       0.00       1.45       ----

> <Gold.Chemscore.Fitness>
15.5039

> <Gold.Chemscore.DG>
-16.9550

> <Gold.Chemscore.ZeroCoef>
-5.4800

> <Gold.Chemscore.Hbond>
2.0445

> <Gold.Chemscore.Metal>
0.0000

> <Gold.Chemscore.Lipo>
104.3789

> <Gold.Chemscore.Internal_Hbond>
0.0000

> <Gold.Chemscore.DEClash>
0.0004

> <Gold.Chemscore.DEInternal>
1.4506

> <Gold.Chemscore.Rot>
2.9555

> <Gold.Chemscore.Internal.Correction>
   9.000000E+99

> <Gold.Chemscore.Hbonds>
donor molecule, donor type, donor heavy atom, donor atom, acceptor molecule, acceptor atom, score
      L1  H    12    38       P1  8028  0.95
      L1  H    13    49       P1  8028  1.00
      P1  H  6896  6908       L1     4  0.21
      P1  H  8011  8017       L1    12  0.01

> <Gold.Chemscore.Hbond.Weighted>
-6.8286

> <Gold.Chemscore.Metal.Weighted>
-0.0000

> <Gold.Chemscore.Lipo.Weighted>
-12.2123

> <Gold.Chemscore.Internal_Hbond.Weighted>
0.0000

> <Gold.Chemscore.DEClash.Weighted>
0.0004

> <Gold.Chemscore.DEInternal.Weighted>
1.4506

> <Gold.Chemscore.Rot.Weighted>
7.5660

> <Gold.Chemscore.Internal.Correction.Weighted>
   9.000000E+99

> <Gold.Protein.RotatedTorsions>
[ 6907 6896 6895 6894 ] final  179.24 input  -60.11 | X-H torsion
[ 7974 7965 7964 7962 ] final  -85.56 input  175.53 | X-H torsion
[ 8008 7997 7996 7995 ] final -136.90 input   59.86 | X-H torsion
[ 10167 10162 10161 10158 ] final   66.73 input  -65.29 | X-H torsion
[ 10718 10713 10712 10709 ] final  -49.11 input   66.30 | X-H torsion
[ 10763 10752 10751 10750 ] final  -68.93 input  -60.55 | X-H torsion
[ 11005 11000 10999 10996 ] final  137.17 input  -57.11 | X-H torsion

> <Gold.Protein.ActiveResidues>
 VAL166  LYS551  ARG553  GLY616  TRP617  ASP618  TYR619  PRO620  LYS621  CYS622 
 ASP623  PHE694  ASN695  SER759  ASP760  ASP761  ALA762  ILE779  LEU786  VAL792 
 PHE793  MET794  SER795  GLU796  ALA797  LYS798  CYS799  TRP800  GLU811  SER814 

> <Gold.Protein.RotatedAtoms>
  151.6749  133.3313  159.3205 H   0  0  0  0  0  0  0  0  0  0  0  0  # atno 6907 bound_to 6896
  150.7850  134.6830  159.6464 H   0  0  0  0  0  0  0  0  0  0  0  0  # atno 6908 bound_to 6896
  152.3917  134.6434  160.0157 H   0  0  0  0  0  0  0  0  0  0  0  0  # atno 6909 bound_to 6896
  145.4916  140.9552  143.1809 H   0  0  0  0  0  0  0  0  0  0  0  0  # atno 7974 bound_to 7965
  155.4029  140.0507  157.3036 H   0  0  0  0  0  0  0  0  0  0  0  0  # atno 8008 bound_to 7997
  154.4982  140.2146  155.9362 H   0  0  0  0  0  0  0  0  0  0  0  0  # atno 8009 bound_to 7997
  156.1433  140.3150  155.8535 H   0  0  0  0  0  0  0  0  0  0  0  0  # atno 8010 bound_to 7997
  140.0972  144.4935  150.7060 H   0  0  0  0  0  0  0  0  0  0  0  0  # atno 10167 bound_to 10162
  156.1924  130.4153  149.9354 H   0  0  0  0  0  0  0  0  0  0  0  0  # atno 10718 bound_to 10713
  154.3962  135.6041  153.5871 H   0  0  0  0  0  0  0  0  0  0  0  0  # atno 10763 bound_to 10752
  152.9787  135.5895  154.4239 H   0  0  0  0  0  0  0  0  0  0  0  0  # atno 10764 bound_to 10752
  154.4031  135.2843  155.2062 H   0  0  0  0  0  0  0  0  0  0  0  0  # atno 10765 bound_to 10752
  140.0096  134.9445  157.0248 H   0  0  0  0  0  0  0  0  0  0  0  0  # atno 11005 bound_to 11000
  144.7830  139.6485  143.7146 LP  0  0  0  0  0  0  0  0  0  0  0  0  # atno 17320 bound_to 7965
  146.2280  139.5760  142.9574 LP  0  0  0  0  0  0  0  0  0  0  0  0  # atno 17321 bound_to 7965
  140.6997  143.2426  151.4900 LP  0  0  0  0  0  0  0  0  0  0  0  0  # atno 17342 bound_to 10162
  139.5691  144.1971  152.1810 LP  0  0  0  0  0  0  0  0  0  0  0  0  # atno 17343 bound_to 10162
  156.7090  130.8962  151.3607 LP  0  0  0  0  0  0  0  0  0  0  0  0  # atno 17370 bound_to 10713
  157.6937  130.9259  150.0584 LP  0  0  0  0  0  0  0  0  0  0  0  0  # atno 17371 bound_to 10713
  140.4579  134.1514  155.7188 LP  0  0  0  0  0  0  0  0  0  0  0  0  # atno 17394 bound_to 11000
  141.1701  133.8625  157.1596 LP  0  0  0  0  0  0  0  0  0  0  0  0  # atno 17395 bound_to 11000

$$$$
