AV-unprocessed.smi:3138|AV-procd|sdf|11954|dock5
  -GOLD-   2272017353D 1   1.00000     0.00000
 Structure written by MMmdl.
 38 39  0  0  0  0  0  0  0  0  2 V2000
  150.4105  144.5049  158.4108 O   0  0  0  0  0  0  0  0  0  0  0  0
  151.2275  143.5838  158.4707 C   0  0  0  0  0  0  0  0  0  0  0  0
  151.0572  142.3834  157.5270 C   0  0  0  0  0  0  0  0  0  0  0  0
  149.7362  142.3678  156.8655 N   0  3  0  0  0  0  0  0  0  0  0  0
  149.4781  141.1589  156.0585 C   0  0  0  0  0  0  0  0  0  0  0  0
  150.1556  139.9190  156.6683 C   0  0  0  0  0  0  0  0  0  0  0  0
  151.0374  139.2367  155.7359 N   0  0  0  0  0  0  0  0  0  0  0  0
  152.4163  139.1978  155.7356 C   0  0  0  0  0  0  0  0  0  0  0  0
  152.8012  138.4151  154.6850 C   0  0  0  0  0  0  0  0  0  0  0  0
  151.5711  138.0032  154.1009 C   0  0  0  0  0  0  0  0  0  0  0  0
  150.5178  138.4920  154.7356 N   0  0  0  0  0  0  0  0  0  0  0  0
  152.2665  143.5933  159.3410 N   0  0  0  0  0  0  0  0  0  0  0  0
  153.2488  142.5130  159.5095 C   0  0  0  0  0  0  0  0  0  0  0  0
  153.0119  141.8360  160.8716 C   0  0  0  0  0  0  0  0  0  0  0  0
  153.0820  142.8651  162.0158 C   0  0  0  0  0  0  0  0  0  0  0  0
  152.1908  144.0903  161.7357 C   0  0  0  0  0  0  0  0  0  0  0  0
  152.4624  144.6606  160.3312 C   0  0  0  0  0  0  0  0  0  0  0  0
  151.8350  142.4124  156.7628 H   0  0  0  0  0  0  0  0  0  0  0  0
  151.1729  141.4588  158.0948 H   0  0  0  0  0  0  0  0  0  0  0  0
  149.0250  142.4328  157.5802 H   0  0  0  0  0  0  0  0  0  0  0  0
  148.4015  140.9951  156.0005 H   0  0  0  0  0  0  0  0  0  0  0  0
  149.8271  141.3200  155.0376 H   0  0  0  0  0  0  0  0  0  0  0  0
  150.7304  140.2007  157.5514 H   0  0  0  0  0  0  0  0  0  0  0  0
  149.3991  139.2073  157.0013 H   0  0  0  0  0  0  0  0  0  0  0  0
  153.0038  139.7245  156.4732 H   0  0  0  0  0  0  0  0  0  0  0  0
  153.8084  138.1684  154.3829 H   0  0  0  0  0  0  0  0  0  0  0  0
  151.4134  137.3658  153.2431 H   0  0  0  0  0  0  0  0  0  0  0  0
  153.2252  141.7676  158.7163 H   0  0  0  0  0  0  0  0  0  0  0  0
  154.2536  142.9368  159.4758 H   0  0  0  0  0  0  0  0  0  0  0  0
  152.0342  141.3520  160.8731 H   0  0  0  0  0  0  0  0  0  0  0  0
  153.7481  141.0483  161.0339 H   0  0  0  0  0  0  0  0  0  0  0  0
  152.7985  142.3999  162.9604 H   0  0  0  0  0  0  0  0  0  0  0  0
  154.1145  143.1962  162.1337 H   0  0  0  0  0  0  0  0  0  0  0  0
  151.1412  143.8043  161.8151 H   0  0  0  0  0  0  0  0  0  0  0  0
  152.3610  144.8565  162.4926 H   0  0  0  0  0  0  0  0  0  0  0  0
  153.4872  145.0296  160.2676 H   0  0  0  0  0  0  0  0  0  0  0  0
  151.8245  145.5278  160.1543 H   0  0  0  0  0  0  0  0  0  0  0  0
  149.6667  143.1807  156.2700 H   0  0  0  0  0  0  0  0  0  0  0  0
  1  2  2  0  0  0  0
  2  3  1  0  0  0  0
  2 12  1  0  0  0  0
  3  4  1  0  0  0  0
  3 18  1  0  0  0  0
  3 19  1  0  0  0  0
  4  5  1  0  0  0  0
  4 20  1  0  0  0  0
  4 38  1  0  0  0  0
  5  6  1  0  0  0  0
  5 21  1  0  0  0  0
  5 22  1  0  0  0  0
  6  7  1  0  0  0  0
  6 23  1  0  0  0  0
  6 24  1  0  0  0  0
  7 11  1  0  0  0  0
  7  8  1  0  0  0  0
  8  9  2  0  0  0  0
  8 25  1  0  0  0  0
  9 10  1  0  0  0  0
  9 26  1  0  0  0  0
 10 11  2  0  0  0  0
 10 27  1  0  0  0  0
 12 17  1  0  0  0  0
 12 13  1  0  0  0  0
 13 14  1  0  0  0  0
 13 28  1  0  0  0  0
 13 29  1  0  0  0  0
 14 15  1  0  0  0  0
 14 30  1  0  0  0  0
 14 31  1  0  0  0  0
 15 16  1  0  0  0  0
 15 32  1  0  0  0  0
 15 33  1  0  0  0  0
 16 17  1  0  0  0  0
 16 34  1  0  0  0  0
 16 35  1  0  0  0  0
 17 36  1  0  0  0  0
 17 37  1  0  0  0  0
M  CHG  1   4   1
M  END
> <s_m_source_file>
AV-unprocessed.smi

> <i_m_source_file_index>
3138

> <i_lp_mmshare_version>
43012

> <i_f3d_flags>
0

> <s_epik_input>
W0NIMl0xW0NIMl1bQ0gyXVtDSDJdW0NIMl1OMUMoPU8pW0NIMl1bTkhdW0NIMl1bQ0gyXW4yW2NIXVtjSF1bY0hdbjI=

> <s_epik_cmdline>
J2VwaWtfcHl0aG9uJywgJy1waCcsICc3LjAnLCAnLXRuJywgJzgnLCAnLW1hJywgJzIwMCcsICctbWV0YWxfYmluZGluZycsICctaW1hZScsICc8aW5maWxlLm1hZT4nLCAnLW9tYWUnLCAnPG91dGZpbGUubWFlPic=

> <r_lp_tautomer_probability>
1

> <r_epik_Ionization_Penalty>
0.202061

> <r_epik_Ionization_Penalty_Charging>
0.202058

> <r_epik_Ionization_Penalty_Neutral>
2.33614e-06

> <r_epik_State_Penalty>
0.191938

> <r_epik_Charging_Adjusted_Penalty>
0.393996

> <i_epik_Tot_Q>
1

> <i_epik_Tot_abs_Q>
1

> <r_epik_Metal_State_Penalty>
0.192416

> <b_epik_Metal_Only>
0

> <s_lp_Force_Field>
OPLS_2005

> <r_lp_Energy>
21.8037

> <b_lp_Chiralities_Consistent>
1

> <s_lp_Variant>
AV-unprocessed.smi:3138-1

> <Gold.Version>
5.8.1

> <Gold.Id.Protein>
6NUR|6NUR_protein|mol2

> <Gold.PLP.Fitness>
47.8782

> <Gold.PLP.PLP>
-40.5084

> <Gold.PLP.part.hbond>
-1.0000

> <Gold.PLP.part.metal>
0.0000

> <Gold.PLP.part.buried>
-5.4275

> <Gold.PLP.part.nonpolar>
-34.6752

> <Gold.PLP.part.repulsive>
0.6558

> <Gold.PLP.ligand.clash>
0.0000

> <Gold.PLP.ligand.torsion>
0.8453

> <Gold.PLP.Chemscore.Hbond>
2.0000

> <Gold.PLP.Chemscore.CHOScore>
1.0000

> <Gold.PLP.Chemscore.Metal>
0.0000

> <Gold.Chemscore.Hbonds>
donor molecule, donor type, donor heavy atom, donor atom, acceptor molecule, acceptor atom, score
      L1  H     4    38       P1  8028  2.00
      L1  C    10    27       P1  7949  1.00

> <Gold.PLP.Chemscore.Internal.Correction>
0.0603

> <Gold.Rescore>
     Score         DG    S(hbond)    S(metal)    S(lipo)     H(rot)  DE(clash)    DE(int)     intcor
     15.01     -16.00       0.99        0.00     101.84       1.84       0.24       0.75       ----

> <Gold.Chemscore.Fitness>
15.0116

> <Gold.Chemscore.DG>
-15.9958

> <Gold.Chemscore.ZeroCoef>
-5.4800

> <Gold.Chemscore.Hbond>
0.9914

> <Gold.Chemscore.Metal>
0.0000

> <Gold.Chemscore.Lipo>
101.8417

> <Gold.Chemscore.Internal_Hbond>
0.0000

> <Gold.Chemscore.DEClash>
0.2362

> <Gold.Chemscore.DEInternal>
0.7480

> <Gold.Chemscore.Rot>
1.8402

> <Gold.Chemscore.Internal.Correction>
   9.000000E+99

> <Gold.Chemscore.Hbonds>
donor molecule, donor type, donor heavy atom, donor atom, acceptor molecule, acceptor atom, score
      L1  H     4    38       P1  8028  0.98

> <Gold.Chemscore.Hbond.Weighted>
-3.3113

> <Gold.Chemscore.Metal.Weighted>
-0.0000

> <Gold.Chemscore.Lipo.Weighted>
-11.9155

> <Gold.Chemscore.Internal_Hbond.Weighted>
0.0000

> <Gold.Chemscore.DEClash.Weighted>
0.2362

> <Gold.Chemscore.DEInternal.Weighted>
0.7480

> <Gold.Chemscore.Rot.Weighted>
4.7110

> <Gold.Chemscore.Internal.Correction.Weighted>
   9.000000E+99

> <Gold.Protein.RotatedTorsions>
[ 6907 6896 6895 6894 ] final  178.64 input  -60.11 | X-H torsion
[ 7974 7965 7964 7962 ] final  -35.31 input  175.53 | X-H torsion
[ 8008 7997 7996 7995 ] final -157.72 input   59.86 | X-H torsion
[ 10167 10162 10161 10158 ] final   27.70 input  -65.29 | X-H torsion
[ 10718 10713 10712 10709 ] final  -74.59 input   66.30 | X-H torsion
[ 10763 10752 10751 10750 ] final   75.96 input  -60.55 | X-H torsion
[ 11005 11000 10999 10996 ] final    1.88 input  -57.11 | X-H torsion

> <Gold.Protein.ActiveResidues>
 VAL166  LYS551  ARG553  GLY616  TRP617  ASP618  TYR619  PRO620  LYS621  CYS622 
 ASP623  PHE694  ASN695  SER759  ASP760  ASP761  ALA762  ILE779  LEU786  VAL792 
 PHE793  MET794  SER795  GLU796  ALA797  LYS798  CYS799  TRP800  GLU811  SER814 

> <Gold.Protein.RotatedAtoms>
  151.6845  133.3311  159.3227 H   0  0  0  0  0  0  0  0  0  0  0  0  # atno 6907 bound_to 6896
  150.7807  134.6752  159.6423 H   0  0  0  0  0  0  0  0  0  0  0  0  # atno 6908 bound_to 6896
  152.3864  134.6514  160.0176 H   0  0  0  0  0  0  0  0  0  0  0  0  # atno 6909 bound_to 6896
  146.0757  140.6144  142.8932 H   0  0  0  0  0  0  0  0  0  0  0  0  # atno 7974 bound_to 7965
  155.7368  140.0809  157.2264 H   0  0  0  0  0  0  0  0  0  0  0  0  # atno 8008 bound_to 7997
  154.4026  140.1585  156.2625 H   0  0  0  0  0  0  0  0  0  0  0  0  # atno 8009 bound_to 7997
  155.9058  140.3407  155.6063 H   0  0  0  0  0  0  0  0  0  0  0  0  # atno 8010 bound_to 7997
  140.4916  144.0458  150.6299 H   0  0  0  0  0  0  0  0  0  0  0  0  # atno 10167 bound_to 10162
  156.0237  130.4420  150.2914 H   0  0  0  0  0  0  0  0  0  0  0  0  # atno 10718 bound_to 10713
  153.0691  135.4969  154.8266 H   0  0  0  0  0  0  0  0  0  0  0  0  # atno 10763 bound_to 10752
  154.6997  135.2999  154.9361 H   0  0  0  0  0  0  0  0  0  0  0  0  # atno 10764 bound_to 10752
  154.0089  135.6757  153.4817 H   0  0  0  0  0  0  0  0  0  0  0  0  # atno 10765 bound_to 10752
  140.6105  133.9752  155.8175 H   0  0  0  0  0  0  0  0  0  0  0  0  # atno 11005 bound_to 11000
  144.7260  140.4525  143.6973 LP  0  0  0  0  0  0  0  0  0  0  0  0  # atno 17320 bound_to 7965
  145.6311  139.1536  143.2968 LP  0  0  0  0  0  0  0  0  0  0  0  0  # atno 17321 bound_to 7965
  140.3728  143.2845  152.0258 LP  0  0  0  0  0  0  0  0  0  0  0  0  # atno 17342 bound_to 10162
  139.4852  144.6216  151.7244 LP  0  0  0  0  0  0  0  0  0  0  0  0  # atno 17343 bound_to 10162
  157.1018  131.0197  151.3082 LP  0  0  0  0  0  0  0  0  0  0  0  0  # atno 17370 bound_to 10713
  157.4774  130.7744  149.7381 LP  0  0  0  0  0  0  0  0  0  0  0  0  # atno 17371 bound_to 10713
  141.0811  134.0061  157.3384 LP  0  0  0  0  0  0  0  0  0  0  0  0  # atno 17394 bound_to 11000
  139.9194  135.0199  156.8006 LP  0  0  0  0  0  0  0  0  0  0  0  0  # atno 17395 bound_to 11000

$$$$
