AV-unprocessed.smi:2756|AV-procd|sdf|10618|dock7
  -GOLD-   2272015 63D 1   1.00000     0.00000
 Structure written by MMmdl.
 19 19  0  0  0  0  0  0  0  0  3 V2000
  149.8082  142.0971  156.1399 N   0  0  0  0  0  0  0  0  0  0  0  0
  150.8031  142.3839  157.0748 C   0  0  0  0  0  0  0  0  0  0  0  0
  151.0108  143.6842  157.3804 N   0  3  0  0  0  0  0  0  0  0  0  0
  151.9355  144.0942  158.2754 C   0  0  0  0  0  0  0  0  0  0  0  0
  152.7379  143.1450  158.9375 C   0  0  0  0  0  0  0  0  0  0  0  0
  152.5591  141.7770  158.6490 C   0  0  0  0  0  0  0  0  0  0  0  0
  151.5836  141.3824  157.7057 C   0  0  0  0  0  0  0  0  0  0  0  0
  151.3957  139.9034  157.3952 C   0  0  0  0  0  0  0  0  0  0  0  0
  152.1385  139.5944  156.0953 C   0  0  0  0  0  0  0  0  0  0  0  0
  151.5872  139.9470  155.0297 O   0  0  0  0  0  0  0  0  0  0  0  0
  153.2344  139.0003  156.1911 O   0  5  0  0  0  0  0  0  0  0  0  0
  149.6087  141.1417  155.8774 H   0  0  0  0  0  0  0  0  0  0  0  0
  149.1364  142.7953  155.8566 H   0  0  0  0  0  0  0  0  0  0  0  0
  152.0025  145.1603  158.4353 H   0  0  0  0  0  0  0  0  0  0  0  0
  153.4785  143.4600  159.6577 H   0  0  0  0  0  0  0  0  0  0  0  0
  153.1642  141.0366  159.1516 H   0  0  0  0  0  0  0  0  0  0  0  0
  151.7691  139.2835  158.2110 H   0  0  0  0  0  0  0  0  0  0  0  0
  150.3366  139.6697  157.2782 H   0  0  0  0  0  0  0  0  0  0  0  0
  150.4387  144.3903  156.9171 H   0  0  0  0  0  0  0  0  0  0  0  0
  1  2  1  0  0  0  0
  1 12  1  0  0  0  0
  1 13  1  0  0  0  0
  2  7  1  0  0  0  0
  2  3  2  0  0  0  0
  3  4  1  0  0  0  0
  3 19  1  0  0  0  0
  4  5  2  0  0  0  0
  4 14  1  0  0  0  0
  5  6  1  0  0  0  0
  5 15  1  0  0  0  0
  6  7  2  0  0  0  0
  6 16  1  0  0  0  0
  7  8  1  0  0  0  0
  8  9  1  0  0  0  0
  8 17  1  0  0  0  0
  8 18  1  0  0  0  0
  9 10  2  0  0  0  0
  9 11  1  0  0  0  0
M  CHG  1   3   1
M  CHG  1  11  -1
M  END
> <s_m_source_file>
AV-unprocessed.smi

> <i_m_source_file_index>
2756

> <i_lp_mmshare_version>
43012

> <i_f3d_flags>
0

> <s_epik_input>
W05IMl1jMW5bY0hdW2NIXVtjSF1jMVtDSDJdQyg9TylbT0hd

> <s_epik_cmdline>
J2VwaWtfcHl0aG9uJywgJy1waCcsICc3LjAnLCAnLXRuJywgJzgnLCAnLW1hJywgJzIwMCcsICctbWV0YWxfYmluZGluZycsICctaW1hZScsICc8aW5maWxlLm1hZT4nLCAnLW9tYWUnLCAnPG91dGZpbGUubWFlPic=

> <r_lp_tautomer_probability>
0.999994

> <r_epik_Ionization_Penalty>
0.0994946

> <r_epik_Ionization_Penalty_Charging>
0.0994944

> <r_epik_Ionization_Penalty_Neutral>
2.48807e-07

> <r_epik_State_Penalty>
0.0891183

> <r_epik_Charging_Adjusted_Penalty>
0.188613

> <i_epik_Tot_Q>
0

> <i_epik_Tot_abs_Q>
2

> <r_epik_Metal_State_Penalty>
3.01912

> <b_epik_Metal_Only>
0

> <s_lp_Force_Field>
OPLS_2005

> <r_lp_Energy>
1.50311

> <b_lp_Chiralities_Consistent>
1

> <s_lp_Variant>
AV-unprocessed.smi:2756-1

> <Gold.Version>
5.8.1

> <Gold.Id.Protein>
6NUR|6NUR_protein|mol2

> <Gold.PLP.Fitness>
44.1014

> <Gold.PLP.PLP>
-25.1874

> <Gold.PLP.part.hbond>
-4.0000

> <Gold.PLP.part.metal>
0.0000

> <Gold.PLP.part.buried>
-4.2927

> <Gold.PLP.part.nonpolar>
-17.4544

> <Gold.PLP.part.repulsive>
0.1462

> <Gold.PLP.ligand.clash>
0.0000

> <Gold.PLP.ligand.torsion>
0.5153

> <Gold.PLP.Chemscore.Hbond>
6.6480

> <Gold.PLP.Chemscore.CHOScore>
0.0000

> <Gold.PLP.Chemscore.Metal>
0.0000

> <Gold.Chemscore.Hbonds>
donor molecule, donor type, donor heavy atom, donor atom, acceptor molecule, acceptor atom, score
      L1  H     1    13       P1  8028  1.73
      L1  H     3    19       P1  8028  1.89
      P1  H  7989  7998       L1    10  1.00
      P1  H  7997  8009       L1    11  2.00

> <Gold.PLP.Chemscore.Internal.Correction>
0.0007

> <Gold.Rescore>
     Score         DG    S(hbond)    S(metal)    S(lipo)     H(rot)  DE(clash)    DE(int)     intcor
     17.36     -18.04       3.47        0.00      42.92       1.58       0.00       0.68       ----

> <Gold.Chemscore.Fitness>
17.3570

> <Gold.Chemscore.DG>
-18.0397

> <Gold.Chemscore.ZeroCoef>
-5.4800

> <Gold.Chemscore.Hbond>
3.4711

> <Gold.Chemscore.Metal>
0.0000

> <Gold.Chemscore.Lipo>
42.9186

> <Gold.Chemscore.Internal_Hbond>
0.0000

> <Gold.Chemscore.DEClash>
0.0000

> <Gold.Chemscore.DEInternal>
0.6827

> <Gold.Chemscore.Rot>
1.5841

> <Gold.Chemscore.Internal.Correction>
   9.000000E+99

> <Gold.Chemscore.Hbonds>
donor molecule, donor type, donor heavy atom, donor atom, acceptor molecule, acceptor atom, score
      L1  H     1    13       P1  8028  0.84
      L1  H     3    19       P1  8028  0.82
      P1  H  7989  7998       L1    10  0.98
      P1  H  7997  8009       L1    11  0.67

> <Gold.Chemscore.Hbond.Weighted>
-11.5936

> <Gold.Chemscore.Metal.Weighted>
-0.0000

> <Gold.Chemscore.Lipo.Weighted>
-5.0215

> <Gold.Chemscore.Internal_Hbond.Weighted>
0.0000

> <Gold.Chemscore.DEClash.Weighted>
0.0000

> <Gold.Chemscore.DEInternal.Weighted>
0.6827

> <Gold.Chemscore.Rot.Weighted>
4.0554

> <Gold.Chemscore.Internal.Correction.Weighted>
   9.000000E+99

> <Gold.Protein.RotatedTorsions>
[ 6907 6896 6895 6894 ] final -129.56 input  -60.11 | X-H torsion
[ 7974 7965 7964 7962 ] final  163.39 input  175.53 | X-H torsion
[ 8008 7997 7996 7995 ] final -174.96 input   59.86 | X-H torsion
[ 10167 10162 10161 10158 ] final  128.52 input  -65.29 | X-H torsion
[ 10718 10713 10712 10709 ] final  165.71 input   66.30 | X-H torsion
[ 10763 10752 10751 10750 ] final  105.31 input  -60.55 | X-H torsion
[ 11005 11000 10999 10996 ] final  -53.04 input  -57.11 | X-H torsion

> <Gold.Protein.ActiveResidues>
 VAL166  LYS551  ARG553  GLY616  TRP617  ASP618  TYR619  PRO620  LYS621  CYS622 
 ASP623  PHE694  ASN695  SER759  ASP760  ASP761  ALA762  ILE779  LEU786  VAL792 
 PHE793  MET794  SER795  GLU796  ALA797  LYS798  CYS799  TRP800  GLU811  SER814 

> <Gold.Protein.RotatedAtoms>
  150.9300  133.6778  159.2812 H   0  0  0  0  0  0  0  0  0  0  0  0  # atno 6907 bound_to 6896
  151.4203  135.0995  159.9621 H   0  0  0  0  0  0  0  0  0  0  0  0  # atno 6908 bound_to 6896
  152.5021  133.8754  159.7374 H   0  0  0  0  0  0  0  0  0  0  0  0  # atno 6909 bound_to 6896
  144.7592  139.8176  143.6339 H   0  0  0  0  0  0  0  0  0  0  0  0  # atno 7974 bound_to 7965
  155.9766  140.1173  157.0765 H   0  0  0  0  0  0  0  0  0  0  0  0  # atno 8008 bound_to 7997
  154.4171  140.1153  156.5446 H   0  0  0  0  0  0  0  0  0  0  0  0  # atno 8009 bound_to 7997
  155.6527  140.3473  155.4756 H   0  0  0  0  0  0  0  0  0  0  0  0  # atno 8010 bound_to 7997
  139.5523  144.6822  151.4286 H   0  0  0  0  0  0  0  0  0  0  0  0  # atno 10167 bound_to 10162
  157.0762  131.0380  151.2592 H   0  0  0  0  0  0  0  0  0  0  0  0  # atno 10718 bound_to 10713
  153.3776  135.3914  155.1834 H   0  0  0  0  0  0  0  0  0  0  0  0  # atno 10763 bound_to 10752
  154.8703  135.3717  154.4898 H   0  0  0  0  0  0  0  0  0  0  0  0  # atno 10764 bound_to 10752
  153.5371  135.7085  153.5715 H   0  0  0  0  0  0  0  0  0  0  0  0  # atno 10765 bound_to 10752
  141.0955  133.6625  156.4113 H   0  0  0  0  0  0  0  0  0  0  0  0  # atno 11005 bound_to 11000
  146.1636  139.4760  142.9972 LP  0  0  0  0  0  0  0  0  0  0  0  0  # atno 17320 bound_to 7965
  145.6676  141.0225  143.1675 LP  0  0  0  0  0  0  0  0  0  0  0  0  # atno 17321 bound_to 7965
  140.6788  143.8128  150.7094 LP  0  0  0  0  0  0  0  0  0  0  0  0  # atno 17342 bound_to 10162
  140.1575  143.4304  152.2089 LP  0  0  0  0  0  0  0  0  0  0  0  0  # atno 17343 bound_to 10162
  157.4837  130.7780  149.7439 LP  0  0  0  0  0  0  0  0  0  0  0  0  # atno 17370 bound_to 10713
  155.9936  130.3923  150.2892 LP  0  0  0  0  0  0  0  0  0  0  0  0  # atno 17371 bound_to 10713
  140.5150  134.6359  157.5298 LP  0  0  0  0  0  0  0  0  0  0  0  0  # atno 17394 bound_to 11000
  139.9791  134.7167  155.9893 LP  0  0  0  0  0  0  0  0  0  0  0  0  # atno 17395 bound_to 11000

$$$$
