AV-unprocessed.smi:33|AV-procd|sdf|208|dock1
  -GOLD-   2262015503D 1   1.00000     0.00000
 Structure written by MMmdl.
 67 72  0  0  0  0  0  0  0  0  1 V2000
  148.7585  142.0749  157.7743 O   0  0  0  0  0  0  0  0  0  0  0  0
  149.9531  142.3476  157.6399 C   0  0  0  0  0  0  0  0  0  0  0  0
  150.8175  141.5943  156.9313 O   0  0  0  0  0  0  0  0  0  0  0  0
  150.6251  140.1923  156.8253 C   0  0  0  0  0  0  0  0  0  0  0  0
  150.8563  139.7643  155.3670 C   0  0  1  0  0  0  0  0  0  0  0  0
  150.9883  138.3398  155.3199 O   0  0  0  0  0  0  0  0  0  0  0  0
  149.9183  137.7586  154.6334 C   0  0  1  0  0  0  0  0  0  0  0  0
  149.4695  136.5160  155.3407 N   0  0  0  0  0  0  0  0  0  0  0  0
  148.9856  135.3621  154.7648 C   0  0  0  0  0  0  0  0  0  0  0  0
  148.6610  134.4107  155.5980 N   0  0  0  0  0  0  0  0  0  0  0  0
  148.9442  134.9486  156.8463 C   0  0  0  0  0  0  0  0  0  0  0  0
  148.8324  134.4663  158.1783 C   0  0  0  0  0  0  0  0  0  0  0  0
  148.3779  133.2268  158.4768 N   0  0  0  0  0  0  0  0  0  0  0  0
  148.6681  132.1585  157.5090 C   0  0  0  0  0  0  0  0  0  0  0  0
  149.6233  132.2770  156.7394 O   0  0  0  0  0  0  0  0  0  0  0  0
  147.8360  130.9080  157.4808 C   0  0  0  0  0  0  0  0  0  0  0  0
  148.3520  129.7287  156.9001 C   0  0  0  0  0  0  0  0  0  0  0  0
  147.5711  128.5572  156.8589 C   0  0  0  0  0  0  0  0  0  0  0  0
  146.2630  128.5632  157.3794 C   0  0  0  0  0  0  0  0  0  0  0  0
  145.7322  129.7436  157.9335 C   0  0  0  0  0  0  0  0  0  0  0  0
  146.5128  130.9150  157.9770 C   0  0  0  0  0  0  0  0  0  0  0  0
  147.6506  133.0639  159.7442 C   0  0  0  0  0  0  0  0  0  0  0  0
  147.6280  131.9605  160.2932 O   0  0  0  0  0  0  0  0  0  0  0  0
  146.9868  134.2411  160.4014 C   0  0  0  0  0  0  0  0  0  0  0  0
  146.2969  135.1919  159.6174 C   0  0  0  0  0  0  0  0  0  0  0  0
  145.6822  136.3030  160.2266 C   0  0  0  0  0  0  0  0  0  0  0  0
  145.7697  136.4810  161.6206 C   0  0  0  0  0  0  0  0  0  0  0  0
  146.4811  135.5530  162.4044 C   0  0  0  0  0  0  0  0  0  0  0  0
  147.0954  134.4413  161.7962 C   0  0  0  0  0  0  0  0  0  0  0  0
  149.2044  135.2915  159.1906 N   0  0  0  0  0  0  0  0  0  0  0  0
  149.6627  136.5152  158.9128 C   0  0  0  0  0  0  0  0  0  0  0  0
  149.8241  137.0938  157.7211 N   0  0  0  0  0  0  0  0  0  0  0  0
  149.4493  136.2701  156.7003 C   0  0  0  0  0  0  0  0  0  0  0  0
  148.8174  138.8189  154.5107 C   0  0  1  0  0  0  0  0  0  0  0  0
  147.9215  138.8315  155.6087 O   0  0  0  0  0  0  0  0  0  0  0  0
  149.6745  140.0684  154.4390 C   0  0  1  0  0  0  0  0  0  0  0  0
  149.0118  141.1934  154.7139 F   0  0  0  0  0  0  0  0  0  0  0  0
  150.5973  143.5416  158.2587 C   0  0  0  0  0  0  0  0  0  0  0  0
  151.8166  144.0238  157.7279 C   0  0  0  0  0  0  0  0  0  0  0  0
  152.4463  145.1524  158.2878 C   0  0  0  0  0  0  0  0  0  0  0  0
  151.8651  145.8120  159.3863 C   0  0  0  0  0  0  0  0  0  0  0  0
  150.6531  145.3417  159.9242 C   0  0  0  0  0  0  0  0  0  0  0  0
  150.0210  144.2141  159.3646 C   0  0  0  0  0  0  0  0  0  0  0  0
  151.2954  139.6507  157.4924 H   0  0  0  0  0  0  0  0  0  0  0  0
  149.6053  139.9587  157.1323 H   0  0  0  0  0  0  0  0  0  0  0  0
  151.7631  140.2373  154.9879 H   0  0  0  0  0  0  0  0  0  0  0  0
  150.2729  137.4138  153.6609 H   0  0  0  0  0  0  0  0  0  0  0  0
  148.8796  135.2476  153.6957 H   0  0  0  0  0  0  0  0  0  0  0  0
  149.3548  129.7129  156.4979 H   0  0  0  0  0  0  0  0  0  0  0  0
  147.9758  127.6542  156.4265 H   0  0  0  0  0  0  0  0  0  0  0  0
  145.6648  127.6646  157.3468 H   0  0  0  0  0  0  0  0  0  0  0  0
  144.7252  129.7517  158.3239 H   0  0  0  0  0  0  0  0  0  0  0  0
  146.0932  131.8165  158.3997 H   0  0  0  0  0  0  0  0  0  0  0  0
  146.2229  135.0654  158.5468 H   0  0  0  0  0  0  0  0  0  0  0  0
  145.1439  137.0193  159.6238 H   0  0  0  0  0  0  0  0  0  0  0  0
  145.2973  137.3329  162.0871 H   0  0  0  0  0  0  0  0  0  0  0  0
  146.5568  135.6934  163.4725 H   0  0  0  0  0  0  0  0  0  0  0  0
  147.6421  133.7379  162.4077 H   0  0  0  0  0  0  0  0  0  0  0  0
  149.9409  137.1166  159.7658 H   0  0  0  0  0  0  0  0  0  0  0  0
  148.2466  138.6558  153.5960 H   0  0  0  0  0  0  0  0  0  0  0  0
  148.3000  138.3240  156.3105 H   0  0  0  0  0  0  0  0  0  0  0  0
  150.0489  140.1788  153.4202 H   0  0  0  0  0  0  0  0  0  0  0  0
  152.2810  143.5351  156.8835 H   0  0  0  0  0  0  0  0  0  0  0  0
  153.3760  145.5128  157.8729 H   0  0  0  0  0  0  0  0  0  0  0  0
  152.3481  146.6774  159.8155 H   0  0  0  0  0  0  0  0  0  0  0  0
  150.2061  145.8473  160.7673 H   0  0  0  0  0  0  0  0  0  0  0  0
  149.0912  143.8799  159.8012 H   0  0  0  0  0  0  0  0  0  0  0  0
  1  2  2  0  0  0  0
  2  3  1  0  0  0  0
  2 38  1  0  0  0  0
  3  4  1  0  0  0  0
  4  5  1  0  0  0  0
  4 44  1  0  0  0  0
  4 45  1  0  0  0  0
  5 36  1  0  0  0  0
  5  6  1  0  0  0  0
  5 46  1  0  0  0  0
  6  7  1  0  0  0  0
  7  8  1  0  0  0  0
  7 34  1  0  0  0  0
  7 47  1  0  0  0  0
  8 33  1  0  0  0  0
  8  9  1  0  0  0  0
  9 10  2  0  0  0  0
  9 48  1  0  0  0  0
 10 11  1  0  0  0  0
 11 33  2  0  0  0  0
 11 12  1  0  0  0  0
 12 13  1  0  0  0  0
 12 30  2  0  0  0  0
 13 14  1  0  0  0  0
 13 22  1  0  0  0  0
 14 15  2  0  0  0  0
 14 16  1  0  0  0  0
 16 21  1  0  0  0  0
 16 17  2  0  0  0  0
 17 18  1  0  0  0  0
 17 49  1  0  0  0  0
 18 19  2  0  0  0  0
 18 50  1  0  0  0  0
 19 20  1  0  0  0  0
 19 51  1  0  0  0  0
 20 21  2  0  0  0  0
 20 52  1  0  0  0  0
 21 53  1  0  0  0  0
 22 23  2  0  0  0  0
 22 24  1  0  0  0  0
 24 29  1  0  0  0  0
 24 25  2  0  0  0  0
 25 26  1  0  0  0  0
 25 54  1  0  0  0  0
 26 27  2  0  0  0  0
 26 55  1  0  0  0  0
 27 28  1  0  0  0  0
 27 56  1  0  0  0  0
 28 29  2  0  0  0  0
 28 57  1  0  0  0  0
 29 58  1  0  0  0  0
 30 31  1  0  0  0  0
 31 32  2  0  0  0  0
 31 59  1  0  0  0  0
 32 33  1  0  0  0  0
 34 35  1  0  0  0  0
 34 36  1  0  0  0  0
 34 60  1  0  0  0  0
 35 61  1  0  0  0  0
 36 37  1  0  0  0  0
 36 62  1  0  0  0  0
 38 43  1  0  0  0  0
 38 39  2  0  0  0  0
 39 40  1  0  0  0  0
 39 63  1  0  0  0  0
 40 41  2  0  0  0  0
 40 64  1  0  0  0  0
 41 42  1  0  0  0  0
 41 65  1  0  0  0  0
 42 43  2  0  0  0  0
 42 66  1  0  0  0  0
 43 67  1  0  0  0  0
M  END
> <s_m_source_file>
AV-unprocessed.smi

> <i_m_source_file_index>
33

> <i_lp_mmshare_version>
43012

> <i_f3d_flags>
0

> <s_epik_input>
W2NIXTFbY0hdW2NIXVtjSF1bY0hdYzFDKD1PKU9bQ0gyXVtDQEBIXTJPW0NASF0oW0NAQEhdKFtPSF0pW0NAQEhdMkYpbihbY0hdbjMpYyhjMzQpbltjSF1uYzROKEMoPU8pYzVbY0hdW2NIXVtjSF1bY0hdW2NIXTUpQyg9TyljNltjSF1bY0hdW2NIXVtjSF1bY0hdNg==

> <s_epik_cmdline>
J2VwaWtfcHl0aG9uJywgJy1waCcsICc3LjAnLCAnLXRuJywgJzgnLCAnLW1hJywgJzIwMCcsICctbWV0YWxfYmluZGluZycsICctaW1hZScsICc8aW5maWxlLm1hZT4nLCAnLW9tYWUnLCAnPG91dGZpbGUubWFlPic=

> <r_lp_tautomer_probability>
1

> <r_epik_Ionization_Penalty>
0.00067664

> <r_epik_Ionization_Penalty_Charging>
0

> <r_epik_Ionization_Penalty_Neutral>
0.00067664

> <r_epik_State_Penalty>
0.000428095

> <r_epik_Charging_Adjusted_Penalty>
0.000428095

> <i_epik_Tot_Q>
0

> <i_epik_Tot_abs_Q>
0

> <r_epik_Metal_State_Penalty>
-0

> <b_epik_Metal_Only>
0

> <s_epik_Chemistry_Notes>
This compound has an ester and may undergo hydrolysis at high or low pH. This compound contains an acetal/aminal-like group ( X-CH(R)-Y where X, Y are N, S, or O) that may be acid/base labile, releasing an aldehyde.

> <s_lp_Force_Field>
OPLS_2005

> <r_lp_Energy>
79.915

> <b_lp_Chiralities_Consistent>
1

> <s_lp_Variant>
AV-unprocessed.smi:33-10

> <Gold.Version>
5.8.1

> <Gold.Id.Protein>
6NUR|6NUR_protein|mol2

> <Gold.PLP.Fitness>
52.3210

> <Gold.PLP.PLP>
-48.9723

> <Gold.PLP.part.hbond>
-1.0000

> <Gold.PLP.part.metal>
0.0000

> <Gold.PLP.part.buried>
-4.0174

> <Gold.PLP.part.nonpolar>
-44.8228

> <Gold.PLP.part.repulsive>
0.2828

> <Gold.PLP.ligand.clash>
0.4971

> <Gold.PLP.ligand.torsion>
3.4449

> <Gold.PLP.Chemscore.Hbond>
0.8000

> <Gold.PLP.Chemscore.CHOScore>
1.0000

> <Gold.PLP.Chemscore.Metal>
0.0000

> <Gold.Chemscore.Hbonds>
donor molecule, donor type, donor heavy atom, donor atom, acceptor molecule, acceptor atom, score
      P1  H  6896  6907       L1    30  0.86
      L1  C     9    48       P1  7948  1.00

> <Gold.PLP.Chemscore.Internal.Correction>
5.3356

> <Gold.Rescore>
     Score         DG    S(hbond)    S(metal)    S(lipo)     H(rot)  DE(clash)    DE(int)     intcor
     -3.69     -13.49       0.01        0.00     123.42       2.52       2.13      15.06       ----

> <Gold.Chemscore.Fitness>
-3.6943

> <Gold.Chemscore.DG>
-13.4923

> <Gold.Chemscore.ZeroCoef>
-5.4800

> <Gold.Chemscore.Hbond>
0.0106

> <Gold.Chemscore.Metal>
0.0000

> <Gold.Chemscore.Lipo>
123.4199

> <Gold.Chemscore.Internal_Hbond>
0.0000

> <Gold.Chemscore.DEClash>
2.1291

> <Gold.Chemscore.DEInternal>
15.0575

> <Gold.Chemscore.Rot>
2.5247

> <Gold.Chemscore.Internal.Correction>
   9.000000E+99

> <Gold.Chemscore.Hbonds>
donor molecule, donor type, donor heavy atom, donor atom, acceptor molecule, acceptor atom, score
      P1  H  6896  6907       L1    30  0.04

> <Gold.Chemscore.Hbond.Weighted>
-0.0354

> <Gold.Chemscore.Metal.Weighted>
-0.0000

> <Gold.Chemscore.Lipo.Weighted>
-14.4401

> <Gold.Chemscore.Internal_Hbond.Weighted>
0.0000

> <Gold.Chemscore.DEClash.Weighted>
2.1291

> <Gold.Chemscore.DEInternal.Weighted>
15.0575

> <Gold.Chemscore.Rot.Weighted>
6.4633

> <Gold.Chemscore.Internal.Correction.Weighted>
   9.000000E+99

> <Gold.Protein.RotatedTorsions>
[ 6907 6896 6895 6894 ] final  -69.77 input  -60.11 | X-H torsion
[ 7974 7965 7964 7962 ] final  -21.70 input  175.53 | X-H torsion
[ 8008 7997 7996 7995 ] final  -73.88 input   59.86 | X-H torsion
[ 10167 10162 10161 10158 ] final -124.34 input  -65.29 | X-H torsion
[ 10718 10713 10712 10709 ] final -109.37 input   66.30 | X-H torsion
[ 10763 10752 10751 10750 ] final  165.04 input  -60.55 | X-H torsion
[ 11005 11000 10999 10996 ] final  120.76 input  -57.11 | X-H torsion

> <Gold.Protein.ActiveResidues>
 VAL166  LYS551  ARG553  GLY616  TRP617  ASP618  TYR619  PRO620  LYS621  CYS622 
 ASP623  PHE694  ASN695  SER759  ASP760  ASP761  ALA762  ILE779  LEU786  VAL792 
 PHE793  MET794  SER795  GLU796  ALA797  LYS798  CYS799  TRP800  GLU811  SER814 

> <Gold.Protein.RotatedAtoms>
  150.7289  134.5549  159.5812 H   0  0  0  0  0  0  0  0  0  0  0  0  # atno 6907 bound_to 6896
  152.3027  134.7589  160.0363 H   0  0  0  0  0  0  0  0  0  0  0  0  # atno 6908 bound_to 6896
  151.8164  133.3353  159.3607 H   0  0  0  0  0  0  0  0  0  0  0  0  # atno 6909 bound_to 6896
  146.1718  140.4378  142.8529 H   0  0  0  0  0  0  0  0  0  0  0  0  # atno 7974 bound_to 7965
  154.5284  140.0771  156.8300 H   0  0  0  0  0  0  0  0  0  0  0  0  # atno 8008 bound_to 7997
  155.3427  140.3408  155.4221 H   0  0  0  0  0  0  0  0  0  0  0  0  # atno 8009 bound_to 7997
  156.1756  140.1634  156.8356 H   0  0  0  0  0  0  0  0  0  0  0  0  # atno 8010 bound_to 7997
  139.9938  143.5612  152.2331 H   0  0  0  0  0  0  0  0  0  0  0  0  # atno 10167 bound_to 10162
  156.0533  130.5760  150.8090 H   0  0  0  0  0  0  0  0  0  0  0  0  # atno 10718 bound_to 10713
  154.3180  135.2756  155.2534 H   0  0  0  0  0  0  0  0  0  0  0  0  # atno 10763 bound_to 10752
  154.4900  135.5836  153.6455 H   0  0  0  0  0  0  0  0  0  0  0  0  # atno 10764 bound_to 10752
  152.9880  135.6132  154.3362 H   0  0  0  0  0  0  0  0  0  0  0  0  # atno 10765 bound_to 10752
  139.9198  134.9636  156.7856 H   0  0  0  0  0  0  0  0  0  0  0  0  # atno 11005 bound_to 11000
  144.8174  140.6492  143.6375 LP  0  0  0  0  0  0  0  0  0  0  0  0  # atno 17320 bound_to 7965
  145.4320  139.1548  143.4017 LP  0  0  0  0  0  0  0  0  0  0  0  0  # atno 17321 bound_to 7965
  139.6320  144.7645  151.2515 LP  0  0  0  0  0  0  0  0  0  0  0  0  # atno 17342 bound_to 10162
  140.7444  143.6462  150.8289 LP  0  0  0  0  0  0  0  0  0  0  0  0  # atno 17343 bound_to 10162
  157.5480  131.0943  150.9735 LP  0  0  0  0  0  0  0  0  0  0  0  0  # atno 17370 bound_to 10713
  157.0001  130.5596  149.5311 LP  0  0  0  0  0  0  0  0  0  0  0  0  # atno 17371 bound_to 10713
  140.6508  133.9733  155.7754 LP  0  0  0  0  0  0  0  0  0  0  0  0  # atno 17394 bound_to 11000
  141.0709  134.0207  157.3527 LP  0  0  0  0  0  0  0  0  0  0  0  0  # atno 17395 bound_to 11000

$$$$
