#       Name:                AV-unprocessed.smi:261
#       Creating user name   scv26
#       Creation time:       Thu Mar 26 21:17:43 2020


#       File generated by GOLD software.
#

@<TRIPOS>MOLECULE
AV-unprocessed.smi:261
    62    65     1
SMALL
NO_CHARGES


@<TRIPOS>ATOM
      1 ****        -7.0524   0.4930   1.0661 C.3            1 S1                 0.0000
      2 ****        -5.9227   0.1753   0.2701 O.3            1 S1                 0.0000
      3 ****        -4.7724  -0.1704   1.0283 C.3            1 S1                 0.0000
      4 ****        -4.8590  -1.5552   1.6679 C.3            1 S1                 0.0000
      5 ****        -3.3897  -1.9609   1.8624 C.3            1 S1                 0.0000
      6 ****        -3.2473  -3.4952   1.9079 C.2            1 S1                 0.0000
      7 ****        -2.6444  -4.1178   0.8898 N.am           1 S1                 0.0000
      8 ****        -3.6822  -4.1169   2.8746 O.2            1 S1                 0.0000
      9 ****        -2.6953  -1.3019   0.7473 N.pl3          1 S1                 0.0000
     10 ****        -1.3439  -1.1378   0.7216 C.ar           1 S1                 0.0000
     11 ****        -0.6077  -1.5028   1.8051 N.ar           1 S1                 0.0000
     12 ****         0.7207  -1.3623   1.8047 C.ar           1 S1                 0.0000
     13 ****         1.5086  -0.8897   0.8382 N.ar           1 S1                 0.0000
     14 ****         0.7812  -0.5272  -0.2561 C.ar           1 S1                 0.0000
     15 ****        -0.6332  -0.6164  -0.3998 C.ar           1 S1                 0.0000
     16 ****        -1.0024  -0.1670  -1.6637 N.2            1 S1                 0.0000
     17 ****         0.1234   0.1783  -2.2262 C.2            1 S1                 0.0000
     18 ****         1.2447  -0.0080  -1.4512 N.pl3          1 S1                 0.0000
     19 ****         2.6210   0.2721  -1.8218 C.3            1 S1                 0.0000
     20 ****         3.1587   1.5618  -1.1707 C.3            1 S1                 0.0000
     21 ****         2.3835   2.6608  -1.6112 O.3            1 S1                 0.0000
     22 ****         4.6358   1.8207  -1.5210 C.3            1 S1                 0.0000
     23 ****         5.2370   3.0595  -0.8562 C.3            1 S1                 0.0000
     24 ****         6.7146   2.7442  -0.9037 C.3            1 S1                 0.0000
     25 ****         6.7277   1.2411  -0.6381 C.3            1 S1                 0.0000
     26 ****         5.4547   0.7513  -1.0543 O.3            1 S1                 0.0000
     27 ****        -3.5466  -0.2946   0.1240 C.3            1 S1                 0.0000
     28 ****        -4.5708   0.5801   1.7953 H              1 S1                 0.0000
     29 ****        -3.0343  -1.5420   2.8054 H              1 S1                 0.0000
     30 ****        -7.8856   0.7702   0.4203 H              1 S1                 0.0000
     31 ****        -6.8455   1.3362   1.7261 H              1 S1                 0.0000
     32 ****        -7.3685  -0.3567   1.6718 H              1 S1                 0.0000
     33 ****        -5.4162  -1.5495   2.6052 H              1 S1                 0.0000
     34 ****        -5.3632  -2.2407   0.9837 H              1 S1                 0.0000
     35 ****        -2.5464  -5.1227   0.9031 H              1 S1                 0.0000
     36 ****        -2.2929  -3.5808   0.1106 H              1 S1                 0.0000
     37 ****         1.2238  -1.6753   2.7077 H              1 S1                 0.0000
     38 ****         0.1668   0.5776  -3.2291 H              1 S1                 0.0000
     39 ****         3.2271  -0.5841  -1.5237 H              1 S1                 0.0000
     40 ****         2.6866   0.3351  -2.9089 H              1 S1                 0.0000
     41 ****         3.0553   1.4897  -0.0871 H              1 S1                 0.0000
     42 ****         2.4899   2.7471  -2.5462 H              1 S1                 0.0000
     43 ****         4.7643   1.8929  -2.6025 H              1 S1                 0.0000
     44 ****         4.9827   3.9863  -1.3710 H              1 S1                 0.0000
     45 ****         4.9055   3.1405   0.1801 H              1 S1                 0.0000
     46 ****         7.1081   2.9528  -1.8995 H              1 S1                 0.0000
     47 ****         7.2997   3.3108  -0.1789 H              1 S1                 0.0000
     48 ****         7.5376   0.7390  -1.1679 H              1 S1                 0.0000
     49 ****         6.8440   1.0391   0.4270 H              1 S1                 0.0000
     50 ****        -3.8290  -0.6514  -0.8674 H              1 S1                 0.0000
     51 ****        -3.0563   0.6733   0.0095 H              1 S1                 0.0000
     52 ****        -5.7014   0.9693  -0.2960 LP             1 S1                 0.0000
     53 ****        -6.1579  -0.5984  -0.3182 LP             1 S1                 0.0000
     54 ****        -4.1253  -3.6275   3.6256 LP             1 S1                 0.0000
     55 ****        -3.5930  -5.1123   2.9102 LP             1 S1                 0.0000
     56 ****        -1.0654  -1.8802   2.6102 LP             1 S1                 0.0000
     57 ****         2.5031  -0.8115   0.9072 LP             1 S1                 0.0000
     58 ****        -1.9223  -0.1194  -2.0530 LP             1 S1                 0.0000
     59 ****         2.6943   3.4961  -1.1578 LP             1 S1                 0.0000
     60 ****         1.4201   2.5025  -1.3945 LP             1 S1                 0.0000
     61 ****         5.5824   0.0885  -1.7922 LP             1 S1                 0.0000
     62 ****         5.0045   0.3058  -0.2804 LP             1 S1                 0.0000
@<TRIPOS>BOND
    1    1    2 1     
    2    1   30 1     
    3    1   31 1     
    4    1   32 1     
    5    2    3 1     
    6    3   28 1     
    7    3   27 1     
    8    3    4 1     
    9    4    5 1     
   10    4   33 1     
   11    4   34 1     
   12    5   29 1     
   13    5    6 1     
   14    5    9 1     
   15    6    7 am    
   16    6    8 2     
   17    7   35 1     
   18    7   36 1     
   19    9   10 1     
   20    9   27 1     
   21   10   15 ar    
   22   10   11 ar    
   23   11   12 ar    
   24   12   13 ar    
   25   12   37 1     
   26   13   14 ar    
   27   14   18 1     
   28   14   15 ar    
   29   15   16 1     
   30   16   17 2     
   31   17   18 1     
   32   17   38 1     
   33   18   19 1     
   34   19   20 1     
   35   19   39 1     
   36   19   40 1     
   37   20   21 1     
   38   20   22 1     
   39   20   41 1     
   40   21   42 1     
   41   22   26 1     
   42   22   23 1     
   43   22   43 1     
   44   23   24 1     
   45   23   44 1     
   46   23   45 1     
   47   24   25 1     
   48   24   46 1     
   49   24   47 1     
   50   25   26 1     
   51   25   48 1     
   52   25   49 1     
   53   27   50 1     
   54   27   51 1     
   55    2   52 1     
   56    2   53 1     
   57    8   54 1     
   58    8   55 1     
   59   11   56 1     
   60   13   57 1     
   61   16   58 1     
   62   21   59 1     
   63   21   60 1     
   64   26   61 1     
   65   26   62 1     
@<TRIPOS>SUBSTRUCTURE
      1 S1             1
@<TRIPOS>SET
LONE_PAIRS      STATIC     ATOMS    <user>   **** ""
11 52 53 54 55 56 57 58 59 60 61 62
DONOR_HYDROGENS      STATIC     ATOMS    <user>   **** ""
3 35 36 42
ATOM$BLUE        STATIC     ATOMS    COLORGROUP SYSTEM
11 52 53 54 55 56 57 58 59 60 61 62
ATOM$RED        STATIC     ATOMS    COLORGROUP SYSTEM
3 35 36 42
