#       Name:                AV-unprocessed.smi:221
#       Creating user name   scv26
#       Creation time:       Thu Mar 26 20:14:13 2020


#       File generated by GOLD software.
#

@<TRIPOS>MOLECULE
AV-unprocessed.smi:221
    60    63     1
SMALL
NO_CHARGES


@<TRIPOS>ATOM
      1 ****         1.0501   4.9816  -0.7483 N.am           1 S1                 0.0000
      2 ****        -0.0897   4.9270  -0.0554 C.2            1 S1                 0.0000
      3 ****        -0.2492   5.5539   0.9907 O.2            1 S1                 0.0000
      4 ****        -1.2120   4.0553  -0.6372 C.3            1 S1                 0.0000
      5 ****        -2.2256   4.8847  -1.4367 C.3            1 S1                 0.0000
      6 ****        -3.4829   4.0232  -1.3991 C.3            1 S1                 0.0000
      7 ****        -3.4073   3.0820  -2.3412 F              1 S1                 0.0000
      8 ****        -3.4218   3.3698  -0.0164 C.3            1 S1                 0.0000
      9 ****        -2.0245   3.4246   0.4052 N.3            1 S1                 0.0000
     10 ****        -1.5268   2.2842   0.9323 C.ar           1 S1                 0.0000
     11 ****        -1.1409   2.3190   2.2310 N.ar           1 S1                 0.0000
     12 ****        -0.6338   1.2240   2.8059 C.ar           1 S1                 0.0000
     13 ****        -0.4312   0.0171   2.2718 N.ar           1 S1                 0.0000
     14 ****        -0.8199  -0.0175   0.9647 C.ar           1 S1                 0.0000
     15 ****        -1.3762   1.0605   0.2217 C.ar           1 S1                 0.0000
     16 ****        -1.6520   0.6505  -1.0773 N.2            1 S1                 0.0000
     17 ****        -1.2761  -0.5990  -1.1020 C.2            1 S1                 0.0000
     18 ****        -0.7575  -1.0786   0.0798 N.pl3          1 S1                 0.0000
     19 ****        -0.2586  -2.4177   0.3342 C.3            1 S1                 0.0000
     20 ****         1.2848  -2.4942   0.4372 C.3            1 S1                 0.0000
     21 ****         2.0034  -1.9790  -0.8369 C.3            1 S1                 0.0000
     22 ****         2.0773  -0.5682  -0.8587 O.3            1 S1                 0.0000
     23 ****         1.7162  -3.9253   0.8481 C.3            1 S1                 0.0000
     24 ****         1.5406  -5.0078  -0.2112 C.3            1 S1                 0.0000
     25 ****         2.6041  -6.0210   0.1874 C.3            1 S1                 0.0000
     26 ****         3.6944  -5.1972   0.5650 O.3            1 S1                 0.0000
     27 ****         3.1858  -4.0763   1.2806 C.3            1 S1                 0.0000
     28 ****        -0.7801   3.2929  -1.2885 H              1 S1                 0.0000
     29 ****        -4.4007   4.5863  -1.5704 H              1 S1                 0.0000
     30 ****         1.8184   5.5388  -0.4038 H              1 S1                 0.0000
     31 ****         1.1420   4.4643  -1.6105 H              1 S1                 0.0000
     32 ****        -2.4243   5.8382  -0.9435 H              1 S1                 0.0000
     33 ****        -1.8916   5.0970  -2.4529 H              1 S1                 0.0000
     34 ****        -4.0015   3.9555   0.6978 H              1 S1                 0.0000
     35 ****        -3.8436   2.3631  -0.0247 H              1 S1                 0.0000
     36 ****        -0.3485   1.3308   3.8420 H              1 S1                 0.0000
     37 ****        -1.3591  -1.2063  -1.9916 H              1 S1                 0.0000
     38 ****        -0.7171  -2.7705   1.2588 H              1 S1                 0.0000
     39 ****        -0.6177  -3.0752  -0.4582 H              1 S1                 0.0000
     40 ****         1.5870  -1.8499   1.2647 H              1 S1                 0.0000
     41 ****         3.0255  -2.3510  -0.8939 H              1 S1                 0.0000
     42 ****         1.4955  -2.3244  -1.7378 H              1 S1                 0.0000
     43 ****         2.5383  -0.3031  -1.6400 H              1 S1                 0.0000
     44 ****         1.1163  -4.2204   1.7107 H              1 S1                 0.0000
     45 ****         0.5365  -5.4325  -0.2232 H              1 S1                 0.0000
     46 ****         1.7604  -4.6322  -1.2100 H              1 S1                 0.0000
     47 ****         2.2786  -6.6161   1.0421 H              1 S1                 0.0000
     48 ****         2.8712  -6.6967  -0.6254 H              1 S1                 0.0000
     49 ****         3.7937  -3.1962   1.0715 H              1 S1                 0.0000
     50 ****         3.2501  -4.2687   2.3524 H              1 S1                 0.0000
     51 ****         0.4883   6.1274   1.3473 LP             1 S1                 0.0000
     52 ****        -1.1164   5.4901   1.4846 LP             1 S1                 0.0000
     53 ****        -1.9803   4.0181   1.2088 LP             1 S1                 0.0000
     54 ****        -1.2355   3.1632   2.7587 LP             1 S1                 0.0000
     55 ****        -0.0443  -0.7612   2.7663 LP             1 S1                 0.0000
     56 ****        -2.0474   1.1889  -1.8215 LP             1 S1                 0.0000
     57 ****         2.5692  -0.2439  -0.0507 LP             1 S1                 0.0000
     58 ****         1.1547  -0.1824  -0.8644 LP             1 S1                 0.0000
     59 ****         4.1797  -4.8844  -0.2515 LP             1 S1                 0.0000
     60 ****         4.3215  -5.7136   1.1481 LP             1 S1                 0.0000
@<TRIPOS>BOND
    1    1    2 am    
    2    1   30 1     
    3    1   31 1     
    4    2    3 2     
    5    2    4 1     
    6    4   28 1     
    7    4    9 1     
    8    4    5 1     
    9    5    6 1     
   10    5   32 1     
   11    5   33 1     
   12    6   29 1     
   13    6    7 1     
   14    6    8 1     
   15    8    9 1     
   16    8   34 1     
   17    8   35 1     
   18    9   10 1     
   19   10   15 ar    
   20   10   11 ar    
   21   11   12 ar    
   22   12   13 ar    
   23   12   36 1     
   24   13   14 ar    
   25   14   18 1     
   26   14   15 ar    
   27   15   16 1     
   28   16   17 2     
   29   17   18 1     
   30   17   37 1     
   31   18   19 1     
   32   19   20 1     
   33   19   38 1     
   34   19   39 1     
   35   20   21 1     
   36   20   23 1     
   37   20   40 1     
   38   21   22 1     
   39   21   41 1     
   40   21   42 1     
   41   22   43 1     
   42   23   27 1     
   43   23   24 1     
   44   23   44 1     
   45   24   25 1     
   46   24   45 1     
   47   24   46 1     
   48   25   26 1     
   49   25   47 1     
   50   25   48 1     
   51   26   27 1     
   52   27   49 1     
   53   27   50 1     
   54    3   51 1     
   55    3   52 1     
   56    9   53 1     
   57   11   54 1     
   58   13   55 1     
   59   16   56 1     
   60   22   57 1     
   61   22   58 1     
   62   26   59 1     
   63   26   60 1     
@<TRIPOS>SUBSTRUCTURE
      1 S1             1
@<TRIPOS>SET
LONE_PAIRS      STATIC     ATOMS    <user>   **** ""
10 51 52 53 54 55 56 57 58 59 60
DONOR_HYDROGENS      STATIC     ATOMS    <user>   **** ""
3 30 31 43
ATOM$BLUE        STATIC     ATOMS    COLORGROUP SYSTEM
10 51 52 53 54 55 56 57 58 59 60
ATOM$RED        STATIC     ATOMS    COLORGROUP SYSTEM
3 30 31 43
