AV-unprocessed.smi:645|AV-procd|sdf|3162|dock5
  -GOLD-   22720 0 83D 1   1.00000     0.00000
 Structure written by MMmdl.
 22 23  0  0  0  0  0  0  0  0  2 V2000
  149.9595  139.9151  158.1276 C   0  0  0  0  0  0  0  0  0  0  0  0
  150.6157  140.9388  157.1774 C   0  0  2  0  0  0  0  0  0  0  0  0
  151.3838  142.0321  157.9407 C   0  0  0  0  0  0  0  0  0  0  0  0
  151.1961  143.4108  157.6735 C   0  0  0  0  0  0  0  0  0  0  0  0
  151.9298  144.3569  158.4163 C   0  0  0  0  0  0  0  0  0  0  0  0
  152.8108  144.0236  159.3822 N   0  0  0  0  0  0  0  0  0  0  0  0
  152.9910  142.7117  159.6391 C   0  0  0  0  0  0  0  0  0  0  0  0
  152.3069  141.6874  158.9558 C   0  0  0  0  0  0  0  0  0  0  0  0
  149.6066  141.4639  156.2774 N   0  0  0  0  0  0  0  0  0  0  0  0
  149.8875  141.1844  155.0061 C   0  0  0  0  0  0  0  0  0  0  0  0
  149.1641  141.5608  154.0868 O   0  0  0  0  0  0  0  0  0  0  0  0
  151.0236  140.4657  154.9294 N   0  5  0  0  0  0  0  0  0  0  0  0
  151.5360  140.2456  156.1601 C   0  0  0  0  0  0  0  0  0  0  0  0
  152.5341  139.6078  156.4951 O   0  0  0  0  0  0  0  0  0  0  0  0
  150.6953  139.4048  158.7495 H   0  0  0  0  0  0  0  0  0  0  0  0
  149.4179  139.1460  157.5748 H   0  0  0  0  0  0  0  0  0  0  0  0
  149.2467  140.4020  158.7936 H   0  0  0  0  0  0  0  0  0  0  0  0
  150.5100  143.7562  156.9150 H   0  0  0  0  0  0  0  0  0  0  0  0
  151.8042  145.4130  158.2284 H   0  0  0  0  0  0  0  0  0  0  0  0
  153.7034  142.4690  160.4136 H   0  0  0  0  0  0  0  0  0  0  0  0
  152.4996  140.6545  159.2047 H   0  0  0  0  0  0  0  0  0  0  0  0
  148.8080  141.9967  156.5882 H   0  0  0  0  0  0  0  0  0  0  0  0
  1  2  1  0  0  0  0
  1 15  1  0  0  0  0
  1 16  1  0  0  0  0
  1 17  1  0  0  0  0
  2 13  1  0  0  0  0
  2  3  1  0  0  0  0
  2  9  1  0  0  0  0
  3  8  1  0  0  0  0
  3  4  2  0  0  0  0
  4  5  1  0  0  0  0
  4 18  1  0  0  0  0
  5  6  2  0  0  0  0
  5 19  1  0  0  0  0
  6  7  1  0  0  0  0
  7  8  2  0  0  0  0
  7 20  1  0  0  0  0
  8 21  1  0  0  0  0
  9 10  1  0  0  0  0
  9 22  1  0  0  0  0
 10 11  2  0  0  0  0
 10 12  1  0  0  0  0
 12 13  1  0  0  0  0
 13 14  2  0  0  0  0
M  CHG  1  12  -1
M  END
> <s_m_source_file>
AV-unprocessed.smi

> <i_m_source_file_index>
645

> <i_lp_mmshare_version>
43012

> <i_f3d_flags>
0

> <s_epik_input>
Tz1DMVtOSF1DKD1PKVtOSF1bQ0BAXTEoW0NIM10pYzJbY0hdW2NIXW5bY0hdW2NIXTI=

> <s_epik_cmdline>
J2VwaWtfcHl0aG9uJywgJy1waCcsICc3LjAnLCAnLXRuJywgJzgnLCAnLW1hJywgJzIwMCcsICctbWV0YWxfYmluZGluZycsICctaW1hZScsICc8aW5maWxlLm1hZT4nLCAnLW9tYWUnLCAnPG91dGZpbGUubWFlPic=

> <r_epik_Ionization_Penalty>
1.83307

> <r_epik_Ionization_Penalty_Charging>
1.82122

> <r_epik_Ionization_Penalty_Neutral>
0.0118514

> <r_epik_State_Penalty>
1.93645

> <r_epik_Charging_Adjusted_Penalty>
3.75767

> <i_epik_Tot_Q>
-1

> <i_epik_Tot_abs_Q>
1

> <r_epik_Metal_State_Penalty>
0.53507

> <b_epik_Metal_Only>
0

> <s_lp_Force_Field>
OPLS_2005

> <r_lp_Energy>
9.09868

> <b_lp_Chiralities_Consistent>
1

> <s_lp_Variant>
AV-unprocessed.smi:645-4

> <Gold.Version>
5.8.1

> <Gold.Id.Protein>
6NUR|6NUR_protein|mol2

> <Gold.PLP.Fitness>
36.0531

> <Gold.PLP.PLP>
-28.7210

> <Gold.PLP.part.hbond>
-3.7540

> <Gold.PLP.part.metal>
0.0000

> <Gold.PLP.part.buried>
-3.0701

> <Gold.PLP.part.nonpolar>
-22.0190

> <Gold.PLP.part.repulsive>
0.3174

> <Gold.PLP.ligand.clash>
0.0000

> <Gold.PLP.ligand.torsion>
0.3265

> <Gold.PLP.Chemscore.Hbond>
2.6344

> <Gold.PLP.Chemscore.CHOScore>
0.0000

> <Gold.PLP.Chemscore.Metal>
0.0000

> <Gold.Chemscore.Hbonds>
donor molecule, donor type, donor heavy atom, donor atom, acceptor molecule, acceptor atom, score
      P1  H  7989  7998       L1    12  1.00
      P1  H  7997  8008       L1    14  1.00
      P1  H  8011  8017       L1    11  0.61

> <Gold.PLP.Chemscore.Internal.Correction>
0.0820

> <Gold.Rescore>
     Score         DG    S(hbond)    S(metal)    S(lipo)     H(rot)  DE(clash)    DE(int)     intcor
     17.18     -17.57       2.26        0.00      60.58       1.00       0.13       0.27       ----

> <Gold.Chemscore.Fitness>
17.1793

> <Gold.Chemscore.DG>
-17.5723

> <Gold.Chemscore.ZeroCoef>
-5.4800

> <Gold.Chemscore.Hbond>
2.2647

> <Gold.Chemscore.Metal>
0.0000

> <Gold.Chemscore.Lipo>
60.5837

> <Gold.Chemscore.Internal_Hbond>
0.0000

> <Gold.Chemscore.DEClash>
0.1274

> <Gold.Chemscore.DEInternal>
0.2656

> <Gold.Chemscore.Rot>
1.0000

> <Gold.Chemscore.Internal.Correction>
   9.000000E+99

> <Gold.Chemscore.Hbonds>
donor molecule, donor type, donor heavy atom, donor atom, acceptor molecule, acceptor atom, score
      P1  H  7989  7998       L1    12  0.43
      P1  H  7997  8008       L1    14  1.00
      P1  H  8011  8017       L1    11  0.58

> <Gold.Chemscore.Hbond.Weighted>
-7.5640

> <Gold.Chemscore.Metal.Weighted>
-0.0000

> <Gold.Chemscore.Lipo.Weighted>
-7.0883

> <Gold.Chemscore.Internal_Hbond.Weighted>
0.0000

> <Gold.Chemscore.DEClash.Weighted>
0.1274

> <Gold.Chemscore.DEInternal.Weighted>
0.2656

> <Gold.Chemscore.Rot.Weighted>
2.5600

> <Gold.Chemscore.Internal.Correction.Weighted>
   9.000000E+99

> <Gold.Protein.RotatedTorsions>
[ 6907 6896 6895 6894 ] final   -9.23 input  -60.11 | X-H torsion
[ 7974 7965 7964 7962 ] final   -2.20 input  175.53 | X-H torsion
[ 8008 7997 7996 7995 ] final  -37.91 input   59.86 | X-H torsion
[ 10167 10162 10161 10158 ] final -175.20 input  -65.29 | X-H torsion
[ 10718 10713 10712 10709 ] final -143.71 input   66.30 | X-H torsion
[ 10763 10752 10751 10750 ] final -171.12 input  -60.55 | X-H torsion
[ 11005 11000 10999 10996 ] final   10.55 input  -57.11 | X-H torsion

> <Gold.Protein.ActiveResidues>
 VAL166  LYS551  ARG553  GLY616  TRP617  ASP618  TYR619  PRO620  LYS621  CYS622 
 ASP623  PHE694  ASN695  SER759  ASP760  ASP761  ALA762  ILE779  LEU786  VAL792 
 PHE793  MET794  SER795  GLU796  ALA797  LYS798  CYS799  TRP800  GLU811  SER814 

> <Gold.Protein.RotatedAtoms>
  151.4211  135.0998  159.9613 H   0  0  0  0  0  0  0  0  0  0  0  0  # atno 6907 bound_to 6896
  152.4988  133.8706  159.7307 H   0  0  0  0  0  0  0  0  0  0  0  0  # atno 6908 bound_to 6896
  150.9223  133.6808  159.2857 H   0  0  0  0  0  0  0  0  0  0  0  0  # atno 6909 bound_to 6896
  146.2407  140.1536  142.8333 H   0  0  0  0  0  0  0  0  0  0  0  0  # atno 7974 bound_to 7965
  154.4045  140.1591  156.2614 H   0  0  0  0  0  0  0  0  0  0  0  0  # atno 8008 bound_to 7997
  155.9033  140.3432  155.6020 H   0  0  0  0  0  0  0  0  0  0  0  0  # atno 8009 bound_to 7997
  155.7422  140.0794  157.2231 H   0  0  0  0  0  0  0  0  0  0  0  0  # atno 8010 bound_to 7997
  139.5593  144.1909  152.1213 H   0  0  0  0  0  0  0  0  0  0  0  0  # atno 10167 bound_to 10162
  156.3613  130.7739  151.1907 H   0  0  0  0  0  0  0  0  0  0  0  0  # atno 10718 bound_to 10713
  154.6340  135.2890  155.0183 H   0  0  0  0  0  0  0  0  0  0  0  0  # atno 10763 bound_to 10752
  154.1333  135.6530  153.4930 H   0  0  0  0  0  0  0  0  0  0  0  0  # atno 10764 bound_to 10752
  153.0293  135.5315  154.7179 H   0  0  0  0  0  0  0  0  0  0  0  0  # atno 10765 bound_to 10752
  140.5132  134.0631  155.7824 H   0  0  0  0  0  0  0  0  0  0  0  0  # atno 11005 bound_to 11000
  145.0147  140.8744  143.5203 LP  0  0  0  0  0  0  0  0  0  0  0  0  # atno 17320 bound_to 7965
  145.1575  139.2478  143.5409 LP  0  0  0  0  0  0  0  0  0  0  0  0  # atno 17321 bound_to 7965
  140.1419  144.5194  150.6739 LP  0  0  0  0  0  0  0  0  0  0  0  0  # atno 17342 bound_to 10162
  140.6871  143.2356  151.5231 LP  0  0  0  0  0  0  0  0  0  0  0  0  # atno 17343 bound_to 10162
  157.7474  131.0399  150.4573 LP  0  0  0  0  0  0  0  0  0  0  0  0  # atno 17370 bound_to 10713
  156.4785  130.4068  149.6476 LP  0  0  0  0  0  0  0  0  0  0  0  0  # atno 17371 bound_to 10713
  141.1374  133.9197  157.2403 LP  0  0  0  0  0  0  0  0  0  0  0  0  # atno 17394 bound_to 11000
  139.9647  135.0145  156.9355 LP  0  0  0  0  0  0  0  0  0  0  0  0  # atno 17395 bound_to 11000

$$$$
