AV-unprocessed.smi:2872|AV-procd|sdf|11034|dock10
  -GOLD-   2272015503D 1   1.00000     0.00000
 Structure written by MMmdl.
 39 41  0  0  0  0  0  0  0  0  1 V2000
  154.2102  136.4542  160.2961 O   0  0  0  0  0  0  0  0  0  0  0  0
  155.0895  137.0773  159.7036 C   0  0  0  0  0  0  0  0  0  0  0  0
  154.8648  137.9514  158.7120 N   0  0  0  0  0  0  0  0  0  0  0  0
  153.5509  138.2939  158.1771 C   0  0  0  0  0  0  0  0  0  0  0  0
  153.1709  139.6687  158.6453 C   0  0  0  0  0  0  0  0  0  0  0  0
  153.8883  140.3283  159.5556 N   0  0  0  0  0  0  0  0  0  0  0  0
  153.2018  141.5203  159.6799 C   0  0  0  0  0  0  0  0  0  0  0  0
  153.4589  142.6488  160.4907 C   0  0  0  0  0  0  0  0  0  0  0  0
  152.6071  143.7719  160.4416 C   0  0  0  0  0  0  0  0  0  0  0  0
  151.4888  143.7831  159.5830 C   0  0  0  0  0  0  0  0  0  0  0  0
  151.2137  142.6683  158.7680 C   0  0  0  0  0  0  0  0  0  0  0  0
  152.0662  141.5494  158.8217 C   0  0  0  0  0  0  0  0  0  0  0  0
  152.0813  140.3218  158.1680 N   0  0  0  0  0  0  0  0  0  0  0  0
  151.1214  139.8682  157.1742 C   0  0  0  0  0  0  0  0  0  0  0  0
  151.1706  140.7348  155.9107 C   0  0  0  0  0  0  0  0  0  0  0  0
  150.5801  140.0112  154.8405 O   0  0  0  0  0  0  0  0  0  0  0  0
  149.2405  140.2083  154.5823 C   0  0  0  0  0  0  0  0  0  0  0  0
  148.6974  141.4609  154.9366 C   0  0  0  0  0  0  0  0  0  0  0  0
  147.3373  141.7476  154.7108 C   0  0  0  0  0  0  0  0  0  0  0  0
  146.5022  140.7788  154.1245 C   0  0  0  0  0  0  0  0  0  0  0  0
  147.0306  139.5255  153.7639 C   0  0  0  0  0  0  0  0  0  0  0  0
  148.3911  139.2389  153.9900 C   0  0  0  0  0  0  0  0  0  0  0  0
  156.1666  136.9939  159.9160 H   0  0  0  0  0  0  0  0  0  0  0  0
  155.6616  138.4077  158.2924 H   0  0  0  0  0  0  0  0  0  0  0  0
  153.5487  138.2587  157.0861 H   0  0  0  0  0  0  0  0  0  0  0  0
  152.8154  137.5644  158.5156 H   0  0  0  0  0  0  0  0  0  0  0  0
  154.3136  142.6504  161.1508 H   0  0  0  0  0  0  0  0  0  0  0  0
  152.8135  144.6296  161.0649 H   0  0  0  0  0  0  0  0  0  0  0  0
  150.8422  144.6478  159.5504 H   0  0  0  0  0  0  0  0  0  0  0  0
  150.3587  142.6737  158.1086 H   0  0  0  0  0  0  0  0  0  0  0  0
  151.3138  138.8232  156.9314 H   0  0  0  0  0  0  0  0  0  0  0  0
  150.1238  139.9014  157.6133 H   0  0  0  0  0  0  0  0  0  0  0  0
  150.6277  141.6658  156.0821 H   0  0  0  0  0  0  0  0  0  0  0  0
  152.2060  140.9825  155.6719 H   0  0  0  0  0  0  0  0  0  0  0  0
  149.3311  142.2104  155.3876 H   0  0  0  0  0  0  0  0  0  0  0  0
  146.9350  142.7108  154.9876 H   0  0  0  0  0  0  0  0  0  0  0  0
  145.4586  140.9967  153.9512 H   0  0  0  0  0  0  0  0  0  0  0  0
  146.3912  138.7814  153.3123 H   0  0  0  0  0  0  0  0  0  0  0  0
  148.7587  138.2667  153.6992 H   0  0  0  0  0  0  0  0  0  0  0  0
  1  2  2  0  0  0  0
  2  3  1  0  0  0  0
  2 23  1  0  0  0  0
  3  4  1  0  0  0  0
  3 24  1  0  0  0  0
  4  5  1  0  0  0  0
  4 25  1  0  0  0  0
  4 26  1  0  0  0  0
  5 13  1  0  0  0  0
  5  6  2  0  0  0  0
  6  7  1  0  0  0  0
  7 12  2  0  0  0  0
  7  8  1  0  0  0  0
  8  9  2  0  0  0  0
  8 27  1  0  0  0  0
  9 10  1  0  0  0  0
  9 28  1  0  0  0  0
 10 11  2  0  0  0  0
 10 29  1  0  0  0  0
 11 12  1  0  0  0  0
 11 30  1  0  0  0  0
 12 13  1  0  0  0  0
 13 14  1  0  0  0  0
 14 15  1  0  0  0  0
 14 31  1  0  0  0  0
 14 32  1  0  0  0  0
 15 16  1  0  0  0  0
 15 33  1  0  0  0  0
 15 34  1  0  0  0  0
 16 17  1  0  0  0  0
 17 22  1  0  0  0  0
 17 18  2  0  0  0  0
 18 19  1  0  0  0  0
 18 35  1  0  0  0  0
 19 20  2  0  0  0  0
 19 36  1  0  0  0  0
 20 21  1  0  0  0  0
 20 37  1  0  0  0  0
 21 22  2  0  0  0  0
 21 38  1  0  0  0  0
 22 39  1  0  0  0  0
M  END
> <s_m_source_file>
AV-unprocessed.smi

> <i_m_source_file_index>
2872

> <i_lp_mmshare_version>
43012

> <i_f3d_flags>
0

> <s_epik_input>
Tz1bQ0hdW05IXVtDSDJdYyhuMSluKGMoYzEyKVtjSF1bY0hdW2NIXVtjSF0yKVtDSDJdW0NIMl1PYzNbY0hdW2NIXVtjSF1bY0hdW2NIXTM=

> <s_epik_cmdline>
J2VwaWtfcHl0aG9uJywgJy1waCcsICc3LjAnLCAnLXRuJywgJzgnLCAnLW1hJywgJzIwMCcsICctbWV0YWxfYmluZGluZycsICctaW1hZScsICc8aW5maWxlLm1hZT4nLCAnLW9tYWUnLCAnPG91dGZpbGUubWFlPic=

> <r_lp_tautomer_probability>
1

> <r_epik_Ionization_Penalty>
0.0659793

> <r_epik_Ionization_Penalty_Charging>
0

> <r_epik_Ionization_Penalty_Neutral>
0.0659793

> <r_epik_State_Penalty>
0.0575748

> <r_epik_Charging_Adjusted_Penalty>
0.0575748

> <i_epik_Tot_Q>
0

> <i_epik_Tot_abs_Q>
0

> <r_epik_Metal_State_Penalty>
0.0517641

> <b_epik_Metal_Only>
0

> <s_lp_Force_Field>
OPLS_2005

> <r_lp_Energy>
12.8976

> <b_lp_Chiralities_Consistent>
1

> <s_lp_Variant>
AV-unprocessed.smi:2872-1

> <Gold.Version>
5.8.1

> <Gold.Id.Protein>
6NUR|6NUR_protein|mol2

> <Gold.PLP.Fitness>
47.6462

> <Gold.PLP.PLP>
-43.4235

> <Gold.PLP.part.hbond>
-1.9235

> <Gold.PLP.part.metal>
0.0000

> <Gold.PLP.part.buried>
-1.7254

> <Gold.PLP.part.nonpolar>
-39.0154

> <Gold.PLP.part.repulsive>
0.1396

> <Gold.PLP.ligand.clash>
0.0000

> <Gold.PLP.ligand.torsion>
0.8498

> <Gold.PLP.Chemscore.Hbond>
1.9588

> <Gold.PLP.Chemscore.CHOScore>
0.0000

> <Gold.PLP.Chemscore.Metal>
0.0000

> <Gold.Chemscore.Hbonds>
donor molecule, donor type, donor heavy atom, donor atom, acceptor molecule, acceptor atom, score
      P1  H  7989  7998       L1    16  0.70

> <Gold.PLP.Chemscore.Internal.Correction>
0.0460

> <Gold.Rescore>
     Score         DG    S(hbond)    S(metal)    S(lipo)     H(rot)  DE(clash)    DE(int)     intcor
     16.73     -17.86       1.77        0.00     108.12       2.42       0.25       0.88       ----

> <Gold.Chemscore.Fitness>
16.7316

> <Gold.Chemscore.DG>
-17.8612

> <Gold.Chemscore.ZeroCoef>
-5.4800

> <Gold.Chemscore.Hbond>
1.7746

> <Gold.Chemscore.Metal>
0.0000

> <Gold.Chemscore.Lipo>
108.1239

> <Gold.Chemscore.Internal_Hbond>
0.0000

> <Gold.Chemscore.DEClash>
0.2478

> <Gold.Chemscore.DEInternal>
0.8819

> <Gold.Chemscore.Rot>
2.4205

> <Gold.Chemscore.Internal.Correction>
   9.000000E+99

> <Gold.Chemscore.Hbonds>
donor molecule, donor type, donor heavy atom, donor atom, acceptor molecule, acceptor atom, score
      P1  H  6896  6907       L1     1  0.01
      P1  H  7989  7998       L1    16  0.05

> <Gold.Chemscore.Hbond.Weighted>
-5.9273

> <Gold.Chemscore.Metal.Weighted>
-0.0000

> <Gold.Chemscore.Lipo.Weighted>
-12.6505

> <Gold.Chemscore.Internal_Hbond.Weighted>
0.0000

> <Gold.Chemscore.DEClash.Weighted>
0.2478

> <Gold.Chemscore.DEInternal.Weighted>
0.8819

> <Gold.Chemscore.Rot.Weighted>
6.1965

> <Gold.Chemscore.Internal.Correction.Weighted>
   9.000000E+99

> <Gold.Protein.RotatedTorsions>
[ 6907 6896 6895 6894 ] final   43.51 input  -60.11 | X-H torsion
[ 7974 7965 7964 7962 ] final   33.91 input  175.53 | X-H torsion
[ 8008 7997 7996 7995 ] final  129.28 input   59.86 | X-H torsion
[ 10167 10162 10161 10158 ] final -128.28 input  -65.29 | X-H torsion
[ 10718 10713 10712 10709 ] final   11.90 input   66.30 | X-H torsion
[ 10763 10752 10751 10750 ] final  -23.86 input  -60.55 | X-H torsion
[ 11005 11000 10999 10996 ] final   -8.67 input  -57.11 | X-H torsion

> <Gold.Protein.ActiveResidues>
 VAL166  LYS551  ARG553  GLY616  TRP617  ASP618  TYR619  PRO620  LYS621  CYS622 
 ASP623  PHE694  ASN695  SER759  ASP760  ASP761  ALA762  ILE779  LEU786  VAL792 
 PHE793  MET794  SER795  GLU796  ALA797  LYS798  CYS799  TRP800  GLU811  SER814 

> <Gold.Protein.RotatedAtoms>
  152.2212  134.8411  160.0485 H   0  0  0  0  0  0  0  0  0  0  0  0  # atno 6907 bound_to 6896
  151.9194  133.3576  159.3900 H   0  0  0  0  0  0  0  0  0  0  0  0  # atno 6908 bound_to 6896
  150.7000  134.4575  159.5409 H   0  0  0  0  0  0  0  0  0  0  0  0  # atno 6909 bound_to 6896
  146.1388  139.6336  142.9177 H   0  0  0  0  0  0  0  0  0  0  0  0  # atno 7974 bound_to 7965
  156.2933  140.2624  156.2572 H   0  0  0  0  0  0  0  0  0  0  0  0  # atno 8008 bound_to 7997
  154.9824  140.0389  157.2302 H   0  0  0  0  0  0  0  0  0  0  0  0  # atno 8009 bound_to 7997
  154.7760  140.2786  155.6105 H   0  0  0  0  0  0  0  0  0  0  0  0  # atno 8010 bound_to 7997
  139.9519  143.6046  152.2472 H   0  0  0  0  0  0  0  0  0  0  0  0  # atno 10167 bound_to 10162
  157.0024  130.6084  149.5698 H   0  0  0  0  0  0  0  0  0  0  0  0  # atno 10718 bound_to 10713
  153.6746  135.6970  153.5136 H   0  0  0  0  0  0  0  0  0  0  0  0  # atno 10763 bound_to 10752
  153.2531  135.4268  155.0817 H   0  0  0  0  0  0  0  0  0  0  0  0  # atno 10764 bound_to 10752
  154.8417  135.3536  154.6290 H   0  0  0  0  0  0  0  0  0  0  0  0  # atno 10765 bound_to 10752
  140.7260  133.8789  155.8856 H   0  0  0  0  0  0  0  0  0  0  0  0  # atno 11005 bound_to 11000
  145.5093  141.0436  143.2496 LP  0  0  0  0  0  0  0  0  0  0  0  0  # atno 17320 bound_to 7965
  144.7770  139.6609  143.7171 LP  0  0  0  0  0  0  0  0  0  0  0  0  # atno 17321 bound_to 7965
  139.6621  144.7662  151.1942 LP  0  0  0  0  0  0  0  0  0  0  0  0  # atno 17342 bound_to 10162
  140.7580  143.5994  150.8715 LP  0  0  0  0  0  0  0  0  0  0  0  0  # atno 17343 bound_to 10162
  156.0166  130.5260  150.8153 LP  0  0  0  0  0  0  0  0  0  0  0  0  # atno 17370 bound_to 10713
  157.5381  131.0939  150.9865 LP  0  0  0  0  0  0  0  0  0  0  0  0  # atno 17371 bound_to 10713
  140.9962  134.1211  157.4361 LP  0  0  0  0  0  0  0  0  0  0  0  0  # atno 17394 bound_to 11000
  139.8837  135.0055  156.6319 LP  0  0  0  0  0  0  0  0  0  0  0  0  # atno 17395 bound_to 11000

$$$$
