AV-unprocessed.smi:1994|AV-procd|sdf|8072|dock6
  -GOLD-   2272010283D 1   1.00000     0.00000
 Structure written by MMmdl.
 39 41  0  0  0  0  0  0  0  0  1 V2000
  148.6553  140.8731  157.4555 C   0  0  0  0  0  0  0  0  0  0  0  0
  149.9342  141.1227  158.1901 C   0  0  0  0  0  0  0  0  0  0  0  0
  150.2260  142.3074  158.7273 N   0  0  0  0  0  0  0  0  0  0  0  0
  151.4739  142.0906  159.2792 C   0  0  0  0  0  0  0  0  0  0  0  0
  152.3271  142.9634  159.9920 C   0  0  0  0  0  0  0  0  0  0  0  0
  153.5766  142.5115  160.4650 C   0  0  0  0  0  0  0  0  0  0  0  0
  153.9893  141.1831  160.2343 C   0  0  0  0  0  0  0  0  0  0  0  0
  153.1535  140.2966  159.5282 C   0  0  0  0  0  0  0  0  0  0  0  0
  151.9081  140.7529  159.0565 C   0  0  0  0  0  0  0  0  0  0  0  0
  150.8712  140.1555  158.3457 N   0  0  0  0  0  0  0  0  0  0  0  0
  150.8241  138.7786  157.8719 C   0  0  0  0  0  0  0  0  0  0  0  0
  151.2575  137.7621  158.9478 C   0  0  2  0  0  0  0  0  0  0  0  0
  151.5840  136.5275  158.3410 O   0  0  0  0  0  0  0  0  0  0  0  0
  150.1608  137.5113  159.9928 C   0  0  0  0  0  0  0  0  0  0  0  0
  149.4632  136.3194  159.6556 O   0  0  0  0  0  0  0  0  0  0  0  0
  148.5893  135.7890  160.5810 C   0  0  0  0  0  0  0  0  0  0  0  0
  148.1738  136.4612  161.7588 C   0  0  0  0  0  0  0  0  0  0  0  0
  147.2744  135.8466  162.6518 C   0  0  0  0  0  0  0  0  0  0  0  0
  146.7808  134.5570  162.3820 C   0  0  0  0  0  0  0  0  0  0  0  0
  147.1875  133.8820  161.2165 C   0  0  0  0  0  0  0  0  0  0  0  0
  148.0858  134.4959  160.3221 C   0  0  0  0  0  0  0  0  0  0  0  0
  148.4691  133.8354  159.2034 F   0  0  0  0  0  0  0  0  0  0  0  0
  148.0269  141.7644  157.4694 H   0  0  0  0  0  0  0  0  0  0  0  0
  148.1016  140.0575  157.9196 H   0  0  0  0  0  0  0  0  0  0  0  0
  148.8608  140.6159  156.4163 H   0  0  0  0  0  0  0  0  0  0  0  0
  152.0198  143.9826  160.1741 H   0  0  0  0  0  0  0  0  0  0  0  0
  154.2214  143.1876  161.0074 H   0  0  0  0  0  0  0  0  0  0  0  0
  154.9480  140.8451  160.5997 H   0  0  0  0  0  0  0  0  0  0  0  0
  153.4655  139.2779  159.3523 H   0  0  0  0  0  0  0  0  0  0  0  0
  149.8124  138.5615  157.5289 H   0  0  0  0  0  0  0  0  0  0  0  0
  151.4629  138.6922  156.9921 H   0  0  0  0  0  0  0  0  0  0  0  0
  152.1528  138.1215  159.4555 H   0  0  0  0  0  0  0  0  0  0  0  0
  150.7980  136.1625  157.9638 H   0  0  0  0  0  0  0  0  0  0  0  0
  150.6032  137.4319  160.9874 H   0  0  0  0  0  0  0  0  0  0  0  0
  149.4622  138.3499  159.9982 H   0  0  0  0  0  0  0  0  0  0  0  0
  148.5292  137.4513  162.0007 H   0  0  0  0  0  0  0  0  0  0  0  0
  146.9623  136.3668  163.5456 H   0  0  0  0  0  0  0  0  0  0  0  0
  146.0914  134.0865  163.0675 H   0  0  0  0  0  0  0  0  0  0  0  0
  146.8100  132.8918  161.0070 H   0  0  0  0  0  0  0  0  0  0  0  0
  1  2  1  0  0  0  0
  1 23  1  0  0  0  0
  1 24  1  0  0  0  0
  1 25  1  0  0  0  0
  2 10  1  0  0  0  0
  2  3  2  0  0  0  0
  3  4  1  0  0  0  0
  4  9  2  0  0  0  0
  4  5  1  0  0  0  0
  5  6  2  0  0  0  0
  5 26  1  0  0  0  0
  6  7  1  0  0  0  0
  6 27  1  0  0  0  0
  7  8  2  0  0  0  0
  7 28  1  0  0  0  0
  8  9  1  0  0  0  0
  8 29  1  0  0  0  0
  9 10  1  0  0  0  0
 10 11  1  0  0  0  0
 11 12  1  0  0  0  0
 11 30  1  0  0  0  0
 11 31  1  0  0  0  0
 12 13  1  0  0  0  0
 12 14  1  0  0  0  0
 12 32  1  0  0  0  0
 13 33  1  0  0  0  0
 14 15  1  0  0  0  0
 14 34  1  0  0  0  0
 14 35  1  0  0  0  0
 15 16  1  0  0  0  0
 16 21  1  0  0  0  0
 16 17  2  0  0  0  0
 17 18  1  0  0  0  0
 17 36  1  0  0  0  0
 18 19  2  0  0  0  0
 18 37  1  0  0  0  0
 19 20  1  0  0  0  0
 19 38  1  0  0  0  0
 20 21  2  0  0  0  0
 20 39  1  0  0  0  0
 21 22  1  0  0  0  0
M  END
> <s_m_source_file>
AV-unprocessed.smi

> <i_m_source_file_index>
1994

> <i_lp_mmshare_version>
43012

> <i_f3d_flags>
0

> <s_epik_input>
W2NIXTFbY0hdW2NIXVtjSF1jKGMxMiluKGMobjIpW0NIM10pW0NIMl1bQ0BIXShbT0hdKVtDSDJdT2MzW2NIXVtjSF1bY0hdW2NIXWMzRg==

> <s_epik_cmdline>
J2VwaWtfcHl0aG9uJywgJy1waCcsICc3LjAnLCAnLXRuJywgJzgnLCAnLW1hJywgJzIwMCcsICctbWV0YWxfYmluZGluZycsICctaW1hZScsICc8aW5maWxlLm1hZT4nLCAnLW9tYWUnLCAnPG91dGZpbGUubWFlPic=

> <r_lp_tautomer_probability>
1

> <r_epik_Ionization_Penalty>
0.112614

> <r_epik_Ionization_Penalty_Charging>
0

> <r_epik_Ionization_Penalty_Neutral>
0.112614

> <r_epik_State_Penalty>
0.10231

> <r_epik_Charging_Adjusted_Penalty>
0.10231

> <i_epik_Tot_Q>
0

> <i_epik_Tot_abs_Q>
0

> <r_epik_Metal_State_Penalty>
0.000111664

> <b_epik_Metal_Only>
0

> <s_lp_Force_Field>
OPLS_2005

> <r_lp_Energy>
14.6988

> <b_lp_Chiralities_Consistent>
1

> <s_lp_Variant>
AV-unprocessed.smi:1994-1

> <Gold.Version>
5.8.1

> <Gold.Id.Protein>
6NUR|6NUR_protein|mol2

> <Gold.PLP.Fitness>
41.3667

> <Gold.PLP.PLP>
-40.2593

> <Gold.PLP.part.hbond>
-2.0000

> <Gold.PLP.part.metal>
0.0000

> <Gold.PLP.part.buried>
-2.5494

> <Gold.PLP.part.nonpolar>
-35.8344

> <Gold.PLP.part.repulsive>
0.0643

> <Gold.PLP.ligand.clash>
0.0000

> <Gold.PLP.ligand.torsion>
0.9601

> <Gold.PLP.Chemscore.Hbond>
1.0000

> <Gold.PLP.Chemscore.CHOScore>
0.0000

> <Gold.PLP.Chemscore.Metal>
0.0000

> <Gold.Chemscore.Hbonds>
donor molecule, donor type, donor heavy atom, donor atom, acceptor molecule, acceptor atom, score
      P1  H  6896  6909       L1    15  0.85

> <Gold.PLP.Chemscore.Internal.Correction>
0.0275

> <Gold.Rescore>
     Score         DG    S(hbond)    S(metal)    S(lipo)     H(rot)  DE(clash)    DE(int)     intcor
     13.42     -14.86       0.53        0.00     112.87       2.19       0.53       0.91       ----

> <Gold.Chemscore.Fitness>
13.4159

> <Gold.Chemscore.DG>
-14.8578

> <Gold.Chemscore.ZeroCoef>
-5.4800

> <Gold.Chemscore.Hbond>
0.5314

> <Gold.Chemscore.Metal>
0.0000

> <Gold.Chemscore.Lipo>
112.8699

> <Gold.Chemscore.Internal_Hbond>
0.0000

> <Gold.Chemscore.DEClash>
0.5348

> <Gold.Chemscore.DEInternal>
0.9071

> <Gold.Chemscore.Rot>
2.1886

> <Gold.Chemscore.Internal.Correction>
   9.000000E+99

> <Gold.Chemscore.Hbonds>
donor molecule, donor type, donor heavy atom, donor atom, acceptor molecule, acceptor atom, score
      P1  H  6896  6909       L1    15  0.08

> <Gold.Chemscore.Hbond.Weighted>
-1.7749

> <Gold.Chemscore.Metal.Weighted>
-0.0000

> <Gold.Chemscore.Lipo.Weighted>
-13.2058

> <Gold.Chemscore.Internal_Hbond.Weighted>
0.0000

> <Gold.Chemscore.DEClash.Weighted>
0.5348

> <Gold.Chemscore.DEInternal.Weighted>
0.9071

> <Gold.Chemscore.Rot.Weighted>
5.6028

> <Gold.Chemscore.Internal.Correction.Weighted>
   9.000000E+99

> <Gold.Protein.RotatedTorsions>
[ 6907 6896 6895 6894 ] final   66.13 input  -60.11 | X-H torsion
[ 7974 7965 7964 7962 ] final   34.07 input  175.53 | X-H torsion
[ 8008 7997 7996 7995 ] final -112.87 input   59.86 | X-H torsion
[ 10167 10162 10161 10158 ] final   52.32 input  -65.29 | X-H torsion
[ 10718 10713 10712 10709 ] final -138.84 input   66.30 | X-H torsion
[ 10763 10752 10751 10750 ] final   97.19 input  -60.55 | X-H torsion
[ 11005 11000 10999 10996 ] final   69.82 input  -57.11 | X-H torsion

> <Gold.Protein.ActiveResidues>
 VAL166  LYS551  ARG553  GLY616  TRP617  ASP618  TYR619  PRO620  LYS621  CYS622 
 ASP623  PHE694  ASN695  SER759  ASP760  ASP761  ALA762  ILE779  LEU786  VAL792 
 PHE793  MET794  SER795  GLU796  ALA797  LYS798  CYS799  TRP800  GLU811  SER814 

> <Gold.Protein.RotatedAtoms>
  152.4459  134.5496  159.9862 H   0  0  0  0  0  0  0  0  0  0  0  0  # atno 6907 bound_to 6896
  151.5581  133.3401  159.2974 H   0  0  0  0  0  0  0  0  0  0  0  0  # atno 6908 bound_to 6896
  150.8375  134.7686  159.6968 H   0  0  0  0  0  0  0  0  0  0  0  0  # atno 6909 bound_to 6896
  146.1378  139.6316  142.9183 H   0  0  0  0  0  0  0  0  0  0  0  0  # atno 7974 bound_to 7965
  155.0119  140.0393  157.2403 H   0  0  0  0  0  0  0  0  0  0  0  0  # atno 8008 bound_to 7997
  154.7453  140.2756  155.6315 H   0  0  0  0  0  0  0  0  0  0  0  0  # atno 8009 bound_to 7997
  156.2873  140.2657  156.2191 H   0  0  0  0  0  0  0  0  0  0  0  0  # atno 8010 bound_to 7997
  140.2526  144.3462  150.6343 H   0  0  0  0  0  0  0  0  0  0  0  0  # atno 10167 bound_to 10162
  156.3040  130.7444  151.1503 H   0  0  0  0  0  0  0  0  0  0  0  0  # atno 10718 bound_to 10713
  153.2739  135.4192  155.1014 H   0  0  0  0  0  0  0  0  0  0  0  0  # atno 10763 bound_to 10752
  154.8466  135.3479  154.6206 H   0  0  0  0  0  0  0  0  0  0  0  0  # atno 10764 bound_to 10752
  153.6626  135.7047  153.5230 H   0  0  0  0  0  0  0  0  0  0  0  0  # atno 10765 bound_to 10752
  139.9632  134.7025  156.0601 H   0  0  0  0  0  0  0  0  0  0  0  0  # atno 11005 bound_to 11000
  145.5116  141.0435  143.2485 LP  0  0  0  0  0  0  0  0  0  0  0  0  # atno 17320 bound_to 7965
  144.7759  139.6631  143.7175 LP  0  0  0  0  0  0  0  0  0  0  0  0  # atno 17321 bound_to 7965
  140.6029  143.2167  151.7038 LP  0  0  0  0  0  0  0  0  0  0  0  0  # atno 17342 bound_to 10162
  139.5041  144.3765  152.0419 LP  0  0  0  0  0  0  0  0  0  0  0  0  # atno 17343 bound_to 10162
  157.7375  131.0551  150.5352 LP  0  0  0  0  0  0  0  0  0  0  0  0  # atno 17370 bound_to 10713
  156.5483  130.4225  149.6120 LP  0  0  0  0  0  0  0  0  0  0  0  0  # atno 17371 bound_to 10713
  141.1310  133.6586  156.3465 LP  0  0  0  0  0  0  0  0  0  0  0  0  # atno 17394 bound_to 11000
  140.5454  134.6079  157.5392 LP  0  0  0  0  0  0  0  0  0  0  0  0  # atno 17395 bound_to 11000

$$$$
