AV-unprocessed.smi:784|AV-procd|sdf|3719|dock5
  -GOLD-   22720 1143D 1   1.00000     0.00000
 Structure written by MMmdl.
 37 38  0  0  0  0  0  0  0  0  2 V2000
  147.9204  141.4130  153.7074 C   0  0  0  0  0  0  0  0  0  0  0  0
  149.1525  140.9085  154.3985 C   0  0  0  0  0  0  0  0  0  0  0  0
  149.6393  139.5753  154.4735 C   0  0  0  0  0  0  0  0  0  0  0  0
  150.7755  139.6875  155.2241 C   0  0  0  0  0  0  0  0  0  0  0  0
  151.7851  138.6940  155.6981 C   0  0  0  0  0  0  0  0  0  0  0  0
  151.9876  138.8027  157.5295 S   0  0  0  0  0  0  0  0  0  0  0  0
  150.6239  138.8685  158.0794 O   0  0  0  0  0  0  0  0  0  0  0  0
  152.8174  137.6531  157.9276 O   0  0  0  0  0  0  0  0  0  0  0  0
  152.7658  140.2208  157.6648 N   0  5  0  0  0  0  0  0  0  0  0  0
  152.3319  141.1899  158.6616 C   0  0  0  0  0  0  0  0  0  0  0  0
  151.7060  142.3986  157.9244 C   0  0  0  0  0  0  0  0  0  0  0  0
  151.0346  143.4771  158.8039 C   0  0  0  0  0  0  0  0  0  0  0  0
  151.9509  144.1955  159.8167 C   0  0  0  0  0  0  0  0  0  0  0  0
  152.2207  143.3472  161.0704 C   0  0  0  0  0  0  0  0  0  0  0  0
  153.2640  142.2149  160.9180 C   0  0  0  0  0  0  0  0  0  0  0  0
  153.5497  141.6318  159.5114 C   0  0  0  0  0  0  0  0  0  0  0  0
  150.9767  140.9841  155.5761 O   0  0  0  0  0  0  0  0  0  0  0  0
  149.9364  141.7552  155.0451 N   0  0  0  0  0  0  0  0  0  0  0  0
  147.5491  140.6851  152.9859 H   0  0  0  0  0  0  0  0  0  0  0  0
  148.1188  142.3402  153.1691 H   0  0  0  0  0  0  0  0  0  0  0  0
  147.1227  141.6062  154.4248 H   0  0  0  0  0  0  0  0  0  0  0  0
  149.2186  138.6742  154.0528 H   0  0  0  0  0  0  0  0  0  0  0  0
  151.5018  137.6766  155.4309 H   0  0  0  0  0  0  0  0  0  0  0  0
  152.7545  138.8997  155.2444 H   0  0  0  0  0  0  0  0  0  0  0  0
  151.5773  140.7610  159.3224 H   0  0  0  0  0  0  0  0  0  0  0  0
  152.4630  142.8759  157.3004 H   0  0  0  0  0  0  0  0  0  0  0  0
  150.9486  142.0301  157.2307 H   0  0  0  0  0  0  0  0  0  0  0  0
  150.6291  144.2336  158.1313 H   0  0  0  0  0  0  0  0  0  0  0  0
  150.1652  143.0619  159.3173 H   0  0  0  0  0  0  0  0  0  0  0  0
  152.8828  144.5159  159.3493 H   0  0  0  0  0  0  0  0  0  0  0  0
  151.4462  145.1087  160.1334 H   0  0  0  0  0  0  0  0  0  0  0  0
  152.5444  144.0022  161.8800 H   0  0  0  0  0  0  0  0  0  0  0  0
  151.2778  142.9193  161.4134 H   0  0  0  0  0  0  0  0  0  0  0  0
  154.2146  142.5855  161.3031 H   0  0  0  0  0  0  0  0  0  0  0  0
  152.9885  141.4042  161.5947 H   0  0  0  0  0  0  0  0  0  0  0  0
  154.2134  140.7795  159.6651 H   0  0  0  0  0  0  0  0  0  0  0  0
  154.1453  142.3455  158.9405 H   0  0  0  0  0  0  0  0  0  0  0  0
  1  2  1  0  0  0  0
  1 19  1  0  0  0  0
  1 20  1  0  0  0  0
  1 21  1  0  0  0  0
  2 18  2  0  0  0  0
  2  3  1  0  0  0  0
  3  4  2  0  0  0  0
  3 22  1  0  0  0  0
  4  5  1  0  0  0  0
  4 17  1  0  0  0  0
  5  6  1  0  0  0  0
  5 23  1  0  0  0  0
  5 24  1  0  0  0  0
  6  7  2  0  0  0  0
  6  8  2  0  0  0  0
  6  9  1  0  0  0  0
  9 10  1  0  0  0  0
 10 16  1  0  0  0  0
 10 11  1  0  0  0  0
 10 25  1  0  0  0  0
 11 12  1  0  0  0  0
 11 26  1  0  0  0  0
 11 27  1  0  0  0  0
 12 13  1  0  0  0  0
 12 28  1  0  0  0  0
 12 29  1  0  0  0  0
 13 14  1  0  0  0  0
 13 30  1  0  0  0  0
 13 31  1  0  0  0  0
 14 15  1  0  0  0  0
 14 32  1  0  0  0  0
 14 33  1  0  0  0  0
 15 16  1  0  0  0  0
 15 34  1  0  0  0  0
 15 35  1  0  0  0  0
 16 36  1  0  0  0  0
 16 37  1  0  0  0  0
 17 18  1  0  0  0  0
M  CHG  1   9  -1
M  END
> <s_m_source_file>
AV-unprocessed.smi

> <i_m_source_file_index>
784

> <i_lp_mmshare_version>
43012

> <i_f3d_flags>
0

> <s_epik_input>
W0NIM11jMVtjSF1jKG9uMSlbQ0gyXVMoPU8pKD1PKVtOSF1bQ0hdMltDSDJdW0NIMl1bQ0gyXVtDSDJdW0NIMl1bQ0gyXTI=

> <s_epik_cmdline>
J2VwaWtfcHl0aG9uJywgJy1waCcsICc3LjAnLCAnLXRuJywgJzgnLCAnLW1hJywgJzIwMCcsICctbWV0YWxfYmluZGluZycsICctaW1hZScsICc8aW5maWxlLm1hZT4nLCAnLW9tYWUnLCAnPG91dGZpbGUubWFlPic=

> <r_lp_tautomer_probability>
1

> <r_epik_Ionization_Penalty>
5.56674

> <r_epik_Ionization_Penalty_Charging>
5.56674

> <r_epik_Ionization_Penalty_Neutral>
9.19761e-10

> <r_epik_State_Penalty>
5.56669

> <r_epik_Charging_Adjusted_Penalty>
11.1334

> <i_epik_Tot_Q>
-1

> <i_epik_Tot_abs_Q>
1

> <r_epik_Metal_State_Penalty>
1.56499

> <b_epik_Metal_Only>
1

> <s_lp_Force_Field>
OPLS_2005

> <r_lp_Energy>
11.8728

> <b_lp_Chiralities_Consistent>
1

> <s_lp_Variant>
AV-unprocessed.smi:784-2

> <Gold.Version>
5.8.1

> <Gold.Id.Protein>
6NUR|6NUR_protein|mol2

> <Gold.PLP.Fitness>
42.7280

> <Gold.PLP.PLP>
-37.4965

> <Gold.PLP.part.hbond>
-3.0000

> <Gold.PLP.part.metal>
0.0000

> <Gold.PLP.part.buried>
-2.1277

> <Gold.PLP.part.nonpolar>
-31.6729

> <Gold.PLP.part.repulsive>
0.1934

> <Gold.PLP.ligand.clash>
0.0000

> <Gold.PLP.ligand.torsion>
0.8561

> <Gold.PLP.Chemscore.Hbond>
1.9840

> <Gold.PLP.Chemscore.CHOScore>
0.0000

> <Gold.PLP.Chemscore.Metal>
0.0000

> <Gold.Chemscore.Hbonds>
donor molecule, donor type, donor heavy atom, donor atom, acceptor molecule, acceptor atom, score
      P1  H  7997  8009       L1     9  1.95

> <Gold.PLP.Chemscore.Internal.Correction>
0.9918

> <Gold.Rescore>
     Score         DG    S(hbond)    S(metal)    S(lipo)     H(rot)  DE(clash)    DE(int)     intcor
     16.17     -17.47       0.89        0.00     106.54       1.34       0.20       1.10       ----

> <Gold.Chemscore.Fitness>
16.1709

> <Gold.Chemscore.DG>
-17.4696

> <Gold.Chemscore.ZeroCoef>
-5.4800

> <Gold.Chemscore.Hbond>
0.8852

> <Gold.Chemscore.Metal>
0.0000

> <Gold.Chemscore.Lipo>
106.5362

> <Gold.Chemscore.Internal_Hbond>
0.0000

> <Gold.Chemscore.DEClash>
0.1958

> <Gold.Chemscore.DEInternal>
1.1028

> <Gold.Chemscore.Rot>
1.3405

> <Gold.Chemscore.Internal.Correction>
   9.000000E+99

> <Gold.Chemscore.Hbonds>
donor molecule, donor type, donor heavy atom, donor atom, acceptor molecule, acceptor atom, score
      P1  H  7997  8009       L1     9  0.69

> <Gold.Chemscore.Hbond.Weighted>
-2.9566

> <Gold.Chemscore.Metal.Weighted>
-0.0000

> <Gold.Chemscore.Lipo.Weighted>
-12.4647

> <Gold.Chemscore.Internal_Hbond.Weighted>
0.0000

> <Gold.Chemscore.DEClash.Weighted>
0.1958

> <Gold.Chemscore.DEInternal.Weighted>
1.1028

> <Gold.Chemscore.Rot.Weighted>
3.4318

> <Gold.Chemscore.Internal.Correction.Weighted>
   9.000000E+99

> <Gold.Protein.RotatedTorsions>
[ 6907 6896 6895 6894 ] final  118.52 input  -60.11 | X-H torsion
[ 7974 7965 7964 7962 ] final  -24.96 input  175.53 | X-H torsion
[ 8008 7997 7996 7995 ] final  164.73 input   59.86 | X-H torsion
[ 10167 10162 10161 10158 ] final -130.53 input  -65.29 | X-H torsion
[ 10718 10713 10712 10709 ] final   72.39 input   66.30 | X-H torsion
[ 10763 10752 10751 10750 ] final   98.16 input  -60.55 | X-H torsion
[ 11005 11000 10999 10996 ] final -101.47 input  -57.11 | X-H torsion

> <Gold.Protein.ActiveResidues>
 VAL166  LYS551  ARG553  GLY616  TRP617  ASP618  TYR619  PRO620  LYS621  CYS622 
 ASP623  PHE694  ASN695  SER759  ASP760  ASP761  ALA762  ILE779  LEU786  VAL792 
 PHE793  MET794  SER795  GLU796  ALA797  LYS798  CYS799  TRP800  GLU811  SER814 

> <Gold.Protein.RotatedAtoms>
  152.4537  133.7680  159.6782 H   0  0  0  0  0  0  0  0  0  0  0  0  # atno 6907 bound_to 6896
  150.8456  133.7856  159.3050 H   0  0  0  0  0  0  0  0  0  0  0  0  # atno 6908 bound_to 6896
  151.5467  135.1070  159.9991 H   0  0  0  0  0  0  0  0  0  0  0  0  # atno 6909 bound_to 6896
  146.1522  140.4822  142.8606 H   0  0  0  0  0  0  0  0  0  0  0  0  # atno 7974 bound_to 7965
  156.1857  140.1689  156.8190 H   0  0  0  0  0  0  0  0  0  0  0  0  # atno 8008 bound_to 7997
  154.5411  140.0736  156.8543 H   0  0  0  0  0  0  0  0  0  0  0  0  # atno 8009 bound_to 7997
  155.3213  140.3373  155.4243 H   0  0  0  0  0  0  0  0  0  0  0  0  # atno 8010 bound_to 7997
  139.9283  143.6301  152.2536 H   0  0  0  0  0  0  0  0  0  0  0  0  # atno 10167 bound_to 10162
  157.6498  130.9576  150.0921 H   0  0  0  0  0  0  0  0  0  0  0  0  # atno 10718 bound_to 10713
  153.2856  135.4158  155.1120 H   0  0  0  0  0  0  0  0  0  0  0  0  # atno 10763 bound_to 10752
  154.8504  135.3506  154.6051 H   0  0  0  0  0  0  0  0  0  0  0  0  # atno 10764 bound_to 10752
  153.6473  135.7054  153.5279 H   0  0  0  0  0  0  0  0  0  0  0  0  # atno 10765 bound_to 10752
  141.1229  133.8480  157.1235 H   0  0  0  0  0  0  0  0  0  0  0  0  # atno 11005 bound_to 11000
  144.7918  140.6046  143.6537 LP  0  0  0  0  0  0  0  0  0  0  0  0  # atno 17320 bound_to 7965
  145.4796  139.1496  143.3769 LP  0  0  0  0  0  0  0  0  0  0  0  0  # atno 17321 bound_to 7965
  139.6803  144.7656  151.1620 LP  0  0  0  0  0  0  0  0  0  0  0  0  # atno 17342 bound_to 10162
  140.7644  143.5734  150.8971 LP  0  0  0  0  0  0  0  0  0  0  0  0  # atno 17343 bound_to 10162
  156.1867  130.3652  149.8963 LP  0  0  0  0  0  0  0  0  0  0  0  0  # atno 17370 bound_to 10713
  156.6901  130.8892  151.3587 LP  0  0  0  0  0  0  0  0  0  0  0  0  # atno 17371 bound_to 10713
  140.0202  134.9949  157.0577 LP  0  0  0  0  0  0  0  0  0  0  0  0  # atno 17394 bound_to 11000
  140.4452  134.1640  155.7177 LP  0  0  0  0  0  0  0  0  0  0  0  0  # atno 17395 bound_to 11000

$$$$
