#       Name:                AV-unprocessed.smi:2084
#       Creating user name   scv26
#       Creation time:       Fri Mar 27 11:23:06 2020


#       File generated by GOLD software.
#

@<TRIPOS>MOLECULE
AV-unprocessed.smi:2084
    42    43     1
SMALL
NO_CHARGES


@<TRIPOS>ATOM
      1 ****        -3.2379  -1.5793   1.5137 C.3            1 S1                 0.0000
      2 ****        -2.7343  -0.8334   0.3267 N.4            1 S1                 1.0000
      3 ****        -3.4523  -1.2757  -0.8971 C.3            1 S1                 0.0000
      4 ****        -1.2348  -0.7367   0.1886 C.3            1 S1                 0.0000
      5 ****        -0.8763   0.1831  -1.0226 C.3            1 S1                 0.0000
      6 ****         0.5626   0.3242  -1.2503 N.am           1 S1                 0.0000
      7 ****         1.2903   1.4423  -1.1212 C.2            1 S1                 0.0000
      8 ****         0.7464   2.5007  -0.7982 O.2            1 S1                 0.0000
      9 ****         2.6075   1.2573  -1.3602 N.pl3          1 S1                -1.0000
     10 ****         3.4650   2.2817  -1.2230 C.2            1 S1                 0.0000
     11 ****         3.9382   2.9824  -2.2598 N.2            1 S1                 0.0000
     12 ****         4.8201   3.9983  -1.8865 C.2            1 S1                 0.0000
     13 ****         5.0304   4.0664  -0.5347 C.2            1 S1                 0.0000
     14 ****         4.1202   2.8503   0.3149 S.3            1 S1                 0.0000
     15 ****        -0.6007  -0.1592   1.4921 C.3            1 S1                 0.0000
     16 ****         0.1709  -1.3039   2.1523 C.3            1 S1                 0.0000
     17 ****         0.6140  -2.1759   0.9838 C.3            1 S1                 0.0000
     18 ****        -0.5715  -2.1351   0.0178 C.3            1 S1                 0.0000
     19 ****        -3.0636  -2.6513   1.4312 H              1 S1                 0.0000
     20 ****        -4.3151  -1.4386   1.6070 H              1 S1                 0.0000
     21 ****        -2.8091  -1.2403   2.4541 H              1 S1                 0.0000
     22 ****        -3.0736  -2.2319  -1.2591 H              1 S1                 0.0000
     23 ****        -3.3793  -0.5431  -1.6995 H              1 S1                 0.0000
     24 ****        -4.5181  -1.3956  -0.6994 H              1 S1                 0.0000
     25 ****        -1.2543  -0.2355  -1.9539 H              1 S1                 0.0000
     26 ****        -1.3603   1.1545  -0.9097 H              1 S1                 0.0000
     27 ****         1.0604  -0.5118  -1.5196 H              1 S1                 0.0000
     28 ****         5.2541   4.6255  -2.6508 H              1 S1                 0.0000
     29 ****         5.6610   4.7520   0.0105 H              1 S1                 0.0000
     30 ****         0.1119   0.6342   1.2760 H              1 S1                 0.0000
     31 ****        -1.3173   0.3061   2.1684 H              1 S1                 0.0000
     32 ****         1.0105  -0.9506   2.7517 H              1 S1                 0.0000
     33 ****        -0.4887  -1.8736   2.8075 H              1 S1                 0.0000
     34 ****         1.4951  -1.7384   0.5122 H              1 S1                 0.0000
     35 ****         0.8713  -3.1900   1.2904 H              1 S1                 0.0000
     36 ****        -1.2496  -2.9463   0.2757 H              1 S1                 0.0000
     37 ****        -0.2558  -2.3306  -1.0076 H              1 S1                 0.0000
     38 ****        -3.0362   0.1187   0.4773 H              1 S1                 0.0000
     39 ****        -0.2394   2.5259  -0.6320 LP             1 S1                 0.0000
     40 ****         1.2910   3.3338  -0.7024 LP             1 S1                 0.0000
     41 ****         2.9436   0.3577  -1.6391 LP             1 S1                 0.0000
     42 ****         3.6850   2.7966  -3.2092 LP             1 S1                 0.0000
@<TRIPOS>BOND
    1    1    2 1     
    2    1   19 1     
    3    1   20 1     
    4    1   21 1     
    5    2    3 1     
    6    2    4 1     
    7    2   38 1     
    8    3   22 1     
    9    3   23 1     
   10    3   24 1     
   11    4   18 1     
   12    4    5 1     
   13    4   15 1     
   14    5    6 1     
   15    5   25 1     
   16    5   26 1     
   17    6    7 am    
   18    6   27 1     
   19    7    8 2     
   20    7    9 1     
   21    9   10 1     
   22   10   14 1     
   23   10   11 2     
   24   11   12 1     
   25   12   13 2     
   26   12   28 1     
   27   13   14 1     
   28   13   29 1     
   29   15   16 1     
   30   15   30 1     
   31   15   31 1     
   32   16   17 1     
   33   16   32 1     
   34   16   33 1     
   35   17   18 1     
   36   17   34 1     
   37   17   35 1     
   38   18   36 1     
   39   18   37 1     
   40    8   39 1     
   41    8   40 1     
   42    9   41 1     
   43   11   42 1     
@<TRIPOS>SUBSTRUCTURE
      1 S1             1
@<TRIPOS>SET
LONE_PAIRS      STATIC     ATOMS    <user>   **** ""
4 39 40 41 42
DONOR_HYDROGENS      STATIC     ATOMS    <user>   **** ""
2 38 27
ATOM$BLUE        STATIC     ATOMS    COLORGROUP SYSTEM
4 39 40 41 42
ATOM$RED        STATIC     ATOMS    COLORGROUP SYSTEM
2 38 27
