AV-unprocessed.smi:575|AV-procd|sdf|2977|dock3
  -GOLD-   2262023483D 1   1.00000     0.00000
 Structure written by MMmdl.
 33 34  0  0  0  0  0  0  0  0  1 V2000
  155.7047  135.3541  156.9871 C   0  0  0  0  0  0  0  0  0  0  0  0
  154.7580  136.0848  157.8761 C   0  0  0  0  0  0  0  0  0  0  0  0
  154.4354  137.4065  158.0058 C   0  0  0  0  0  0  0  0  0  0  0  0
  153.4645  137.3986  159.0424 C   0  0  0  0  0  0  0  0  0  0  0  0
  152.8658  138.6046  159.4891 N   0  0  0  0  0  0  0  0  0  0  0  0
  153.4098  139.8336  159.4988 C   0  0  0  0  0  0  0  0  0  0  0  0
  154.5514  140.1065  159.1264 O   0  0  0  0  0  0  0  0  0  0  0  0
  152.5479  140.7448  159.9741 N   0  0  0  0  0  0  0  0  0  0  0  0
  152.8240  142.1719  160.1130 C   0  0  0  0  0  0  0  0  0  0  0  0
  152.4583  142.6643  161.5287 C   0  0  0  0  0  0  0  0  0  0  0  0
  152.6803  144.1789  161.6701 C   0  0  0  0  0  0  0  0  0  0  0  0
  151.9044  144.9603  160.5979 C   0  0  0  0  0  0  0  0  0  0  0  0
  152.2659  144.4731  159.1859 C   0  0  0  0  0  0  0  0  0  0  0  0
  152.0426  142.9586  159.0436 C   0  0  0  0  0  0  0  0  0  0  0  0
  153.2176  136.1822  159.5043 N   0  0  0  0  0  0  0  0  0  0  0  0
  154.0455  135.3340  158.7594 O   0  0  0  0  0  0  0  0  0  0  0  0
  156.0564  135.9969  156.1801 H   0  0  0  0  0  0  0  0  0  0  0  0
  155.2242  134.4836  156.5403 H   0  0  0  0  0  0  0  0  0  0  0  0
  156.5730  135.0107  157.5494 H   0  0  0  0  0  0  0  0  0  0  0  0
  154.8323  138.2414  157.4474 H   0  0  0  0  0  0  0  0  0  0  0  0
  151.9208  138.5231  159.8336 H   0  0  0  0  0  0  0  0  0  0  0  0
  151.6310  140.4309  160.2563 H   0  0  0  0  0  0  0  0  0  0  0  0
  153.8892  142.3439  159.9455 H   0  0  0  0  0  0  0  0  0  0  0  0
  151.4148  142.4303  161.7442 H   0  0  0  0  0  0  0  0  0  0  0  0
  153.0530  142.1388  162.2769 H   0  0  0  0  0  0  0  0  0  0  0  0
  152.3752  144.5080  162.6638 H   0  0  0  0  0  0  0  0  0  0  0  0
  153.7450  144.3996  161.5844 H   0  0  0  0  0  0  0  0  0  0  0  0
  150.8327  144.8415  160.7627 H   0  0  0  0  0  0  0  0  0  0  0  0
  152.1149  146.0264  160.6889 H   0  0  0  0  0  0  0  0  0  0  0  0
  151.6714  145.0076  158.4444 H   0  0  0  0  0  0  0  0  0  0  0  0
  153.3094  144.7095  158.9735 H   0  0  0  0  0  0  0  0  0  0  0  0
  152.3457  142.6362  158.0466 H   0  0  0  0  0  0  0  0  0  0  0  0
  150.9767  142.7418  159.1283 H   0  0  0  0  0  0  0  0  0  0  0  0
  1  2  1  0  0  0  0
  1 17  1  0  0  0  0
  1 18  1  0  0  0  0
  1 19  1  0  0  0  0
  2 16  1  0  0  0  0
  2  3  2  0  0  0  0
  3  4  1  0  0  0  0
  3 20  1  0  0  0  0
  4  5  1  0  0  0  0
  4 15  2  0  0  0  0
  5  6  1  0  0  0  0
  5 21  1  0  0  0  0
  6  7  2  0  0  0  0
  6  8  1  0  0  0  0
  8  9  1  0  0  0  0
  8 22  1  0  0  0  0
  9 14  1  0  0  0  0
  9 10  1  0  0  0  0
  9 23  1  0  0  0  0
 10 11  1  0  0  0  0
 10 24  1  0  0  0  0
 10 25  1  0  0  0  0
 11 12  1  0  0  0  0
 11 26  1  0  0  0  0
 11 27  1  0  0  0  0
 12 13  1  0  0  0  0
 12 28  1  0  0  0  0
 12 29  1  0  0  0  0
 13 14  1  0  0  0  0
 13 30  1  0  0  0  0
 13 31  1  0  0  0  0
 14 32  1  0  0  0  0
 14 33  1  0  0  0  0
 15 16  1  0  0  0  0
M  END
> <s_m_source_file>
AV-unprocessed.smi

> <i_m_source_file_index>
575

> <i_lp_mmshare_version>
43012

> <i_f3d_flags>
0

> <s_epik_input>
W0NIM11jMVtjSF1jKG5vMSlbTkhdQyg9TylbTkhdW0NIXTJbQ0gyXVtDSDJdW0NIMl1bQ0gyXVtDSDJdMg==

> <s_epik_cmdline>
J2VwaWtfcHl0aG9uJywgJy1waCcsICc3LjAnLCAnLXRuJywgJzgnLCAnLW1hJywgJzIwMCcsICctbWV0YWxfYmluZGluZycsICctaW1hZScsICc8aW5maWxlLm1hZT4nLCAnLW9tYWUnLCAnPG91dGZpbGUubWFlPic=

> <r_lp_tautomer_probability>
1

> <r_epik_Ionization_Penalty>
2.357e-05

> <r_epik_Ionization_Penalty_Charging>
0

> <r_epik_Ionization_Penalty_Neutral>
2.357e-05

> <r_epik_State_Penalty>
-0

> <r_epik_Charging_Adjusted_Penalty>
0

> <i_epik_Tot_Q>
0

> <i_epik_Tot_abs_Q>
0

> <r_epik_Metal_State_Penalty>
-0

> <b_epik_Metal_Only>
0

> <s_lp_Force_Field>
OPLS_2005

> <r_lp_Energy>
6.74104

> <b_lp_Chiralities_Consistent>
1

> <s_lp_Variant>
AV-unprocessed.smi:575-1

> <Gold.Version>
5.8.1

> <Gold.Id.Protein>
6NUR|6NUR_protein|mol2

> <Gold.PLP.Fitness>
35.0817

> <Gold.PLP.PLP>
-29.7108

> <Gold.PLP.part.hbond>
-2.8195

> <Gold.PLP.part.metal>
0.0000

> <Gold.PLP.part.buried>
-4.1308

> <Gold.PLP.part.nonpolar>
-22.3137

> <Gold.PLP.part.repulsive>
0.2220

> <Gold.PLP.ligand.clash>
0.0000

> <Gold.PLP.ligand.torsion>
0.3043

> <Gold.PLP.Chemscore.Hbond>
1.9920

> <Gold.PLP.Chemscore.CHOScore>
0.0000

> <Gold.PLP.Chemscore.Metal>
0.0000

> <Gold.Chemscore.Hbonds>
donor molecule, donor type, donor heavy atom, donor atom, acceptor molecule, acceptor atom, score
      P1  H  6896  6908       L1    15  0.85
      P1  H  7997  8010       L1     7  0.98

> <Gold.PLP.Chemscore.Internal.Correction>
0.0036

> <Gold.Rescore>
     Score         DG    S(hbond)    S(metal)    S(lipo)     H(rot)  DE(clash)    DE(int)     intcor
     16.07     -17.48       1.76        0.00      74.30       1.00       0.00       1.41       ----

> <Gold.Chemscore.Fitness>
16.0656

> <Gold.Chemscore.DG>
-17.4795

> <Gold.Chemscore.ZeroCoef>
-5.4800

> <Gold.Chemscore.Hbond>
1.7565

> <Gold.Chemscore.Metal>
0.0000

> <Gold.Chemscore.Lipo>
74.2974

> <Gold.Chemscore.Internal_Hbond>
0.0000

> <Gold.Chemscore.DEClash>
0.0000

> <Gold.Chemscore.DEInternal>
1.4139

> <Gold.Chemscore.Rot>
1.0000

> <Gold.Chemscore.Internal.Correction>
   9.000000E+99

> <Gold.Chemscore.Hbonds>
donor molecule, donor type, donor heavy atom, donor atom, acceptor molecule, acceptor atom, score
      P1  H  6896  6908       L1    15  0.14
      P1  H  7997  8010       L1     7  0.93

> <Gold.Chemscore.Hbond.Weighted>
-5.8667

> <Gold.Chemscore.Metal.Weighted>
-0.0000

> <Gold.Chemscore.Lipo.Weighted>
-8.6928

> <Gold.Chemscore.Internal_Hbond.Weighted>
0.0000

> <Gold.Chemscore.DEClash.Weighted>
0.0000

> <Gold.Chemscore.DEInternal.Weighted>
1.4139

> <Gold.Chemscore.Rot.Weighted>
2.5600

> <Gold.Chemscore.Internal.Correction.Weighted>
   9.000000E+99

> <Gold.Protein.RotatedTorsions>
[ 6907 6896 6895 6894 ] final  -87.16 input  -60.11 | X-H torsion
[ 7974 7965 7964 7962 ] final -123.26 input  175.53 | X-H torsion
[ 8008 7997 7996 7995 ] final   -0.32 input   59.86 | X-H torsion
[ 10167 10162 10161 10158 ] final  -83.92 input  -65.29 | X-H torsion
[ 10718 10713 10712 10709 ] final -164.74 input   66.30 | X-H torsion
[ 10763 10752 10751 10750 ] final -129.21 input  -60.55 | X-H torsion
[ 11005 11000 10999 10996 ] final   76.44 input  -57.11 | X-H torsion

> <Gold.Protein.ActiveResidues>
 VAL166  LYS551  ARG553  GLY616  TRP617  ASP618  TYR619  PRO620  LYS621  CYS622 
 ASP623  PHE694  ASN695  SER759  ASP760  ASP761  ALA762  ILE779  LEU786  VAL792 
 PHE793  MET794  SER795  GLU796  ALA797  LYS798  CYS799  TRP800  GLU811  SER814 

> <Gold.Protein.RotatedAtoms>
  150.6866  134.2939  159.4677 H   0  0  0  0  0  0  0  0  0  0  0  0  # atno 6907 bound_to 6896
  152.0842  134.9448  160.0582 H   0  0  0  0  0  0  0  0  0  0  0  0  # atno 6908 bound_to 6896
  152.0789  133.4108  159.4529 H   0  0  0  0  0  0  0  0  0  0  0  0  # atno 6909 bound_to 6896
  145.0206  140.7985  143.4383 H   0  0  0  0  0  0  0  0  0  0  0  0  # atno 7974 bound_to 7965
  154.6594  140.2587  155.7126 H   0  0  0  0  0  0  0  0  0  0  0  0  # atno 8008 bound_to 7997
  156.2611  140.2852  156.0981 H   0  0  0  0  0  0  0  0  0  0  0  0  # atno 8009 bound_to 7997
  155.1331  140.0379  157.2770 H   0  0  0  0  0  0  0  0  0  0  0  0  # atno 8010 bound_to 7997
  140.4181  143.2595  151.8927 H   0  0  0  0  0  0  0  0  0  0  0  0  # atno 10167 bound_to 10162
  156.6434  130.8978  151.3000 H   0  0  0  0  0  0  0  0  0  0  0  0  # atno 10718 bound_to 10713
  154.8757  135.3903  154.3883 H   0  0  0  0  0  0  0  0  0  0  0  0  # atno 10763 bound_to 10752
  153.4621  135.7029  153.6049 H   0  0  0  0  0  0  0  0  0  0  0  0  # atno 10764 bound_to 10752
  153.4543  135.3826  155.2270 H   0  0  0  0  0  0  0  0  0  0  0  0  # atno 10765 bound_to 10752
  139.9298  134.7601  156.1396 H   0  0  0  0  0  0  0  0  0  0  0  0  # atno 11005 bound_to 11000
  145.1900  139.2306  143.5247 LP  0  0  0  0  0  0  0  0  0  0  0  0  # atno 17320 bound_to 7965
  146.3485  140.1694  142.8590 LP  0  0  0  0  0  0  0  0  0  0  0  0  # atno 17321 bound_to 7965
  139.4782  144.5466  151.8448 LP  0  0  0  0  0  0  0  0  0  0  0  0  # atno 17342 bound_to 10162
  140.4564  144.1783  150.5902 LP  0  0  0  0  0  0  0  0  0  0  0  0  # atno 17343 bound_to 10162
  157.7164  130.9502  150.1270 LP  0  0  0  0  0  0  0  0  0  0  0  0  # atno 17370 bound_to 10713
  156.2141  130.3669  149.8635 LP  0  0  0  0  0  0  0  0  0  0  0  0  # atno 17371 bound_to 10713
  141.0879  133.6726  156.2477 LP  0  0  0  0  0  0  0  0  0  0  0  0  # atno 17394 bound_to 11000
  140.6234  134.5338  157.5550 LP  0  0  0  0  0  0  0  0  0  0  0  0  # atno 17395 bound_to 11000

$$$$
