#       Name:                AV-unprocessed.smi:1830
#       Creating user name   scv26
#       Creation time:       Fri Mar 27 09:12:36 2020


#       File generated by GOLD software.
#

@<TRIPOS>MOLECULE
AV-unprocessed.smi:1830
    59    62     1
SMALL
NO_CHARGES


@<TRIPOS>ATOM
      1 ****         0.2478   3.0035   0.3585 O.2            1 S1                 0.0000
      2 ****        -0.2455   1.8794   0.2786 C.2            1 S1                 0.0000
      3 ****         0.4819   0.7588   0.1681 N.am           1 S1                 0.0000
      4 ****         1.9399   0.6880   0.1519 C.3            1 S1                 0.0000
      5 ****         2.4565  -0.1963   1.3051 C.3            1 S1                 0.0000
      6 ****         4.0025  -0.2452   1.3870 C.3            1 S1                 0.0000
      7 ****         4.5174  -1.1137   0.3117 N.4            1 S1                 1.0000
      8 ****         5.9754  -1.2992   0.2048 C.3            1 S1                 0.0000
      9 ****         6.1515  -2.6456  -0.5256 C.3            1 S1                 0.0000
     10 ****         4.7377  -3.2417  -0.6487 C.3            1 S1                 0.0000
     11 ****         3.9400  -2.4571   0.3882 C.3            1 S1                 0.0000
     12 ****         2.4213  -2.3611   0.2046 C.3            1 S1                 0.0000
     13 ****         1.9049  -1.5217   1.2418 O.3            1 S1                 0.0000
     14 ****        -1.5605   1.6008   0.2774 N.am           1 S1                 0.0000
     15 ****        -2.6737   2.4916   0.3183 C.ar           1 S1                 0.0000
     16 ****        -2.5848   3.8343   0.7631 C.ar           1 S1                 0.0000
     17 ****        -3.7430   4.6328   0.7742 C.ar           1 S1                 0.0000
     18 ****        -4.9542   4.0612   0.3470 C.ar           1 S1                 0.0000
     19 ****        -5.0607   2.7818  -0.0642 N.ar           1 S1                 0.0000
     20 ****        -3.9485   2.0069  -0.0754 C.ar           1 S1                 0.0000
     21 ****        -4.0906   0.6723  -0.4967 N.3            1 S1                 0.0000
     22 ****        -4.5473   0.4908  -1.8641 C.3            1 S1                 0.0000
     23 ****        -4.9526  -0.9812  -1.9580 C.3            1 S1                 0.0000
     24 ****        -5.2882  -1.3861  -0.5174 C.3            1 S1                 0.0000
     25 ****        -4.9571  -0.1529   0.3297 C.3            1 S1                 0.0000
     26 ****        -0.0136  -0.1188   0.1047 H              1 S1                 0.0000
     27 ****         2.2562   0.3023  -0.8167 H              1 S1                 0.0000
     28 ****         2.3836   1.6813   0.2352 H              1 S1                 0.0000
     29 ****         2.0943   0.2446   2.2348 H              1 S1                 0.0000
     30 ****         4.4313   0.7539   1.3016 H              1 S1                 0.0000
     31 ****         4.3124  -0.6445   2.3540 H              1 S1                 0.0000
     32 ****         6.4376  -0.4690  -0.3302 H              1 S1                 0.0000
     33 ****         6.4200  -1.3523   1.1999 H              1 S1                 0.0000
     34 ****         6.6069  -2.5161  -1.5080 H              1 S1                 0.0000
     35 ****         6.8011  -3.3039   0.0526 H              1 S1                 0.0000
     36 ****         4.3430  -3.0549  -1.6486 H              1 S1                 0.0000
     37 ****         4.7142  -4.3177  -0.4729 H              1 S1                 0.0000
     38 ****         4.1546  -2.8741   1.3749 H              1 S1                 0.0000
     39 ****         2.1602  -1.9717  -0.7797 H              1 S1                 0.0000
     40 ****         1.9652  -3.3477   0.2868 H              1 S1                 0.0000
     41 ****        -1.8030   0.6287   0.1525 H              1 S1                 0.0000
     42 ****        -1.6603   4.2688   1.1081 H              1 S1                 0.0000
     43 ****        -3.7032   5.6596   1.1061 H              1 S1                 0.0000
     44 ****        -5.8632   4.6443   0.3415 H              1 S1                 0.0000
     45 ****        -5.4069   1.1301  -2.0703 H              1 S1                 0.0000
     46 ****        -3.7622   0.7386  -2.5791 H              1 S1                 0.0000
     47 ****        -5.7892  -1.1304  -2.6413 H              1 S1                 0.0000
     48 ****        -4.1151  -1.5776  -2.3219 H              1 S1                 0.0000
     49 ****        -6.3344  -1.6724  -0.4049 H              1 S1                 0.0000
     50 ****        -4.6767  -2.2370  -0.2145 H              1 S1                 0.0000
     51 ****        -4.4613  -0.4283   1.2611 H              1 S1                 0.0000
     52 ****        -5.8730   0.3829   0.5831 H              1 S1                 0.0000
     53 ****         4.2139  -0.7201  -0.5675 H              1 S1                 0.0000
     54 ****         1.2413   3.1158   0.3426 LP             1 S1                 0.0000
     55 ****        -0.3448   3.8050   0.4393 LP             1 S1                 0.0000
     56 ****         0.9178  -1.4372   1.1055 LP             1 S1                 0.0000
     57 ****         2.0832  -1.9706   2.1174 LP             1 S1                 0.0000
     58 ****        -5.9429   2.4116  -0.3553 LP             1 S1                 0.0000
     59 ****        -3.1409   0.3714  -0.4107 LP             1 S1                 0.0000
@<TRIPOS>BOND
    1    1    2 2     
    2    2    3 am    
    3    2   14 am    
    4    3    4 1     
    5    3   26 1     
    6    4    5 1     
    7    4   27 1     
    8    4   28 1     
    9    5   13 1     
   10    5    6 1     
   11    5   29 1     
   12    6    7 1     
   13    6   30 1     
   14    6   31 1     
   15    7   11 1     
   16    7    8 1     
   17    7   53 1     
   18    8    9 1     
   19    8   32 1     
   20    8   33 1     
   21    9   10 1     
   22    9   34 1     
   23    9   35 1     
   24   10   11 1     
   25   10   36 1     
   26   10   37 1     
   27   11   12 1     
   28   11   38 1     
   29   12   13 1     
   30   12   39 1     
   31   12   40 1     
   32   14   15 1     
   33   14   41 1     
   34   15   20 ar    
   35   15   16 ar    
   36   16   17 ar    
   37   16   42 1     
   38   17   18 ar    
   39   17   43 1     
   40   18   19 ar    
   41   18   44 1     
   42   19   20 ar    
   43   20   21 1     
   44   21   25 1     
   45   21   22 1     
   46   22   23 1     
   47   22   45 1     
   48   22   46 1     
   49   23   24 1     
   50   23   47 1     
   51   23   48 1     
   52   24   25 1     
   53   24   49 1     
   54   24   50 1     
   55   25   51 1     
   56   25   52 1     
   57    1   54 1     
   58    1   55 1     
   59   13   56 1     
   60   13   57 1     
   61   19   58 1     
   62   21   59 1     
@<TRIPOS>SUBSTRUCTURE
      1 S1             1
@<TRIPOS>SET
LONE_PAIRS      STATIC     ATOMS    <user>   **** ""
6 54 55 56 57 58 59
DONOR_HYDROGENS      STATIC     ATOMS    <user>   **** ""
3 26 53 41
ATOM$BLUE        STATIC     ATOMS    COLORGROUP SYSTEM
6 54 55 56 57 58 59
ATOM$RED        STATIC     ATOMS    COLORGROUP SYSTEM
3 26 53 41
