#       Name:                AV-unprocessed.smi:2217
#       Creating user name   scv26
#       Creation time:       Fri Mar 27 12:18:37 2020


#       File generated by GOLD software.
#

@<TRIPOS>MOLECULE
AV-unprocessed.smi:2217
    50    53     1
SMALL
NO_CHARGES


@<TRIPOS>ATOM
      1 ****         1.3018  -7.6826  -3.0293 C.3            1 S1                 0.0000
      2 ****         1.1047  -6.3498  -2.3378 C.ar           1 S1                 0.0000
      3 ****        -0.1814  -5.8932  -1.9945 C.ar           1 S1                 0.0000
      4 ****        -0.3099  -4.6479  -1.3499 C.ar           1 S1                 0.0000
      5 ****         0.8452  -3.8863  -1.0622 C.ar           1 S1                 0.0000
      6 ****         0.5861  -2.6480  -0.4032 N.am           1 S1                 0.0000
      7 ****         1.4130  -1.6625   0.0069 C.2            1 S1                 0.0000
      8 ****         2.6276  -1.7386  -0.1700 O.2            1 S1                 0.0000
      9 ****         0.8325  -0.6118   0.6060 N.am           1 S1                 0.0000
     10 ****         1.5275   0.5881   1.0531 C.3            1 S1                 0.0000
     11 ****         0.5893   1.5856   1.7321 C.3            1 S1                 0.0000
     12 ****         0.4391   2.0897   3.1229 C.3            1 S1                 0.0000
     13 ****         0.3519   3.6035   2.7955 C.3            1 S1                 0.0000
     14 ****         0.7088   3.7292   1.3979 O.3            1 S1                 0.0000
     15 ****         1.5435   2.6141   1.1586 C.3            1 S1                 0.0000
     16 ****         1.6759   1.6873  -0.0672 C.3            1 S1                 0.0000
     17 ****         3.0118   1.7212  -0.8226 C.3            1 S1                 0.0000
     18 ****         2.7237   1.8908  -2.3161 C.3            1 S1                 0.0000
     19 ****         1.2914   1.4072  -2.4911 C.3            1 S1                 0.0000
     20 ****         0.6150   1.8008  -1.1823 C.3            1 S1                 0.0000
     21 ****         2.0809  -4.3401  -1.3947 N.ar           1 S1                 0.0000
     22 ****         2.2045  -5.5333  -2.0128 C.ar           1 S1                 0.0000
     23 ****         0.4195  -7.9545  -3.6094 H              1 S1                 0.0000
     24 ****         1.4843  -8.4647  -2.2922 H              1 S1                 0.0000
     25 ****         2.1544  -7.6436  -3.7079 H              1 S1                 0.0000
     26 ****        -1.0572  -6.4844  -2.2192 H              1 S1                 0.0000
     27 ****        -1.2911  -4.2848  -1.0798 H              1 S1                 0.0000
     28 ****        -0.3837  -2.5006  -0.1652 H              1 S1                 0.0000
     29 ****        -0.1717  -0.6287   0.7184 H              1 S1                 0.0000
     30 ****         2.4414   0.3933   1.6223 H              1 S1                 0.0000
     31 ****        -0.3849   1.5941   1.2333 H              1 S1                 0.0000
     32 ****        -0.4589   1.7149   3.6148 H              1 S1                 0.0000
     33 ****         1.3084   1.8542   3.7383 H              1 S1                 0.0000
     34 ****        -0.6526   3.9974   2.9524 H              1 S1                 0.0000
     35 ****         1.0417   4.1753   3.4176 H              1 S1                 0.0000
     36 ****         2.4845   2.7082   1.7129 H              1 S1                 0.0000
     37 ****         3.6627   2.5203  -0.4667 H              1 S1                 0.0000
     38 ****         3.5556   0.7896  -0.6651 H              1 S1                 0.0000
     39 ****         2.7847   2.9472  -2.5809 H              1 S1                 0.0000
     40 ****         3.4304   1.3492  -2.9456 H              1 S1                 0.0000
     41 ****         0.8031   1.8352  -3.3666 H              1 S1                 0.0000
     42 ****         1.2800   0.3215  -2.5967 H              1 S1                 0.0000
     43 ****        -0.2696   1.1873  -1.0106 H              1 S1                 0.0000
     44 ****         0.2671   2.8320  -1.2560 H              1 S1                 0.0000
     45 ****         3.2111  -5.8432  -2.2531 H              1 S1                 0.0000
     46 ****         3.0175  -2.5397  -0.6240 LP             1 S1                 0.0000
     47 ****         3.2253  -0.9993   0.1402 LP             1 S1                 0.0000
     48 ****         1.2006   4.5839   1.2318 LP             1 S1                 0.0000
     49 ****        -0.1054   3.6951   0.8183 LP             1 S1                 0.0000
     50 ****         2.8922  -3.7950  -1.1835 LP             1 S1                 0.0000
@<TRIPOS>BOND
    1    1    2 1     
    2    1   23 1     
    3    1   24 1     
    4    1   25 1     
    5    2   22 ar    
    6    2    3 ar    
    7    3    4 ar    
    8    3   26 1     
    9    4    5 ar    
   10    4   27 1     
   11    5    6 1     
   12    5   21 ar    
   13    6    7 am    
   14    6   28 1     
   15    7    8 2     
   16    7    9 am    
   17    9   10 1     
   18    9   29 1     
   19   10   16 1     
   20   10   11 1     
   21   10   30 1     
   22   11   15 1     
   23   11   12 1     
   24   11   31 1     
   25   12   13 1     
   26   12   32 1     
   27   12   33 1     
   28   13   14 1     
   29   13   34 1     
   30   13   35 1     
   31   14   15 1     
   32   15   16 1     
   33   15   36 1     
   34   16   20 1     
   35   16   17 1     
   36   17   18 1     
   37   17   37 1     
   38   17   38 1     
   39   18   19 1     
   40   18   39 1     
   41   18   40 1     
   42   19   20 1     
   43   19   41 1     
   44   19   42 1     
   45   20   43 1     
   46   20   44 1     
   47   21   22 ar    
   48   22   45 1     
   49    8   46 1     
   50    8   47 1     
   51   14   48 1     
   52   14   49 1     
   53   21   50 1     
@<TRIPOS>SUBSTRUCTURE
      1 S1             1
@<TRIPOS>SET
LONE_PAIRS      STATIC     ATOMS    <user>   **** ""
5 46 47 48 49 50
DONOR_HYDROGENS      STATIC     ATOMS    <user>   **** ""
2 28 29
ATOM$BLUE        STATIC     ATOMS    COLORGROUP SYSTEM
5 46 47 48 49 50
ATOM$RED        STATIC     ATOMS    COLORGROUP SYSTEM
2 28 29
