AV-unprocessed.smi:34|AV-procd|sdf|239|dock1
  -GOLD-   2262015583D 1   1.00000     0.00000
 Structure written by MMmdl.
 54 58  0  0  0  0  0  0  0  0  2 V2000
  152.5498  139.5882  157.1103 O   0  0  0  0  0  0  0  0  0  0  0  0
  151.9133  140.5773  156.7410 C   0  0  0  0  0  0  0  0  0  0  0  0
  151.2023  140.7304  155.5951 N   0  5  0  0  0  0  0  0  0  0  0  0
  150.3272  139.7843  155.2219 C   0  0  0  0  0  0  0  0  0  0  0  0
  150.6288  138.4699  155.3800 N   0  0  0  0  0  0  0  0  0  0  0  0
  149.7560  137.5256  155.0087 C   0  0  0  0  0  0  0  0  0  0  0  0
  148.5436  137.6686  154.4634 N   0  0  0  0  0  0  0  0  0  0  0  0
  148.2358  138.9864  154.2897 C   0  0  0  0  0  0  0  0  0  0  0  0
  149.0678  140.0895  154.6362 C   0  0  0  0  0  0  0  0  0  0  0  0
  148.4470  141.2891  154.3206 N   0  0  0  0  0  0  0  0  0  0  0  0
  147.2899  140.8685  153.8126 C   0  0  0  0  0  0  0  0  0  0  0  0
  147.0792  139.5355  153.7665 N   0  0  0  0  0  0  0  0  0  0  0  0
  145.8937  138.7717  153.2538 C   0  0  2  0  0  0  0  0  0  0  0  0
  145.5956  137.7512  154.1594 O   0  0  0  0  0  0  0  0  0  0  0  0
  146.1547  136.5337  153.6845 C   0  0  1  0  0  0  0  0  0  0  0  0
  145.5123  135.3254  154.3744 C   0  0  0  0  0  0  0  0  0  0  0  0
  145.8100  134.1622  153.6201 O   0  0  0  0  0  0  0  0  0  0  0  0
  146.1737  133.0258  154.2435 C   0  0  0  0  0  0  0  0  0  0  0  0
  146.5540  132.9818  155.4152 O   0  0  0  0  0  0  0  0  0  0  0  0
  146.0666  131.8246  153.3658 C   0  0  0  0  0  0  0  0  0  0  0  0
  146.6268  130.5993  153.7965 C   0  0  0  0  0  0  0  0  0  0  0  0
  146.5421  129.4484  152.9891 C   0  0  0  0  0  0  0  0  0  0  0  0
  145.8962  129.5087  151.7405 C   0  0  0  0  0  0  0  0  0  0  0  0
  145.3349  130.7216  151.3005 C   0  0  0  0  0  0  0  0  0  0  0  0
  145.4187  131.8738  152.1065 C   0  0  0  0  0  0  0  0  0  0  0  0
  145.8947  136.6267  152.1822 C   0  0  1  0  0  0  0  0  0  0  0  0
  144.6184  136.3466  151.9102 F   0  0  0  0  0  0  0  0  0  0  0  0
  146.1651  138.0955  151.8857 C   0  0  2  0  0  0  0  0  0  0  0  0
  147.4835  138.2551  151.3914 O   0  0  0  0  0  0  0  0  0  0  0  0
  151.9445  141.8184  157.5919 C   0  0  0  0  0  0  0  0  0  0  0  0
  152.5827  141.7867  158.8527 C   0  0  0  0  0  0  0  0  0  0  0  0
  152.6010  142.9298  159.6755 C   0  0  0  0  0  0  0  0  0  0  0  0
  151.9721  144.1149  159.2500 C   0  0  0  0  0  0  0  0  0  0  0  0
  151.3217  144.1547  158.0025 C   0  0  0  0  0  0  0  0  0  0  0  0
  151.3033  143.0119  157.1790 C   0  0  0  0  0  0  0  0  0  0  0  0
  150.0753  136.5074  155.1740 H   0  0  0  0  0  0  0  0  0  0  0  0
  146.5572  141.5758  153.4535 H   0  0  0  0  0  0  0  0  0  0  0  0
  145.0877  139.5062  153.2298 H   0  0  0  0  0  0  0  0  0  0  0  0
  147.2323  136.5308  153.8570 H   0  0  0  0  0  0  0  0  0  0  0  0
  145.8767  135.2261  155.3978 H   0  0  0  0  0  0  0  0  0  0  0  0
  144.4297  135.4534  154.4180 H   0  0  0  0  0  0  0  0  0  0  0  0
  147.1276  130.5284  154.7514 H   0  0  0  0  0  0  0  0  0  0  0  0
  146.9736  128.5186  153.3288 H   0  0  0  0  0  0  0  0  0  0  0  0
  145.8313  128.6262  151.1214 H   0  0  0  0  0  0  0  0  0  0  0  0
  144.8384  130.7693  150.3425 H   0  0  0  0  0  0  0  0  0  0  0  0
  144.9782  132.7885  151.7373 H   0  0  0  0  0  0  0  0  0  0  0  0
  146.5058  135.9384  151.5968 H   0  0  0  0  0  0  0  0  0  0  0  0
  145.4686  138.4866  151.1431 H   0  0  0  0  0  0  0  0  0  0  0  0
  148.0754  137.7869  151.9609 H   0  0  0  0  0  0  0  0  0  0  0  0
  153.0686  140.8841  159.1942 H   0  0  0  0  0  0  0  0  0  0  0  0
  153.0966  142.8956  160.6343 H   0  0  0  0  0  0  0  0  0  0  0  0
  151.9852  144.9909  159.8813 H   0  0  0  0  0  0  0  0  0  0  0  0
  150.8330  145.0611  157.6775 H   0  0  0  0  0  0  0  0  0  0  0  0
  150.7887  143.0595  156.2300 H   0  0  0  0  0  0  0  0  0  0  0  0
  1  2  2  0  0  0  0
  2  3  1  0  0  0  0
  2 30  1  0  0  0  0
  3  4  1  0  0  0  0
  4  9  1  0  0  0  0
  4  5  2  0  0  0  0
  5  6  1  0  0  0  0
  6  7  2  0  0  0  0
  6 36  1  0  0  0  0
  7  8  1  0  0  0  0
  8 12  1  0  0  0  0
  8  9  2  0  0  0  0
  9 10  1  0  0  0  0
 10 11  2  0  0  0  0
 11 12  1  0  0  0  0
 11 37  1  0  0  0  0
 12 13  1  0  0  0  0
 13 28  1  0  0  0  0
 13 14  1  0  0  0  0
 13 38  1  0  0  0  0
 14 15  1  0  0  0  0
 15 16  1  0  0  0  0
 15 26  1  0  0  0  0
 15 39  1  0  0  0  0
 16 17  1  0  0  0  0
 16 40  1  0  0  0  0
 16 41  1  0  0  0  0
 17 18  1  0  0  0  0
 18 19  2  0  0  0  0
 18 20  1  0  0  0  0
 20 25  1  0  0  0  0
 20 21  2  0  0  0  0
 21 22  1  0  0  0  0
 21 42  1  0  0  0  0
 22 23  2  0  0  0  0
 22 43  1  0  0  0  0
 23 24  1  0  0  0  0
 23 44  1  0  0  0  0
 24 25  2  0  0  0  0
 24 45  1  0  0  0  0
 25 46  1  0  0  0  0
 26 27  1  0  0  0  0
 26 28  1  0  0  0  0
 26 47  1  0  0  0  0
 28 29  1  0  0  0  0
 28 48  1  0  0  0  0
 29 49  1  0  0  0  0
 30 35  1  0  0  0  0
 30 31  2  0  0  0  0
 31 32  1  0  0  0  0
 31 50  1  0  0  0  0
 32 33  2  0  0  0  0
 32 51  1  0  0  0  0
 33 34  1  0  0  0  0
 33 52  1  0  0  0  0
 34 35  2  0  0  0  0
 34 53  1  0  0  0  0
 35 54  1  0  0  0  0
M  CHG  1   3  -1
M  END
> <s_m_source_file>
AV-unprocessed.smi

> <i_m_source_file_index>
34

> <i_lp_mmshare_version>
43012

> <i_f3d_flags>
0

> <s_epik_input>
W2NIXTFbY0hdW2NIXVtjSF1bY0hdYzFDKD1PKVtOSF1jKG5bY0hdbjIpYyhjMjMpbltjSF1uM1tDQEBIXTRPW0NASF0oW0NAQEhdKEYpW0NASF00W09IXSlbQ0gyXU9DKD1PKWM1W2NIXVtjSF1bY0hdW2NIXVtjSF01

> <s_epik_cmdline>
J2VwaWtfcHl0aG9uJywgJy1waCcsICc3LjAnLCAnLXRuJywgJzgnLCAnLW1hJywgJzIwMCcsICctbWV0YWxfYmluZGluZycsICctaW1hZScsICc8aW5maWxlLm1hZT4nLCAnLW9tYWUnLCAnPG91dGZpbGUubWFlPic=

> <r_lp_tautomer_probability>
1

> <r_epik_Ionization_Penalty>
4.33227

> <r_epik_Ionization_Penalty_Charging>
3.41027

> <r_epik_Ionization_Penalty_Neutral>
0.922001

> <r_epik_State_Penalty>
3.41358

> <r_epik_Charging_Adjusted_Penalty>
6.82385

> <i_epik_Tot_Q>
-1

> <i_epik_Tot_abs_Q>
1

> <r_epik_Metal_State_Penalty>
0.496292

> <b_epik_Metal_Only>
1

> <s_epik_Chemistry_Notes>
This compound has an ester and may undergo hydrolysis at high or low pH. This compound contains an acetal/aminal-like group ( X-CH(R)-Y where X, Y are N, S, or O) that may be acid/base labile, releasing an aldehyde.

> <s_lp_Force_Field>
OPLS_2005

> <r_lp_Energy>
47.457

> <b_lp_Chiralities_Consistent>
1

> <s_lp_Variant>
AV-unprocessed.smi:34-25

> <Gold.Version>
5.8.1

> <Gold.Id.Protein>
6NUR|6NUR_protein|mol2

> <Gold.PLP.Fitness>
57.8850

> <Gold.PLP.PLP>
-51.4315

> <Gold.PLP.part.hbond>
-4.8916

> <Gold.PLP.part.metal>
0.0000

> <Gold.PLP.part.buried>
-4.4848

> <Gold.PLP.part.nonpolar>
-43.8597

> <Gold.PLP.part.repulsive>
1.5317

> <Gold.PLP.ligand.clash>
0.0000

> <Gold.PLP.ligand.torsion>
1.7609

> <Gold.PLP.Chemscore.Hbond>
2.8402

> <Gold.PLP.Chemscore.CHOScore>
0.0000

> <Gold.PLP.Chemscore.Metal>
0.0000

> <Gold.Chemscore.Hbonds>
donor molecule, donor type, donor heavy atom, donor atom, acceptor molecule, acceptor atom, score
      L1  H    29    49       P1  7948  0.67
      P1  H  7954  7966       L1    29  0.95
      P1  H  7989  7998       L1     3  0.15
      P1  H  7997  8008       L1     1  1.00

> <Gold.PLP.Chemscore.Internal.Correction>
1.4547

> <Gold.Rescore>
     Score         DG    S(hbond)    S(metal)    S(lipo)     H(rot)  DE(clash)    DE(int)     intcor
     11.33     -18.41       1.64        0.00     122.70       2.69       1.33       5.74       ----

> <Gold.Chemscore.Fitness>
11.3328

> <Gold.Chemscore.DG>
-18.4119

> <Gold.Chemscore.ZeroCoef>
-5.4800

> <Gold.Chemscore.Hbond>
1.6389

> <Gold.Chemscore.Metal>
0.0000

> <Gold.Chemscore.Lipo>
122.6981

> <Gold.Chemscore.Internal_Hbond>
0.0000

> <Gold.Chemscore.DEClash>
1.3343

> <Gold.Chemscore.DEInternal>
5.7448

> <Gold.Chemscore.Rot>
2.6944

> <Gold.Chemscore.Internal.Correction>
   9.000000E+99

> <Gold.Chemscore.Hbonds>
donor molecule, donor type, donor heavy atom, donor atom, acceptor molecule, acceptor atom, score
      L1  H    29    49       P1  7948  0.68
      P1  H  7954  7966       L1    29  0.21
      P1  H  7997  8008       L1     1  0.48

> <Gold.Chemscore.Hbond.Weighted>
-5.4738

> <Gold.Chemscore.Metal.Weighted>
-0.0000

> <Gold.Chemscore.Lipo.Weighted>
-14.3557

> <Gold.Chemscore.Internal_Hbond.Weighted>
0.0000

> <Gold.Chemscore.DEClash.Weighted>
1.3343

> <Gold.Chemscore.DEInternal.Weighted>
5.7448

> <Gold.Chemscore.Rot.Weighted>
6.8975

> <Gold.Chemscore.Internal.Correction.Weighted>
   9.000000E+99

> <Gold.Protein.RotatedTorsions>
[ 6907 6896 6895 6894 ] final  120.40 input  -60.11 | X-H torsion
[ 7974 7965 7964 7962 ] final  -59.34 input  175.53 | X-H torsion
[ 8008 7997 7996 7995 ] final  -73.63 input   59.86 | X-H torsion
[ 10167 10162 10161 10158 ] final  140.15 input  -65.29 | X-H torsion
[ 10718 10713 10712 10709 ] final  108.08 input   66.30 | X-H torsion
[ 10763 10752 10751 10750 ] final  -43.61 input  -60.55 | X-H torsion
[ 11005 11000 10999 10996 ] final  109.74 input  -57.11 | X-H torsion

> <Gold.Protein.ActiveResidues>
 VAL166  LYS551  ARG553  GLY616  TRP617  ASP618  TYR619  PRO620  LYS621  CYS622 
 ASP623  PHE694  ASN695  SER759  ASP760  ASP761  ALA762  ILE779  LEU786  VAL792 
 PHE793  MET794  SER795  GLU796  ALA797  LYS798  CYS799  TRP800  GLU811  SER814 

> <Gold.Protein.RotatedAtoms>
  152.4401  133.7432  159.6652 H   0  0  0  0  0  0  0  0  0  0  0  0  # atno 6907 bound_to 6896
  150.8290  133.8112  159.3112 H   0  0  0  0  0  0  0  0  0  0  0  0  # atno 6908 bound_to 6896
  151.5772  135.1062  160.0060 H   0  0  0  0  0  0  0  0  0  0  0  0  # atno 6909 bound_to 6896
  145.8287  140.8494  143.0095 H   0  0  0  0  0  0  0  0  0  0  0  0  # atno 7974 bound_to 7965
  154.5263  140.0776  156.8264 H   0  0  0  0  0  0  0  0  0  0  0  0  # atno 8008 bound_to 7997
  155.3469  140.3410  155.4221 H   0  0  0  0  0  0  0  0  0  0  0  0  # atno 8009 bound_to 7997
  156.1735  140.1627  156.8392 H   0  0  0  0  0  0  0  0  0  0  0  0  # atno 8010 bound_to 7997
  139.5057  144.6251  151.5956 H   0  0  0  0  0  0  0  0  0  0  0  0  # atno 10167 bound_to 10162
  157.6601  131.0886  150.6252 H   0  0  0  0  0  0  0  0  0  0  0  0  # atno 10718 bound_to 10713
  153.9984  135.6696  153.4758 H   0  0  0  0  0  0  0  0  0  0  0  0  # atno 10763 bound_to 10752
  153.0673  135.4994  154.8224 H   0  0  0  0  0  0  0  0  0  0  0  0  # atno 10764 bound_to 10752
  154.7067  135.3089  154.9222 H   0  0  0  0  0  0  0  0  0  0  0  0  # atno 10765 bound_to 10752
  139.8868  134.9466  156.6172 H   0  0  0  0  0  0  0  0  0  0  0  0  # atno 11005 bound_to 11000
  144.6741  140.0640  143.7475 LP  0  0  0  0  0  0  0  0  0  0  0  0  # atno 17320 bound_to 7965
  145.9595  139.2790  143.1164 LP  0  0  0  0  0  0  0  0  0  0  0  0  # atno 17321 bound_to 7965
  140.5966  143.9685  150.6358 LP  0  0  0  0  0  0  0  0  0  0  0  0  # atno 17342 bound_to 10162
  140.2883  143.3341  152.1086 LP  0  0  0  0  0  0  0  0  0  0  0  0  # atno 17343 bound_to 10162
  156.6555  130.4497  149.5705 LP  0  0  0  0  0  0  0  0  0  0  0  0  # atno 17370 bound_to 10713
  156.2106  130.6676  151.1265 LP  0  0  0  0  0  0  0  0  0  0  0  0  # atno 17371 bound_to 10713
  140.7767  133.8694  155.8535 LP  0  0  0  0  0  0  0  0  0  0  0  0  # atno 17394 bound_to 11000
  140.9796  134.1424  157.4506 LP  0  0  0  0  0  0  0  0  0  0  0  0  # atno 17395 bound_to 11000

$$$$
