#       Name:                AV-unprocessed.smi:113
#       Creating user name   scv26
#       Creation time:       Thu Mar 26 18:20:10 2020


#       File generated by GOLD software.
#

@<TRIPOS>MOLECULE
AV-unprocessed.smi:113
    63    66     1
SMALL
NO_CHARGES


@<TRIPOS>ATOM
      1 ****        -0.6191  -0.8540   4.2032 C.3            1 S1                 0.0000
      2 ****        -1.4050  -1.2564   2.9727 C.ar           1 S1                 0.0000
      3 ****        -1.3277  -0.4976   1.7915 C.ar           1 S1                 0.0000
      4 ****        -2.0816  -0.9015   0.6659 C.ar           1 S1                 0.0000
      5 ****        -2.0332  -0.1101  -0.6460 C.3            1 S1                 0.0000
      6 ****        -1.1842   1.0728  -0.6694 N.am           1 S1                 0.0000
      7 ****        -1.7572   2.3064  -0.2748 C.2            1 S1                 0.0000
      8 ****        -2.9396   2.3898   0.0644 O.2            1 S1                 0.0000
      9 ****        -0.8397   3.4484  -0.2804 C.2            1 S1                 0.0000
     10 ****        -1.3811   4.8047   0.1437 C.3            1 S1                 0.0000
     11 ****         0.4523   3.2716  -0.6480 C.2            1 S1                 0.0000
     12 ****         0.9853   2.0560  -1.0399 N.am           1 S1                 0.0000
     13 ****         2.4587   1.9586  -1.3719 C.3            1 S1                 0.0000
     14 ****         2.7357   1.4184  -2.7852 C.3            1 S1                 0.0000
     15 ****         3.5493   0.1598  -2.5216 C.3            1 S1                 0.0000
     16 ****         4.5759   0.0175  -3.4821 O.3            1 S1                 0.0000
     17 ****         4.1037   0.3876  -1.1107 C.3            1 S1                 0.0000
     18 ****         4.4090  -0.8972  -0.3254 C.3            1 S1                 0.0000
     19 ****         5.5385  -1.5509  -0.8644 O.3            1 S1                 0.0000
     20 ****         3.0610   1.0973  -0.4571 O.3            1 S1                 0.0000
     21 ****         0.1718   0.9017  -1.0280 C.2            1 S1                 0.0000
     22 ****         0.6330  -0.2083  -1.3013 O.2            1 S1                 0.0000
     23 ****        -2.8870  -2.0663   0.7880 C.ar           1 S1                 0.0000
     24 ****        -3.6713  -2.5398  -0.2916 C.2            1 S1                 0.0000
     25 ****        -4.4608  -3.6951  -0.1504 C.2            1 S1                 0.0000
     26 ****        -4.4754  -4.3888   1.0709 C.2            1 S1                 0.0000
     27 ****        -3.7001  -3.9247   2.1485 C.2            1 S1                 0.0000
     28 ****        -2.8996  -2.7682   2.0296 C.ar           1 S1                 0.0000
     29 ****        -2.1697  -2.3593   3.0906 N.ar           1 S1                 0.0000
     30 ****         0.2368  -0.2343   3.9343 H              1 S1                 0.0000
     31 ****        -0.2465  -1.7323   4.7316 H              1 S1                 0.0000
     32 ****        -1.2534  -0.2859   4.8842 H              1 S1                 0.0000
     33 ****        -0.6965   0.3780   1.7658 H              1 S1                 0.0000
     34 ****        -1.7101  -0.7566  -1.4635 H              1 S1                 0.0000
     35 ****        -3.0377   0.2046  -0.9330 H              1 S1                 0.0000
     36 ****        -0.6171   5.5809   0.0946 H              1 S1                 0.0000
     37 ****        -1.7492   4.7636   1.1696 H              1 S1                 0.0000
     38 ****        -2.2048   5.1066  -0.5042 H              1 S1                 0.0000
     39 ****         1.1027   4.1345  -0.6329 H              1 S1                 0.0000
     40 ****         2.8693   2.9601  -1.2389 H              1 S1                 0.0000
     41 ****         1.8209   1.2258  -3.3468 H              1 S1                 0.0000
     42 ****         3.3154   2.1691  -3.3243 H              1 S1                 0.0000
     43 ****         2.9014  -0.7168  -2.5445 H              1 S1                 0.0000
     44 ****         5.0977  -0.7362  -3.2507 H              1 S1                 0.0000
     45 ****         4.9784   1.0405  -1.1421 H              1 S1                 0.0000
     46 ****         4.6187  -0.6566   0.7172 H              1 S1                 0.0000
     47 ****         3.5534  -1.5735  -0.3340 H              1 S1                 0.0000
     48 ****         5.7172  -2.3196  -0.3445 H              1 S1                 0.0000
     49 ****        -3.6831  -2.0304  -1.2431 H              1 S1                 0.0000
     50 ****        -5.0553  -4.0488  -0.9800 H              1 S1                 0.0000
     51 ****        -5.0804  -5.2766   1.1824 H              1 S1                 0.0000
     52 ****        -3.7197  -4.4667   3.0828 H              1 S1                 0.0000
     53 ****        -3.5183   1.5742   0.0652 LP             1 S1                 0.0000
     54 ****        -3.3200   3.2730   0.3387 LP             1 S1                 0.0000
     55 ****         5.1494   0.8367  -3.4877 LP             1 S1                 0.0000
     56 ****         4.1747  -0.1147  -4.3885 LP             1 S1                 0.0000
     57 ****         6.3272  -0.9366  -0.8401 LP             1 S1                 0.0000
     58 ****         5.3537  -1.8189  -1.8100 LP             1 S1                 0.0000
     59 ****         2.3826   0.4508  -0.1079 LP             1 S1                 0.0000
     60 ****         3.4397   1.6259   0.3025 LP             1 S1                 0.0000
     61 ****         0.0436  -1.0156  -1.2723 LP             1 S1                 0.0000
     62 ****         1.5966  -0.3015  -1.5520 LP             1 S1                 0.0000
     63 ****        -2.1967  -2.8681   3.9511 LP             1 S1                 0.0000
@<TRIPOS>BOND
    1    1    2 1     
    2    1   30 1     
    3    1   31 1     
    4    1   32 1     
    5    2   29 ar    
    6    2    3 ar    
    7    3    4 ar    
    8    3   33 1     
    9    4    5 1     
   10    4   23 ar    
   11    5    6 1     
   12    5   34 1     
   13    5   35 1     
   14    6   21 am    
   15    6    7 am    
   16    7    8 2     
   17    7    9 1     
   18    9   10 1     
   19    9   11 2     
   20   10   36 1     
   21   10   37 1     
   22   10   38 1     
   23   11   12 1     
   24   11   39 1     
   25   12   13 1     
   26   12   21 am    
   27   13   20 1     
   28   13   14 1     
   29   13   40 1     
   30   14   15 1     
   31   14   41 1     
   32   14   42 1     
   33   15   16 1     
   34   15   17 1     
   35   15   43 1     
   36   16   44 1     
   37   17   18 1     
   38   17   20 1     
   39   17   45 1     
   40   18   19 1     
   41   18   46 1     
   42   18   47 1     
   43   19   48 1     
   44   21   22 2     
   45   23   28 ar    
   46   23   24 1     
   47   24   25 2     
   48   24   49 1     
   49   25   26 1     
   50   25   50 1     
   51   26   27 2     
   52   26   51 1     
   53   27   28 1     
   54   27   52 1     
   55   28   29 ar    
   56    8   53 1     
   57    8   54 1     
   58   16   55 1     
   59   16   56 1     
   60   19   57 1     
   61   19   58 1     
   62   20   59 1     
   63   20   60 1     
   64   22   61 1     
   65   22   62 1     
   66   29   63 1     
@<TRIPOS>SUBSTRUCTURE
      1 S1             1
@<TRIPOS>SET
LONE_PAIRS      STATIC     ATOMS    <user>   **** ""
11 53 54 55 56 57 58 59 60 61 62 63
DONOR_HYDROGENS      STATIC     ATOMS    <user>   **** ""
2 44 48
ATOM$BLUE        STATIC     ATOMS    COLORGROUP SYSTEM
11 53 54 55 56 57 58 59 60 61 62 63
ATOM$RED        STATIC     ATOMS    COLORGROUP SYSTEM
2 44 48
