#       Name:                AV-unprocessed.smi:188
#       Creating user name   scv26
#       Creation time:       Thu Mar 26 19:29:20 2020


#       File generated by GOLD software.
#

@<TRIPOS>MOLECULE
AV-unprocessed.smi:188
    61    65     1
SMALL
NO_CHARGES


@<TRIPOS>ATOM
      1 ****        -4.0603   7.1599  -0.1984 O.2            1 S1                 0.0000
      2 ****        -3.7031   6.0786   0.2636 C.2            1 S1                 0.0000
      3 ****        -4.1860   5.4359   1.3441 N.pl3          1 S1                -1.0000
      4 ****        -3.5379   4.2670   1.5386 C.2            1 S1                 0.0000
      5 ****        -3.7004   3.4144   2.4106 O.2            1 S1                 0.0000
      6 ****        -2.4815   4.1363   0.4278 C.3            1 S1                 0.0000
      7 ****        -1.0328   4.1140   0.9695 C.3            1 S1                 0.0000
      8 ****        -0.6591   2.7570   1.5936 C.3            1 S1                 0.0000
      9 ****        -0.9276   1.6588   0.6630 N.3            1 S1                 0.0000
     10 ****        -0.3719   0.4522   0.9427 C.ar           1 S1                 0.0000
     11 ****        -0.0116   0.1489   2.2189 N.ar           1 S1                 0.0000
     12 ****         0.5208  -1.0420   2.5063 C.ar           1 S1                 0.0000
     13 ****         0.7819  -2.0591   1.6836 N.ar           1 S1                 0.0000
     14 ****         0.4369  -1.7585   0.3994 C.ar           1 S1                 0.0000
     15 ****        -0.1426  -0.5390  -0.0535 C.ar           1 S1                 0.0000
     16 ****        -0.3504  -0.5970  -1.4267 N.2            1 S1                 0.0000
     17 ****         0.0699  -1.7855  -1.7634 C.2            1 S1                 0.0000
     18 ****         0.5695  -2.5470  -0.7306 N.pl3          1 S1                 0.0000
     19 ****         1.1036  -3.8972  -0.8297 C.3            1 S1                 0.0000
     20 ****         2.6452  -3.9718  -0.8426 C.3            1 S1                 0.0000
     21 ****         3.2334  -3.0222  -1.9013 C.3            1 S1                 0.0000
     22 ****         2.7749  -3.3464  -3.1985 O.3            1 S1                 0.0000
     23 ****         3.3350  -3.8937   0.5274 C.3            1 S1                 0.0000
     24 ****         4.1153  -5.0782   0.2632 O.3            1 S1                 0.0000
     25 ****         3.2428  -5.3857  -0.8445 C.3            1 S1                 0.0000
     26 ****        -2.3005   1.5890   0.1626 C.3            1 S1                 0.0000
     27 ****        -2.7186   2.9175  -0.4951 C.3            1 S1                 0.0000
     28 ****        -2.7255   5.3674  -0.2944 N.am           1 S1                 0.0000
     29 ****        -0.3403   4.3279   0.1541 H              1 S1                 0.0000
     30 ****        -0.8856   4.9058   1.7056 H              1 S1                 0.0000
     31 ****         0.3982   2.7668   1.8617 H              1 S1                 0.0000
     32 ****        -1.2182   2.5960   2.5157 H              1 S1                 0.0000
     33 ****         0.7732  -1.2020   3.5442 H              1 S1                 0.0000
     34 ****         0.0358  -2.1386  -2.7839 H              1 S1                 0.0000
     35 ****         0.6988  -4.4766   0.0010 H              1 S1                 0.0000
     36 ****         0.6950  -4.3584  -1.7297 H              1 S1                 0.0000
     37 ****         2.9957  -1.9804  -1.6857 H              1 S1                 0.0000
     38 ****         4.3221  -3.0853  -1.9082 H              1 S1                 0.0000
     39 ****         3.1820  -2.7579  -3.8160 H              1 S1                 0.0000
     40 ****         3.9499  -3.0039   0.6670 H              1 S1                 0.0000
     41 ****         2.6661  -4.0412   1.3761 H              1 S1                 0.0000
     42 ****         2.5269  -6.1693  -0.5906 H              1 S1                 0.0000
     43 ****         3.7901  -5.6383  -1.7534 H              1 S1                 0.0000
     44 ****        -2.4182   0.7835  -0.5614 H              1 S1                 0.0000
     45 ****        -2.9648   1.3501   0.9935 H              1 S1                 0.0000
     46 ****        -3.7663   2.8616  -0.7946 H              1 S1                 0.0000
     47 ****        -2.1492   3.0470  -1.4167 H              1 S1                 0.0000
     48 ****        -2.2095   5.6420  -1.1170 H              1 S1                 0.0000
     49 ****        -3.6137   7.5270  -1.0143 LP             1 S1                 0.0000
     50 ****        -4.7976   7.6726   0.2416 LP             1 S1                 0.0000
     51 ****        -4.9251   5.7781   1.9244 LP             1 S1                 0.0000
     52 ****        -4.4013   3.5438   3.1121 LP             1 S1                 0.0000
     53 ****        -3.1317   2.5919   2.4179 LP             1 S1                 0.0000
     54 ****        -0.3835   1.9523  -0.1230 LP             1 S1                 0.0000
     55 ****        -0.1462   0.8216   2.9465 LP             1 S1                 0.0000
     56 ****         1.1796  -2.9302   1.9719 LP             1 S1                 0.0000
     57 ****        -0.7342   0.1101  -2.0205 LP             1 S1                 0.0000
     58 ****         1.7810  -3.2446  -3.2402 LP             1 S1                 0.0000
     59 ****         3.0228  -4.2901  -3.4179 LP             1 S1                 0.0000
     60 ****         4.0976  -5.7544   0.9998 LP             1 S1                 0.0000
     61 ****         5.0629  -4.8957   0.0011 LP             1 S1                 0.0000
@<TRIPOS>BOND
    1    1    2 2     
    2    2   28 am    
    3    2    3 1     
    4    3    4 1     
    5    4    5 2     
    6    4    6 1     
    7    6   27 1     
    8    6    7 1     
    9    6   28 1     
   10    7    8 1     
   11    7   29 1     
   12    7   30 1     
   13    8    9 1     
   14    8   31 1     
   15    8   32 1     
   16    9   10 1     
   17    9   26 1     
   18   10   15 ar    
   19   10   11 ar    
   20   11   12 ar    
   21   12   13 ar    
   22   12   33 1     
   23   13   14 ar    
   24   14   18 1     
   25   14   15 ar    
   26   15   16 1     
   27   16   17 2     
   28   17   18 1     
   29   17   34 1     
   30   18   19 1     
   31   19   20 1     
   32   19   35 1     
   33   19   36 1     
   34   20   25 1     
   35   20   21 1     
   36   20   23 1     
   37   21   22 1     
   38   21   37 1     
   39   21   38 1     
   40   22   39 1     
   41   23   24 1     
   42   23   40 1     
   43   23   41 1     
   44   24   25 1     
   45   25   42 1     
   46   25   43 1     
   47   26   27 1     
   48   26   44 1     
   49   26   45 1     
   50   27   46 1     
   51   27   47 1     
   52   28   48 1     
   53    1   49 1     
   54    1   50 1     
   55    3   51 1     
   56    5   52 1     
   57    5   53 1     
   58    9   54 1     
   59   11   55 1     
   60   13   56 1     
   61   16   57 1     
   62   22   58 1     
   63   22   59 1     
   64   24   60 1     
   65   24   61 1     
@<TRIPOS>SUBSTRUCTURE
      1 S1             1
@<TRIPOS>SET
LONE_PAIRS      STATIC     ATOMS    <user>   **** ""
13 49 50 51 52 53 54 55 56 57 58 59 60 61
DONOR_HYDROGENS      STATIC     ATOMS    <user>   **** ""
2 39 48
ATOM$BLUE        STATIC     ATOMS    COLORGROUP SYSTEM
13 49 50 51 52 53 54 55 56 57 58 59 60 61
ATOM$RED        STATIC     ATOMS    COLORGROUP SYSTEM
2 39 48
