AV-unprocessed.smi:2221|AV-procd|sdf|8980|dock1
  -GOLD-   2272012193D 1   1.00000     0.00000
 Structure written by MMmdl.
 54 55  0  0  0  0  0  0  0  0  3 V2000
  152.0313  145.1783  160.6841 C   0  0  0  0  0  0  0  0  0  0  0  0
  151.9131  143.8669  159.9359 C   0  0  0  0  0  0  0  0  0  0  0  0
  152.6456  142.7364  160.3449 C   0  0  0  0  0  0  0  0  0  0  0  0
  152.4987  141.5458  159.6069 C   0  0  0  0  0  0  0  0  0  0  0  0
  153.2561  140.2918  159.9908 C   0  0  0  0  0  0  0  0  0  0  0  0
  151.6922  141.4418  158.5289 N   0  0  0  0  0  0  0  0  0  0  0  0
  150.9789  142.5238  158.1283 C   0  0  0  0  0  0  0  0  0  0  0  0
  150.1066  142.5188  157.0076 N   0  0  0  0  0  0  0  0  0  0  0  0
  149.8282  141.4958  156.1812 C   0  0  0  0  0  0  0  0  0  0  0  0
  150.2577  140.3477  156.2989 O   0  0  0  0  0  0  0  0  0  0  0  0
  149.0263  141.8808  155.1770 N   0  0  0  0  0  0  0  0  0  0  0  0
  148.5478  141.0220  154.0948 C   0  0  0  0  0  0  0  0  0  0  0  0
  147.0437  141.2156  153.8069 C   0  0  0  0  0  0  0  0  0  0  0  0
  146.3748  139.9622  153.3738 N   0  3  2  0  0  0  0  0  0  0  0  0
  146.1982  138.9827  154.4707 C   0  0  0  0  0  0  0  0  0  0  0  0
  145.3284  137.8006  154.0108 C   0  0  0  0  0  0  0  0  0  0  0  0
  145.9110  137.0871  152.7646 C   0  0  1  0  0  0  0  0  0  0  0  0
  145.0236  135.9870  152.2664 N   0  3  0  0  0  0  0  0  0  0  0  0
  143.6153  136.4099  152.0619 C   0  0  0  0  0  0  0  0  0  0  0  0
  145.5343  135.3018  151.0527 C   0  0  0  0  0  0  0  0  0  0  0  0
  146.1695  138.1563  151.6744 C   0  0  0  0  0  0  0  0  0  0  0  0
  147.0147  139.3313  152.1942 C   0  0  0  0  0  0  0  0  0  0  0  0
  151.0704  143.7570  158.8114 C   0  0  0  0  0  0  0  0  0  0  0  0
  152.3649  145.0149  161.7093 H   0  0  0  0  0  0  0  0  0  0  0  0
  151.0689  145.6896  160.7192 H   0  0  0  0  0  0  0  0  0  0  0  0
  152.7503  145.8307  160.1885 H   0  0  0  0  0  0  0  0  0  0  0  0
  153.3024  142.7817  161.2015 H   0  0  0  0  0  0  0  0  0  0  0  0
  153.9182  140.4728  160.8380 H   0  0  0  0  0  0  0  0  0  0  0  0
  153.8620  139.9430  159.1543 H   0  0  0  0  0  0  0  0  0  0  0  0
  152.5600  139.4989  160.2659 H   0  0  0  0  0  0  0  0  0  0  0  0
  149.6643  143.4021  156.7994 H   0  0  0  0  0  0  0  0  0  0  0  0
  148.7169  142.8423  155.1608 H   0  0  0  0  0  0  0  0  0  0  0  0
  149.1442  141.1765  153.1946 H   0  0  0  0  0  0  0  0  0  0  0  0
  148.7241  139.9883  154.3931 H   0  0  0  0  0  0  0  0  0  0  0  0
  146.5349  141.6246  154.6809 H   0  0  0  0  0  0  0  0  0  0  0  0
  146.9496  141.9686  153.0230 H   0  0  0  0  0  0  0  0  0  0  0  0
  147.1734  138.6308  154.8111 H   0  0  0  0  0  0  0  0  0  0  0  0
  145.7179  139.4656  155.3227 H   0  0  0  0  0  0  0  0  0  0  0  0
  145.2443  137.1122  154.8512 H   0  0  0  0  0  0  0  0  0  0  0  0
  144.3199  138.1571  153.7948 H   0  0  0  0  0  0  0  0  0  0  0  0
  146.8672  136.6423  153.0462 H   0  0  0  0  0  0  0  0  0  0  0  0
  143.5558  137.2585  151.3790 H   0  0  0  0  0  0  0  0  0  0  0  0
  143.1334  136.6832  152.9995 H   0  0  0  0  0  0  0  0  0  0  0  0
  143.0205  135.5982  151.6411 H   0  0  0  0  0  0  0  0  0  0  0  0
  145.7260  136.0154  150.2504 H   0  0  0  0  0  0  0  0  0  0  0  0
  144.8164  134.5674  150.6859 H   0  0  0  0  0  0  0  0  0  0  0  0
  146.4512  134.7501  151.2583 H   0  0  0  0  0  0  0  0  0  0  0  0
  146.6954  137.7280  150.8222 H   0  0  0  0  0  0  0  0  0  0  0  0
  145.2186  138.5345  151.2955 H   0  0  0  0  0  0  0  0  0  0  0  0
  147.1336  140.0641  151.3963 H   0  0  0  0  0  0  0  0  0  0  0  0
  148.0164  138.9883  152.4586 H   0  0  0  0  0  0  0  0  0  0  0  0
  150.5008  144.6131  158.4784 H   0  0  0  0  0  0  0  0  0  0  0  0
  145.0011  135.2827  152.9904 H   0  0  0  0  0  0  0  0  0  0  0  0
  145.4439  140.2343  153.0891 H   0  0  0  0  0  0  0  0  0  0  0  0
  1  2  1  0  0  0  0
  1 24  1  0  0  0  0
  1 25  1  0  0  0  0
  1 26  1  0  0  0  0
  2 23  1  0  0  0  0
  2  3  2  0  0  0  0
  3  4  1  0  0  0  0
  3 27  1  0  0  0  0
  4  5  1  0  0  0  0
  4  6  2  0  0  0  0
  5 28  1  0  0  0  0
  5 29  1  0  0  0  0
  5 30  1  0  0  0  0
  6  7  1  0  0  0  0
  7  8  1  0  0  0  0
  7 23  2  0  0  0  0
  8  9  1  0  0  0  0
  8 31  1  0  0  0  0
  9 10  2  0  0  0  0
  9 11  1  0  0  0  0
 11 12  1  0  0  0  0
 11 32  1  0  0  0  0
 12 13  1  0  0  0  0
 12 33  1  0  0  0  0
 12 34  1  0  0  0  0
 13 14  1  0  0  0  0
 13 35  1  0  0  0  0
 13 36  1  0  0  0  0
 14 22  1  0  0  0  0
 14 15  1  0  0  0  0
 14 54  1  0  0  0  0
 15 16  1  0  0  0  0
 15 37  1  0  0  0  0
 15 38  1  0  0  0  0
 16 17  1  0  0  0  0
 16 39  1  0  0  0  0
 16 40  1  0  0  0  0
 17 18  1  0  0  0  0
 17 21  1  0  0  0  0
 17 41  1  0  0  0  0
 18 19  1  0  0  0  0
 18 20  1  0  0  0  0
 18 53  1  0  0  0  0
 19 42  1  0  0  0  0
 19 43  1  0  0  0  0
 19 44  1  0  0  0  0
 20 45  1  0  0  0  0
 20 46  1  0  0  0  0
 20 47  1  0  0  0  0
 21 22  1  0  0  0  0
 21 48  1  0  0  0  0
 21 49  1  0  0  0  0
 22 50  1  0  0  0  0
 22 51  1  0  0  0  0
 23 52  1  0  0  0  0
M  CHG  1  14   1
M  CHG  1  18   1
M  END
> <s_m_source_file>
AV-unprocessed.smi

> <i_m_source_file_index>
2221

> <i_lp_mmshare_version>
43012

> <i_f3d_flags>
0

> <s_epik_input>
W0NIM11jMVtjSF1jKFtDSDNdKW5jKFtjSF0xKVtOSF1DKD1PKVtOSF1bQ0gyXVtDSDJdTjJbQ0gyXVtDSDJdW0NIXShOKFtDSDNdKVtDSDNdKVtDSDJdW0NIMl0y

> <s_epik_cmdline>
J2VwaWtfcHl0aG9uJywgJy1waCcsICc3LjAnLCAnLXRuJywgJzgnLCAnLW1hJywgJzIwMCcsICctbWV0YWxfYmluZGluZycsICctaW1hZScsICc8aW5maWxlLm1hZT4nLCAnLW9tYWUnLCAnPG91dGZpbGUubWFlPic=

> <r_epik_Ionization_Penalty>
0.206417

> <r_epik_Ionization_Penalty_Charging>
0.206231

> <r_epik_Ionization_Penalty_Neutral>
0.00018626

> <r_epik_State_Penalty>
0.176025

> <r_epik_Charging_Adjusted_Penalty>
0.382256

> <i_epik_Tot_Q>
2

> <i_epik_Tot_abs_Q>
2

> <r_epik_Metal_State_Penalty>
0.176034

> <b_epik_Metal_Only>
0

> <s_lp_Force_Field>
OPLS_2005

> <r_lp_Energy>
36.2622

> <b_lp_Chiralities_Consistent>
1

> <s_lp_Variant>
AV-unprocessed.smi:2221-1

> <Gold.Version>
5.8.1

> <Gold.Id.Protein>
6NUR|6NUR_protein|mol2

> <Gold.PLP.Fitness>
57.6462

> <Gold.PLP.PLP>
-46.6590

> <Gold.PLP.part.hbond>
-2.9245

> <Gold.PLP.part.metal>
0.0000

> <Gold.PLP.part.buried>
-1.9667

> <Gold.PLP.part.nonpolar>
-41.6700

> <Gold.PLP.part.repulsive>
0.2926

> <Gold.PLP.ligand.clash>
0.0000

> <Gold.PLP.ligand.torsion>
0.4120

> <Gold.PLP.Chemscore.Hbond>
3.9120

> <Gold.PLP.Chemscore.CHOScore>
0.0000

> <Gold.PLP.Chemscore.Metal>
0.0000

> <Gold.Chemscore.Hbonds>
donor molecule, donor type, donor heavy atom, donor atom, acceptor molecule, acceptor atom, score
      L1  H     8    31       P1  8028  1.00
      L1  H    11    32       P1  8028  1.00
      L1  H    14    54       P1 10175  2.00

> <Gold.PLP.Chemscore.Internal.Correction>
0.0752

> <Gold.Rescore>
     Score         DG    S(hbond)    S(metal)    S(lipo)     H(rot)  DE(clash)    DE(int)     intcor
     21.78     -23.74       2.88        0.00     110.59       1.68       0.23       1.73       ----

> <Gold.Chemscore.Fitness>
21.7821

> <Gold.Chemscore.DG>
-23.7368

> <Gold.Chemscore.ZeroCoef>
-5.4800

> <Gold.Chemscore.Hbond>
2.8799

> <Gold.Chemscore.Metal>
0.0000

> <Gold.Chemscore.Lipo>
110.5870

> <Gold.Chemscore.Internal_Hbond>
0.0000

> <Gold.Chemscore.DEClash>
0.2284

> <Gold.Chemscore.DEInternal>
1.7263

> <Gold.Chemscore.Rot>
1.6800

> <Gold.Chemscore.Internal.Correction>
   9.000000E+99

> <Gold.Chemscore.Hbonds>
donor molecule, donor type, donor heavy atom, donor atom, acceptor molecule, acceptor atom, score
      L1  H     8    31       P1  8028  0.98
      L1  H    11    32       P1  8028  0.97
      L1  H    14    54       P1 10175  0.99

> <Gold.Chemscore.Hbond.Weighted>
-9.6190

> <Gold.Chemscore.Metal.Weighted>
-0.0000

> <Gold.Chemscore.Lipo.Weighted>
-12.9387

> <Gold.Chemscore.Internal_Hbond.Weighted>
0.0000

> <Gold.Chemscore.DEClash.Weighted>
0.2284

> <Gold.Chemscore.DEInternal.Weighted>
1.7263

> <Gold.Chemscore.Rot.Weighted>
4.3009

> <Gold.Chemscore.Internal.Correction.Weighted>
   9.000000E+99

> <Gold.Protein.RotatedTorsions>
[ 6907 6896 6895 6894 ] final  176.29 input  -60.11 | X-H torsion
[ 7974 7965 7964 7962 ] final   83.58 input  175.53 | X-H torsion
[ 8008 7997 7996 7995 ] final  -64.60 input   59.86 | X-H torsion
[ 10167 10162 10161 10158 ] final    1.38 input  -65.29 | X-H torsion
[ 10718 10713 10712 10709 ] final  -94.16 input   66.30 | X-H torsion
[ 10763 10752 10751 10750 ] final   74.94 input  -60.55 | X-H torsion
[ 11005 11000 10999 10996 ] final  -74.69 input  -57.11 | X-H torsion

> <Gold.Protein.ActiveResidues>
 VAL166  LYS551  ARG553  GLY616  TRP617  ASP618  TYR619  PRO620  LYS621  CYS622 
 ASP623  PHE694  ASN695  SER759  ASP760  ASP761  ALA762  ILE779  LEU786  VAL792 
 PHE793  MET794  SER795  GLU796  ALA797  LYS798  CYS799  TRP800  GLU811  SER814 

> <Gold.Protein.RotatedAtoms>
  151.7225  133.3315  159.3318 H   0  0  0  0  0  0  0  0  0  0  0  0  # atno 6907 bound_to 6896
  150.7647  134.6436  159.6259 H   0  0  0  0  0  0  0  0  0  0  0  0  # atno 6908 bound_to 6896
  152.3643  134.6829  160.0249 H   0  0  0  0  0  0  0  0  0  0  0  0  # atno 6909 bound_to 6896
  145.6100  139.2367  143.2197 H   0  0  0  0  0  0  0  0  0  0  0  0  # atno 7974 bound_to 7965
  154.4621  140.0950  156.6921 H   0  0  0  0  0  0  0  0  0  0  0  0  # atno 8008 bound_to 7997
  155.4964  140.3472  155.4345 H   0  0  0  0  0  0  0  0  0  0  0  0  # atno 8009 bound_to 7997
  156.0889  140.1392  156.9606 H   0  0  0  0  0  0  0  0  0  0  0  0  # atno 8010 bound_to 7997
  140.6685  143.7113  150.7876 H   0  0  0  0  0  0  0  0  0  0  0  0  # atno 10167 bound_to 10162
  156.0023  130.5056  150.5884 H   0  0  0  0  0  0  0  0  0  0  0  0  # atno 10718 bound_to 10713
  153.0621  135.5007  154.8117 H   0  0  0  0  0  0  0  0  0  0  0  0  # atno 10763 bound_to 10752
  154.6898  135.2982  154.9498 H   0  0  0  0  0  0  0  0  0  0  0  0  # atno 10764 bound_to 10752
  154.0256  135.6736  153.4829 H   0  0  0  0  0  0  0  0  0  0  0  0  # atno 10765 bound_to 10752
  141.1638  133.6920  156.7403 H   0  0  0  0  0  0  0  0  0  0  0  0  # atno 11005 bound_to 11000
  146.1511  140.6924  142.9321 LP  0  0  0  0  0  0  0  0  0  0  0  0  # atno 17320 bound_to 7965
  144.7274  140.4566  143.6963 LP  0  0  0  0  0  0  0  0  0  0  0  0  # atno 17321 bound_to 7965
  140.0794  143.4983  152.2538 LP  0  0  0  0  0  0  0  0  0  0  0  0  # atno 17342 bound_to 10162
  139.5944  144.7562  151.3322 LP  0  0  0  0  0  0  0  0  0  0  0  0  # atno 17343 bound_to 10162
  157.3753  131.0772  151.1523 LP  0  0  0  0  0  0  0  0  0  0  0  0  # atno 17370 bound_to 10713
  157.2263  130.6504  149.5831 LP  0  0  0  0  0  0  0  0  0  0  0  0  # atno 17371 bound_to 10713
  140.2679  134.8415  157.3820 LP  0  0  0  0  0  0  0  0  0  0  0  0  # atno 17394 bound_to 11000
  140.1549  134.4803  155.7935 LP  0  0  0  0  0  0  0  0  0  0  0  0  # atno 17395 bound_to 11000

$$$$
