AV-unprocessed.smi:2567|AV-procd|sdf|10076|dock4
  -GOLD-   2272014103D 1   1.00000     0.00000
 Structure written by MMmdl.
 34 35  0  0  0  0  0  0  0  0  2 V2000
  152.3616  142.7776  159.4909 C   0  0  0  0  0  0  0  0  0  0  0  0
  151.3998  143.4229  158.4740 C   0  0  0  0  0  0  0  0  0  0  0  0
  150.0963  143.8386  159.1822 C   0  0  0  0  0  0  0  0  0  0  0  0
  152.0761  144.6969  157.9197 C   0  0  0  0  0  0  0  0  0  0  0  0
  151.0853  142.4349  157.3757 C   0  0  0  0  0  0  0  0  0  0  0  0
  150.1316  142.6283  156.4577 N   0  0  0  0  0  0  0  0  0  0  0  0
  150.0760  141.5659  155.6277 N   0  0  0  0  0  0  0  0  0  0  0  0
  151.0407  140.7865  156.1113 C   0  0  0  0  0  0  0  0  0  0  0  0
  151.3142  139.4424  155.5121 C   0  0  2  0  0  0  0  0  0  0  0  0
  150.3599  139.1207  154.3465 C   0  0  0  0  0  0  0  0  0  0  0  0
  150.6045  137.7481  153.8622 N   0  3  0  0  0  0  0  0  0  0  0  0
  150.5039  136.7631  154.9574 C   0  0  0  0  0  0  0  0  0  0  0  0
  151.4407  137.1570  156.1133 C   0  0  0  0  0  0  0  0  0  0  0  0
  151.1395  138.4788  156.5490 O   0  0  0  0  0  0  0  0  0  0  0  0
  151.6935  141.2614  157.2154 N   0  0  0  0  0  0  0  0  0  0  0  0
  152.6151  143.4705  160.2940 H   0  0  0  0  0  0  0  0  0  0  0  0
  153.2938  142.4705  159.0152 H   0  0  0  0  0  0  0  0  0  0  0  0
  151.9221  141.8928  159.9529 H   0  0  0  0  0  0  0  0  0  0  0  0
  149.5941  142.9813  159.6322 H   0  0  0  0  0  0  0  0  0  0  0  0
  149.3963  144.2995  158.4844 H   0  0  0  0  0  0  0  0  0  0  0  0
  150.2881  144.5582  159.9790 H   0  0  0  0  0  0  0  0  0  0  0  0
  152.3074  145.4019  158.7191 H   0  0  0  0  0  0  0  0  0  0  0  0
  151.4327  145.2166  157.2087 H   0  0  0  0  0  0  0  0  0  0  0  0
  153.0137  144.4648  157.4128 H   0  0  0  0  0  0  0  0  0  0  0  0
  152.3504  139.4160  155.1687 H   0  0  0  0  0  0  0  0  0  0  0  0
  149.3211  139.2042  154.6697 H   0  0  0  0  0  0  0  0  0  0  0  0
  150.5003  139.8247  153.5258 H   0  0  0  0  0  0  0  0  0  0  0  0
  149.9339  137.5210  153.1417 H   0  0  0  0  0  0  0  0  0  0  0  0
  149.4718  136.7205  155.3074 H   0  0  0  0  0  0  0  0  0  0  0  0
  150.7565  135.7730  154.5778 H   0  0  0  0  0  0  0  0  0  0  0  0
  151.3134  136.4713  156.9510 H   0  0  0  0  0  0  0  0  0  0  0  0
  152.4859  137.0936  155.8063 H   0  0  0  0  0  0  0  0  0  0  0  0
  151.5352  137.7043  153.4721 H   0  0  0  0  0  0  0  0  0  0  0  0
  149.5216  143.4289  156.3697 H   0  0  0  0  0  0  0  0  0  0  0  0
  1  2  1  0  0  0  0
  1 16  1  0  0  0  0
  1 17  1  0  0  0  0
  1 18  1  0  0  0  0
  2  3  1  0  0  0  0
  2  4  1  0  0  0  0
  2  5  1  0  0  0  0
  3 19  1  0  0  0  0
  3 20  1  0  0  0  0
  3 21  1  0  0  0  0
  4 22  1  0  0  0  0
  4 23  1  0  0  0  0
  4 24  1  0  0  0  0
  5 15  2  0  0  0  0
  5  6  1  0  0  0  0
  6  7  1  0  0  0  0
  6 34  1  0  0  0  0
  7  8  2  0  0  0  0
  8  9  1  0  0  0  0
  8 15  1  0  0  0  0
  9 14  1  0  0  0  0
  9 10  1  0  0  0  0
  9 25  1  0  0  0  0
 10 11  1  0  0  0  0
 10 26  1  0  0  0  0
 10 27  1  0  0  0  0
 11 12  1  0  0  0  0
 11 28  1  0  0  0  0
 11 33  1  0  0  0  0
 12 13  1  0  0  0  0
 12 29  1  0  0  0  0
 12 30  1  0  0  0  0
 13 14  1  0  0  0  0
 13 31  1  0  0  0  0
 13 32  1  0  0  0  0
M  CHG  1  11   1
M  END
> <s_m_source_file>
AV-unprocessed.smi

> <i_m_source_file_index>
2567

> <i_lp_mmshare_version>
43012

> <i_f3d_flags>
0

> <s_epik_input>
W0NIM11DKFtDSDNdKShbQ0gzXSljMW5bbkhdYyhuMSlbQ0BASF0yW0NIMl1bTkhdW0NIMl1bQ0gyXU8y

> <s_epik_cmdline>
J2VwaWtfcHl0aG9uJywgJy1waCcsICc3LjAnLCAnLXRuJywgJzgnLCAnLW1hJywgJzIwMCcsICctbWV0YWxfYmluZGluZycsICctaW1hZScsICc8aW5maWxlLm1hZT4nLCAnLW9tYWUnLCAnPG91dGZpbGUubWFlPic=

> <r_lp_tautomer_probability>
0.948284

> <r_epik_Ionization_Penalty>
0.108767

> <r_epik_Ionization_Penalty_Charging>
0.100865

> <r_epik_Ionization_Penalty_Neutral>
0.00790271

> <r_epik_State_Penalty>
0.197684

> <r_epik_Charging_Adjusted_Penalty>
0.298549

> <i_epik_Tot_Q>
1

> <i_epik_Tot_abs_Q>
1

> <r_epik_Metal_State_Penalty>
0.508163

> <b_epik_Metal_Only>
0

> <s_lp_Force_Field>
OPLS_2005

> <r_lp_Energy>
13.5153

> <b_lp_Chiralities_Consistent>
1

> <s_lp_Variant>
AV-unprocessed.smi:2567-1

> <Gold.Version>
5.8.1

> <Gold.Id.Protein>
6NUR|6NUR_protein|mol2

> <Gold.PLP.Fitness>
38.8473

> <Gold.PLP.PLP>
-30.4020

> <Gold.PLP.part.hbond>
-3.0000

> <Gold.PLP.part.metal>
0.0000

> <Gold.PLP.part.buried>
-3.7455

> <Gold.PLP.part.nonpolar>
-24.1152

> <Gold.PLP.part.repulsive>
0.2750

> <Gold.PLP.ligand.clash>
0.0000

> <Gold.PLP.ligand.torsion>
0.2867

> <Gold.PLP.Chemscore.Hbond>
3.0000

> <Gold.PLP.Chemscore.CHOScore>
0.0000

> <Gold.PLP.Chemscore.Metal>
0.0000

> <Gold.Chemscore.Hbonds>
donor molecule, donor type, donor heavy atom, donor atom, acceptor molecule, acceptor atom, score
      L1  H     6    34       P1  8028  1.00
      L1  H    11    28       P1  7948  2.00

> <Gold.PLP.Chemscore.Internal.Correction>
0.0188

> <Gold.Rescore>
     Score         DG    S(hbond)    S(metal)    S(lipo)     H(rot)  DE(clash)    DE(int)     intcor
     15.50     -16.08       1.74        0.00      68.62       1.26       0.00       0.57       ----

> <Gold.Chemscore.Fitness>
15.5023

> <Gold.Chemscore.DG>
-16.0794

> <Gold.Chemscore.ZeroCoef>
-5.4800

> <Gold.Chemscore.Hbond>
1.7389

> <Gold.Chemscore.Metal>
0.0000

> <Gold.Chemscore.Lipo>
68.6240

> <Gold.Chemscore.Internal_Hbond>
0.0000

> <Gold.Chemscore.DEClash>
0.0038

> <Gold.Chemscore.DEInternal>
0.5734

> <Gold.Chemscore.Rot>
1.2647

> <Gold.Chemscore.Internal.Correction>
   9.000000E+99

> <Gold.Chemscore.Hbonds>
donor molecule, donor type, donor heavy atom, donor atom, acceptor molecule, acceptor atom, score
      L1  H     6    34       P1  8028  0.98
      L1  H    11    28       P1  7948  0.32

> <Gold.Chemscore.Hbond.Weighted>
-5.8080

> <Gold.Chemscore.Metal.Weighted>
-0.0000

> <Gold.Chemscore.Lipo.Weighted>
-8.0290

> <Gold.Chemscore.Internal_Hbond.Weighted>
0.0000

> <Gold.Chemscore.DEClash.Weighted>
0.0038

> <Gold.Chemscore.DEInternal.Weighted>
0.5734

> <Gold.Chemscore.Rot.Weighted>
3.2375

> <Gold.Chemscore.Internal.Correction.Weighted>
   9.000000E+99

> <Gold.Protein.RotatedTorsions>
[ 6907 6896 6895 6894 ] final  152.78 input  -60.11 | X-H torsion
[ 7974 7965 7964 7962 ] final  -55.04 input  175.53 | X-H torsion
[ 8008 7997 7996 7995 ] final  130.09 input   59.86 | X-H torsion
[ 10167 10162 10161 10158 ] final  -96.73 input  -65.29 | X-H torsion
[ 10718 10713 10712 10709 ] final  -41.34 input   66.30 | X-H torsion
[ 10763 10752 10751 10750 ] final   68.57 input  -60.55 | X-H torsion
[ 11005 11000 10999 10996 ] final  147.58 input  -57.11 | X-H torsion

> <Gold.Protein.ActiveResidues>
 VAL166  LYS551  ARG553  GLY616  TRP617  ASP618  TYR619  PRO620  LYS621  CYS622 
 ASP623  PHE694  ASN695  SER759  ASP760  ASP761  ALA762  ILE779  LEU786  VAL792 
 PHE793  MET794  SER795  GLU796  ALA797  LYS798  CYS799  TRP800  GLU811  SER814 

> <Gold.Protein.RotatedAtoms>
  152.0819  133.4157  159.4504 H   0  0  0  0  0  0  0  0  0  0  0  0  # atno 6907 bound_to 6896
  150.6862  134.2972  159.4700 H   0  0  0  0  0  0  0  0  0  0  0  0  # atno 6908 bound_to 6896
  152.0815  134.9467  160.0624 H   0  0  0  0  0  0  0  0  0  0  0  0  # atno 6909 bound_to 6896
  145.8787  140.8161  142.9851 H   0  0  0  0  0  0  0  0  0  0  0  0  # atno 7974 bound_to 7965
  156.2948  140.2604  156.2705 H   0  0  0  0  0  0  0  0  0  0  0  0  # atno 8008 bound_to 7997
  154.9700  140.0391  157.2248 H   0  0  0  0  0  0  0  0  0  0  0  0  # atno 8009 bound_to 7997
  154.7868  140.2805  155.6026 H   0  0  0  0  0  0  0  0  0  0  0  0  # atno 8010 bound_to 7997
  140.2908  143.3223  152.0348 H   0  0  0  0  0  0  0  0  0  0  0  0  # atno 10167 bound_to 10162
  156.2714  130.4207  149.8434 H   0  0  0  0  0  0  0  0  0  0  0  0  # atno 10718 bound_to 10713
  153.0242  135.5242  154.7154 H   0  0  0  0  0  0  0  0  0  0  0  0  # atno 10763 bound_to 10752
  154.6225  135.2890  155.0312 H   0  0  0  0  0  0  0  0  0  0  0  0  # atno 10764 bound_to 10752
  154.1294  135.6595  153.4971 H   0  0  0  0  0  0  0  0  0  0  0  0  # atno 10765 bound_to 10752
  140.0888  134.9053  157.1618 H   0  0  0  0  0  0  0  0  0  0  0  0  # atno 11005 bound_to 11000
  144.6727  140.1351  143.7441 LP  0  0  0  0  0  0  0  0  0  0  0  0  # atno 17320 bound_to 7965
  145.9049  139.2452  143.1471 LP  0  0  0  0  0  0  0  0  0  0  0  0  # atno 17321 bound_to 7965
  139.4938  144.6526  151.6642 LP  0  0  0  0  0  0  0  0  0  0  0  0  # atno 17342 bound_to 10162
  140.5734  144.0070  150.6229 LP  0  0  0  0  0  0  0  0  0  0  0  0  # atno 17343 bound_to 10162
  156.5914  130.8508  151.3409 LP  0  0  0  0  0  0  0  0  0  0  0  0  # atno 17370 bound_to 10713
  157.7285  130.9658  150.1745 LP  0  0  0  0  0  0  0  0  0  0  0  0  # atno 17371 bound_to 10713
  140.3382  134.2733  155.7216 LP  0  0  0  0  0  0  0  0  0  0  0  0  # atno 17394 bound_to 11000
  141.2071  133.7815  157.0138 LP  0  0  0  0  0  0  0  0  0  0  0  0  # atno 17395 bound_to 11000

$$$$
