AV-unprocessed.smi:558|AV-procd|sdf|2922|dock9
  -GOLD-   2262023413D 1   1.00000     0.00000
 Structure written by MMmdl.
 36 37  0  0  0  0  0  0  0  0  1 V2000
  152.9730  138.3747  154.9074 C   0  0  0  0  0  0  0  0  0  0  0  0
  151.6504  139.0824  154.9287 C   0  0  0  0  0  0  0  0  0  0  0  0
  150.4837  138.7944  154.1672 C   0  0  0  0  0  0  0  0  0  0  0  0
  149.5784  139.7368  154.5660 C   0  0  0  0  0  0  0  0  0  0  0  0
  148.1688  139.9606  154.1256 C   0  0  0  0  0  0  0  0  0  0  0  0
  150.2095  140.5246  155.5135 N   0  0  0  0  0  0  0  0  0  0  0  0
  149.7005  141.6795  156.2414 C   0  0  0  0  0  0  0  0  0  0  0  0
  150.7102  142.1874  157.2753 C   0  0  0  0  0  0  0  0  0  0  0  0
  151.2252  141.4015  158.0697 O   0  0  0  0  0  0  0  0  0  0  0  0
  150.9833  143.5005  157.2529 N   0  0  0  0  0  0  0  0  0  0  0  0
  151.9789  144.1712  158.0774 C   0  0  0  0  0  0  0  0  0  0  0  0
  151.8906  143.6746  159.5298 C   0  0  2  0  0  0  0  0  0  0  0  0
  152.1602  144.7365  160.5791 C   0  0  0  0  0  0  0  0  0  0  0  0
  152.4795  143.8906  161.8079 C   0  0  0  0  0  0  0  0  0  0  0  0
  153.0647  142.6878  161.3147 O   0  0  0  0  0  0  0  0  0  0  0  0
  152.9399  142.6267  159.8968 C   0  0  0  0  0  0  0  0  0  0  0  0
  151.4791  140.1177  155.7335 N   0  0  0  0  0  0  0  0  0  0  0  0
  152.9180  137.4550  154.3248 H   0  0  0  0  0  0  0  0  0  0  0  0
  153.2955  138.1101  155.9149 H   0  0  0  0  0  0  0  0  0  0  0  0
  153.7454  139.0030  154.4631 H   0  0  0  0  0  0  0  0  0  0  0  0
  150.3347  138.0134  153.4363 H   0  0  0  0  0  0  0  0  0  0  0  0
  147.8874  139.2517  153.3468 H   0  0  0  0  0  0  0  0  0  0  0  0
  148.0398  140.9654  153.7238 H   0  0  0  0  0  0  0  0  0  0  0  0
  147.4766  139.8346  154.9584 H   0  0  0  0  0  0  0  0  0  0  0  0
  149.4620  142.4785  155.5394 H   0  0  0  0  0  0  0  0  0  0  0  0
  148.7676  141.4027  156.7352 H   0  0  0  0  0  0  0  0  0  0  0  0
  150.5035  144.0688  156.5704 H   0  0  0  0  0  0  0  0  0  0  0  0
  152.9696  143.9682  157.6691 H   0  0  0  0  0  0  0  0  0  0  0  0
  151.8366  145.2530  158.0469 H   0  0  0  0  0  0  0  0  0  0  0  0
  150.9006  143.2513  159.7096 H   0  0  0  0  0  0  0  0  0  0  0  0
  153.0289  145.3350  160.3007 H   0  0  0  0  0  0  0  0  0  0  0  0
  151.3184  145.4121  160.7367 H   0  0  0  0  0  0  0  0  0  0  0  0
  153.1455  144.4024  162.5030 H   0  0  0  0  0  0  0  0  0  0  0  0
  151.5637  143.6358  162.3423 H   0  0  0  0  0  0  0  0  0  0  0  0
  152.6656  141.6255  159.5639 H   0  0  0  0  0  0  0  0  0  0  0  0
  153.9066  142.8755  159.4568 H   0  0  0  0  0  0  0  0  0  0  0  0
  1  2  1  0  0  0  0
  1 18  1  0  0  0  0
  1 19  1  0  0  0  0
  1 20  1  0  0  0  0
  2 17  2  0  0  0  0
  2  3  1  0  0  0  0
  3  4  2  0  0  0  0
  3 21  1  0  0  0  0
  4  5  1  0  0  0  0
  4  6  1  0  0  0  0
  5 22  1  0  0  0  0
  5 23  1  0  0  0  0
  5 24  1  0  0  0  0
  6  7  1  0  0  0  0
  6 17  1  0  0  0  0
  7  8  1  0  0  0  0
  7 25  1  0  0  0  0
  7 26  1  0  0  0  0
  8  9  2  0  0  0  0
  8 10  1  0  0  0  0
 10 11  1  0  0  0  0
 10 27  1  0  0  0  0
 11 12  1  0  0  0  0
 11 28  1  0  0  0  0
 11 29  1  0  0  0  0
 12 16  1  0  0  0  0
 12 13  1  0  0  0  0
 12 30  1  0  0  0  0
 13 14  1  0  0  0  0
 13 31  1  0  0  0  0
 13 32  1  0  0  0  0
 14 15  1  0  0  0  0
 14 33  1  0  0  0  0
 14 34  1  0  0  0  0
 15 16  1  0  0  0  0
 16 35  1  0  0  0  0
 16 36  1  0  0  0  0
M  END
> <s_m_source_file>
AV-unprocessed.smi

> <i_m_source_file_index>
558

> <i_lp_mmshare_version>
43012

> <i_f3d_flags>
0

> <s_epik_input>
W0NIM11jMVtjSF1jKFtDSDNdKW4objEpW0NIMl1DKD1PKVtOSF1bQ0gyXVtDQEBIXTJbQ0gyXVtDSDJdT1tDSDJdMg==

> <s_epik_cmdline>
J2VwaWtfcHl0aG9uJywgJy1waCcsICc3LjAnLCAnLXRuJywgJzgnLCAnLW1hJywgJzIwMCcsICctbWV0YWxfYmluZGluZycsICctaW1hZScsICc8aW5maWxlLm1hZT4nLCAnLW9tYWUnLCAnPG91dGZpbGUubWFlPic=

> <r_lp_tautomer_probability>
1

> <r_epik_Ionization_Penalty>
0.000376629

> <r_epik_Ionization_Penalty_Charging>
0

> <r_epik_Ionization_Penalty_Neutral>
0.000376629

> <r_epik_State_Penalty>
-0

> <r_epik_Charging_Adjusted_Penalty>
0

> <i_epik_Tot_Q>
0

> <i_epik_Tot_abs_Q>
0

> <r_epik_Metal_State_Penalty>
-0

> <b_epik_Metal_Only>
0

> <s_lp_Force_Field>
OPLS_2005

> <r_lp_Energy>
17.1643

> <b_lp_Chiralities_Consistent>
1

> <s_lp_Variant>
AV-unprocessed.smi:558-1

> <Gold.Version>
5.8.1

> <Gold.Id.Protein>
6NUR|6NUR_protein|mol2

> <Gold.PLP.Fitness>
45.2820

> <Gold.PLP.PLP>
-43.7409

> <Gold.PLP.part.hbond>
-1.4718

> <Gold.PLP.part.metal>
0.0000

> <Gold.PLP.part.buried>
-5.2013

> <Gold.PLP.part.nonpolar>
-36.8847

> <Gold.PLP.part.repulsive>
0.0479

> <Gold.PLP.ligand.clash>
0.0000

> <Gold.PLP.ligand.torsion>
0.7346

> <Gold.PLP.Chemscore.Hbond>
1.0000

> <Gold.PLP.Chemscore.CHOScore>
0.0000

> <Gold.PLP.Chemscore.Metal>
0.0000

> <Gold.Chemscore.Hbonds>
donor molecule, donor type, donor heavy atom, donor atom, acceptor molecule, acceptor atom, score
      L1  H    10    27       P1  8028  1.00

> <Gold.PLP.Chemscore.Internal.Correction>
0.0104

> <Gold.Rescore>
     Score         DG    S(hbond)    S(metal)    S(lipo)     H(rot)  DE(clash)    DE(int)     intcor
     13.63     -17.38       0.99        0.00     107.08       1.54       0.06       3.69       ----

> <Gold.Chemscore.Fitness>
13.6309

> <Gold.Chemscore.DG>
-17.3829

> <Gold.Chemscore.ZeroCoef>
-5.4800

> <Gold.Chemscore.Hbond>
0.9921

> <Gold.Chemscore.Metal>
0.0000

> <Gold.Chemscore.Lipo>
107.0810

> <Gold.Chemscore.Internal_Hbond>
0.0000

> <Gold.Chemscore.DEClash>
0.0576

> <Gold.Chemscore.DEInternal>
3.6943

> <Gold.Chemscore.Rot>
1.5387

> <Gold.Chemscore.Internal.Correction>
   9.000000E+99

> <Gold.Chemscore.Hbonds>
donor molecule, donor type, donor heavy atom, donor atom, acceptor molecule, acceptor atom, score
      L1  H    10    27       P1  8028  0.97

> <Gold.Chemscore.Hbond.Weighted>
-3.3136

> <Gold.Chemscore.Metal.Weighted>
-0.0000

> <Gold.Chemscore.Lipo.Weighted>
-12.5285

> <Gold.Chemscore.Internal_Hbond.Weighted>
0.0000

> <Gold.Chemscore.DEClash.Weighted>
0.0576

> <Gold.Chemscore.DEInternal.Weighted>
3.6943

> <Gold.Chemscore.Rot.Weighted>
3.9392

> <Gold.Chemscore.Internal.Correction.Weighted>
   9.000000E+99

> <Gold.Protein.RotatedTorsions>
[ 6907 6896 6895 6894 ] final -133.21 input  -60.11 | X-H torsion
[ 7974 7965 7964 7962 ] final  120.20 input  175.53 | X-H torsion
[ 8008 7997 7996 7995 ] final  -34.17 input   59.86 | X-H torsion
[ 10167 10162 10161 10158 ] final   74.96 input  -65.29 | X-H torsion
[ 10718 10713 10712 10709 ] final  -83.91 input   66.30 | X-H torsion
[ 10763 10752 10751 10750 ] final -127.47 input  -60.55 | X-H torsion
[ 11005 11000 10999 10996 ] final   82.00 input  -57.11 | X-H torsion

> <Gold.Protein.ActiveResidues>
 VAL166  LYS551  ARG553  GLY616  TRP617  ASP618  TYR619  PRO620  LYS621  CYS622 
 ASP623  PHE694  ASN695  SER759  ASP760  ASP761  ALA762  ILE779  LEU786  VAL792 
 PHE793  MET794  SER795  GLU796  ALA797  LYS798  CYS799  TRP800  GLU811  SER814 

> <Gold.Protein.RotatedAtoms>
  150.9713  133.6341  159.2737 H   0  0  0  0  0  0  0  0  0  0  0  0  # atno 6907 bound_to 6896
  151.3629  135.0906  159.9450 H   0  0  0  0  0  0  0  0  0  0  0  0  # atno 6908 bound_to 6896
  152.5184  133.9283  159.7623 H   0  0  0  0  0  0  0  0  0  0  0  0  # atno 6909 bound_to 6896
  145.1340  139.3310  143.4650 H   0  0  0  0  0  0  0  0  0  0  0  0  # atno 7974 bound_to 7965
  154.4128  140.1691  156.2007 H   0  0  0  0  0  0  0  0  0  0  0  0  # atno 8008 bound_to 7997
  155.9526  140.3399  155.6398 H   0  0  0  0  0  0  0  0  0  0  0  0  # atno 8009 bound_to 7997
  155.6850  140.0727  157.2461 H   0  0  0  0  0  0  0  0  0  0  0  0  # atno 8010 bound_to 7997
  140.0081  144.5635  150.7681 H   0  0  0  0  0  0  0  0  0  0  0  0  # atno 10167 bound_to 10162
  156.0012  130.4681  150.4330 H   0  0  0  0  0  0  0  0  0  0  0  0  # atno 10718 bound_to 10713
  154.8752  135.3961  154.3599 H   0  0  0  0  0  0  0  0  0  0  0  0  # atno 10763 bound_to 10752
  153.4373  135.7026  153.6197 H   0  0  0  0  0  0  0  0  0  0  0  0  # atno 10764 bound_to 10752
  153.4793  135.3773  155.2402 H   0  0  0  0  0  0  0  0  0  0  0  0  # atno 10765 bound_to 10752
  139.9078  134.8039  156.2116 H   0  0  0  0  0  0  0  0  0  0  0  0  # atno 11005 bound_to 11000
  146.3511  140.1350  142.8596 LP  0  0  0  0  0  0  0  0  0  0  0  0  # atno 17320 bound_to 7965
  145.0605  140.9084  143.4942 LP  0  0  0  0  0  0  0  0  0  0  0  0  # atno 17321 bound_to 7965
  140.7392  143.2788  151.3660 LP  0  0  0  0  0  0  0  0  0  0  0  0  # atno 17342 bound_to 10162
  139.6224  144.0880  152.2403 LP  0  0  0  0  0  0  0  0  0  0  0  0  # atno 17343 bound_to 10162
  157.2377  131.0518  151.2455 LP  0  0  0  0  0  0  0  0  0  0  0  0  # atno 17370 bound_to 10713
  157.3650  130.7151  149.6527 LP  0  0  0  0  0  0  0  0  0  0  0  0  # atno 17371 bound_to 10713
  141.0462  133.6912  156.1687 LP  0  0  0  0  0  0  0  0  0  0  0  0  # atno 17394 bound_to 11000
  140.6881  134.4696  157.5589 LP  0  0  0  0  0  0  0  0  0  0  0  0  # atno 17395 bound_to 11000

$$$$
