AV-unprocessed.smi:2146|AV-procd|sdf|8740|dock4
  -GOLD-   2272011513D 1   1.00000     0.00000
 Structure written by MMmdl.
 45 46  0  0  0  0  0  0  0  0  2 V2000
  147.2453  139.2079  153.8839 C   0  0  0  0  0  0  0  0  0  0  0  0
  147.2786  140.7392  153.6515 C   0  0  2  0  0  0  0  0  0  0  0  0
  148.6069  141.3323  154.1867 C   0  0  0  0  0  0  0  0  0  0  0  0
  149.0893  140.6293  155.3702 N   0  0  0  0  0  0  0  0  0  0  0  0
  150.3568  140.2336  155.5545 C   0  0  0  0  0  0  0  0  0  0  0  0
  151.2446  140.4193  154.7208 O   0  0  0  0  0  0  0  0  0  0  0  0
  150.6464  139.5174  156.8822 C   0  0  0  0  0  0  0  0  0  0  0  0
  151.6235  140.2170  157.7340 N   0  0  0  0  0  0  0  0  0  0  0  0
  151.3232  141.5457  158.0931 C   0  0  0  0  0  0  0  0  0  0  0  0
  152.1258  142.2936  158.8749 C   0  0  0  0  0  0  0  0  0  0  0  0
  151.8028  143.7439  159.1996 C   0  0  0  0  0  0  0  0  0  0  0  0
  152.6006  144.5746  158.5281 F   0  0  0  0  0  0  0  0  0  0  0  0
  150.5387  144.0372  158.8915 F   0  0  0  0  0  0  0  0  0  0  0  0
  151.9744  143.9658  160.5020 F   0  0  0  0  0  0  0  0  0  0  0  0
  153.3577  141.6703  159.3171 C   0  0  0  0  0  0  0  0  0  0  0  0
  153.6628  140.4024  158.9785 C   0  0  0  0  0  0  0  0  0  0  0  0
  152.7683  139.5944  158.1465 C   0  0  0  0  0  0  0  0  0  0  0  0
  153.0311  138.4315  157.8393 O   0  0  0  0  0  0  0  0  0  0  0  0
  146.1024  141.4541  154.2504 N   0  3  0  0  0  0  0  0  0  0  0  0
  145.8157  141.0213  155.6464 C   0  0  0  0  0  0  0  0  0  0  0  0
  144.5610  141.7170  156.1988 C   0  0  0  0  0  0  0  0  0  0  0  0
  144.7399  143.1240  156.1483 O   0  0  0  0  0  0  0  0  0  0  0  0
  144.9076  143.5774  154.8140 C   0  0  0  0  0  0  0  0  0  0  0  0
  146.1660  142.9418  154.1977 C   0  0  0  0  0  0  0  0  0  0  0  0
  148.1250  138.7132  153.4730 H   0  0  0  0  0  0  0  0  0  0  0  0
  146.3934  138.7378  153.3926 H   0  0  0  0  0  0  0  0  0  0  0  0
  147.2038  138.9672  154.9468 H   0  0  0  0  0  0  0  0  0  0  0  0
  147.2429  140.8946  152.5719 H   0  0  0  0  0  0  0  0  0  0  0  0
  149.3949  141.2848  153.4367 H   0  0  0  0  0  0  0  0  0  0  0  0
  148.4708  142.3866  154.4336 H   0  0  0  0  0  0  0  0  0  0  0  0
  148.4175  140.4380  156.1000 H   0  0  0  0  0  0  0  0  0  0  0  0
  149.7066  139.3795  157.4202 H   0  0  0  0  0  0  0  0  0  0  0  0
  150.9944  138.5078  156.6585 H   0  0  0  0  0  0  0  0  0  0  0  0
  150.3925  141.9200  157.6920 H   0  0  0  0  0  0  0  0  0  0  0  0
  154.0457  142.2275  159.9358 H   0  0  0  0  0  0  0  0  0  0  0  0
  154.5879  139.9690  159.3293 H   0  0  0  0  0  0  0  0  0  0  0  0
  145.6588  139.9463  155.7050 H   0  0  0  0  0  0  0  0  0  0  0  0
  146.6721  141.2503  156.2824 H   0  0  0  0  0  0  0  0  0  0  0  0
  143.6718  141.4255  155.6370 H   0  0  0  0  0  0  0  0  0  0  0  0
  144.3939  141.4214  157.2347 H   0  0  0  0  0  0  0  0  0  0  0  0
  144.0217  143.3413  154.2220 H   0  0  0  0  0  0  0  0  0  0  0  0
  145.0028  144.6634  154.8217 H   0  0  0  0  0  0  0  0  0  0  0  0
  147.0569  143.2893  154.7234 H   0  0  0  0  0  0  0  0  0  0  0  0
  146.2337  143.2929  153.1687 H   0  0  0  0  0  0  0  0  0  0  0  0
  145.3010  141.1946  153.6929 H   0  0  0  0  0  0  0  0  0  0  0  0
  1  2  1  0  0  0  0
  1 25  1  0  0  0  0
  1 26  1  0  0  0  0
  1 27  1  0  0  0  0
  2  3  1  0  0  0  0
  2 19  1  0  0  0  0
  2 28  1  0  0  0  0
  3  4  1  0  0  0  0
  3 29  1  0  0  0  0
  3 30  1  0  0  0  0
  4  5  1  0  0  0  0
  4 31  1  0  0  0  0
  5  6  2  0  0  0  0
  5  7  1  0  0  0  0
  7  8  1  0  0  0  0
  7 32  1  0  0  0  0
  7 33  1  0  0  0  0
  8 17  1  0  0  0  0
  8  9  1  0  0  0  0
  9 10  2  0  0  0  0
  9 34  1  0  0  0  0
 10 11  1  0  0  0  0
 10 15  1  0  0  0  0
 11 12  1  0  0  0  0
 11 13  1  0  0  0  0
 11 14  1  0  0  0  0
 15 16  2  0  0  0  0
 15 35  1  0  0  0  0
 16 17  1  0  0  0  0
 16 36  1  0  0  0  0
 17 18  2  0  0  0  0
 19 24  1  0  0  0  0
 19 20  1  0  0  0  0
 19 45  1  0  0  0  0
 20 21  1  0  0  0  0
 20 37  1  0  0  0  0
 20 38  1  0  0  0  0
 21 22  1  0  0  0  0
 21 39  1  0  0  0  0
 21 40  1  0  0  0  0
 22 23  1  0  0  0  0
 23 24  1  0  0  0  0
 23 41  1  0  0  0  0
 23 42  1  0  0  0  0
 24 43  1  0  0  0  0
 24 44  1  0  0  0  0
M  CHG  1  19   1
M  END
> <s_m_source_file>
AV-unprocessed.smi

> <i_m_source_file_index>
2146

> <i_lp_mmshare_version>
43012

> <i_f3d_flags>
0

> <s_epik_input>
W0NIMl0xW0NIMl1PW0NIMl1bQ0gyXU4xW0NASF0oW0NIM10pW0NIMl1bTkhdQyg9TylbQ0gyXW4yW2NIXWMoQyhGKShGKUYpW2NIXVtjSF1jMj1P

> <s_epik_cmdline>
J2VwaWtfcHl0aG9uJywgJy1waCcsICc3LjAnLCAnLXRuJywgJzgnLCAnLW1hJywgJzIwMCcsICctbWV0YWxfYmluZGluZycsICctaW1hZScsICc8aW5maWxlLm1hZT4nLCAnLW9tYWUnLCAnPG91dGZpbGUubWFlPic=

> <r_lp_tautomer_probability>
1

> <r_epik_Ionization_Penalty>
0.656654

> <r_epik_Ionization_Penalty_Charging>
0.656653

> <r_epik_Ionization_Penalty_Neutral>
9.12373e-08

> <r_epik_State_Penalty>
0.675641

> <r_epik_Charging_Adjusted_Penalty>
1.33229

> <i_epik_Tot_Q>
1

> <i_epik_Tot_abs_Q>
1

> <r_epik_Metal_State_Penalty>
0.675692

> <b_epik_Metal_Only>
0

> <s_lp_Force_Field>
OPLS_2005

> <r_lp_Energy>
33.6044

> <b_lp_Chiralities_Consistent>
1

> <s_lp_Variant>
AV-unprocessed.smi:2146-3

> <Gold.Version>
5.8.1

> <Gold.Id.Protein>
6NUR|6NUR_protein|mol2

> <Gold.PLP.Fitness>
54.6660

> <Gold.PLP.PLP>
-48.4219

> <Gold.PLP.part.hbond>
-1.9417

> <Gold.PLP.part.metal>
0.0000

> <Gold.PLP.part.buried>
-7.6941

> <Gold.PLP.part.nonpolar>
-40.6785

> <Gold.PLP.part.repulsive>
0.3031

> <Gold.PLP.ligand.clash>
0.6761

> <Gold.PLP.ligand.torsion>
1.0153

> <Gold.PLP.Chemscore.Hbond>
2.9500

> <Gold.PLP.Chemscore.CHOScore>
0.0000

> <Gold.PLP.Chemscore.Metal>
0.0000

> <Gold.Chemscore.Hbonds>
donor molecule, donor type, donor heavy atom, donor atom, acceptor molecule, acceptor atom, score
      L1  H    19    45       P1 10175  1.50
      P1  H  7989  7998       L1     6  0.57

> <Gold.PLP.Chemscore.Internal.Correction>
0.1009

> <Gold.Rescore>
     Score         DG    S(hbond)    S(metal)    S(lipo)     H(rot)  DE(clash)    DE(int)     intcor
     15.38     -16.19       1.82        0.00      87.39       2.18       0.02       0.78       ----

> <Gold.Chemscore.Fitness>
15.3840

> <Gold.Chemscore.DG>
-16.1855

> <Gold.Chemscore.ZeroCoef>
-5.4800

> <Gold.Chemscore.Hbond>
1.8154

> <Gold.Chemscore.Metal>
0.0000

> <Gold.Chemscore.Lipo>
87.3873

> <Gold.Chemscore.Internal_Hbond>
0.0000

> <Gold.Chemscore.DEClash>
0.0184

> <Gold.Chemscore.DEInternal>
0.7831

> <Gold.Chemscore.Rot>
2.1805

> <Gold.Chemscore.Internal.Correction>
   9.000000E+99

> <Gold.Chemscore.Hbonds>
donor molecule, donor type, donor heavy atom, donor atom, acceptor molecule, acceptor atom, score
      L1  H    19    45       P1 10175  0.36
      P1  H  7989  7998       L1     6  0.55

> <Gold.Chemscore.Hbond.Weighted>
-6.0634

> <Gold.Chemscore.Metal.Weighted>
-0.0000

> <Gold.Chemscore.Lipo.Weighted>
-10.2243

> <Gold.Chemscore.Internal_Hbond.Weighted>
0.0000

> <Gold.Chemscore.DEClash.Weighted>
0.0184

> <Gold.Chemscore.DEInternal.Weighted>
0.7831

> <Gold.Chemscore.Rot.Weighted>
5.5822

> <Gold.Chemscore.Internal.Correction.Weighted>
   9.000000E+99

> <Gold.Protein.RotatedTorsions>
[ 6907 6896 6895 6894 ] final  -11.90 input  -60.11 | X-H torsion
[ 7974 7965 7964 7962 ] final   45.81 input  175.53 | X-H torsion
[ 8008 7997 7996 7995 ] final  -89.71 input   59.86 | X-H torsion
[ 10167 10162 10161 10158 ] final -102.68 input  -65.29 | X-H torsion
[ 10718 10713 10712 10709 ] final    0.70 input   66.30 | X-H torsion
[ 10763 10752 10751 10750 ] final  111.83 input  -60.55 | X-H torsion
[ 11005 11000 10999 10996 ] final   55.72 input  -57.11 | X-H torsion

> <Gold.Protein.ActiveResidues>
 VAL166  LYS551  ARG553  GLY616  TRP617  ASP618  TYR619  PRO620  LYS621  CYS622 
 ASP623  PHE694  ASN695  SER759  ASP760  ASP761  ALA762  ILE779  LEU786  VAL792 
 PHE793  MET794  SER795  GLU796  ALA797  LYS798  CYS799  TRP800  GLU811  SER814 

> <Gold.Protein.RotatedAtoms>
  151.3789  135.0936  159.9489 H   0  0  0  0  0  0  0  0  0  0  0  0  # atno 6907 bound_to 6896
  152.5114  133.9091  159.7489 H   0  0  0  0  0  0  0  0  0  0  0  0  # atno 6908 bound_to 6896
  150.9520  133.6483  159.2799 H   0  0  0  0  0  0  0  0  0  0  0  0  # atno 6909 bound_to 6896
  146.0446  139.4923  142.9756 H   0  0  0  0  0  0  0  0  0  0  0  0  # atno 7974 bound_to 7965
  154.6899  140.0538  157.0352 H   0  0  0  0  0  0  0  0  0  0  0  0  # atno 8008 bound_to 7997
  155.0832  140.3211  155.4576 H   0  0  0  0  0  0  0  0  0  0  0  0  # atno 8009 bound_to 7997
  156.2724  140.2061  156.5960 H   0  0  0  0  0  0  0  0  0  0  0  0  # atno 8010 bound_to 7997
  140.2281  143.3627  152.0911 H   0  0  0  0  0  0  0  0  0  0  0  0  # atno 10167 bound_to 10162
  156.8372  130.5508  149.5681 H   0  0  0  0  0  0  0  0  0  0  0  0  # atno 10718 bound_to 10713
  153.4689  135.3705  155.2380 H   0  0  0  0  0  0  0  0  0  0  0  0  # atno 10763 bound_to 10752
  154.8757  135.3927  154.3835 H   0  0  0  0  0  0  0  0  0  0  0  0  # atno 10764 bound_to 10752
  153.4420  135.7084  153.6227 H   0  0  0  0  0  0  0  0  0  0  0  0  # atno 10765 bound_to 10752
  140.0585  134.5636  155.9179 H   0  0  0  0  0  0  0  0  0  0  0  0  # atno 11005 bound_to 11000
  145.6827  141.0186  143.1598 LP  0  0  0  0  0  0  0  0  0  0  0  0  # atno 17320 bound_to 7965
  144.7091  139.8440  143.7420 LP  0  0  0  0  0  0  0  0  0  0  0  0  # atno 17321 bound_to 7965
  139.5120  144.6909  151.5761 LP  0  0  0  0  0  0  0  0  0  0  0  0  # atno 17342 bound_to 10162
  140.6206  143.9266  150.6523 LP  0  0  0  0  0  0  0  0  0  0  0  0  # atno 17343 bound_to 10162
  156.0901  130.5889  150.9717 LP  0  0  0  0  0  0  0  0  0  0  0  0  # atno 17370 bound_to 10713
  157.6375  131.0914  150.8319 LP  0  0  0  0  0  0  0  0  0  0  0  0  # atno 17371 bound_to 10713
  141.1963  133.6591  156.5683 LP  0  0  0  0  0  0  0  0  0  0  0  0  # atno 17394 bound_to 11000
  140.3807  134.7526  157.4659 LP  0  0  0  0  0  0  0  0  0  0  0  0  # atno 17395 bound_to 11000

$$$$
