#       Name:                AV-unprocessed.smi:1434
#       Creating user name   scv26
#       Creation time:       Fri Mar 27 05:51:53 2020


#       File generated by GOLD software.
#

@<TRIPOS>MOLECULE
AV-unprocessed.smi:1434
    48    49     1
SMALL
NO_CHARGES


@<TRIPOS>ATOM
      1 ****        -3.3713   4.0009   0.9174 C.3            1 S1                 0.0000
      2 ****        -2.0537   2.7261   1.0374 S.o2           1 S1                 0.0000
      3 ****        -0.7442   3.3921   1.1011 O.2            1 S1                 0.0000
      4 ****        -2.4354   1.7501   2.0695 O.2            1 S1                 0.0000
      5 ****        -2.1568   1.9344  -0.4906 N.3            1 S1                 0.0000
      6 ****        -1.3969   0.6984  -0.6704 C.3            1 S1                 0.0000
      7 ****        -2.3378  -0.5249  -0.6692 C.3            1 S1                 0.0000
      8 ****        -1.5824  -1.8246  -1.0158 C.3            1 S1                 0.0000
      9 ****        -0.7091  -1.6441  -2.2727 C.3            1 S1                 0.0000
     10 ****         0.1853  -0.4940  -2.0624 N.am           1 S1                 0.0000
     11 ****         1.4995  -0.5464  -1.7323 C.2            1 S1                 0.0000
     12 ****         2.1967   0.4590  -1.5901 O.2            1 S1                 0.0000
     13 ****         1.9634  -1.7830  -1.4773 N.am           1 S1                 0.0000
     14 ****         3.2576  -2.0929  -0.8723 C.3            1 S1                 0.0000
     15 ****         3.1455  -2.3492   0.6459 C.3            1 S1                 0.0000
     16 ****         2.4398  -1.2404   1.4118 C.ar           1 S1                 0.0000
     17 ****         1.1190  -1.4147   1.8794 C.ar           1 S1                 0.0000
     18 ****         0.4939  -0.3416   2.5431 C.ar           1 S1                 0.0000
     19 ****         1.2089   0.8590   2.7127 C.ar           1 S1                 0.0000
     20 ****         2.5265   0.9296   2.2184 C.ar           1 S1                 0.0000
     21 ****         3.1375  -0.0954   1.5855 N.ar           1 S1                 0.0000
     22 ****        -0.5742   0.7574  -1.9711 C.3            1 S1                 0.0000
     23 ****        -3.4065   4.5719   1.8449 H              1 S1                 0.0000
     24 ****        -4.3336   3.5166   0.7532 H              1 S1                 0.0000
     25 ****        -3.1548   4.6726   0.0871 H              1 S1                 0.0000
     26 ****        -1.9850   2.5861  -1.2558 H              1 S1                 0.0000
     27 ****        -0.6991   0.6015   0.1620 H              1 S1                 0.0000
     28 ****        -2.8299  -0.6255   0.2991 H              1 S1                 0.0000
     29 ****        -3.1297  -0.3718  -1.4037 H              1 S1                 0.0000
     30 ****        -0.9510  -2.1125  -0.1750 H              1 S1                 0.0000
     31 ****        -2.2906  -2.6404  -1.1626 H              1 S1                 0.0000
     32 ****        -0.1779  -2.5671  -2.5068 H              1 S1                 0.0000
     33 ****        -1.3433  -1.4508  -3.1391 H              1 S1                 0.0000
     34 ****         1.3307  -2.5575  -1.6152 H              1 S1                 0.0000
     35 ****         3.6666  -2.9753  -1.3641 H              1 S1                 0.0000
     36 ****         3.9704  -1.2879  -1.0581 H              1 S1                 0.0000
     37 ****         2.6114  -3.2852   0.8137 H              1 S1                 0.0000
     38 ****         4.1406  -2.4923   1.0688 H              1 S1                 0.0000
     39 ****         0.5905  -2.3432   1.7223 H              1 S1                 0.0000
     40 ****        -0.5195  -0.4338   2.9052 H              1 S1                 0.0000
     41 ****         0.7576   1.7059   3.2082 H              1 S1                 0.0000
     42 ****         3.1051   1.8340   2.3332 H              1 S1                 0.0000
     43 ****        -1.2288   0.8588  -2.8382 H              1 S1                 0.0000
     44 ****         0.0662   1.6410  -1.9758 H              1 S1                 0.0000
     45 ****        -3.1040   1.6141  -0.5070 LP             1 S1                 0.0000
     46 ****         1.7973   1.3667  -1.7189 LP             1 S1                 0.0000
     47 ****         3.1621   0.3675  -1.3460 LP             1 S1                 0.0000
     48 ****         4.0775  -0.0100   1.2553 LP             1 S1                 0.0000
@<TRIPOS>BOND
    1    1    2 1     
    2    1   23 1     
    3    1   24 1     
    4    1   25 1     
    5    2    3 2     
    6    2    4 2     
    7    2    5 1     
    8    5    6 1     
    9    5   26 1     
   10    6   22 1     
   11    6    7 1     
   12    6   27 1     
   13    7    8 1     
   14    7   28 1     
   15    7   29 1     
   16    8    9 1     
   17    8   30 1     
   18    8   31 1     
   19    9   10 1     
   20    9   32 1     
   21    9   33 1     
   22   10   11 am    
   23   10   22 1     
   24   11   12 2     
   25   11   13 am    
   26   13   14 1     
   27   13   34 1     
   28   14   15 1     
   29   14   35 1     
   30   14   36 1     
   31   15   16 1     
   32   15   37 1     
   33   15   38 1     
   34   16   21 ar    
   35   16   17 ar    
   36   17   18 ar    
   37   17   39 1     
   38   18   19 ar    
   39   18   40 1     
   40   19   20 ar    
   41   19   41 1     
   42   20   21 ar    
   43   20   42 1     
   44   22   43 1     
   45   22   44 1     
   46    5   45 1     
   47   12   46 1     
   48   12   47 1     
   49   21   48 1     
@<TRIPOS>SUBSTRUCTURE
      1 S1             1
@<TRIPOS>SET
LONE_PAIRS      STATIC     ATOMS    <user>   **** ""
6 3 4 45 46 47 48
DONOR_HYDROGENS      STATIC     ATOMS    <user>   **** ""
2 26 34
ATOM$BLUE        STATIC     ATOMS    COLORGROUP SYSTEM
6 3 4 45 46 47 48
ATOM$RED        STATIC     ATOMS    COLORGROUP SYSTEM
2 26 34
