AV-unprocessed.smi:1464|AV-procd|sdf|5946|dock6
  -GOLD-   22720 6 23D 1   1.00000     0.00000
 Structure written by MMmdl.
 41 42  0  0  0  0  0  0  0  0  1 V2000
  146.9790  134.0490  157.0984 C   0  0  0  0  0  0  0  0  0  0  0  0
  148.5182  133.9603  157.0486 C   0  0  1  0  0  0  0  0  0  0  0  0
  148.9916  132.7992  156.1504 C   0  0  0  0  0  0  0  0  0  0  0  0
  148.7856  133.0996  154.6576 C   0  0  0  0  0  0  0  0  0  0  0  0
  149.4816  134.4068  154.2552 C   0  0  0  0  0  0  0  0  0  0  0  0
  149.0288  135.5946  155.1303 C   0  0  2  0  0  0  0  0  0  0  0  0
  149.7826  136.7905  154.7586 N   0  0  0  0  0  0  0  0  0  0  0  0
  151.0806  137.0056  155.0213 C   0  0  0  0  0  0  0  0  0  0  0  0
  151.7869  136.2052  155.6364 O   0  0  0  0  0  0  0  0  0  0  0  0
  151.6513  138.3427  154.5267 C   0  0  0  0  0  0  0  0  0  0  0  0
  151.3173  139.4785  155.3981 N   0  0  0  0  0  0  0  0  0  0  0  0
  150.5601  140.4626  154.7808 N   0  0  0  0  0  0  0  0  0  0  0  0
  150.1886  141.5031  155.4470 C   0  0  0  0  0  0  0  0  0  0  0  0
  149.4359  142.4514  154.7985 O   0  0  0  0  0  0  0  0  0  0  0  0
  150.5520  141.6712  156.8371 C   0  0  0  0  0  0  0  0  0  0  0  0
  151.2951  140.7099  157.4280 C   0  0  0  0  0  0  0  0  0  0  0  0
  151.7325  139.5162  156.7017 C   0  0  0  0  0  0  0  0  0  0  0  0
  152.4106  138.6259  157.2144 O   0  0  0  0  0  0  0  0  0  0  0  0
  149.2187  135.2838  156.6379 C   0  0  1  0  0  0  0  0  0  0  0  0
  148.8243  136.4637  157.5487 C   0  0  0  0  0  0  0  0  0  0  0  0
  149.3965  143.1884  155.3881 H   0  0  0  0  0  0  0  0  0  0  0  0
  146.5512  134.3443  156.1409 H   0  0  0  0  0  0  0  0  0  0  0  0
  146.6431  134.7674  157.8460 H   0  0  0  0  0  0  0  0  0  0  0  0
  146.5439  133.0862  157.3678 H   0  0  0  0  0  0  0  0  0  0  0  0
  148.8416  133.7226  158.0631 H   0  0  0  0  0  0  0  0  0  0  0  0
  150.0513  132.6145  156.3316 H   0  0  0  0  0  0  0  0  0  0  0  0
  148.4759  131.8767  156.4198 H   0  0  0  0  0  0  0  0  0  0  0  0
  149.1746  132.2761  154.0581 H   0  0  0  0  0  0  0  0  0  0  0  0
  147.7211  133.1642  154.4314 H   0  0  0  0  0  0  0  0  0  0  0  0
  150.5616  134.2780  154.3409 H   0  0  0  0  0  0  0  0  0  0  0  0
  149.2802  134.6151  153.2035 H   0  0  0  0  0  0  0  0  0  0  0  0
  147.9688  135.7802  154.9496 H   0  0  0  0  0  0  0  0  0  0  0  0
  149.2785  137.5048  154.2535 H   0  0  0  0  0  0  0  0  0  0  0  0
  152.7351  138.2612  154.4223 H   0  0  0  0  0  0  0  0  0  0  0  0
  151.2727  138.5172  153.5180 H   0  0  0  0  0  0  0  0  0  0  0  0
  150.2335  142.5476  157.3821 H   0  0  0  0  0  0  0  0  0  0  0  0
  151.5742  140.8224  158.4654 H   0  0  0  0  0  0  0  0  0  0  0  0
  150.2867  135.1246  156.7968 H   0  0  0  0  0  0  0  0  0  0  0  0
  147.7966  136.7814  157.3719 H   0  0  0  0  0  0  0  0  0  0  0  0
  149.4656  137.3295  157.3826 H   0  0  0  0  0  0  0  0  0  0  0  0
  148.9156  136.1946  158.6012 H   0  0  0  0  0  0  0  0  0  0  0  0
  1  2  1  0  0  0  0
  1 22  1  0  0  0  0
  1 23  1  0  0  0  0
  1 24  1  0  0  0  0
  2 19  1  0  0  0  0
  2  3  1  0  0  0  0
  2 25  1  0  0  0  0
  3  4  1  0  0  0  0
  3 26  1  0  0  0  0
  3 27  1  0  0  0  0
  4  5  1  0  0  0  0
  4 28  1  0  0  0  0
  4 29  1  0  0  0  0
  5  6  1  0  0  0  0
  5 30  1  0  0  0  0
  5 31  1  0  0  0  0
  6  7  1  0  0  0  0
  6 19  1  0  0  0  0
  6 32  1  0  0  0  0
  7  8  1  0  0  0  0
  7 33  1  0  0  0  0
  8  9  2  0  0  0  0
  8 10  1  0  0  0  0
 10 34  1  0  0  0  0
 10 35  1  0  0  0  0
 10 11  1  0  0  0  0
 11 12  1  0  0  0  0
 11 17  1  0  0  0  0
 12 13  2  0  0  0  0
 13 14  1  0  0  0  0
 13 15  1  0  0  0  0
 14 21  1  0  0  0  0
 15 36  1  0  0  0  0
 15 16  2  0  0  0  0
 16 37  1  0  0  0  0
 16 17  1  0  0  0  0
 17 18  2  0  0  0  0
 19 20  1  0  0  0  0
 19 38  1  0  0  0  0
 20 39  1  0  0  0  0
 20 40  1  0  0  0  0
 20 41  1  0  0  0  0
M  END
> <s_m_source_file>
AV-unprocessed.smi

> <i_m_source_file_index>
1464

> <i_lp_mmshare_version>
43012

> <i_f3d_flags>
0

> <s_epik_input>
W0NIM11bQ0BASF0xW0NIMl1bQ0gyXVtDSDJdW0NASF0oW0NASF0xW0NIM10pW05IXUMoPU8pW0NIMl1uMltuSF1jKD1PKVtjSF1bY0hdYzI9Tw==

> <s_epik_cmdline>
J2VwaWtfcHl0aG9uJywgJy1waCcsICc3LjAnLCAnLXRuJywgJzgnLCAnLW1hJywgJzIwMCcsICctbWV0YWxfYmluZGluZycsICctaW1hZScsICc8aW5maWxlLm1hZT4nLCAnLW9tYWUnLCAnPG91dGZpbGUubWFlPic=

> <r_lp_tautomer_probability>
0.9996

> <r_epik_Ionization_Penalty>
2.10335

> <r_epik_Ionization_Penalty_Charging>
3.98079e-08

> <r_epik_Ionization_Penalty_Neutral>
2.10335

> <r_epik_State_Penalty>
1.67957

> <r_epik_Charging_Adjusted_Penalty>
1.67957

> <i_epik_Tot_Q>
0

> <i_epik_Tot_abs_Q>
0

> <r_epik_Metal_State_Penalty>
1.67957

> <b_epik_Metal_Only>
0

> <s_lp_Force_Field>
OPLS_2005

> <r_lp_Energy>
23.4663

> <b_lp_Chiralities_Consistent>
1

> <s_lp_Variant>
AV-unprocessed.smi:1464-12

> <Gold.Version>
5.8.1

> <Gold.Id.Protein>
6NUR|6NUR_protein|mol2

> <Gold.PLP.Fitness>
38.0211

> <Gold.PLP.PLP>
-29.8661

> <Gold.PLP.part.hbond>
-4.9649

> <Gold.PLP.part.metal>
0.0000

> <Gold.PLP.part.buried>
-3.8159

> <Gold.PLP.part.nonpolar>
-21.4636

> <Gold.PLP.part.repulsive>
0.1760

> <Gold.PLP.ligand.clash>
0.0000

> <Gold.PLP.ligand.torsion>
0.3764

> <Gold.PLP.Chemscore.Hbond>
2.9664

> <Gold.PLP.Chemscore.CHOScore>
0.0000

> <Gold.PLP.Chemscore.Metal>
0.0000

> <Gold.Chemscore.Hbonds>
donor molecule, donor type, donor heavy atom, donor atom, acceptor molecule, acceptor atom, score
      L1  H    14    21       P1  8028  0.94
      P1  H  7989  7998       L1    12  1.00
      P1  H 10752 10764       L1     9  1.00

> <Gold.PLP.Chemscore.Internal.Correction>
0.0087

> <Gold.Rescore>
     Score         DG    S(hbond)    S(metal)    S(lipo)     H(rot)  DE(clash)    DE(int)     intcor
      9.06     -12.65       2.24        0.00      45.96       2.22       0.01       3.59       ----

> <Gold.Chemscore.Fitness>
9.0556

> <Gold.Chemscore.DG>
-12.6516

> <Gold.Chemscore.ZeroCoef>
-5.4800

> <Gold.Chemscore.Hbond>
2.2406

> <Gold.Chemscore.Metal>
0.0000

> <Gold.Chemscore.Lipo>
45.9611

> <Gold.Chemscore.Internal_Hbond>
0.0000

> <Gold.Chemscore.DEClash>
0.0058

> <Gold.Chemscore.DEInternal>
3.5902

> <Gold.Chemscore.Rot>
2.2224

> <Gold.Chemscore.Internal.Correction>
   9.000000E+99

> <Gold.Chemscore.Hbonds>
donor molecule, donor type, donor heavy atom, donor atom, acceptor molecule, acceptor atom, score
      L1  H    14    21       P1  8028  0.91
      P1  H  7989  7998       L1    12  0.19
      P1  H 10752 10764       L1     9  0.96

> <Gold.Chemscore.Hbond.Weighted>
-7.4835

> <Gold.Chemscore.Metal.Weighted>
-0.0000

> <Gold.Chemscore.Lipo.Weighted>
-5.3775

> <Gold.Chemscore.Internal_Hbond.Weighted>
0.0000

> <Gold.Chemscore.DEClash.Weighted>
0.0058

> <Gold.Chemscore.DEInternal.Weighted>
3.5902

> <Gold.Chemscore.Rot.Weighted>
5.6893

> <Gold.Chemscore.Internal.Correction.Weighted>
   9.000000E+99

> <Gold.Protein.RotatedTorsions>
[ 6907 6896 6895 6894 ] final  137.51 input  -60.11 | X-H torsion
[ 7974 7965 7964 7962 ] final   75.61 input  175.53 | X-H torsion
[ 8008 7997 7996 7995 ] final -127.93 input   59.86 | X-H torsion
[ 10167 10162 10161 10158 ] final   17.77 input  -65.29 | X-H torsion
[ 10718 10713 10712 10709 ] final   50.54 input   66.30 | X-H torsion
[ 10763 10752 10751 10750 ] final  -41.62 input  -60.55 | X-H torsion
[ 11005 11000 10999 10996 ] final -132.96 input  -57.11 | X-H torsion

> <Gold.Protein.ActiveResidues>
 VAL166  LYS551  ARG553  GLY616  TRP617  ASP618  TYR619  PRO620  LYS621  CYS622 
 ASP623  PHE694  ASN695  SER759  ASP760  ASP761  ALA762  ILE779  LEU786  VAL792 
 PHE793  MET794  SER795  GLU796  ALA797  LYS798  CYS799  TRP800  GLU811  SER814 

> <Gold.Protein.RotatedAtoms>
  152.2773  133.5437  159.5475 H   0  0  0  0  0  0  0  0  0  0  0  0  # atno 6907 bound_to 6896
  150.7182  134.0614  159.3841 H   0  0  0  0  0  0  0  0  0  0  0  0  # atno 6908 bound_to 6896
  151.8526  135.0552  160.0511 H   0  0  0  0  0  0  0  0  0  0  0  0  # atno 6909 bound_to 6896
  145.7134  139.2622  143.1638 H   0  0  0  0  0  0  0  0  0  0  0  0  # atno 7974 bound_to 7965
  155.2543  140.0433  157.2990 H   0  0  0  0  0  0  0  0  0  0  0  0  # atno 8008 bound_to 7997
  154.5749  140.2384  155.8106 H   0  0  0  0  0  0  0  0  0  0  0  0  # atno 8009 bound_to 7997
  156.2151  140.2987  155.9828 H   0  0  0  0  0  0  0  0  0  0  0  0  # atno 8010 bound_to 7997
  140.5702  143.9176  150.6707 H   0  0  0  0  0  0  0  0  0  0  0  0  # atno 10167 bound_to 10162
  157.4895  130.8366  149.8186 H   0  0  0  0  0  0  0  0  0  0  0  0  # atno 10718 bound_to 10713
  153.9655  135.6734  153.4746 H   0  0  0  0  0  0  0  0  0  0  0  0  # atno 10763 bound_to 10752
  153.0817  135.4920  154.8513 H   0  0  0  0  0  0  0  0  0  0  0  0  # atno 10764 bound_to 10752
  154.7248  135.3125  154.8949 H   0  0  0  0  0  0  0  0  0  0  0  0  # atno 10765 bound_to 10752
  140.9124  134.1551  157.4379 H   0  0  0  0  0  0  0  0  0  0  0  0  # atno 11005 bound_to 11000
  146.0692  140.7887  142.9696 LP  0  0  0  0  0  0  0  0  0  0  0  0  # atno 17320 bound_to 7965
  144.6936  140.3316  143.7215 LP  0  0  0  0  0  0  0  0  0  0  0  0  # atno 17321 bound_to 7965
  140.2649  143.3497  152.1290 LP  0  0  0  0  0  0  0  0  0  0  0  0  # atno 17342 bound_to 10162
  139.5113  144.6899  151.5788 LP  0  0  0  0  0  0  0  0  0  0  0  0  # atno 17343 bound_to 10162
  156.0165  130.3811  150.2094 LP  0  0  0  0  0  0  0  0  0  0  0  0  # atno 17370 bound_to 10713
  157.0282  130.9999  151.3320 LP  0  0  0  0  0  0  0  0  0  0  0  0  # atno 17371 bound_to 10713
  139.8760  134.9940  156.5675 LP  0  0  0  0  0  0  0  0  0  0  0  0  # atno 17394 bound_to 11000
  140.8093  133.8442  155.8796 LP  0  0  0  0  0  0  0  0  0  0  0  0  # atno 17395 bound_to 11000

$$$$
