AV-unprocessed.smi:1433|AV-procd|sdf|5844|dock4
  -GOLD-   22720 5513D 1   1.00000     0.00000
 Structure written by MMmdl.
 45 46  0  0  0  0  0  0  0  0  2 V2000
  145.5567  131.9114  149.8176 C   0  0  0  0  0  0  0  0  0  0  0  0
  145.6571  132.7010  151.1274 C   0  0  1  0  0  0  0  0  0  0  0  0
  146.8547  133.6779  151.1214 C   0  0  0  0  0  0  0  0  0  0  0  0
  146.8823  134.5244  152.3460 N   0  3  2  0  0  0  0  0  0  0  0  0
  147.4244  133.8327  153.5653 C   0  0  1  0  0  0  0  0  0  0  0  0
  148.7071  133.0500  153.2007 C   0  0  0  0  0  0  0  0  0  0  0  0
  147.6948  134.7972  154.7529 C   0  0  0  0  0  0  0  0  0  0  0  0
  148.6095  135.8831  154.4090 N   0  0  0  0  0  0  0  0  0  0  0  0
  148.9829  136.8792  155.2297 C   0  0  0  0  0  0  0  0  0  0  0  0
  148.5550  137.0065  156.3763 O   0  0  0  0  0  0  0  0  0  0  0  0
  149.9727  137.9043  154.6681 C   0  0  0  0  0  0  0  0  0  0  0  0
  149.4121  139.2450  154.6370 N   0  0  0  0  0  0  0  0  0  0  0  0
  148.1398  139.6331  154.2721 C   0  0  0  0  0  0  0  0  0  0  0  0
  148.0766  140.9913  154.3990 C   0  0  0  0  0  0  0  0  0  0  0  0
  149.3750  141.3488  154.8582 C   0  0  0  0  0  0  0  0  0  0  0  0
  150.1716  140.3020  155.0003 N   0  0  0  0  0  0  0  0  0  0  0  0
  145.5652  135.2054  152.4776 C   0  0  0  0  0  0  0  0  0  0  0  0
  144.4104  134.1838  152.5016 C   0  0  1  0  0  0  0  0  0  0  0  0
  143.0402  134.8634  152.5958 C   0  0  0  0  0  0  0  0  0  0  0  0
  144.4477  133.4339  151.2922 O   0  0  0  0  0  0  0  0  0  0  0  0
  146.4574  131.3220  149.6443 H   0  0  0  0  0  0  0  0  0  0  0  0
  145.4228  132.5766  148.9639 H   0  0  0  0  0  0  0  0  0  0  0  0
  144.7103  131.2246  149.8402 H   0  0  0  0  0  0  0  0  0  0  0  0
  145.7525  131.9861  151.9454 H   0  0  0  0  0  0  0  0  0  0  0  0
  147.7856  133.1333  150.9794 H   0  0  0  0  0  0  0  0  0  0  0  0
  146.7705  134.3408  150.2590 H   0  0  0  0  0  0  0  0  0  0  0  0
  146.6816  133.1138  153.9104 H   0  0  0  0  0  0  0  0  0  0  0  0
  149.0830  132.4738  154.0455 H   0  0  0  0  0  0  0  0  0  0  0  0
  149.5020  133.7263  152.8849 H   0  0  0  0  0  0  0  0  0  0  0  0
  148.5526  132.3285  152.4010 H   0  0  0  0  0  0  0  0  0  0  0  0
  146.7543  135.1860  155.1477 H   0  0  0  0  0  0  0  0  0  0  0  0
  148.1808  134.2698  155.5730 H   0  0  0  0  0  0  0  0  0  0  0  0
  149.0107  135.8640  153.4824 H   0  0  0  0  0  0  0  0  0  0  0  0
  150.8745  137.9105  155.2813 H   0  0  0  0  0  0  0  0  0  0  0  0
  150.2739  137.6230  153.6578 H   0  0  0  0  0  0  0  0  0  0  0  0
  147.3943  138.9188  153.9546 H   0  0  0  0  0  0  0  0  0  0  0  0
  147.2313  141.6322  154.1969 H   0  0  0  0  0  0  0  0  0  0  0  0
  149.7595  142.3309  155.0910 H   0  0  0  0  0  0  0  0  0  0  0  0
  145.5285  135.8809  153.3305 H   0  0  0  0  0  0  0  0  0  0  0  0
  145.4399  135.8551  151.6100 H   0  0  0  0  0  0  0  0  0  0  0  0
  144.5195  133.5073  153.3509 H   0  0  0  0  0  0  0  0  0  0  0  0
  142.9522  135.4459  153.5132 H   0  0  0  0  0  0  0  0  0  0  0  0
  142.2382  134.1248  152.5944 H   0  0  0  0  0  0  0  0  0  0  0  0
  142.8739  135.5365  151.7543 H   0  0  0  0  0  0  0  0  0  0  0  0
  147.5437  135.2658  152.1635 H   0  0  0  0  0  0  0  0  0  0  0  0
  1  2  1  0  0  0  0
  1 21  1  0  0  0  0
  1 22  1  0  0  0  0
  1 23  1  0  0  0  0
  2 20  1  0  0  0  0
  2  3  1  0  0  0  0
  2 24  1  0  0  0  0
  3  4  1  0  0  0  0
  3 25  1  0  0  0  0
  3 26  1  0  0  0  0
  4  5  1  0  0  0  0
  4 17  1  0  0  0  0
  4 45  1  0  0  0  0
  5  6  1  0  0  0  0
  5  7  1  0  0  0  0
  5 27  1  0  0  0  0
  6 28  1  0  0  0  0
  6 29  1  0  0  0  0
  6 30  1  0  0  0  0
  7  8  1  0  0  0  0
  7 31  1  0  0  0  0
  7 32  1  0  0  0  0
  8  9  1  0  0  0  0
  8 33  1  0  0  0  0
  9 10  2  0  0  0  0
  9 11  1  0  0  0  0
 11 12  1  0  0  0  0
 11 34  1  0  0  0  0
 11 35  1  0  0  0  0
 12 16  1  0  0  0  0
 12 13  1  0  0  0  0
 13 14  2  0  0  0  0
 13 36  1  0  0  0  0
 14 15  1  0  0  0  0
 14 37  1  0  0  0  0
 15 16  2  0  0  0  0
 15 38  1  0  0  0  0
 17 18  1  0  0  0  0
 17 39  1  0  0  0  0
 17 40  1  0  0  0  0
 18 19  1  0  0  0  0
 18 20  1  0  0  0  0
 18 41  1  0  0  0  0
 19 42  1  0  0  0  0
 19 43  1  0  0  0  0
 19 44  1  0  0  0  0
M  CHG  1   4   1
M  END
> <s_m_source_file>
AV-unprocessed.smi

> <i_m_source_file_index>
1433

> <i_lp_mmshare_version>
43012

> <i_f3d_flags>
0

> <s_epik_input>
W0NIM11bQ0BASF0xW0NIMl1OKFtDSDJdW0NASF0oTzEpW0NIM10pW0NASF0oW0NIM10pW0NIMl1bTkhdQyg9TylbQ0gyXW4yW2NIXVtjSF1bY0hdbjI=

> <s_epik_cmdline>
J2VwaWtfcHl0aG9uJywgJy1waCcsICc3LjAnLCAnLXRuJywgJzgnLCAnLW1hJywgJzIwMCcsICctbWV0YWxfYmluZGluZycsICctaW1hZScsICc8aW5maWxlLm1hZT4nLCAnLW9tYWUnLCAnPG91dGZpbGUubWFlPic=

> <r_lp_tautomer_probability>
1

> <r_epik_Ionization_Penalty>
0.748405

> <r_epik_Ionization_Penalty_Charging>
0.748396

> <r_epik_Ionization_Penalty_Neutral>
8.54426e-06

> <r_epik_State_Penalty>
0.775162

> <r_epik_Charging_Adjusted_Penalty>
1.52356

> <i_epik_Tot_Q>
1

> <i_epik_Tot_abs_Q>
1

> <r_epik_Metal_State_Penalty>
0.775167

> <b_epik_Metal_Only>
0

> <s_lp_Force_Field>
OPLS_2005

> <r_lp_Energy>
22.8293

> <b_lp_Chiralities_Consistent>
1

> <s_lp_Variant>
AV-unprocessed.smi:1433-10

> <Gold.Version>
5.8.1

> <Gold.Id.Protein>
6NUR|6NUR_protein|mol2

> <Gold.PLP.Fitness>
47.3312

> <Gold.PLP.PLP>
-33.1581

> <Gold.PLP.part.hbond>
-2.8440

> <Gold.PLP.part.metal>
0.0000

> <Gold.PLP.part.buried>
-4.1074

> <Gold.PLP.part.nonpolar>
-26.4037

> <Gold.PLP.part.repulsive>
0.2679

> <Gold.PLP.ligand.clash>
0.0000

> <Gold.PLP.ligand.torsion>
0.3689

> <Gold.PLP.Chemscore.Hbond>
3.9440

> <Gold.PLP.Chemscore.CHOScore>
1.0000

> <Gold.PLP.Chemscore.Metal>
0.0000

> <Gold.Chemscore.Hbonds>
donor molecule, donor type, donor heavy atom, donor atom, acceptor molecule, acceptor atom, score
      L1  H     4    45       P1  7948  2.00
      L1  H     8    33       P1  7948  1.00
      P1  H  7989  7998       L1    16  0.57
      L1  C    15    38       P1  8028  0.83

> <Gold.PLP.Chemscore.Internal.Correction>
0.0791

> <Gold.Rescore>
     Score         DG    S(hbond)    S(metal)    S(lipo)     H(rot)  DE(clash)    DE(int)     intcor
     17.83     -18.42       2.68        0.00      74.89       1.87       0.03       0.56       ----

> <Gold.Chemscore.Fitness>
17.8261

> <Gold.Chemscore.DG>
-18.4173

> <Gold.Chemscore.ZeroCoef>
-5.4800

> <Gold.Chemscore.Hbond>
2.6799

> <Gold.Chemscore.Metal>
0.0000

> <Gold.Chemscore.Lipo>
74.8939

> <Gold.Chemscore.Internal_Hbond>
0.0000

> <Gold.Chemscore.DEClash>
0.0276

> <Gold.Chemscore.DEInternal>
0.5635

> <Gold.Chemscore.Rot>
1.8657

> <Gold.Chemscore.Internal.Correction>
   9.000000E+99

> <Gold.Chemscore.Hbonds>
donor molecule, donor type, donor heavy atom, donor atom, acceptor molecule, acceptor atom, score
      L1  H     4    45       P1  7948  0.99
      L1  H     8    33       P1  7948  0.88
      P1  H  7989  7998       L1    16  0.08

> <Gold.Chemscore.Hbond.Weighted>
-8.9508

> <Gold.Chemscore.Metal.Weighted>
-0.0000

> <Gold.Chemscore.Lipo.Weighted>
-8.7626

> <Gold.Chemscore.Internal_Hbond.Weighted>
0.0000

> <Gold.Chemscore.DEClash.Weighted>
0.0276

> <Gold.Chemscore.DEInternal.Weighted>
0.5635

> <Gold.Chemscore.Rot.Weighted>
4.7761

> <Gold.Chemscore.Internal.Correction.Weighted>
   9.000000E+99

> <Gold.Protein.RotatedTorsions>
[ 6907 6896 6895 6894 ] final   58.26 input  -60.11 | X-H torsion
[ 7974 7965 7964 7962 ] final  103.48 input  175.53 | X-H torsion
[ 8008 7997 7996 7995 ] final  115.62 input   59.86 | X-H torsion
[ 10167 10162 10161 10158 ] final    3.60 input  -65.29 | X-H torsion
[ 10718 10713 10712 10709 ] final  -34.65 input   66.30 | X-H torsion
[ 10763 10752 10751 10750 ] final   93.83 input  -60.55 | X-H torsion
[ 11005 11000 10999 10996 ] final   52.95 input  -57.11 | X-H torsion

> <Gold.Protein.ActiveResidues>
 VAL166  LYS551  ARG553  GLY616  TRP617  ASP618  TYR619  PRO620  LYS621  CYS622 
 ASP623  PHE694  ASN695  SER759  ASP760  ASP761  ALA762  ILE779  LEU786  VAL792 
 PHE793  MET794  SER795  GLU796  ALA797  LYS798  CYS799  TRP800  GLU811  SER814 

> <Gold.Protein.RotatedAtoms>
  152.3808  134.6594  160.0143 H   0  0  0  0  0  0  0  0  0  0  0  0  # atno 6907 bound_to 6896
  151.6858  133.3306  159.3238 H   0  0  0  0  0  0  0  0  0  0  0  0  # atno 6908 bound_to 6896
  150.7746  134.6678  159.6419 H   0  0  0  0  0  0  0  0  0  0  0  0  # atno 6909 bound_to 6896
  145.3454  139.2452  143.3587 H   0  0  0  0  0  0  0  0  0  0  0  0  # atno 7974 bound_to 7965
  156.2392  140.2935  156.0397 H   0  0  0  0  0  0  0  0  0  0  0  0  # atno 8008 bound_to 7997
  155.2002  140.0409  157.2933 H   0  0  0  0  0  0  0  0  0  0  0  0  # atno 8009 bound_to 7997
  154.6136  140.2458  155.7645 H   0  0  0  0  0  0  0  0  0  0  0  0  # atno 8010 bound_to 7997
  140.6577  143.7384  150.7683 H   0  0  0  0  0  0  0  0  0  0  0  0  # atno 10167 bound_to 10162
  156.3481  130.4304  149.7728 H   0  0  0  0  0  0  0  0  0  0  0  0  # atno 10718 bound_to 10713
  153.2347  135.4311  155.0633 H   0  0  0  0  0  0  0  0  0  0  0  0  # atno 10763 bound_to 10752
  154.8313  135.3388  154.6736 H   0  0  0  0  0  0  0  0  0  0  0  0  # atno 10764 bound_to 10752
  153.7162  135.7020  153.5081 H   0  0  0  0  0  0  0  0  0  0  0  0  # atno 10765 bound_to 10752
  140.0807  134.5343  155.8950 H   0  0  0  0  0  0  0  0  0  0  0  0  # atno 11005 bound_to 11000
  146.2990  140.4059  142.8711 LP  0  0  0  0  0  0  0  0  0  0  0  0  # atno 17320 bound_to 7965
  144.8758  140.7335  143.6018 LP  0  0  0  0  0  0  0  0  0  0  0  0  # atno 17321 bound_to 7965
  140.1047  143.4755  152.2405 LP  0  0  0  0  0  0  0  0  0  0  0  0  # atno 17342 bound_to 10162
  139.5804  144.7507  151.3655 LP  0  0  0  0  0  0  0  0  0  0  0  0  # atno 17343 bound_to 10162
  156.4939  130.8098  151.3106 LP  0  0  0  0  0  0  0  0  0  0  0  0  # atno 17370 bound_to 10713
  157.7457  130.9966  150.2787 LP  0  0  0  0  0  0  0  0  0  0  0  0  # atno 17371 bound_to 10713
  141.2045  133.6640  156.6127 LP  0  0  0  0  0  0  0  0  0  0  0  0  # atno 17394 bound_to 11000
  140.3492  134.7783  157.4455 LP  0  0  0  0  0  0  0  0  0  0  0  0  # atno 17395 bound_to 11000

$$$$
