#       Name:                AV-unprocessed.smi:1978
#       Creating user name   scv26
#       Creation time:       Fri Mar 27 10:18:49 2020


#       File generated by GOLD software.
#

@<TRIPOS>MOLECULE
AV-unprocessed.smi:1978
    50    51     1
SMALL
NO_CHARGES


@<TRIPOS>ATOM
      1 ****        -3.2921   5.9601   3.4675 C.3            1 S1                 0.0000
      2 ****        -2.4420   5.2990   2.4372 C.2            1 S1                 0.0000
      3 ****        -2.7193   4.4124   1.4357 C.2            1 S1                 0.0000
      4 ****        -1.4491   4.1917   0.8364 C.2            1 S1                 0.0000
      5 ****        -1.1997   3.3932  -0.2130 N.pl3          1 S1                -1.0000
      6 ****        -0.9908   2.0705  -0.0264 C.2            1 S1                 0.0000
      7 ****        -1.0090   1.4707   1.0510 O.2            1 S1                 0.0000
      8 ****        -0.7392   1.3991  -1.1592 N.am           1 S1                 0.0000
      9 ****        -0.4547  -0.0287  -1.2529 C.3            1 S1                 0.0000
     10 ****         0.9985  -0.3651  -0.8318 C.3            1 S1                 0.0000
     11 ****         2.0470   0.4057  -1.6604 C.3            1 S1                 0.0000
     12 ****         1.2785  -1.8370  -0.8201 N.4            1 S1                 1.0000
     13 ****         1.1713  -2.4817  -2.1619 C.3            1 S1                 0.0000
     14 ****         1.7315  -3.9113  -2.1437 C.3            1 S1                 0.0000
     15 ****         1.0082  -4.7607  -1.0962 C.3            1 S1                 0.0000
     16 ****         1.0948  -4.0758   0.2715 C.3            1 S1                 0.0000
     17 ****         0.5514  -2.6309   0.2268 C.3            1 S1                 0.0000
     18 ****         0.6335  -2.0191   1.6402 C.3            1 S1                 0.0000
     19 ****        -0.4890   4.8956   1.4122 N.2            1 S1                 0.0000
     20 ****        -1.1165   5.6039   2.4439 O.3            1 S1                 0.0000
     21 ****        -3.8817   6.7619   3.0232 H              1 S1                 0.0000
     22 ****        -2.6830   6.3886   4.2637 H              1 S1                 0.0000
     23 ****        -3.9794   5.2438   3.9177 H              1 S1                 0.0000
     24 ****        -3.6765   3.9865   1.1747 H              1 S1                 0.0000
     25 ****        -0.7359   1.9266  -2.0201 H              1 S1                 0.0000
     26 ****        -1.1802  -0.5742  -0.6484 H              1 S1                 0.0000
     27 ****        -0.6318  -0.3237  -2.2868 H              1 S1                 0.0000
     28 ****         1.1529   0.0032   0.1801 H              1 S1                 0.0000
     29 ****         1.9912   1.4763  -1.4607 H              1 S1                 0.0000
     30 ****         1.9041   0.2770  -2.7329 H              1 S1                 0.0000
     31 ****         3.0594   0.0867  -1.4115 H              1 S1                 0.0000
     32 ****         0.1290  -2.5029  -2.4824 H              1 S1                 0.0000
     33 ****         1.7196  -1.9167  -2.9134 H              1 S1                 0.0000
     34 ****         1.6253  -4.3662  -3.1291 H              1 S1                 0.0000
     35 ****         2.8003  -3.8859  -1.9268 H              1 S1                 0.0000
     36 ****        -0.0369  -4.8909  -1.3802 H              1 S1                 0.0000
     37 ****         1.4476  -5.7575  -1.0485 H              1 S1                 0.0000
     38 ****         0.5381  -4.6639   1.0022 H              1 S1                 0.0000
     39 ****         2.1322  -4.0694   0.6095 H              1 S1                 0.0000
     40 ****        -0.5018  -2.6817  -0.0522 H              1 S1                 0.0000
     41 ****         0.2164  -2.6989   2.3837 H              1 S1                 0.0000
     42 ****         0.0616  -1.0950   1.7214 H              1 S1                 0.0000
     43 ****         1.6649  -1.8114   1.9271 H              1 S1                 0.0000
     44 ****         2.2534  -1.9045  -0.5656 H              1 S1                 0.0000
     45 ****        -1.1683   3.7776  -1.1357 LP             1 S1                 0.0000
     46 ****        -1.1922   1.9697   1.8980 LP             1 S1                 0.0000
     47 ****        -0.8406   0.4854   1.0776 LP             1 S1                 0.0000
     48 ****         0.4793   4.9173   1.1635 LP             1 S1                 0.0000
     49 ****        -0.7158   5.3445   3.3226 LP             1 S1                 0.0000
     50 ****        -0.9962   6.5861   2.2996 LP             1 S1                 0.0000
@<TRIPOS>BOND
    1    1    2 1     
    2    1   21 1     
    3    1   22 1     
    4    1   23 1     
    5    2   20 1     
    6    2    3 2     
    7    3    4 1     
    8    3   24 1     
    9    4    5 1     
   10    4   19 2     
   11    5    6 1     
   12    6    7 2     
   13    6    8 am    
   14    8    9 1     
   15    8   25 1     
   16    9   10 1     
   17    9   26 1     
   18    9   27 1     
   19   10   11 1     
   20   10   12 1     
   21   10   28 1     
   22   11   29 1     
   23   11   30 1     
   24   11   31 1     
   25   12   17 1     
   26   12   13 1     
   27   12   44 1     
   28   13   14 1     
   29   13   32 1     
   30   13   33 1     
   31   14   15 1     
   32   14   34 1     
   33   14   35 1     
   34   15   16 1     
   35   15   36 1     
   36   15   37 1     
   37   16   17 1     
   38   16   38 1     
   39   16   39 1     
   40   17   18 1     
   41   17   40 1     
   42   18   41 1     
   43   18   42 1     
   44   18   43 1     
   45   19   20 1     
   46    5   45 1     
   47    7   46 1     
   48    7   47 1     
   49   19   48 1     
   50   20   49 1     
   51   20   50 1     
@<TRIPOS>SUBSTRUCTURE
      1 S1             1
@<TRIPOS>SET
LONE_PAIRS      STATIC     ATOMS    <user>   **** ""
6 45 46 47 48 49 50
DONOR_HYDROGENS      STATIC     ATOMS    <user>   **** ""
2 25 44
ATOM$BLUE        STATIC     ATOMS    COLORGROUP SYSTEM
6 45 46 47 48 49 50
ATOM$RED        STATIC     ATOMS    COLORGROUP SYSTEM
2 25 44
