AV-unprocessed.smi:109|AV-procd|sdf|1054|dock8
  -GOLD-   2262018113D 1   1.00000     0.00000
 Structure written by MMmdl.
 58 61  0  0  0  0  0  0  0  0  1 V2000
  150.6028  139.5715  154.3632 O   0  0  0  0  0  0  0  0  0  0  0  0
  151.6110  138.7618  154.9282 C   0  0  0  0  0  0  0  0  0  0  0  0
  152.2125  139.4593  156.1583 C   0  0  0  0  0  0  0  0  0  0  0  0
  151.3914  139.2562  157.4506 C   0  0  1  0  0  0  0  0  0  0  0  0
  151.7090  137.9736  158.0811 N   0  0  0  0  0  0  0  0  0  0  0  0
  150.8117  136.9667  158.1695 C   0  0  0  0  0  0  0  0  0  0  0  0
  149.9443  136.8747  159.2111 N   0  0  0  0  0  0  0  0  0  0  0  0
  149.0706  135.8655  159.2675 C   0  0  0  0  0  0  0  0  0  0  0  0
  148.9000  134.8613  158.4053 N   0  0  0  0  0  0  0  0  0  0  0  0
  149.7689  134.9477  157.3567 C   0  0  0  0  0  0  0  0  0  0  0  0
  150.7469  135.9636  157.1684 C   0  0  0  0  0  0  0  0  0  0  0  0
  151.4495  135.7288  155.9937 N   0  0  0  0  0  0  0  0  0  0  0  0
  150.9170  134.6339  155.5210 C   0  0  0  0  0  0  0  0  0  0  0  0
  149.8978  134.0983  156.2767 N   0  0  0  0  0  0  0  0  0  0  0  0
  149.1096  132.8612  155.9969 C   0  0  1  0  0  0  0  0  0  0  0  0
  147.7706  133.2203  155.8784 O   0  0  0  0  0  0  0  0  0  0  0  0
  147.1504  132.3610  154.9334 C   0  0  1  0  0  0  0  0  0  0  0  0
  145.8213  132.9540  154.4327 C   0  0  0  0  0  0  0  0  0  0  0  0
  144.9864  133.2665  155.5273 O   0  0  0  0  0  0  0  0  0  0  0  0
  148.2412  132.1773  153.8669 C   0  0  1  0  0  0  0  0  0  0  0  0
  148.2171  133.2270  152.9176 O   0  0  0  0  0  0  0  0  0  0  0  0
  149.5409  132.2116  154.6698 C   0  0  2  0  0  0  0  0  0  0  0  0
  149.9994  130.8905  154.8774 O   0  0  0  0  0  0  0  0  0  0  0  0
  151.5719  140.4208  158.4568 C   0  0  0  0  0  0  0  0  0  0  0  0
  151.2087  141.8117  157.8839 C   0  0  0  0  0  0  0  0  0  0  0  0
  151.3786  142.9206  158.9358 C   0  0  0  0  0  0  0  0  0  0  0  0
  152.7987  142.9240  159.5214 C   0  0  0  0  0  0  0  0  0  0  0  0
  153.1573  141.5499  160.1063 C   0  0  0  0  0  0  0  0  0  0  0  0
  152.9963  140.4397  159.0557 C   0  0  0  0  0  0  0  0  0  0  0  0
  149.2579  132.2228  156.8695 H   0  0  0  0  0  0  0  0  0  0  0  0
  146.9748  131.3939  155.4095 H   0  0  0  0  0  0  0  0  0  0  0  0
  148.1084  131.2417  153.3216 H   0  0  0  0  0  0  0  0  0  0  0  0
  150.3230  132.7913  154.1756 H   0  0  0  0  0  0  0  0  0  0  0  0
  150.2328  140.1095  155.0464 H   0  0  0  0  0  0  0  0  0  0  0  0
  151.1803  137.7987  155.2034 H   0  0  0  0  0  0  0  0  0  0  0  0
  152.3739  138.5768  154.1719 H   0  0  0  0  0  0  0  0  0  0  0  0
  153.2367  139.1148  156.3053 H   0  0  0  0  0  0  0  0  0  0  0  0
  152.2784  140.5271  155.9453 H   0  0  0  0  0  0  0  0  0  0  0  0
  150.3406  139.2833  157.1634 H   0  0  0  0  0  0  0  0  0  0  0  0
  152.6396  137.9035  158.4671 H   0  0  0  0  0  0  0  0  0  0  0  0
  148.4159  135.8617  160.1264 H   0  0  0  0  0  0  0  0  0  0  0  0
  151.2563  134.1838  154.5994 H   0  0  0  0  0  0  0  0  0  0  0  0
  145.9870  133.8401  153.8188 H   0  0  0  0  0  0  0  0  0  0  0  0
  145.2927  132.2249  153.8182 H   0  0  0  0  0  0  0  0  0  0  0  0
  144.3689  132.5607  155.6449 H   0  0  0  0  0  0  0  0  0  0  0  0
  148.8112  133.9042  153.2067 H   0  0  0  0  0  0  0  0  0  0  0  0
  150.0997  130.4720  154.0359 H   0  0  0  0  0  0  0  0  0  0  0  0
  150.8910  140.2283  159.2875 H   0  0  0  0  0  0  0  0  0  0  0  0
  151.8370  142.0404  157.0223 H   0  0  0  0  0  0  0  0  0  0  0  0
  150.1792  141.8196  157.5261 H   0  0  0  0  0  0  0  0  0  0  0  0
  151.1591  143.8914  158.4904 H   0  0  0  0  0  0  0  0  0  0  0  0
  150.6529  142.7780  159.7375 H   0  0  0  0  0  0  0  0  0  0  0  0
  153.5156  143.1886  158.7429 H   0  0  0  0  0  0  0  0  0  0  0  0
  152.8818  143.6902  160.2926 H   0  0  0  0  0  0  0  0  0  0  0  0
  154.1814  141.5612  160.4804 H   0  0  0  0  0  0  0  0  0  0  0  0
  152.5171  141.3383  160.9636 H   0  0  0  0  0  0  0  0  0  0  0  0
  153.2225  139.4748  159.5107 H   0  0  0  0  0  0  0  0  0  0  0  0
  153.7337  140.5860  158.2653 H   0  0  0  0  0  0  0  0  0  0  0  0
  1  2  1  0  0  0  0
  1 34  1  0  0  0  0
  2  3  1  0  0  0  0
  2 35  1  0  0  0  0
  2 36  1  0  0  0  0
  3  4  1  0  0  0  0
  3 37  1  0  0  0  0
  3 38  1  0  0  0  0
  4  5  1  0  0  0  0
  4 24  1  0  0  0  0
  4 39  1  0  0  0  0
  5  6  1  0  0  0  0
  5 40  1  0  0  0  0
  6 11  1  0  0  0  0
  6  7  2  0  0  0  0
  7  8  1  0  0  0  0
  8  9  2  0  0  0  0
  8 41  1  0  0  0  0
  9 10  1  0  0  0  0
 10 14  1  0  0  0  0
 10 11  2  0  0  0  0
 11 12  1  0  0  0  0
 12 13  2  0  0  0  0
 13 14  1  0  0  0  0
 13 42  1  0  0  0  0
 14 15  1  0  0  0  0
 15 30  1  0  0  0  0
 15 22  1  0  0  0  0
 15 16  1  0  0  0  0
 16 17  1  0  0  0  0
 17 31  1  0  0  0  0
 17 18  1  0  0  0  0
 17 20  1  0  0  0  0
 18 19  1  0  0  0  0
 18 43  1  0  0  0  0
 18 44  1  0  0  0  0
 19 45  1  0  0  0  0
 20 32  1  0  0  0  0
 20 21  1  0  0  0  0
 20 22  1  0  0  0  0
 21 46  1  0  0  0  0
 22 33  1  0  0  0  0
 22 23  1  0  0  0  0
 23 47  1  0  0  0  0
 24 29  1  0  0  0  0
 24 25  1  0  0  0  0
 24 48  1  0  0  0  0
 25 26  1  0  0  0  0
 25 49  1  0  0  0  0
 25 50  1  0  0  0  0
 26 27  1  0  0  0  0
 26 51  1  0  0  0  0
 26 52  1  0  0  0  0
 27 28  1  0  0  0  0
 27 53  1  0  0  0  0
 27 54  1  0  0  0  0
 28 29  1  0  0  0  0
 28 55  1  0  0  0  0
 28 56  1  0  0  0  0
 29 57  1  0  0  0  0
 29 58  1  0  0  0  0
M  END
> <s_m_source_file>
AV-unprocessed.smi

> <i_m_source_file_index>
109

> <i_lp_mmshare_version>
43012

> <i_f3d_flags>
0

> <s_epik_input>
W0NIMl0xW0NIMl1bQ0gyXVtDSDJdW0NIMl1bQ0hdMVtDQEhdKFtDSDJdW0NIMl1bT0hdKVtOSF1jKG5bY0hdbjIpYyhjMjMpbltjSF1uM1tDQEBIXTRPW0NASF0oW0NIMl1bT0hdKVtDQEBIXShbT0hdKVtDQEhdNFtPSF0=

> <s_epik_cmdline>
J2VwaWtfcHl0aG9uJywgJy1waCcsICc3LjAnLCAnLXRuJywgJzgnLCAnLW1hJywgJzIwMCcsICctbWV0YWxfYmluZGluZycsICctaW1hZScsICc8aW5maWxlLm1hZT4nLCAnLW9tYWUnLCAnPG91dGZpbGUubWFlPic=

> <r_lp_tautomer_probability>
1

> <r_epik_Ionization_Penalty>
0.000793976

> <r_epik_Ionization_Penalty_Charging>
0

> <r_epik_Ionization_Penalty_Neutral>
0.000793976

> <r_epik_State_Penalty>
-0

> <r_epik_Charging_Adjusted_Penalty>
0

> <i_epik_Tot_Q>
0

> <i_epik_Tot_abs_Q>
0

> <r_epik_Metal_State_Penalty>
-0

> <b_epik_Metal_Only>
0

> <s_epik_Chemistry_Notes>
This compound contains an acetal/aminal-like group ( X-CH(R)-Y where X, Y are N, S, or O) that may be acid/base labile, releasing an aldehyde.

> <s_lp_Force_Field>
OPLS_2005

> <r_lp_Energy>
50.1139

> <b_lp_Chiralities_Consistent>
1

> <s_lp_Variant>
AV-unprocessed.smi:109-24

> <Gold.Version>
5.8.1

> <Gold.Id.Protein>
6NUR|6NUR_protein|mol2

> <Gold.PLP.Fitness>
48.1429

> <Gold.PLP.PLP>
-41.3387

> <Gold.PLP.part.hbond>
-4.2533

> <Gold.PLP.part.metal>
0.0000

> <Gold.PLP.part.buried>
-4.6373

> <Gold.PLP.part.nonpolar>
-31.9334

> <Gold.PLP.part.repulsive>
0.1349

> <Gold.PLP.ligand.clash>
0.0000

> <Gold.PLP.ligand.torsion>
1.2265

> <Gold.PLP.Chemscore.Hbond>
2.9770

> <Gold.PLP.Chemscore.CHOScore>
0.0000

> <Gold.PLP.Chemscore.Metal>
0.0000

> <Gold.Chemscore.Hbonds>
donor molecule, donor type, donor heavy atom, donor atom, acceptor molecule, acceptor atom, score
      L1  H    19    45       P1 10957  0.83
      P1  H  7989  7998       L1     1  1.00
      P1  H 10752 10763       L1    12  0.60

> <Gold.PLP.Chemscore.Internal.Correction>
0.3263

> <Gold.Rescore>
     Score         DG    S(hbond)    S(metal)    S(lipo)     H(rot)  DE(clash)    DE(int)     intcor
      7.58      -8.87       2.10        0.00      88.45       5.47       0.10       1.19       ----

> <Gold.Chemscore.Fitness>
7.5760

> <Gold.Chemscore.DG>
-8.8658

> <Gold.Chemscore.ZeroCoef>
-5.4800

> <Gold.Chemscore.Hbond>
2.1049

> <Gold.Chemscore.Metal>
0.0000

> <Gold.Chemscore.Lipo>
88.4527

> <Gold.Chemscore.Internal_Hbond>
0.0000

> <Gold.Chemscore.DEClash>
0.0993

> <Gold.Chemscore.DEInternal>
1.1904

> <Gold.Chemscore.Rot>
5.4662

> <Gold.Chemscore.Internal.Correction>
   9.000000E+99

> <Gold.Chemscore.Hbonds>
donor molecule, donor type, donor heavy atom, donor atom, acceptor molecule, acceptor atom, score
      L1  H    19    45       P1 10957  0.76
      P1  H  7989  7998       L1     1  0.08
      P1  H 10752 10763       L1    12  0.04

> <Gold.Chemscore.Hbond.Weighted>
-7.0303

> <Gold.Chemscore.Metal.Weighted>
-0.0000

> <Gold.Chemscore.Lipo.Weighted>
-10.3490

> <Gold.Chemscore.Internal_Hbond.Weighted>
0.0000

> <Gold.Chemscore.DEClash.Weighted>
0.0993

> <Gold.Chemscore.DEInternal.Weighted>
1.1904

> <Gold.Chemscore.Rot.Weighted>
13.9935

> <Gold.Chemscore.Internal.Correction.Weighted>
   9.000000E+99

> <Gold.Protein.RotatedTorsions>
[ 6907 6896 6895 6894 ] final   92.94 input  -60.11 | X-H torsion
[ 7974 7965 7964 7962 ] final  -84.02 input  175.53 | X-H torsion
[ 8008 7997 7996 7995 ] final  124.55 input   59.86 | X-H torsion
[ 10167 10162 10161 10158 ] final  -30.46 input  -65.29 | X-H torsion
[ 10718 10713 10712 10709 ] final  119.34 input   66.30 | X-H torsion
[ 10763 10752 10751 10750 ] final   81.17 input  -60.55 | X-H torsion
[ 11005 11000 10999 10996 ] final  166.11 input  -57.11 | X-H torsion

> <Gold.Protein.ActiveResidues>
 VAL166  LYS551  ARG553  GLY616  TRP617  ASP618  TYR619  PRO620  LYS621  CYS622 
 ASP623  PHE694  ASN695  SER759  ASP760  ASP761  ALA762  ILE779  LEU786  VAL792 
 PHE793  MET794  SER795  GLU796  ALA797  LYS798  CYS799  TRP800  GLU811  SER814 

> <Gold.Protein.RotatedAtoms>
  152.5453  134.1425  159.8484 H   0  0  0  0  0  0  0  0  0  0  0  0  # atno 6907 bound_to 6896
  151.1459  133.4932  159.2603 H   0  0  0  0  0  0  0  0  0  0  0  0  # atno 6908 bound_to 6896
  151.1523  135.0244  159.8728 H   0  0  0  0  0  0  0  0  0  0  0  0  # atno 6909 bound_to 6896
  145.5123  140.9539  143.1701 H   0  0  0  0  0  0  0  0  0  0  0  0  # atno 7974 bound_to 7965
  156.2805  140.2737  156.1807 H   0  0  0  0  0  0  0  0  0  0  0  0  # atno 8008 bound_to 7997
  155.0559  140.0386  157.2578 H   0  0  0  0  0  0  0  0  0  0  0  0  # atno 8009 bound_to 7997
  154.7156  140.2677  155.6594 H   0  0  0  0  0  0  0  0  0  0  0  0  # atno 8010 bound_to 7997
  140.7249  143.3847  151.1537 H   0  0  0  0  0  0  0  0  0  0  0  0  # atno 10167 bound_to 10162
  157.5968  131.1057  150.7883 H   0  0  0  0  0  0  0  0  0  0  0  0  # atno 10718 bound_to 10713
  153.1094  135.4775  154.9008 H   0  0  0  0  0  0  0  0  0  0  0  0  # atno 10763 bound_to 10752
  154.7464  135.3095  154.8638 H   0  0  0  0  0  0  0  0  0  0  0  0  # atno 10764 bound_to 10752
  153.9232  135.6853  153.4800 H   0  0  0  0  0  0  0  0  0  0  0  0  # atno 10765 bound_to 10752
  140.2631  134.7887  157.3608 H   0  0  0  0  0  0  0  0  0  0  0  0  # atno 11005 bound_to 11000
  144.7721  139.6712  143.7190 LP  0  0  0  0  0  0  0  0  0  0  0  0  # atno 17320 bound_to 7965
  146.2159  139.5548  142.9650 LP  0  0  0  0  0  0  0  0  0  0  0  0  # atno 17321 bound_to 7965
  139.7442  143.8878  152.3058 LP  0  0  0  0  0  0  0  0  0  0  0  0  # atno 17342 bound_to 10162
  139.8709  144.7068  150.8988 LP  0  0  0  0  0  0  0  0  0  0  0  0  # atno 17343 bound_to 10162
  156.8291  130.5010  149.5333 LP  0  0  0  0  0  0  0  0  0  0  0  0  # atno 17370 bound_to 10713
  156.1032  130.5985  150.9929 LP  0  0  0  0  0  0  0  0  0  0  0  0  # atno 17371 bound_to 10713
  140.1446  134.4928  155.8006 LP  0  0  0  0  0  0  0  0  0  0  0  0  # atno 17394 bound_to 11000
  141.2188  133.6838  156.7270 LP  0  0  0  0  0  0  0  0  0  0  0  0  # atno 17395 bound_to 11000

$$$$
