AV-unprocessed.smi:718|AV-procd|sdf|3491|dock8
  -GOLD-   22720 0483D 1   1.00000     0.00000
 Structure written by MMmdl.
 27 28  0  0  0  0  0  0  0  0  1 V2000
  151.0398  140.4948  155.3549 O   0  0  0  0  0  0  0  0  0  0  0  0
  151.4912  139.7728  156.2447 C   0  0  0  0  0  0  0  0  0  0  0  0
  151.8558  140.2120  157.4649 N   0  0  0  0  0  0  0  0  0  0  0  0
  151.7826  141.5299  157.9883 C   0  0  0  0  0  0  0  0  0  0  0  0
  152.2470  141.6729  159.3150 C   0  0  0  0  0  0  0  0  0  0  0  0
  152.2170  142.9404  159.9289 C   0  0  0  0  0  0  0  0  0  0  0  0
  152.7830  143.1254  161.5507 Cl  0  0  0  0  0  0  0  0  0  0  0  0
  151.7209  144.0370  159.1953 C   0  0  0  0  0  0  0  0  0  0  0  0
  151.6494  145.6244  159.8728 Cl  0  0  0  0  0  0  0  0  0  0  0  0
  151.2787  143.8064  157.8795 C   0  0  0  0  0  0  0  0  0  0  0  0
  151.3072  142.5920  157.2914 N   0  0  0  0  0  0  0  0  0  0  0  0
  151.6959  138.2723  155.9843 C   0  0  2  0  0  0  0  0  0  0  0  0
  151.2963  137.8512  154.5509 C   0  0  0  0  0  0  0  0  0  0  0  0
  151.4795  136.4491  154.4035 O   0  0  0  0  0  0  0  0  0  0  0  0
  150.6861  135.7221  155.3308 C   0  0  0  0  0  0  0  0  0  0  0  0
  151.0900  136.1279  156.7573 C   0  0  0  0  0  0  0  0  0  0  0  0
  150.9048  137.5288  156.9094 O   0  0  0  0  0  0  0  0  0  0  0  0
  152.2175  139.5115  158.0956 H   0  0  0  0  0  0  0  0  0  0  0  0
  152.6238  140.8200  159.8609 H   0  0  0  0  0  0  0  0  0  0  0  0
  150.8914  144.6176  157.2807 H   0  0  0  0  0  0  0  0  0  0  0  0
  152.7509  138.0497  156.1533 H   0  0  0  0  0  0  0  0  0  0  0  0
  150.2600  138.1169  154.3344 H   0  0  0  0  0  0  0  0  0  0  0  0
  151.9189  138.3559  153.8113 H   0  0  0  0  0  0  0  0  0  0  0  0
  149.6267  135.9151  155.1555 H   0  0  0  0  0  0  0  0  0  0  0  0
  150.8485  134.6550  155.1791 H   0  0  0  0  0  0  0  0  0  0  0  0
  150.4731  135.6056  157.4887 H   0  0  0  0  0  0  0  0  0  0  0  0
  152.1280  135.8598  156.9605 H   0  0  0  0  0  0  0  0  0  0  0  0
  1  2  2  0  0  0  0
  2  3  1  0  0  0  0
  2 12  1  0  0  0  0
  3  4  1  0  0  0  0
  3 18  1  0  0  0  0
  4 11  1  0  0  0  0
  4  5  2  0  0  0  0
  5  6  1  0  0  0  0
  5 19  1  0  0  0  0
  6  7  1  0  0  0  0
  6  8  2  0  0  0  0
  8  9  1  0  0  0  0
  8 10  1  0  0  0  0
 10 11  2  0  0  0  0
 10 20  1  0  0  0  0
 12 17  1  0  0  0  0
 12 13  1  0  0  0  0
 12 21  1  0  0  0  0
 13 14  1  0  0  0  0
 13 22  1  0  0  0  0
 13 23  1  0  0  0  0
 14 15  1  0  0  0  0
 15 16  1  0  0  0  0
 15 24  1  0  0  0  0
 15 25  1  0  0  0  0
 16 17  1  0  0  0  0
 16 26  1  0  0  0  0
 16 27  1  0  0  0  0
M  END
> <s_m_source_file>
AV-unprocessed.smi

> <i_m_source_file_index>
718

> <i_lp_mmshare_version>
43012

> <i_f3d_flags>
0

> <s_epik_input>
TzFbQ0gyXVtDSDJdT1tDSDJdW0NASF0xQyg9TylbTkhdYzJbY0hdYyhDbCljKENsKVtjSF1uMg==

> <s_epik_cmdline>
J2VwaWtfcHl0aG9uJywgJy1waCcsICc3LjAnLCAnLXRuJywgJzgnLCAnLW1hJywgJzIwMCcsICctbWV0YWxfYmluZGluZycsICctaW1hZScsICc8aW5maWxlLm1hZT4nLCAnLW9tYWUnLCAnPG91dGZpbGUubWFlPic=

> <r_lp_tautomer_probability>
1

> <r_epik_Ionization_Penalty>
4.81693e-06

> <r_epik_Ionization_Penalty_Charging>
0

> <r_epik_Ionization_Penalty_Neutral>
4.81693e-06

> <r_epik_State_Penalty>
-0

> <r_epik_Charging_Adjusted_Penalty>
0

> <i_epik_Tot_Q>
0

> <i_epik_Tot_abs_Q>
0

> <r_epik_Metal_State_Penalty>
-0

> <b_epik_Metal_Only>
0

> <s_lp_Force_Field>
OPLS_2005

> <r_lp_Energy>
11.6855

> <b_lp_Chiralities_Consistent>
1

> <s_lp_Variant>
AV-unprocessed.smi:718-1

> <Gold.Version>
5.8.1

> <Gold.Id.Protein>
6NUR|6NUR_protein|mol2

> <Gold.PLP.Fitness>
43.6191

> <Gold.PLP.PLP>
-34.7794

> <Gold.PLP.part.hbond>
-2.0000

> <Gold.PLP.part.metal>
0.0000

> <Gold.PLP.part.buried>
-5.3319

> <Gold.PLP.part.nonpolar>
-29.2396

> <Gold.PLP.part.repulsive>
1.4472

> <Gold.PLP.ligand.clash>
0.0000

> <Gold.PLP.ligand.torsion>
0.0024

> <Gold.PLP.Chemscore.Hbond>
1.9600

> <Gold.PLP.Chemscore.CHOScore>
0.9876

> <Gold.PLP.Chemscore.Metal>
0.0000

> <Gold.Chemscore.Hbonds>
donor molecule, donor type, donor heavy atom, donor atom, acceptor molecule, acceptor atom, score
      P1  H  7989  7998       L1     1  0.96
      P1  H 10752 10763       L1    14  1.00
      L1  C    10    20       P1  8028  0.97

> <Gold.PLP.Chemscore.Internal.Correction>
0.0017

> <Gold.Rescore>
     Score         DG    S(hbond)    S(metal)    S(lipo)     H(rot)  DE(clash)    DE(int)     intcor
     18.11     -19.49       1.82        0.00      89.82       1.00       0.08       1.30       ----

> <Gold.Chemscore.Fitness>
18.1093

> <Gold.Chemscore.DG>
-19.4934

> <Gold.Chemscore.ZeroCoef>
-5.4800

> <Gold.Chemscore.Hbond>
1.8158

> <Gold.Chemscore.Metal>
0.0000

> <Gold.Chemscore.Lipo>
89.8184

> <Gold.Chemscore.Internal_Hbond>
0.0000

> <Gold.Chemscore.DEClash>
0.0818

> <Gold.Chemscore.DEInternal>
1.3022

> <Gold.Chemscore.Rot>
1.0000

> <Gold.Chemscore.Internal.Correction>
   9.000000E+99

> <Gold.Chemscore.Hbonds>
donor molecule, donor type, donor heavy atom, donor atom, acceptor molecule, acceptor atom, score
      P1  H  7989  7998       L1     1  0.90
      P1  H 10752 10763       L1    14  0.82

> <Gold.Chemscore.Hbond.Weighted>
-6.0646

> <Gold.Chemscore.Metal.Weighted>
-0.0000

> <Gold.Chemscore.Lipo.Weighted>
-10.5088

> <Gold.Chemscore.Internal_Hbond.Weighted>
0.0000

> <Gold.Chemscore.DEClash.Weighted>
0.0818

> <Gold.Chemscore.DEInternal.Weighted>
1.3022

> <Gold.Chemscore.Rot.Weighted>
2.5600

> <Gold.Chemscore.Internal.Correction.Weighted>
   9.000000E+99

> <Gold.Protein.RotatedTorsions>
[ 6907 6896 6895 6894 ] final  141.60 input  -60.11 | X-H torsion
[ 7974 7965 7964 7962 ] final -154.80 input  175.53 | X-H torsion
[ 8008 7997 7996 7995 ] final  -35.71 input   59.86 | X-H torsion
[ 10167 10162 10161 10158 ] final  100.26 input  -65.29 | X-H torsion
[ 10718 10713 10712 10709 ] final  -64.17 input   66.30 | X-H torsion
[ 10763 10752 10751 10750 ] final   28.03 input  -60.55 | X-H torsion
[ 11005 11000 10999 10996 ] final  -85.18 input  -57.11 | X-H torsion

> <Gold.Protein.ActiveResidues>
 VAL166  LYS551  ARG553  GLY616  TRP617  ASP618  TYR619  PRO620  LYS621  CYS622 
 ASP623  PHE694  ASN695  SER759  ASP760  ASP761  ALA762  ILE779  LEU786  VAL792 
 PHE793  MET794  SER795  GLU796  ALA797  LYS798  CYS799  TRP800  GLU811  SER814 

> <Gold.Protein.RotatedAtoms>
  152.2290  133.5043  159.5204 H   0  0  0  0  0  0  0  0  0  0  0  0  # atno 6907 bound_to 6896
  150.7032  134.1242  159.4055 H   0  0  0  0  0  0  0  0  0  0  0  0  # atno 6908 bound_to 6896
  151.9163  135.0317  160.0569 H   0  0  0  0  0  0  0  0  0  0  0  0  # atno 6909 bound_to 6896
  144.7671  140.4337  143.5934 H   0  0  0  0  0  0  0  0  0  0  0  0  # atno 7974 bound_to 7965
  154.4089  140.1650  156.2256 H   0  0  0  0  0  0  0  0  0  0  0  0  # atno 8008 bound_to 7997
  155.9326  140.3413  155.6238 H   0  0  0  0  0  0  0  0  0  0  0  0  # atno 8009 bound_to 7997
  155.7087  140.0754  157.2371 H   0  0  0  0  0  0  0  0  0  0  0  0  # atno 8010 bound_to 7997
  139.7543  144.6974  151.0386 H   0  0  0  0  0  0  0  0  0  0  0  0  # atno 10167 bound_to 10162
  156.0746  130.4230  150.1381 H   0  0  0  0  0  0  0  0  0  0  0  0  # atno 10718 bound_to 10713
  153.0518  135.6523  154.0676 H   0  0  0  0  0  0  0  0  0  0  0  0  # atno 10763 bound_to 10752
  154.0362  135.2907  155.3363 H   0  0  0  0  0  0  0  0  0  0  0  0  # atno 10764 bound_to 10752
  154.6810  135.5320  153.8330 H   0  0  0  0  0  0  0  0  0  0  0  0  # atno 10765 bound_to 10752
  141.1644  133.7385  156.8977 H   0  0  0  0  0  0  0  0  0  0  0  0  # atno 11005 bound_to 11000
  145.6436  139.1554  143.2901 LP  0  0  0  0  0  0  0  0  0  0  0  0  # atno 17320 bound_to 7965
  146.1788  140.6531  142.9199 LP  0  0  0  0  0  0  0  0  0  0  0  0  # atno 17321 bound_to 7965
  140.7801  143.4772  151.0067 LP  0  0  0  0  0  0  0  0  0  0  0  0  # atno 17342 bound_to 10162
  139.8459  143.7502  152.3179 LP  0  0  0  0  0  0  0  0  0  0  0  0  # atno 17343 bound_to 10162
  156.9425  130.9749  151.3513 LP  0  0  0  0  0  0  0  0  0  0  0  0  # atno 17370 bound_to 10713
  157.5834  130.8392  149.8555 LP  0  0  0  0  0  0  0  0  0  0  0  0  # atno 17371 bound_to 10713
  140.1604  134.9169  157.2708 LP  0  0  0  0  0  0  0  0  0  0  0  0  # atno 17394 bound_to 11000
  140.2617  134.3563  155.7404 LP  0  0  0  0  0  0  0  0  0  0  0  0  # atno 17395 bound_to 11000

$$$$
