AV-unprocessed.smi:280|AV-procd|sdf|2097|dock10
  -GOLD-   2262021383D 1   1.00000     0.00000
 Structure written by MMmdl.
 59 62  0  0  0  0  0  0  0  0  2 V2000
  147.6988  138.9549  153.5579 C   0  0  0  0  0  0  0  0  0  0  0  0
  148.7573  138.4370  154.5529 C   0  0  2  0  0  0  0  0  0  0  0  0
  150.1278  139.0354  154.1478 C   0  0  0  0  0  0  0  0  0  0  0  0
  151.2363  138.4912  154.9270 N   0  0  0  0  0  0  0  0  0  0  0  0
  151.5781  139.0823  156.1032 C   0  0  0  0  0  0  0  0  0  0  0  0
  152.5594  138.5412  156.8735 N   0  0  0  0  0  0  0  0  0  0  0  0
  152.9158  139.1203  158.0235 C   0  0  0  0  0  0  0  0  0  0  0  0
  152.4295  140.2282  158.5841 N   0  0  0  0  0  0  0  0  0  0  0  0
  151.4383  140.7741  157.8231 C   0  0  0  0  0  0  0  0  0  0  0  0
  150.9502  140.2661  156.5856 C   0  0  0  0  0  0  0  0  0  0  0  0
  149.9175  141.0717  156.1212 N   0  0  0  0  0  0  0  0  0  0  0  0
  149.8108  142.0076  157.0239 C   0  0  0  0  0  0  0  0  0  0  0  0
  150.7003  141.9193  158.0714 N   0  0  0  0  0  0  0  0  0  0  0  0
  150.8067  142.8234  159.2087 C   0  0  0  0  0  0  0  0  0  0  0  0
  152.1088  143.6602  159.2549 C   0  0  0  0  0  0  0  0  0  0  0  0
  153.2788  142.7041  159.5236 C   0  0  0  0  0  0  0  0  0  0  0  0
  153.0856  141.9810  160.7223 O   0  0  0  0  0  0  0  0  0  0  0  0
  152.3254  144.7039  158.1451 C   0  0  0  0  0  0  0  0  0  0  0  0
  151.8878  145.7804  159.0009 O   0  0  0  0  0  0  0  0  0  0  0  0
  152.0744  144.9168  160.1418 C   0  0  0  0  0  0  0  0  0  0  0  0
  151.3011  137.0366  154.8938 C   0  0  0  0  0  0  0  0  0  0  0  0
  149.9790  136.4392  155.3927 C   0  0  0  0  0  0  0  0  0  0  0  0
  148.8116  136.9410  154.6152 N   0  3  1  0  0  0  0  0  0  0  0  0
  147.5467  136.2909  155.0674 C   0  0  0  0  0  0  0  0  0  0  0  0
  147.2463  134.9686  154.3200 C   0  0  0  0  0  0  0  0  0  0  0  0
  148.4848  134.0567  154.3446 C   0  0  0  0  0  0  0  0  0  0  0  0
  146.0283  134.2200  154.8909 C   0  0  0  0  0  0  0  0  0  0  0  0
  146.9866  135.2577  152.9608 O   0  0  0  0  0  0  0  0  0  0  0  0
  147.7257  140.0435  153.5022 H   0  0  0  0  0  0  0  0  0  0  0  0
  146.6807  138.6873  153.8353 H   0  0  0  0  0  0  0  0  0  0  0  0
  147.8817  138.5752  152.5523 H   0  0  0  0  0  0  0  0  0  0  0  0
  148.4982  138.7969  155.5494 H   0  0  0  0  0  0  0  0  0  0  0  0
  150.3272  138.8083  153.0996 H   0  0  0  0  0  0  0  0  0  0  0  0
  150.1104  140.1240  154.2156 H   0  0  0  0  0  0  0  0  0  0  0  0
  153.7047  138.6266  158.5716 H   0  0  0  0  0  0  0  0  0  0  0  0
  149.0749  142.7944  156.9464 H   0  0  0  0  0  0  0  0  0  0  0  0
  149.9373  143.4819  159.1881 H   0  0  0  0  0  0  0  0  0  0  0  0
  150.6997  142.2233  160.1128 H   0  0  0  0  0  0  0  0  0  0  0  0
  153.3878  141.9825  158.7132 H   0  0  0  0  0  0  0  0  0  0  0  0
  154.2234  143.2453  159.5864 H   0  0  0  0  0  0  0  0  0  0  0  0
  152.2371  141.5659  160.6898 H   0  0  0  0  0  0  0  0  0  0  0  0
  153.3699  144.8242  157.8521 H   0  0  0  0  0  0  0  0  0  0  0  0
  151.6971  144.5757  157.2656 H   0  0  0  0  0  0  0  0  0  0  0  0
  151.2465  144.9564  160.8480 H   0  0  0  0  0  0  0  0  0  0  0  0
  153.0165  145.1262  160.6512 H   0  0  0  0  0  0  0  0  0  0  0  0
  151.4901  136.7195  153.8674 H   0  0  0  0  0  0  0  0  0  0  0  0
  152.1264  136.6491  155.4894 H   0  0  0  0  0  0  0  0  0  0  0  0
  150.0306  135.3525  155.3288 H   0  0  0  0  0  0  0  0  0  0  0  0
  149.8445  136.6859  156.4473 H   0  0  0  0  0  0  0  0  0  0  0  0
  147.5872  136.1034  156.1421 H   0  0  0  0  0  0  0  0  0  0  0  0
  146.6982  136.9631  154.9519 H   0  0  0  0  0  0  0  0  0  0  0  0
  148.7484  133.7784  155.3656 H   0  0  0  0  0  0  0  0  0  0  0  0
  149.3529  134.5484  153.9035 H   0  0  0  0  0  0  0  0  0  0  0  0
  148.3131  133.1342  153.7887 H   0  0  0  0  0  0  0  0  0  0  0  0
  146.1767  133.9684  155.9413 H   0  0  0  0  0  0  0  0  0  0  0  0
  145.8509  133.2869  154.3545 H   0  0  0  0  0  0  0  0  0  0  0  0
  145.1159  134.8125  154.8163 H   0  0  0  0  0  0  0  0  0  0  0  0
  147.8110  135.3931  152.5181 H   0  0  0  0  0  0  0  0  0  0  0  0
  148.9580  136.6342  153.6642 H   0  0  0  0  0  0  0  0  0  0  0  0
  1  2  1  0  0  0  0
  1 29  1  0  0  0  0
  1 30  1  0  0  0  0
  1 31  1  0  0  0  0
  2 23  1  0  0  0  0
  2  3  1  0  0  0  0
  2 32  1  0  0  0  0
  3  4  1  0  0  0  0
  3 33  1  0  0  0  0
  3 34  1  0  0  0  0
  4  5  1  0  0  0  0
  4 21  1  0  0  0  0
  5 10  1  0  0  0  0
  5  6  2  0  0  0  0
  6  7  1  0  0  0  0
  7  8  2  0  0  0  0
  7 35  1  0  0  0  0
  8  9  1  0  0  0  0
  9 13  1  0  0  0  0
  9 10  2  0  0  0  0
 10 11  1  0  0  0  0
 11 12  2  0  0  0  0
 12 13  1  0  0  0  0
 12 36  1  0  0  0  0
 13 14  1  0  0  0  0
 14 15  1  0  0  0  0
 14 37  1  0  0  0  0
 14 38  1  0  0  0  0
 15 20  1  0  0  0  0
 15 16  1  0  0  0  0
 15 18  1  0  0  0  0
 16 17  1  0  0  0  0
 16 39  1  0  0  0  0
 16 40  1  0  0  0  0
 17 41  1  0  0  0  0
 18 19  1  0  0  0  0
 18 42  1  0  0  0  0
 18 43  1  0  0  0  0
 19 20  1  0  0  0  0
 20 44  1  0  0  0  0
 20 45  1  0  0  0  0
 21 22  1  0  0  0  0
 21 46  1  0  0  0  0
 21 47  1  0  0  0  0
 22 23  1  0  0  0  0
 22 48  1  0  0  0  0
 22 49  1  0  0  0  0
 23 24  1  0  0  0  0
 23 59  1  0  0  0  0
 24 25  1  0  0  0  0
 24 50  1  0  0  0  0
 24 51  1  0  0  0  0
 25 26  1  0  0  0  0
 25 27  1  0  0  0  0
 25 28  1  0  0  0  0
 26 52  1  0  0  0  0
 26 53  1  0  0  0  0
 26 54  1  0  0  0  0
 27 55  1  0  0  0  0
 27 56  1  0  0  0  0
 27 57  1  0  0  0  0
 28 58  1  0  0  0  0
M  CHG  1  23   1
M  END
> <s_m_source_file>
AV-unprocessed.smi

> <i_m_source_file_index>
280

> <i_lp_mmshare_version>
43012

> <i_f3d_flags>
0

> <s_epik_input>
W0NIM11DKFtDSDNdKShbT0hdKVtDSDJdTjFbQ0gyXVtDSDJdTihbQ0gyXVtDQEhdMVtDSDNdKWMobltjSF1uMiljKGMyMyluW2NIXW4zW0NIMl1DNChbQ0gyXVtPSF0pW0NIMl1PW0NIMl00

> <s_epik_cmdline>
J2VwaWtfcHl0aG9uJywgJy1waCcsICc3LjAnLCAnLXRuJywgJzgnLCAnLW1hJywgJzIwMCcsICctbWV0YWxfYmluZGluZycsICctaW1hZScsICc8aW5maWxlLm1hZT4nLCAnLW9tYWUnLCAnPG91dGZpbGUubWFlPic=

> <r_lp_tautomer_probability>
1

> <r_epik_Ionization_Penalty>
0.00179402

> <r_epik_Ionization_Penalty_Charging>
0.00173996

> <r_epik_Ionization_Penalty_Neutral>
5.40607e-05

> <r_epik_State_Penalty>
-0

> <r_epik_Charging_Adjusted_Penalty>
0.00173996

> <i_epik_Tot_Q>
1

> <i_epik_Tot_abs_Q>
1

> <r_epik_Metal_State_Penalty>
-0

> <b_epik_Metal_Only>
0

> <s_lp_Force_Field>
OPLS_2005

> <r_lp_Energy>
49.5757

> <b_lp_Chiralities_Consistent>
1

> <s_lp_Variant>
AV-unprocessed.smi:280-1

> <Gold.Version>
5.8.1

> <Gold.Id.Protein>
6NUR|6NUR_protein|mol2

> <Gold.PLP.Fitness>
53.8989

> <Gold.PLP.PLP>
-42.8868

> <Gold.PLP.part.hbond>
-2.6837

> <Gold.PLP.part.metal>
0.0000

> <Gold.PLP.part.buried>
-2.8269

> <Gold.PLP.part.nonpolar>
-36.9601

> <Gold.PLP.part.repulsive>
0.2734

> <Gold.PLP.ligand.clash>
0.0000

> <Gold.PLP.ligand.torsion>
1.1063

> <Gold.PLP.Chemscore.Hbond>
3.0000

> <Gold.PLP.Chemscore.CHOScore>
1.0000

> <Gold.PLP.Chemscore.Metal>
0.0000

> <Gold.Chemscore.Hbonds>
donor molecule, donor type, donor heavy atom, donor atom, acceptor molecule, acceptor atom, score
      L1  H    23    59       P1  7948  2.00
      L1  H    28    58       P1  7948  1.00
      L1  C    12    36       P1  8028  1.00

> <Gold.PLP.Chemscore.Internal.Correction>
1.2248

> <Gold.Rescore>
     Score         DG    S(hbond)    S(metal)    S(lipo)     H(rot)  DE(clash)    DE(int)     intcor
      9.84     -14.68       2.00        0.00     100.98       3.63       0.07       4.76       ----

> <Gold.Chemscore.Fitness>
9.8440

> <Gold.Chemscore.DG>
-14.6752

> <Gold.Chemscore.ZeroCoef>
-5.4800

> <Gold.Chemscore.Hbond>
1.9950

> <Gold.Chemscore.Metal>
0.0000

> <Gold.Chemscore.Lipo>
100.9765

> <Gold.Chemscore.Internal_Hbond>
0.0000

> <Gold.Chemscore.DEClash>
0.0666

> <Gold.Chemscore.DEInternal>
4.7646

> <Gold.Chemscore.Rot>
3.6260

> <Gold.Chemscore.Internal.Correction>
   9.000000E+99

> <Gold.Chemscore.Hbonds>
donor molecule, donor type, donor heavy atom, donor atom, acceptor molecule, acceptor atom, score
      L1  H    23    59       P1  7948  1.00
      L1  H    28    58       P1  7948  0.92

> <Gold.Chemscore.Hbond.Weighted>
-6.6634

> <Gold.Chemscore.Metal.Weighted>
-0.0000

> <Gold.Chemscore.Lipo.Weighted>
-11.8143

> <Gold.Chemscore.Internal_Hbond.Weighted>
0.0000

> <Gold.Chemscore.DEClash.Weighted>
0.0666

> <Gold.Chemscore.DEInternal.Weighted>
4.7646

> <Gold.Chemscore.Rot.Weighted>
9.2825

> <Gold.Chemscore.Internal.Correction.Weighted>
   9.000000E+99

> <Gold.Protein.RotatedTorsions>
[ 6907 6896 6895 6894 ] final   89.15 input  -60.11 | X-H torsion
[ 7974 7965 7964 7962 ] final  105.40 input  175.53 | X-H torsion
[ 8008 7997 7996 7995 ] final  -82.58 input   59.86 | X-H torsion
[ 10167 10162 10161 10158 ] final  -48.04 input  -65.29 | X-H torsion
[ 10718 10713 10712 10709 ] final   90.22 input   66.30 | X-H torsion
[ 10763 10752 10751 10750 ] final   28.99 input  -60.55 | X-H torsion
[ 11005 11000 10999 10996 ] final  100.37 input  -57.11 | X-H torsion

> <Gold.Protein.ActiveResidues>
 VAL166  LYS551  ARG553  GLY616  TRP617  ASP618  TYR619  PRO620  LYS621  CYS622 
 ASP623  PHE694  ASN695  SER759  ASP760  ASP761  ALA762  ILE779  LEU786  VAL792 
 PHE793  MET794  SER795  GLU796  ALA797  LYS798  CYS799  TRP800  GLU811  SER814 

> <Gold.Protein.RotatedAtoms>
  152.5433  134.2011  159.8712 H   0  0  0  0  0  0  0  0  0  0  0  0  # atno 6907 bound_to 6896
  151.2000  133.4609  159.2603 H   0  0  0  0  0  0  0  0  0  0  0  0  # atno 6908 bound_to 6896
  151.0998  134.9978  159.8499 H   0  0  0  0  0  0  0  0  0  0  0  0  # atno 6909 bound_to 6896
  145.3202  139.2515  143.3716 H   0  0  0  0  0  0  0  0  0  0  0  0  # atno 7974 bound_to 7965
  154.6101  140.0631  156.9483 H   0  0  0  0  0  0  0  0  0  0  0  0  # atno 8008 bound_to 7997
  155.1987  140.3313  155.4328 H   0  0  0  0  0  0  0  0  0  0  0  0  # atno 8009 bound_to 7997
  156.2371  140.1868  156.7072 H   0  0  0  0  0  0  0  0  0  0  0  0  # atno 8010 bound_to 7997
  140.6748  143.2757  151.4013 H   0  0  0  0  0  0  0  0  0  0  0  0  # atno 10167 bound_to 10162
  157.6958  131.0362  150.3544 H   0  0  0  0  0  0  0  0  0  0  0  0  # atno 10718 bound_to 10713
  153.0457  135.6500  154.0823 H   0  0  0  0  0  0  0  0  0  0  0  0  # atno 10763 bound_to 10752
  154.0521  135.2895  155.3340 H   0  0  0  0  0  0  0  0  0  0  0  0  # atno 10764 bound_to 10752
  154.6713  135.5355  153.8208 H   0  0  0  0  0  0  0  0  0  0  0  0  # atno 10765 bound_to 10752
  139.8771  134.9137  156.4746 H   0  0  0  0  0  0  0  0  0  0  0  0  # atno 11005 bound_to 11000
  146.3085  140.3758  142.8679 LP  0  0  0  0  0  0  0  0  0  0  0  0  # atno 17320 bound_to 7965
  144.8945  140.7566  143.5905 LP  0  0  0  0  0  0  0  0  0  0  0  0  # atno 17321 bound_to 7965
  139.6035  144.1245  152.2224 LP  0  0  0  0  0  0  0  0  0  0  0  0  # atno 17342 bound_to 10162
  140.0637  144.5836  150.7244 LP  0  0  0  0  0  0  0  0  0  0  0  0  # atno 17343 bound_to 10162
  156.3988  130.3912  149.6975 LP  0  0  0  0  0  0  0  0  0  0  0  0  # atno 17370 bound_to 10713
  156.4299  130.7810  151.2829 LP  0  0  0  0  0  0  0  0  0  0  0  0  # atno 17371 bound_to 10713
  140.8771  133.7945  155.9426 LP  0  0  0  0  0  0  0  0  0  0  0  0  # atno 17394 bound_to 11000
  140.8893  134.2515  157.5103 LP  0  0  0  0  0  0  0  0  0  0  0  0  # atno 17395 bound_to 11000

$$$$
