AV-unprocessed.smi:2821|AV-procd|sdf|10858|dock5
  -GOLD-   2272015303D 1   1.00000     0.00000
 Structure written by MMmdl.
 36 37  0  0  0  0  0  0  0  0  1 V2000
  151.9440  138.1633  155.8479 C   0  0  0  0  0  0  0  0  0  0  0  0
  151.8563  138.1328  154.3201 C   0  0  0  0  0  0  0  0  0  0  0  0
  150.4955  138.3040  153.9356 O   0  0  0  0  0  0  0  0  0  0  0  0
  149.8286  139.4295  154.3736 C   0  0  0  0  0  0  0  0  0  0  0  0
  148.4533  139.5766  154.0935 C   0  0  0  0  0  0  0  0  0  0  0  0
  147.7523  140.6578  154.5003 N   0  0  0  0  0  0  0  0  0  0  0  0
  148.4350  141.5972  155.1916 C   0  0  0  0  0  0  0  0  0  0  0  0
  149.8118  141.4643  155.4790 C   0  0  0  0  0  0  0  0  0  0  0  0
  150.4653  142.4775  156.1956 N   0  0  0  0  0  0  0  0  0  0  0  0
  151.3165  142.1871  157.3466 C   0  0  2  0  0  0  0  0  0  0  0  0
  150.5613  141.3607  158.4015 C   0  0  0  0  0  0  0  0  0  0  0  0
  151.8854  143.4840  157.9557 C   0  0  1  0  0  0  0  0  0  0  0  0
  150.8438  144.5172  158.3935 C   0  0  0  0  0  0  0  0  0  0  0  0
  151.6192  145.3014  159.4277 C   0  0  0  0  0  0  0  0  0  0  0  0
  152.4203  144.1993  160.1150 C   0  0  0  0  0  0  0  0  0  0  0  0
  152.6807  143.2221  159.1109 O   0  0  0  0  0  0  0  0  0  0  0  0
  150.5079  140.3778  155.0668 N   0  0  0  0  0  0  0  0  0  0  0  0
  152.9741  138.0361  156.1811 H   0  0  0  0  0  0  0  0  0  0  0  0
  151.3488  137.3640  156.2900 H   0  0  0  0  0  0  0  0  0  0  0  0
  151.5793  139.1117  156.2427 H   0  0  0  0  0  0  0  0  0  0  0  0
  152.4722  138.9304  153.9010 H   0  0  0  0  0  0  0  0  0  0  0  0
  152.2409  137.1800  153.9523 H   0  0  0  0  0  0  0  0  0  0  0  0
  147.9130  138.8226  153.5402 H   0  0  0  0  0  0  0  0  0  0  0  0
  147.8752  142.4622  155.5165 H   0  0  0  0  0  0  0  0  0  0  0  0
  150.2545  143.4440  155.9913 H   0  0  0  0  0  0  0  0  0  0  0  0
  152.1691  141.5983  157.0062 H   0  0  0  0  0  0  0  0  0  0  0  0
  151.2062  141.1259  159.2484 H   0  0  0  0  0  0  0  0  0  0  0  0
  150.2067  140.4147  157.9924 H   0  0  0  0  0  0  0  0  0  0  0  0
  149.6952  141.9019  158.7839 H   0  0  0  0  0  0  0  0  0  0  0  0
  152.5399  143.9631  157.2255 H   0  0  0  0  0  0  0  0  0  0  0  0
  150.4851  145.1336  157.5687 H   0  0  0  0  0  0  0  0  0  0  0  0
  149.9814  144.0421  158.8629 H   0  0  0  0  0  0  0  0  0  0  0  0
  152.2920  146.0059  158.9368 H   0  0  0  0  0  0  0  0  0  0  0  0
  150.9814  145.8575  160.1150 H   0  0  0  0  0  0  0  0  0  0  0  0
  153.3435  144.5700  160.5611 H   0  0  0  0  0  0  0  0  0  0  0  0
  151.8265  143.7338  160.9026 H   0  0  0  0  0  0  0  0  0  0  0  0
  1  2  1  0  0  0  0
  1 18  1  0  0  0  0
  1 19  1  0  0  0  0
  1 20  1  0  0  0  0
  2  3  1  0  0  0  0
  2 21  1  0  0  0  0
  2 22  1  0  0  0  0
  3  4  1  0  0  0  0
  4 17  1  0  0  0  0
  4  5  2  0  0  0  0
  5  6  1  0  0  0  0
  5 23  1  0  0  0  0
  6  7  2  0  0  0  0
  7  8  1  0  0  0  0
  7 24  1  0  0  0  0
  8  9  1  0  0  0  0
  8 17  2  0  0  0  0
  9 10  1  0  0  0  0
  9 25  1  0  0  0  0
 10 11  1  0  0  0  0
 10 12  1  0  0  0  0
 10 26  1  0  0  0  0
 11 27  1  0  0  0  0
 11 28  1  0  0  0  0
 11 29  1  0  0  0  0
 12 16  1  0  0  0  0
 12 13  1  0  0  0  0
 12 30  1  0  0  0  0
 13 14  1  0  0  0  0
 13 31  1  0  0  0  0
 13 32  1  0  0  0  0
 14 15  1  0  0  0  0
 14 33  1  0  0  0  0
 14 34  1  0  0  0  0
 15 16  1  0  0  0  0
 15 35  1  0  0  0  0
 15 36  1  0  0  0  0
M  END
> <s_m_source_file>
AV-unprocessed.smi

> <i_m_source_file_index>
2821

> <i_lp_mmshare_version>
43012

> <i_f3d_flags>
0

> <s_epik_input>
W0NIM11bQ0gyXU9jMVtjSF1uW2NIXWMobjEpW05IXVtDQEhdKFtDSDNdKVtDQEBIXTJbQ0gyXVtDSDJdW0NIMl1PMg==

> <s_epik_cmdline>
J2VwaWtfcHl0aG9uJywgJy1waCcsICc3LjAnLCAnLXRuJywgJzgnLCAnLW1hJywgJzIwMCcsICctbWV0YWxfYmluZGluZycsICctaW1hZScsICc8aW5maWxlLm1hZT4nLCAnLW9tYWUnLCAnPG91dGZpbGUubWFlPic=

> <r_lp_tautomer_probability>
1

> <r_epik_Ionization_Penalty>
4.69533e-05

> <r_epik_Ionization_Penalty_Charging>
0

> <r_epik_Ionization_Penalty_Neutral>
4.69533e-05

> <r_epik_State_Penalty>
-0

> <r_epik_Charging_Adjusted_Penalty>
0

> <i_epik_Tot_Q>
0

> <i_epik_Tot_abs_Q>
0

> <r_epik_Metal_State_Penalty>
-0

> <b_epik_Metal_Only>
0

> <s_lp_Force_Field>
OPLS_2005

> <r_lp_Energy>
29.921

> <b_lp_Chiralities_Consistent>
1

> <s_lp_Variant>
AV-unprocessed.smi:2821-3

> <Gold.Version>
5.8.1

> <Gold.Id.Protein>
6NUR|6NUR_protein|mol2

> <Gold.PLP.Fitness>
41.2090

> <Gold.PLP.PLP>
-34.6215

> <Gold.PLP.part.hbond>
-2.0000

> <Gold.PLP.part.metal>
0.0000

> <Gold.PLP.part.buried>
-6.3196

> <Gold.PLP.part.nonpolar>
-28.2832

> <Gold.PLP.part.repulsive>
0.5423

> <Gold.PLP.ligand.clash>
0.0000

> <Gold.PLP.ligand.torsion>
0.4950

> <Gold.PLP.Chemscore.Hbond>
1.5960

> <Gold.PLP.Chemscore.CHOScore>
0.9061

> <Gold.PLP.Chemscore.Metal>
0.0000

> <Gold.Chemscore.Hbonds>
donor molecule, donor type, donor heavy atom, donor atom, acceptor molecule, acceptor atom, score
      L1  H     9    25       P1  8028  0.94
      P1  H  7989  7998       L1    17  0.65
      L1  C     7    24       P1  8028  0.87

> <Gold.PLP.Chemscore.Internal.Correction>
0.0711

> <Gold.Rescore>
     Score         DG    S(hbond)    S(metal)    S(lipo)     H(rot)  DE(clash)    DE(int)     intcor
     14.64     -15.29       1.10        0.00      86.44       1.55       0.01       0.64       ----

> <Gold.Chemscore.Fitness>
14.6430

> <Gold.Chemscore.DG>
-15.2870

> <Gold.Chemscore.ZeroCoef>
-5.4800

> <Gold.Chemscore.Hbond>
1.0975

> <Gold.Chemscore.Metal>
0.0000

> <Gold.Chemscore.Lipo>
86.4353

> <Gold.Chemscore.Internal_Hbond>
0.0000

> <Gold.Chemscore.DEClash>
0.0052

> <Gold.Chemscore.DEInternal>
0.6387

> <Gold.Chemscore.Rot>
1.5514

> <Gold.Chemscore.Internal.Correction>
   9.000000E+99

> <Gold.Chemscore.Hbonds>
donor molecule, donor type, donor heavy atom, donor atom, acceptor molecule, acceptor atom, score
      L1  H     9    25       P1  8028  0.91
      P1  H  7989  7998       L1    17  0.04

> <Gold.Chemscore.Hbond.Weighted>
-3.6655

> <Gold.Chemscore.Metal.Weighted>
-0.0000

> <Gold.Chemscore.Lipo.Weighted>
-10.1129

> <Gold.Chemscore.Internal_Hbond.Weighted>
0.0000

> <Gold.Chemscore.DEClash.Weighted>
0.0052

> <Gold.Chemscore.DEInternal.Weighted>
0.6387

> <Gold.Chemscore.Rot.Weighted>
3.9715

> <Gold.Chemscore.Internal.Correction.Weighted>
   9.000000E+99

> <Gold.Protein.RotatedTorsions>
[ 6907 6896 6895 6894 ] final  -69.13 input  -60.11 | X-H torsion
[ 7974 7965 7964 7962 ] final   88.10 input  175.53 | X-H torsion
[ 8008 7997 7996 7995 ] final  -49.20 input   59.86 | X-H torsion
[ 10167 10162 10161 10158 ] final  -26.52 input  -65.29 | X-H torsion
[ 10718 10713 10712 10709 ] final  -28.12 input   66.30 | X-H torsion
[ 10763 10752 10751 10750 ] final   20.57 input  -60.55 | X-H torsion
[ 11005 11000 10999 10996 ] final   96.44 input  -57.11 | X-H torsion

> <Gold.Protein.ActiveResidues>
 VAL166  LYS551  ARG553  GLY616  TRP617  ASP618  TYR619  PRO620  LYS621  CYS622 
 ASP623  PHE694  ASN695  SER759  ASP760  ASP761  ALA762  ILE779  LEU786  VAL792 
 PHE793  MET794  SER795  GLU796  ALA797  LYS798  CYS799  TRP800  GLU811  SER814 

> <Gold.Protein.RotatedAtoms>
  150.7321  134.5641  159.5856 H   0  0  0  0  0  0  0  0  0  0  0  0  # atno 6907 bound_to 6896
  152.3097  134.7510  160.0348 H   0  0  0  0  0  0  0  0  0  0  0  0  # atno 6908 bound_to 6896
  151.8062  133.3340  159.3578 H   0  0  0  0  0  0  0  0  0  0  0  0  # atno 6909 bound_to 6896
  145.5501  139.2295  143.2517 H   0  0  0  0  0  0  0  0  0  0  0  0  # atno 7974 bound_to 7965
  154.4040  140.1303  156.4463 H   0  0  0  0  0  0  0  0  0  0  0  0  # atno 8008 bound_to 7997
  155.7409  140.3490  155.5084 H   0  0  0  0  0  0  0  0  0  0  0  0  # atno 8009 bound_to 7997
  155.9039  140.1024  157.1319 H   0  0  0  0  0  0  0  0  0  0  0  0  # atno 8010 bound_to 7997
  140.7282  143.4171  151.1011 H   0  0  0  0  0  0  0  0  0  0  0  0  # atno 10167 bound_to 10162
  156.4293  130.4442  149.7128 H   0  0  0  0  0  0  0  0  0  0  0  0  # atno 10718 bound_to 10713
  153.1066  135.6686  153.9575 H   0  0  0  0  0  0  0  0  0  0  0  0  # atno 10763 bound_to 10752
  153.9131  135.3023  155.3450 H   0  0  0  0  0  0  0  0  0  0  0  0  # atno 10764 bound_to 10752
  154.7487  135.5045  153.9326 H   0  0  0  0  0  0  0  0  0  0  0  0  # atno 10765 bound_to 10752
  139.8781  134.8951  156.4159 H   0  0  0  0  0  0  0  0  0  0  0  0  # atno 11005 bound_to 11000
  146.1922  140.6324  142.9140 LP  0  0  0  0  0  0  0  0  0  0  0  0  # atno 17320 bound_to 7965
  144.7533  140.5246  143.6786 LP  0  0  0  0  0  0  0  0  0  0  0  0  # atno 17321 bound_to 7965
  139.7812  143.8353  152.3138 LP  0  0  0  0  0  0  0  0  0  0  0  0  # atno 17342 bound_to 10162
  139.8305  144.7256  150.9457 LP  0  0  0  0  0  0  0  0  0  0  0  0  # atno 17343 bound_to 10162
  156.4038  130.7688  151.2697 LP  0  0  0  0  0  0  0  0  0  0  0  0  # atno 17370 bound_to 10713
  157.7508  131.0232  150.3823 LP  0  0  0  0  0  0  0  0  0  0  0  0  # atno 17371 bound_to 10713
  140.9168  133.7673  155.9857 LP  0  0  0  0  0  0  0  0  0  0  0  0  # atno 17394 bound_to 11000
  140.8485  134.2982  157.5285 LP  0  0  0  0  0  0  0  0  0  0  0  0  # atno 17395 bound_to 11000

$$$$
