AV-unprocessed.smi:907|AV-procd|sdf|4106|dock6
  -GOLD-   22720 2 03D 1   1.00000     0.00000
 Structure written by MMmdl.
 53 56  0  0  0  0  0  0  0  0  2 V2000
  152.7672  139.1993  156.0476 O   0  0  0  0  0  0  0  0  0  0  0  0
  151.6238  139.4253  155.6496 C   0  0  0  0  0  0  0  0  0  0  0  0
  150.8922  140.4501  156.1197 N   0  0  0  0  0  0  0  0  0  0  0  0
  151.3470  141.4165  157.1132 C   0  0  0  0  0  0  0  0  0  0  0  0
  150.1909  142.2959  157.6186 C   0  0  0  0  0  0  0  0  0  0  0  0
  150.6772  143.4368  158.4915 C   0  0  0  0  0  0  0  0  0  0  0  0
  151.8056  144.1969  158.1167 C   0  0  0  0  0  0  0  0  0  0  0  0
  152.2142  145.2503  158.9571 C   0  0  0  0  0  0  0  0  0  0  0  0
  151.4815  145.5028  160.1327 C   0  0  0  0  0  0  0  0  0  0  0  0
  150.3679  144.6870  160.4167 C   0  0  0  0  0  0  0  0  0  0  0  0
  149.9676  143.6742  159.6179 N   0  0  0  0  0  0  0  0  0  0  0  0
  150.9813  138.6316  154.7569 N   0  0  0  0  0  0  0  0  0  0  0  0
  151.5700  137.5069  154.0185 C   0  0  0  0  0  0  0  0  0  0  0  0
  151.0868  136.1886  154.6515 C   0  0  0  0  0  0  0  0  0  0  0  0
  149.5977  136.1061  154.6945 N   0  3  0  0  0  0  0  0  0  0  0  0
  149.1129  134.8358  155.3073 C   0  0  2  0  0  0  0  0  0  0  0  0
  149.7258  133.5548  154.6897 C   0  0  0  0  0  0  0  0  0  0  0  0
  148.4918  132.6771  154.4064 C   0  0  2  0  0  0  0  0  0  0  0  0
  147.7708  133.2228  153.1621 C   0  0  0  0  0  0  0  0  0  0  0  0
  147.1607  134.5372  153.6802 C   0  0  0  0  0  0  0  0  0  0  0  0
  147.5945  134.5617  155.1625 C   0  0  1  0  0  0  0  0  0  0  0  0
  147.5337  133.0805  155.5210 C   0  0  0  0  0  0  0  0  0  0  0  0
  148.9848  137.3236  155.3000 C   0  0  0  0  0  0  0  0  0  0  0  0
  149.5209  138.6113  154.6496 C   0  0  0  0  0  0  0  0  0  0  0  0
  149.9516  140.5636  155.7710 H   0  0  0  0  0  0  0  0  0  0  0  0
  151.8244  140.8979  157.9465 H   0  0  0  0  0  0  0  0  0  0  0  0
  152.1161  142.0389  156.6549 H   0  0  0  0  0  0  0  0  0  0  0  0
  149.6364  142.7073  156.7740 H   0  0  0  0  0  0  0  0  0  0  0  0
  149.4795  141.6959  158.1875 H   0  0  0  0  0  0  0  0  0  0  0  0
  152.3456  143.9806  157.2064 H   0  0  0  0  0  0  0  0  0  0  0  0
  153.0733  145.8536  158.7038 H   0  0  0  0  0  0  0  0  0  0  0  0
  151.7652  146.3027  160.8003 H   0  0  0  0  0  0  0  0  0  0  0  0
  149.7834  144.8526  161.3095 H   0  0  0  0  0  0  0  0  0  0  0  0
  151.2515  137.5584  152.9763 H   0  0  0  0  0  0  0  0  0  0  0  0
  152.6595  137.5204  153.9895 H   0  0  0  0  0  0  0  0  0  0  0  0
  151.5006  135.3546  154.0861 H   0  0  0  0  0  0  0  0  0  0  0  0
  151.4809  136.1046  155.6657 H   0  0  0  0  0  0  0  0  0  0  0  0
  149.3530  134.8660  156.3720 H   0  0  0  0  0  0  0  0  0  0  0  0
  150.2888  133.7381  153.7739 H   0  0  0  0  0  0  0  0  0  0  0  0
  150.3972  133.0721  155.4010 H   0  0  0  0  0  0  0  0  0  0  0  0
  148.7141  131.6111  154.3492 H   0  0  0  0  0  0  0  0  0  0  0  0
  148.4471  133.3783  152.3207 H   0  0  0  0  0  0  0  0  0  0  0  0
  146.9863  132.5380  152.8370 H   0  0  0  0  0  0  0  0  0  0  0  0
  147.5080  135.4052  153.1199 H   0  0  0  0  0  0  0  0  0  0  0  0
  146.0734  134.5076  153.5987 H   0  0  0  0  0  0  0  0  0  0  0  0
  146.9692  135.1943  155.7931 H   0  0  0  0  0  0  0  0  0  0  0  0
  146.5374  132.6477  155.4127 H   0  0  0  0  0  0  0  0  0  0  0  0
  147.9131  132.8573  156.5198 H   0  0  0  0  0  0  0  0  0  0  0  0
  147.9017  137.3044  155.1837 H   0  0  0  0  0  0  0  0  0  0  0  0
  149.1894  137.3369  156.3718 H   0  0  0  0  0  0  0  0  0  0  0  0
  149.0538  139.4852  155.1065 H   0  0  0  0  0  0  0  0  0  0  0  0
  149.2370  138.6450  153.5966 H   0  0  0  0  0  0  0  0  0  0  0  0
  149.2888  136.0922  153.7330 H   0  0  0  0  0  0  0  0  0  0  0  0
  1  2  2  0  0  0  0
  2  3  1  0  0  0  0
  2 12  1  0  0  0  0
  3  4  1  0  0  0  0
  3 25  1  0  0  0  0
  4  5  1  0  0  0  0
  4 26  1  0  0  0  0
  4 27  1  0  0  0  0
  5  6  1  0  0  0  0
  5 28  1  0  0  0  0
  5 29  1  0  0  0  0
  6 11  1  0  0  0  0
  6  7  2  0  0  0  0
  7  8  1  0  0  0  0
  7 30  1  0  0  0  0
  8  9  2  0  0  0  0
  8 31  1  0  0  0  0
  9 10  1  0  0  0  0
  9 32  1  0  0  0  0
 10 11  2  0  0  0  0
 10 33  1  0  0  0  0
 12 24  1  0  0  0  0
 12 13  1  0  0  0  0
 13 14  1  0  0  0  0
 13 34  1  0  0  0  0
 13 35  1  0  0  0  0
 14 15  1  0  0  0  0
 14 36  1  0  0  0  0
 14 37  1  0  0  0  0
 15 16  1  0  0  0  0
 15 23  1  0  0  0  0
 15 53  1  0  0  0  0
 16 21  1  0  0  0  0
 16 17  1  0  0  0  0
 16 38  1  0  0  0  0
 17 18  1  0  0  0  0
 17 39  1  0  0  0  0
 17 40  1  0  0  0  0
 18 22  1  0  0  0  0
 18 19  1  0  0  0  0
 18 41  1  0  0  0  0
 19 20  1  0  0  0  0
 19 42  1  0  0  0  0
 19 43  1  0  0  0  0
 20 21  1  0  0  0  0
 20 44  1  0  0  0  0
 20 45  1  0  0  0  0
 21 22  1  0  0  0  0
 21 46  1  0  0  0  0
 22 47  1  0  0  0  0
 22 48  1  0  0  0  0
 23 24  1  0  0  0  0
 23 49  1  0  0  0  0
 23 50  1  0  0  0  0
 24 51  1  0  0  0  0
 24 52  1  0  0  0  0
M  CHG  1  15   1
M  END
> <s_m_source_file>
AV-unprocessed.smi

> <i_m_source_file_index>
907

> <i_lp_mmshare_version>
43012

> <i_f3d_flags>
0

> <s_epik_input>
W0NIMl0xW0NIMl1bQ0BASF0oW0NIMl0yKVtDQEBIXShbQ0gyXVtDQEhdMTIpTihbQ0gyXVtDSDJdMylbQ0gyXVtDSDJdTjNDKD1PKVtOSF1bQ0gyXVtDSDJdYzRbY0hdW2NIXVtjSF1bY0hdbjQ=

> <s_epik_cmdline>
J2VwaWtfcHl0aG9uJywgJy1waCcsICc3LjAnLCAnLXRuJywgJzgnLCAnLW1hJywgJzIwMCcsICctbWV0YWxfYmluZGluZycsICctaW1hZScsICc8aW5maWxlLm1hZT4nLCAnLW9tYWUnLCAnPG91dGZpbGUubWFlPic=

> <r_epik_Ionization_Penalty>
0.0419258

> <r_epik_Ionization_Penalty_Charging>
0.00262064

> <r_epik_Ionization_Penalty_Neutral>
0.0393052

> <r_epik_State_Penalty>
0.0329887

> <r_epik_Charging_Adjusted_Penalty>
0.0356093

> <i_epik_Tot_Q>
1

> <i_epik_Tot_abs_Q>
1

> <r_epik_Metal_State_Penalty>
0.0309172

> <b_epik_Metal_Only>
0

> <s_lp_Force_Field>
OPLS_2005

> <r_lp_Energy>
94.5265

> <b_lp_Chiralities_Consistent>
1

> <s_lp_Variant>
AV-unprocessed.smi:907-1

> <Gold.Version>
5.8.1

> <Gold.Id.Protein>
6NUR|6NUR_protein|mol2

> <Gold.PLP.Fitness>
51.3081

> <Gold.PLP.PLP>
-43.9769

> <Gold.PLP.part.hbond>
-2.7223

> <Gold.PLP.part.metal>
0.0000

> <Gold.PLP.part.buried>
-0.7306

> <Gold.PLP.part.nonpolar>
-41.2649

> <Gold.PLP.part.repulsive>
0.2624

> <Gold.PLP.ligand.clash>
0.9236

> <Gold.PLP.ligand.torsion>
0.4263

> <Gold.PLP.Chemscore.Hbond>
3.0000

> <Gold.PLP.Chemscore.CHOScore>
0.0000

> <Gold.PLP.Chemscore.Metal>
0.0000

> <Gold.Chemscore.Hbonds>
donor molecule, donor type, donor heavy atom, donor atom, acceptor molecule, acceptor atom, score
      L1  H    15    53       P1  7948  2.00
      P1  H  7997  8009       L1     1  1.00

> <Gold.PLP.Chemscore.Internal.Correction>
0.1074

> <Gold.Rescore>
     Score         DG    S(hbond)    S(metal)    S(lipo)     H(rot)  DE(clash)    DE(int)     intcor
     21.68     -22.02       1.95        0.00     115.76       1.37       0.07       0.28       ----

> <Gold.Chemscore.Fitness>
21.6759

> <Gold.Chemscore.DG>
-22.0232

> <Gold.Chemscore.ZeroCoef>
-5.4800

> <Gold.Chemscore.Hbond>
1.9504

> <Gold.Chemscore.Metal>
0.0000

> <Gold.Chemscore.Lipo>
115.7602

> <Gold.Chemscore.Internal_Hbond>
0.0000

> <Gold.Chemscore.DEClash>
0.0694

> <Gold.Chemscore.DEInternal>
0.2780

> <Gold.Chemscore.Rot>
1.3731

> <Gold.Chemscore.Internal.Correction>
   9.000000E+99

> <Gold.Chemscore.Hbonds>
donor molecule, donor type, donor heavy atom, donor atom, acceptor molecule, acceptor atom, score
      L1  H    15    53       P1  7948  0.82
      P1  H  7997  8009       L1     1  0.99

> <Gold.Chemscore.Hbond.Weighted>
-6.5145

> <Gold.Chemscore.Metal.Weighted>
-0.0000

> <Gold.Chemscore.Lipo.Weighted>
-13.5439

> <Gold.Chemscore.Internal_Hbond.Weighted>
0.0000

> <Gold.Chemscore.DEClash.Weighted>
0.0694

> <Gold.Chemscore.DEInternal.Weighted>
0.2780

> <Gold.Chemscore.Rot.Weighted>
3.5152

> <Gold.Chemscore.Internal.Correction.Weighted>
   9.000000E+99

> <Gold.Protein.RotatedTorsions>
[ 6907 6896 6895 6894 ] final -111.61 input  -60.11 | X-H torsion
[ 7974 7965 7964 7962 ] final -125.42 input  175.53 | X-H torsion
[ 8008 7997 7996 7995 ] final -173.58 input   59.86 | X-H torsion
[ 10167 10162 10161 10158 ] final   68.40 input  -65.29 | X-H torsion
[ 10718 10713 10712 10709 ] final  166.05 input   66.30 | X-H torsion
[ 10763 10752 10751 10750 ] final -152.44 input  -60.55 | X-H torsion
[ 11005 11000 10999 10996 ] final  138.29 input  -57.11 | X-H torsion

> <Gold.Protein.ActiveResidues>
 VAL166  LYS551  ARG553  GLY616  TRP617  ASP618  TYR619  PRO620  LYS621  CYS622 
 ASP623  PHE694  ASN695  SER759  ASP760  ASP761  ALA762  ILE779  LEU786  VAL792 
 PHE793  MET794  SER795  GLU796  ALA797  LYS798  CYS799  TRP800  GLU811  SER814 

> <Gold.Protein.RotatedAtoms>
  150.7702  133.9210  159.3397 H   0  0  0  0  0  0  0  0  0  0  0  0  # atno 6907 bound_to 6896
  151.7098  135.0913  160.0275 H   0  0  0  0  0  0  0  0  0  0  0  0  # atno 6908 bound_to 6896
  152.3716  133.6389  159.6127 H   0  0  0  0  0  0  0  0  0  0  0  0  # atno 6909 bound_to 6896
  144.9978  140.7792  143.4515 H   0  0  0  0  0  0  0  0  0  0  0  0  # atno 7974 bound_to 7965
  155.9592  140.1141  157.0910 H   0  0  0  0  0  0  0  0  0  0  0  0  # atno 8008 bound_to 7997
  154.4128  140.1185  156.5223 H   0  0  0  0  0  0  0  0  0  0  0  0  # atno 8009 bound_to 7997
  155.6742  140.3473  155.4832 H   0  0  0  0  0  0  0  0  0  0  0  0  # atno 8010 bound_to 7997
  140.0791  144.5087  150.7174 H   0  0  0  0  0  0  0  0  0  0  0  0  # atno 10167 bound_to 10162
  157.0714  131.0367  151.2610 H   0  0  0  0  0  0  0  0  0  0  0  0  # atno 10718 bound_to 10713
  154.7994  135.3236  154.7588 H   0  0  0  0  0  0  0  0  0  0  0  0  # atno 10763 bound_to 10752
  153.8260  135.6883  153.4825 H   0  0  0  0  0  0  0  0  0  0  0  0  # atno 10764 bound_to 10752
  153.1702  135.4626  154.9834 H   0  0  0  0  0  0  0  0  0  0  0  0  # atno 10765 bound_to 10752
  140.0173  134.9412  157.0402 H   0  0  0  0  0  0  0  0  0  0  0  0  # atno 11005 bound_to 11000
  145.2195  139.2165  143.5100 LP  0  0  0  0  0  0  0  0  0  0  0  0  # atno 17320 bound_to 7965
  146.3445  140.2050  142.8589 LP  0  0  0  0  0  0  0  0  0  0  0  0  # atno 17321 bound_to 7965
  140.7087  143.2488  151.4648 LP  0  0  0  0  0  0  0  0  0  0  0  0  # atno 17342 bound_to 10162
  139.5790  144.1752  152.1943 LP  0  0  0  0  0  0  0  0  0  0  0  0  # atno 17343 bound_to 10162
  157.4875  130.7802  149.7474 LP  0  0  0  0  0  0  0  0  0  0  0  0  # atno 17370 bound_to 10713
  155.9949  130.3915  150.2839 LP  0  0  0  0  0  0  0  0  0  0  0  0  # atno 17371 bound_to 10713
  140.4449  134.1643  155.7176 LP  0  0  0  0  0  0  0  0  0  0  0  0  # atno 17394 bound_to 11000
  141.1751  133.8530  157.1447 LP  0  0  0  0  0  0  0  0  0  0  0  0  # atno 17395 bound_to 11000

$$$$
