AV-unprocessed.smi:51|AV-procd|sdf|504|dock5
  -GOLD-   2262016373D 1   1.00000     0.00000
 Structure written by MMmdl.
 26 27  0  0  0  0  0  0  0  0  3 V2000
  153.3579  139.1608  157.6297 O   0  0  0  0  0  0  0  0  0  0  0  0
  152.7175  139.6772  158.5707 C   0  0  0  0  0  0  0  0  0  0  0  0
  153.0261  139.6123  159.7816 O   0  5  0  0  0  0  0  0  0  0  0  0
  151.4591  140.4730  158.1946 C   0  0  1  0  0  0  0  0  0  0  0  0
  151.5261  141.9300  158.6842 C   0  0  0  0  0  0  0  0  0  0  0  0
  150.7081  142.6853  157.6371 C   0  0  1  0  0  0  0  0  0  0  0  0
  151.0393  144.0559  157.5674 O   0  0  0  0  0  0  0  0  0  0  0  0
  151.0185  141.9433  156.3356 C   0  0  0  0  0  0  0  0  0  0  0  0
  151.2758  140.5709  156.7464 N   0  0  0  0  0  0  0  0  0  0  0  0
  150.9108  139.4793  155.9340 C   0  0  0  0  0  0  0  0  0  0  0  0
  150.7692  138.1835  156.4731 C   0  0  0  0  0  0  0  0  0  0  0  0
  150.3904  137.1563  155.5891 C   0  0  0  0  0  0  0  0  0  0  0  0
  150.1795  137.4228  154.2777 N   0  3  0  0  0  0  0  0  0  0  0  0
  150.3327  138.6761  153.8266 C   0  0  0  0  0  0  0  0  0  0  0  0
  150.6923  139.6934  154.6164 N   0  0  0  0  0  0  0  0  0  0  0  0
  150.5784  139.9914  158.6222 H   0  0  0  0  0  0  0  0  0  0  0  0
  151.1297  142.0515  159.6926 H   0  0  0  0  0  0  0  0  0  0  0  0
  152.5545  142.2974  158.6844 H   0  0  0  0  0  0  0  0  0  0  0  0
  149.6469  142.5842  157.8696 H   0  0  0  0  0  0  0  0  0  0  0  0
  150.4480  144.4763  156.9619 H   0  0  0  0  0  0  0  0  0  0  0  0
  150.1909  142.0311  155.6306 H   0  0  0  0  0  0  0  0  0  0  0  0
  151.9194  142.3338  155.8599 H   0  0  0  0  0  0  0  0  0  0  0  0
  150.9258  137.9788  157.5219 H   0  0  0  0  0  0  0  0  0  0  0  0
  150.2456  136.1290  155.8900 H   0  0  0  0  0  0  0  0  0  0  0  0
  150.1522  138.8413  152.7747 H   0  0  0  0  0  0  0  0  0  0  0  0
  149.9026  136.6714  153.6459 H   0  0  0  0  0  0  0  0  0  0  0  0
  1  2  2  0  0  0  0
  2  3  1  0  0  0  0
  2  4  1  0  0  0  0
  4  9  1  0  0  0  0
  4  5  1  0  0  0  0
  4 16  1  0  0  0  0
  5  6  1  0  0  0  0
  5 17  1  0  0  0  0
  5 18  1  0  0  0  0
  6  7  1  0  0  0  0
  6  8  1  0  0  0  0
  6 19  1  0  0  0  0
  7 20  1  0  0  0  0
  8  9  1  0  0  0  0
  8 21  1  0  0  0  0
  8 22  1  0  0  0  0
  9 10  1  0  0  0  0
 10 15  1  0  0  0  0
 10 11  2  0  0  0  0
 11 12  1  0  0  0  0
 11 23  1  0  0  0  0
 12 13  2  0  0  0  0
 12 24  1  0  0  0  0
 13 14  1  0  0  0  0
 13 26  1  0  0  0  0
 14 15  2  0  0  0  0
 14 25  1  0  0  0  0
M  CHG  1   3  -1
M  CHG  1  13   1
M  END
> <s_m_source_file>
AV-unprocessed.smi

> <i_m_source_file_index>
51

> <i_lp_mmshare_version>
43012

> <i_f3d_flags>
0

> <s_epik_input>
Tz1DKFtPSF0pW0NAQEhdMVtDSDJdW0NAQEhdKFtPSF0pW0NIMl1OMWMyW2NIXVtjSF1uW2NIXW4y

> <s_epik_cmdline>
J2VwaWtfcHl0aG9uJywgJy1waCcsICc3LjAnLCAnLXRuJywgJzgnLCAnLW1hJywgJzIwMCcsICctbWV0YWxfYmluZGluZycsICctaW1hZScsICc8aW5maWxlLm1hZT4nLCAnLW9tYWUnLCAnPG91dGZpbGUubWFlPic=

> <r_lp_tautomer_probability>
0.999336

> <r_epik_Ionization_Penalty>
0.688427

> <r_epik_Ionization_Penalty_Charging>
0.688427

> <r_epik_Ionization_Penalty_Neutral>
1.98379e-07

> <r_epik_State_Penalty>
0.709817

> <r_epik_Charging_Adjusted_Penalty>
1.39824

> <i_epik_Tot_Q>
0

> <i_epik_Tot_abs_Q>
2

> <r_epik_Metal_State_Penalty>
0.873261

> <b_epik_Metal_Only>
0

> <s_lp_Force_Field>
OPLS_2005

> <r_lp_Energy>
15.7

> <b_lp_Chiralities_Consistent>
1

> <s_lp_Variant>
AV-unprocessed.smi:51-6

> <Gold.Version>
5.8.1

> <Gold.Id.Protein>
6NUR|6NUR_protein|mol2

> <Gold.PLP.Fitness>
43.6285

> <Gold.PLP.PLP>
-23.1824

> <Gold.PLP.part.hbond>
-4.2096

> <Gold.PLP.part.metal>
0.0000

> <Gold.PLP.part.buried>
-4.1307

> <Gold.PLP.part.nonpolar>
-14.6621

> <Gold.PLP.part.repulsive>
0.1398

> <Gold.PLP.ligand.clash>
0.0000

> <Gold.PLP.ligand.torsion>
0.1170

> <Gold.PLP.Chemscore.Hbond>
5.8560

> <Gold.PLP.Chemscore.CHOScore>
0.9939

> <Gold.PLP.Chemscore.Metal>
0.0000

> <Gold.Chemscore.Hbonds>
donor molecule, donor type, donor heavy atom, donor atom, acceptor molecule, acceptor atom, score
      L1  H     7    20       P1  8028  1.00
      L1  H    13    26       P1  7948  1.79
      P1  H  7989  7998       L1    15  1.00
      P1  H  7997  8010       L1     1  2.00
      L1  C    14    25       P1  7957  1.00

> <Gold.PLP.Chemscore.Internal.Correction>
0.1304

> <Gold.Rescore>
     Score         DG    S(hbond)    S(metal)    S(lipo)     H(rot)  DE(clash)    DE(int)     intcor
     14.83     -16.15       3.31        0.00      33.96       1.70       0.13       1.19       ----

> <Gold.Chemscore.Fitness>
14.8336

> <Gold.Chemscore.DG>
-16.1530

> <Gold.Chemscore.ZeroCoef>
-5.4800

> <Gold.Chemscore.Hbond>
3.3103

> <Gold.Chemscore.Metal>
0.0000

> <Gold.Chemscore.Lipo>
33.9626

> <Gold.Chemscore.Internal_Hbond>
0.0000

> <Gold.Chemscore.DEClash>
0.1307

> <Gold.Chemscore.DEInternal>
1.1887

> <Gold.Chemscore.Rot>
1.7020

> <Gold.Chemscore.Internal.Correction>
   9.000000E+99

> <Gold.Chemscore.Hbonds>
donor molecule, donor type, donor heavy atom, donor atom, acceptor molecule, acceptor atom, score
      L1  H     7    20       P1  8028  0.80
      L1  H    13    26       P1  7948  0.25
      P1  H  7989  7998       L1    15  0.50
      P1  H  7997  8010       L1     1  0.96

> <Gold.Chemscore.Hbond.Weighted>
-11.0565

> <Gold.Chemscore.Metal.Weighted>
-0.0000

> <Gold.Chemscore.Lipo.Weighted>
-3.9736

> <Gold.Chemscore.Internal_Hbond.Weighted>
0.0000

> <Gold.Chemscore.DEClash.Weighted>
0.1307

> <Gold.Chemscore.DEInternal.Weighted>
1.1887

> <Gold.Chemscore.Rot.Weighted>
4.3571

> <Gold.Chemscore.Internal.Correction.Weighted>
   9.000000E+99

> <Gold.Protein.RotatedTorsions>
[ 6907 6896 6895 6894 ] final  -70.51 input  -60.11 | X-H torsion
[ 7974 7965 7964 7962 ] final  -85.21 input  175.53 | X-H torsion
[ 8008 7997 7996 7995 ] final   59.33 input   59.86 | X-H torsion
[ 10167 10162 10161 10158 ] final  -43.93 input  -65.29 | X-H torsion
[ 10718 10713 10712 10709 ] final  -12.47 input   66.30 | X-H torsion
[ 10763 10752 10751 10750 ] final  158.39 input  -60.55 | X-H torsion
[ 11005 11000 10999 10996 ] final   71.65 input  -57.11 | X-H torsion

> <Gold.Protein.ActiveResidues>
 VAL166  LYS551  ARG553  GLY616  TRP617  ASP618  TYR619  PRO620  LYS621  CYS622 
 ASP623  PHE694  ASN695  SER759  ASP760  ASP761  ALA762  ILE779  LEU786  VAL792 
 PHE793  MET794  SER795  GLU796  ALA797  LYS798  CYS799  TRP800  GLU811  SER814 

> <Gold.Protein.RotatedAtoms>
  150.7254  134.5442  159.5762 H   0  0  0  0  0  0  0  0  0  0  0  0  # atno 6907 bound_to 6896
  152.2945  134.7680  160.0380 H   0  0  0  0  0  0  0  0  0  0  0  0  # atno 6908 bound_to 6896
  151.8281  133.3369  159.3642 H   0  0  0  0  0  0  0  0  0  0  0  0  # atno 6909 bound_to 6896
  145.4963  140.9550  143.1784 H   0  0  0  0  0  0  0  0  0  0  0  0  # atno 7974 bound_to 7965
  155.5644  140.3489  155.4499 H   0  0  0  0  0  0  0  0  0  0  0  0  # atno 8008 bound_to 7997
  156.0491  140.1313  157.0096 H   0  0  0  0  0  0  0  0  0  0  0  0  # atno 8009 bound_to 7997
  154.4426  140.1008  156.6334 H   0  0  0  0  0  0  0  0  0  0  0  0  # atno 8010 bound_to 7997
  140.6916  143.2957  151.3422 H   0  0  0  0  0  0  0  0  0  0  0  0  # atno 10167 bound_to 10162
  156.6441  130.4936  149.6084 H   0  0  0  0  0  0  0  0  0  0  0  0  # atno 10718 bound_to 10713
  154.2154  135.2784  155.2944 H   0  0  0  0  0  0  0  0  0  0  0  0  # atno 10763 bound_to 10752
  154.5745  135.5608  153.7130 H   0  0  0  0  0  0  0  0  0  0  0  0  # atno 10764 bound_to 10752
  153.0054  135.6329  154.2293 H   0  0  0  0  0  0  0  0  0  0  0  0  # atno 10765 bound_to 10752
  139.9532  134.7190  156.0814 H   0  0  0  0  0  0  0  0  0  0  0  0  # atno 11005 bound_to 11000
  144.7805  139.6536  143.7156 LP  0  0  0  0  0  0  0  0  0  0  0  0  # atno 17320 bound_to 7965
  146.2253  139.5711  142.9591 LP  0  0  0  0  0  0  0  0  0  0  0  0  # atno 17321 bound_to 7965
  139.6324  144.0695  152.2488 LP  0  0  0  0  0  0  0  0  0  0  0  0  # atno 17342 bound_to 10162
  140.0174  144.6179  150.7596 LP  0  0  0  0  0  0  0  0  0  0  0  0  # atno 17343 bound_to 10162
  156.2136  130.6694  151.1295 LP  0  0  0  0  0  0  0  0  0  0  0  0  # atno 17370 bound_to 10713
  157.7162  131.0708  150.6318 LP  0  0  0  0  0  0  0  0  0  0  0  0  # atno 17371 bound_to 10713
  141.1199  133.6616  156.3187 LP  0  0  0  0  0  0  0  0  0  0  0  0  # atno 17394 bound_to 11000
  140.5670  134.5878  157.5448 LP  0  0  0  0  0  0  0  0  0  0  0  0  # atno 17395 bound_to 11000

$$$$
