AV-unprocessed.smi:2373|AV-procd|sdf|9440|dock10
  -GOLD-   2272013 73D 1   1.00000     0.00000
 Structure written by MMmdl.
 46 47  0  0  0  0  0  0  0  0  1 V2000
  151.6350  145.4943  160.1184 C   0  0  0  0  0  0  0  0  0  0  0  0
  152.0595  144.5161  159.1217 N   0  0  0  0  0  0  0  0  0  0  0  0
  152.0326  144.8628  157.7061 C   0  0  0  0  0  0  0  0  0  0  0  0
  152.4583  143.2229  159.5305 C   0  0  0  0  0  0  0  0  0  0  0  0
  152.6084  142.8931  160.9004 C   0  0  0  0  0  0  0  0  0  0  0  0
  153.0115  141.5914  161.2540 C   0  0  0  0  0  0  0  0  0  0  0  0
  153.2656  140.6476  160.2407 C   0  0  0  0  0  0  0  0  0  0  0  0
  153.6545  139.3367  160.6277 N   0  0  0  0  0  0  0  0  0  0  0  0
  154.3090  138.4115  159.9052 C   0  0  0  0  0  0  0  0  0  0  0  0
  154.7268  138.5734  158.7596 O   0  0  0  0  0  0  0  0  0  0  0  0
  154.4719  137.2791  160.6103 N   0  0  0  0  0  0  0  0  0  0  0  0
  155.1326  136.0327  160.1935 C   0  0  0  0  0  0  0  0  0  0  0  0
  156.6758  136.1246  160.3959 C   0  0  0  0  0  0  0  0  0  0  0  0
  157.4088  137.1651  159.5265 C   0  0  0  0  0  0  0  0  0  0  0  0
  158.7932  136.8910  159.5278 O   0  0  0  0  0  0  0  0  0  0  0  0
  154.5035  134.9017  161.0456 C   0  0  0  0  0  0  0  0  0  0  0  0
  154.8305  133.4941  160.5175 C   0  0  0  0  0  0  0  0  0  0  0  0
  154.4138  133.3768  159.1642 O   0  0  0  0  0  0  0  0  0  0  0  0
  155.0934  134.2809  158.3045 C   0  0  0  0  0  0  0  0  0  0  0  0
  154.7857  135.7333  158.7103 C   0  0  0  0  0  0  0  0  0  0  0  0
  153.0756  141.0603  158.9012 C   0  0  0  0  0  0  0  0  0  0  0  0
  152.6877  142.3065  158.5586 N   0  0  0  0  0  0  0  0  0  0  0  0
  152.4249  145.6629  160.8510 H   0  0  0  0  0  0  0  0  0  0  0  0
  150.7450  145.1449  160.6429 H   0  0  0  0  0  0  0  0  0  0  0  0
  151.3984  146.4543  159.6593 H   0  0  0  0  0  0  0  0  0  0  0  0
  151.3811  144.1824  157.1566 H   0  0  0  0  0  0  0  0  0  0  0  0
  153.0348  144.8092  157.2801 H   0  0  0  0  0  0  0  0  0  0  0  0
  151.6590  145.8752  157.5518 H   0  0  0  0  0  0  0  0  0  0  0  0
  152.4213  143.6097  161.6856 H   0  0  0  0  0  0  0  0  0  0  0  0
  153.1274  141.3258  162.2948 H   0  0  0  0  0  0  0  0  0  0  0  0
  153.4505  139.0904  161.5851 H   0  0  0  0  0  0  0  0  0  0  0  0
  154.0896  137.2720  161.5445 H   0  0  0  0  0  0  0  0  0  0  0  0
  156.9002  136.3304  161.4419 H   0  0  0  0  0  0  0  0  0  0  0  0
  157.1207  135.1481  160.2026 H   0  0  0  0  0  0  0  0  0  0  0  0
  157.0547  137.1421  158.4961 H   0  0  0  0  0  0  0  0  0  0  0  0
  157.2593  138.1761  159.9034 H   0  0  0  0  0  0  0  0  0  0  0  0
  159.1690  137.2424  160.3204 H   0  0  0  0  0  0  0  0  0  0  0  0
  154.7958  134.9840  162.0920 H   0  0  0  0  0  0  0  0  0  0  0  0
  153.4175  135.0091  161.0379 H   0  0  0  0  0  0  0  0  0  0  0  0
  155.8934  133.2683  160.6087 H   0  0  0  0  0  0  0  0  0  0  0  0
  154.3018  132.7461  161.1084 H   0  0  0  0  0  0  0  0  0  0  0  0
  156.1656  134.0827  158.3207 H   0  0  0  0  0  0  0  0  0  0  0  0
  154.7601  134.1043  157.2818 H   0  0  0  0  0  0  0  0  0  0  0  0
  153.7223  135.9115  158.5423 H   0  0  0  0  0  0  0  0  0  0  0  0
  155.3141  136.4119  158.0404 H   0  0  0  0  0  0  0  0  0  0  0  0
  153.2111  140.3877  158.0691 H   0  0  0  0  0  0  0  0  0  0  0  0
  1  2  1  0  0  0  0
  1 23  1  0  0  0  0
  1 24  1  0  0  0  0
  1 25  1  0  0  0  0
  2  3  1  0  0  0  0
  2  4  1  0  0  0  0
  3 26  1  0  0  0  0
  3 27  1  0  0  0  0
  3 28  1  0  0  0  0
  4 22  1  0  0  0  0
  4  5  2  0  0  0  0
  5  6  1  0  0  0  0
  5 29  1  0  0  0  0
  6  7  2  0  0  0  0
  6 30  1  0  0  0  0
  7  8  1  0  0  0  0
  7 21  1  0  0  0  0
  8  9  1  0  0  0  0
  8 31  1  0  0  0  0
  9 10  2  0  0  0  0
  9 11  1  0  0  0  0
 11 12  1  0  0  0  0
 11 32  1  0  0  0  0
 12 20  1  0  0  0  0
 12 13  1  0  0  0  0
 12 16  1  0  0  0  0
 13 14  1  0  0  0  0
 13 33  1  0  0  0  0
 13 34  1  0  0  0  0
 14 15  1  0  0  0  0
 14 35  1  0  0  0  0
 14 36  1  0  0  0  0
 15 37  1  0  0  0  0
 16 17  1  0  0  0  0
 16 38  1  0  0  0  0
 16 39  1  0  0  0  0
 17 18  1  0  0  0  0
 17 40  1  0  0  0  0
 17 41  1  0  0  0  0
 18 19  1  0  0  0  0
 19 20  1  0  0  0  0
 19 42  1  0  0  0  0
 19 43  1  0  0  0  0
 20 44  1  0  0  0  0
 20 45  1  0  0  0  0
 21 22  2  0  0  0  0
 21 46  1  0  0  0  0
M  END
> <s_m_source_file>
AV-unprocessed.smi

> <i_m_source_file_index>
2373

> <i_lp_mmshare_version>
43012

> <i_f3d_flags>
0

> <s_epik_input>
W0NIM11OKFtDSDNdKWMxW2NIXVtjSF1jKFtjSF1uMSlbTkhdQyg9TylbTkhdQzIoW0NIMl1bQ0gyXVtPSF0pW0NIMl1bQ0gyXU9bQ0gyXVtDSDJdMg==

> <s_epik_cmdline>
J2VwaWtfcHl0aG9uJywgJy1waCcsICc3LjAnLCAnLXRuJywgJzgnLCAnLW1hJywgJzIwMCcsICctbWV0YWxfYmluZGluZycsICctaW1hZScsICc8aW5maWxlLm1hZT4nLCAnLW9tYWUnLCAnPG91dGZpbGUubWFlPic=

> <r_lp_tautomer_probability>
1

> <r_epik_Ionization_Penalty>
0.631973

> <r_epik_Ionization_Penalty_Charging>
0

> <r_epik_Ionization_Penalty_Neutral>
0.631973

> <r_epik_State_Penalty>
0.647706

> <r_epik_Charging_Adjusted_Penalty>
0.647706

> <i_epik_Tot_Q>
0

> <i_epik_Tot_abs_Q>
0

> <r_epik_Metal_State_Penalty>
0.309159

> <b_epik_Metal_Only>
0

> <s_lp_Force_Field>
OPLS_2005

> <r_lp_Energy>
18.939

> <b_lp_Chiralities_Consistent>
1

> <s_lp_Variant>
AV-unprocessed.smi:2373-2

> <Gold.Version>
5.8.1

> <Gold.Id.Protein>
6NUR|6NUR_protein|mol2

> <Gold.PLP.Fitness>
43.5164

> <Gold.PLP.PLP>
-38.8812

> <Gold.PLP.part.hbond>
-3.0000

> <Gold.PLP.part.metal>
0.0000

> <Gold.PLP.part.buried>
-5.0320

> <Gold.PLP.part.nonpolar>
-30.1973

> <Gold.PLP.part.repulsive>
0.0582

> <Gold.PLP.ligand.clash>
0.0000

> <Gold.PLP.ligand.torsion>
0.6958

> <Gold.PLP.Chemscore.Hbond>
2.0000

> <Gold.PLP.Chemscore.CHOScore>
0.0000

> <Gold.PLP.Chemscore.Metal>
0.0000

> <Gold.Chemscore.Hbonds>
donor molecule, donor type, donor heavy atom, donor atom, acceptor molecule, acceptor atom, score
      P1  H  6896  6909       L1    18  0.40
      P1  H  7997  8008       L1    10  0.93

> <Gold.PLP.Chemscore.Internal.Correction>
0.0269

> <Gold.Rescore>
     Score         DG    S(hbond)    S(metal)    S(lipo)     H(rot)  DE(clash)    DE(int)     intcor
      9.89     -14.37       1.24        0.00      86.20       2.09       1.17       3.32       ----

> <Gold.Chemscore.Fitness>
9.8882

> <Gold.Chemscore.DG>
-14.3723

> <Gold.Chemscore.ZeroCoef>
-5.4800

> <Gold.Chemscore.Hbond>
1.2417

> <Gold.Chemscore.Metal>
0.0000

> <Gold.Chemscore.Lipo>
86.1953

> <Gold.Chemscore.Internal_Hbond>
0.0000

> <Gold.Chemscore.DEClash>
1.1679

> <Gold.Chemscore.DEInternal>
3.3162

> <Gold.Chemscore.Rot>
2.0859

> <Gold.Chemscore.Internal.Correction>
   9.000000E+99

> <Gold.Chemscore.Hbonds>
donor molecule, donor type, donor heavy atom, donor atom, acceptor molecule, acceptor atom, score
      P1  H  6896  6909       L1    18  0.01
      P1  H  7997  8008       L1    10  0.88

> <Gold.Chemscore.Hbond.Weighted>
-4.1474

> <Gold.Chemscore.Metal.Weighted>
-0.0000

> <Gold.Chemscore.Lipo.Weighted>
-10.0849

> <Gold.Chemscore.Internal_Hbond.Weighted>
0.0000

> <Gold.Chemscore.DEClash.Weighted>
1.1679

> <Gold.Chemscore.DEInternal.Weighted>
3.3162

> <Gold.Chemscore.Rot.Weighted>
5.3399

> <Gold.Chemscore.Internal.Correction.Weighted>
   9.000000E+99

> <Gold.Protein.RotatedTorsions>
[ 6907 6896 6895 6894 ] final -133.91 input  -60.11 | X-H torsion
[ 7974 7965 7964 7962 ] final -116.69 input  175.53 | X-H torsion
[ 8008 7997 7996 7995 ] final -124.49 input   59.86 | X-H torsion
[ 10167 10162 10161 10158 ] final   48.66 input  -65.29 | X-H torsion
[ 10718 10713 10712 10709 ] final  -81.65 input   66.30 | X-H torsion
[ 10763 10752 10751 10750 ] final    8.63 input  -60.55 | X-H torsion
[ 11005 11000 10999 10996 ] final  -83.41 input  -57.11 | X-H torsion

> <Gold.Protein.ActiveResidues>
 VAL166  LYS551  ARG553  GLY616  TRP617  ASP618  TYR619  PRO620  LYS621  CYS622 
 ASP623  PHE694  ASN695  SER759  ASP760  ASP761  ALA762  ILE779  LEU786  VAL792 
 PHE793  MET794  SER795  GLU796  ALA797  LYS798  CYS799  TRP800  GLU811  SER814 

> <Gold.Protein.RotatedAtoms>
  150.9796  133.6259  159.2724 H   0  0  0  0  0  0  0  0  0  0  0  0  # atno 6907 bound_to 6896
  151.3519  135.0885  159.9415 H   0  0  0  0  0  0  0  0  0  0  0  0  # atno 6908 bound_to 6896
  152.5211  133.9387  159.7670 H   0  0  0  0  0  0  0  0  0  0  0  0  # atno 6909 bound_to 6896
  145.0939  140.8508  143.3966 H   0  0  0  0  0  0  0  0  0  0  0  0  # atno 7974 bound_to 7965
  155.1977  140.0415  157.2912 H   0  0  0  0  0  0  0  0  0  0  0  0  # atno 8008 bound_to 7997
  154.6096  140.2473  155.7658 H   0  0  0  0  0  0  0  0  0  0  0  0  # atno 8009 bound_to 7997
  156.2371  140.2917  156.0351 H   0  0  0  0  0  0  0  0  0  0  0  0  # atno 8010 bound_to 7997
  140.2910  144.3046  150.6241 H   0  0  0  0  0  0  0  0  0  0  0  0  # atno 10167 bound_to 10162
  156.0046  130.4610  150.3984 H   0  0  0  0  0  0  0  0  0  0  0  0  # atno 10718 bound_to 10713
  153.2229  135.6883  153.7978 H   0  0  0  0  0  0  0  0  0  0  0  0  # atno 10763 bound_to 10752
  153.7170  135.3273  155.3259 H   0  0  0  0  0  0  0  0  0  0  0  0  # atno 10764 bound_to 10752
  154.8278  135.4604  154.1084 H   0  0  0  0  0  0  0  0  0  0  0  0  # atno 10765 bound_to 10752
  141.1658  133.7293  156.8716 H   0  0  0  0  0  0  0  0  0  0  0  0  # atno 11005 bound_to 11000
  145.1034  139.2807  143.5674 LP  0  0  0  0  0  0  0  0  0  0  0  0  # atno 17320 bound_to 7965
  146.3531  140.0608  142.8629 LP  0  0  0  0  0  0  0  0  0  0  0  0  # atno 17321 bound_to 7965
  140.5732  143.2179  151.7561 LP  0  0  0  0  0  0  0  0  0  0  0  0  # atno 17342 bound_to 10162
  139.4938  144.4186  152.0002 LP  0  0  0  0  0  0  0  0  0  0  0  0  # atno 17343 bound_to 10162
  157.2055  131.0448  151.2628 LP  0  0  0  0  0  0  0  0  0  0  0  0  # atno 17370 bound_to 10713
  157.3937  130.7296  149.6716 LP  0  0  0  0  0  0  0  0  0  0  0  0  # atno 17371 bound_to 10713
  140.1777  134.9055  157.2911 LP  0  0  0  0  0  0  0  0  0  0  0  0  # atno 17394 bound_to 11000
  140.2430  134.3773  155.7473 LP  0  0  0  0  0  0  0  0  0  0  0  0  # atno 17395 bound_to 11000

$$$$
