AV-unprocessed.smi:2025|AV-procd|sdf|8200|dock1
  -GOLD-   2272010453D 1   1.00000     0.00000
 Structure written by MMmdl.
 39 40  0  0  0  0  0  0  0  0  1 V2000
  146.9529  134.9676  154.9527 C   0  0  0  0  0  0  0  0  0  0  0  0
  146.0270  135.9466  154.2143 C   0  0  1  0  0  0  0  0  0  0  0  0
  146.8242  137.0814  153.7535 N   0  0  0  0  0  0  0  0  0  0  0  0
  146.7103  138.3462  154.1879 C   0  0  0  0  0  0  0  0  0  0  0  0
  145.8975  138.6986  155.0439 O   0  0  0  0  0  0  0  0  0  0  0  0
  147.6466  139.3677  153.5284 C   0  0  0  0  0  0  0  0  0  0  0  0
  148.9229  139.5212  154.2387 N   0  0  0  0  0  0  0  0  0  0  0  0
  149.8591  138.5043  154.1892 C   0  0  0  0  0  0  0  0  0  0  0  0
  151.0640  138.5708  154.7964 C   0  0  0  0  0  0  0  0  0  0  0  0
  151.4504  139.7495  155.5617 C   0  0  0  0  0  0  0  0  0  0  0  0
  152.5428  139.8655  156.1190 O   0  0  0  0  0  0  0  0  0  0  0  0
  150.4707  140.7684  155.6089 N   0  0  0  0  0  0  0  0  0  0  0  0
  150.8088  141.9700  156.3434 C   0  0  0  0  0  0  0  0  0  0  0  0
  149.2183  140.7015  154.9552 C   0  0  0  0  0  0  0  0  0  0  0  0
  148.4053  141.6283  154.9915 O   0  0  0  0  0  0  0  0  0  0  0  0
  145.3105  135.2881  153.0166 C   0  0  1  0  0  0  0  0  0  0  0  0
  144.6739  136.2703  152.0348 C   0  0  0  0  0  0  0  0  0  0  0  0
  144.5312  135.4190  150.7922 C   0  0  0  0  0  0  0  0  0  0  0  0
  145.7591  134.5107  150.8596 C   0  0  0  0  0  0  0  0  0  0  0  0
  146.2366  134.5783  152.2009 O   0  0  0  0  0  0  0  0  0  0  0  0
  146.3939  134.1325  155.3751 H   0  0  0  0  0  0  0  0  0  0  0  0
  147.4676  135.4616  155.7776 H   0  0  0  0  0  0  0  0  0  0  0  0
  147.7110  134.5570  154.2849 H   0  0  0  0  0  0  0  0  0  0  0  0
  145.2758  136.2904  154.9277 H   0  0  0  0  0  0  0  0  0  0  0  0
  147.5141  136.8898  153.0417 H   0  0  0  0  0  0  0  0  0  0  0  0
  147.8259  139.0875  152.4888 H   0  0  0  0  0  0  0  0  0  0  0  0
  147.1279  140.3265  153.4887 H   0  0  0  0  0  0  0  0  0  0  0  0
  149.6201  137.6114  153.6298 H   0  0  0  0  0  0  0  0  0  0  0  0
  151.7520  137.7424  154.7124 H   0  0  0  0  0  0  0  0  0  0  0  0
  149.9105  142.5354  156.5920 H   0  0  0  0  0  0  0  0  0  0  0  0
  151.4767  142.5524  155.7072 H   0  0  0  0  0  0  0  0  0  0  0  0
  151.2970  141.6787  157.2751 H   0  0  0  0  0  0  0  0  0  0  0  0
  144.5540  134.5830  153.3664 H   0  0  0  0  0  0  0  0  0  0  0  0
  143.7209  136.6688  152.3841 H   0  0  0  0  0  0  0  0  0  0  0  0
  145.3463  137.1072  151.8399 H   0  0  0  0  0  0  0  0  0  0  0  0
  143.6214  134.8205  150.8552 H   0  0  0  0  0  0  0  0  0  0  0  0
  144.4871  136.0077  149.8754 H   0  0  0  0  0  0  0  0  0  0  0  0
  145.5120  133.4836  150.5886 H   0  0  0  0  0  0  0  0  0  0  0  0
  146.5451  134.8583  150.1885 H   0  0  0  0  0  0  0  0  0  0  0  0
  1  2  1  0  0  0  0
  1 21  1  0  0  0  0
  1 22  1  0  0  0  0
  1 23  1  0  0  0  0
  2  3  1  0  0  0  0
  2 16  1  0  0  0  0
  2 24  1  0  0  0  0
  3  4  1  0  0  0  0
  3 25  1  0  0  0  0
  4  5  2  0  0  0  0
  4  6  1  0  0  0  0
  6  7  1  0  0  0  0
  6 26  1  0  0  0  0
  6 27  1  0  0  0  0
  7 14  1  0  0  0  0
  7  8  1  0  0  0  0
  8  9  2  0  0  0  0
  8 28  1  0  0  0  0
  9 10  1  0  0  0  0
  9 29  1  0  0  0  0
 10 11  2  0  0  0  0
 10 12  1  0  0  0  0
 12 13  1  0  0  0  0
 12 14  1  0  0  0  0
 13 30  1  0  0  0  0
 13 31  1  0  0  0  0
 13 32  1  0  0  0  0
 14 15  2  0  0  0  0
 16 20  1  0  0  0  0
 16 17  1  0  0  0  0
 16 33  1  0  0  0  0
 17 18  1  0  0  0  0
 17 34  1  0  0  0  0
 17 35  1  0  0  0  0
 18 19  1  0  0  0  0
 18 36  1  0  0  0  0
 18 37  1  0  0  0  0
 19 20  1  0  0  0  0
 19 38  1  0  0  0  0
 19 39  1  0  0  0  0
M  END
> <s_m_source_file>
AV-unprocessed.smi

> <i_m_source_file_index>
2025

> <i_lp_mmshare_version>
43012

> <i_f3d_flags>
0

> <s_epik_input>
TzFbQ0gyXVtDSDJdW0NIMl1bQ0BIXTFbQ0BIXShbQ0gzXSlbTkhdQyg9TylbQ0gyXW4yW2NIXVtjSF1jKD1PKW4oW0NIM10pYzI9Tw==

> <s_epik_cmdline>
J2VwaWtfcHl0aG9uJywgJy1waCcsICc3LjAnLCAnLXRuJywgJzgnLCAnLW1hJywgJzIwMCcsICctbWV0YWxfYmluZGluZycsICctaW1hZScsICc8aW5maWxlLm1hZT4nLCAnLW9tYWUnLCAnPG91dGZpbGUubWFlPic=

> <r_lp_tautomer_probability>
1

> <r_epik_Ionization_Penalty>
3.54787e-08

> <r_epik_Ionization_Penalty_Charging>
1.24654e-08

> <r_epik_Ionization_Penalty_Neutral>
2.30132e-08

> <r_epik_State_Penalty>
-0

> <r_epik_Charging_Adjusted_Penalty>
1.24654e-08

> <i_epik_Tot_Q>
0

> <i_epik_Tot_abs_Q>
0

> <r_epik_Metal_State_Penalty>
-0

> <b_epik_Metal_Only>
0

> <s_lp_Force_Field>
OPLS_2005

> <r_lp_Energy>
25.8508

> <b_lp_Chiralities_Consistent>
1

> <s_lp_Variant>
AV-unprocessed.smi:2025-4

> <Gold.Version>
5.8.1

> <Gold.Id.Protein>
6NUR|6NUR_protein|mol2

> <Gold.PLP.Fitness>
38.5152

> <Gold.PLP.PLP>
-30.8823

> <Gold.PLP.part.hbond>
-2.0000

> <Gold.PLP.part.metal>
0.0000

> <Gold.PLP.part.buried>
-1.1057

> <Gold.PLP.part.nonpolar>
-27.3462

> <Gold.PLP.part.repulsive>
0.6242

> <Gold.PLP.ligand.clash>
0.0000

> <Gold.PLP.ligand.torsion>
0.6942

> <Gold.PLP.Chemscore.Hbond>
2.0000

> <Gold.PLP.Chemscore.CHOScore>
1.0000

> <Gold.PLP.Chemscore.Metal>
0.0000

> <Gold.Chemscore.Hbonds>
donor molecule, donor type, donor heavy atom, donor atom, acceptor molecule, acceptor atom, score
      L1  H     3    25       P1  7948  1.00
      P1  H  7997  8009       L1    11  1.00
      L1  C     8    28       P1  7948  1.00

> <Gold.PLP.Chemscore.Internal.Correction>
0.0213

> <Gold.Rescore>
     Score         DG    S(hbond)    S(metal)    S(lipo)     H(rot)  DE(clash)    DE(int)     intcor
     12.84     -13.50       2.00        0.00      51.38       1.82       0.05       0.61       ----

> <Gold.Chemscore.Fitness>
12.8404

> <Gold.Chemscore.DG>
-13.5022

> <Gold.Chemscore.ZeroCoef>
-5.4800

> <Gold.Chemscore.Hbond>
1.9992

> <Gold.Chemscore.Metal>
0.0000

> <Gold.Chemscore.Lipo>
51.3807

> <Gold.Chemscore.Internal_Hbond>
0.0000

> <Gold.Chemscore.DEClash>
0.0536

> <Gold.Chemscore.DEInternal>
0.6082

> <Gold.Chemscore.Rot>
1.8228

> <Gold.Chemscore.Internal.Correction>
   9.000000E+99

> <Gold.Chemscore.Hbonds>
donor molecule, donor type, donor heavy atom, donor atom, acceptor molecule, acceptor atom, score
      L1  H     3    25       P1  7948  0.98
      P1  H  7997  8009       L1    11  0.98

> <Gold.Chemscore.Hbond.Weighted>
-6.6772

> <Gold.Chemscore.Metal.Weighted>
-0.0000

> <Gold.Chemscore.Lipo.Weighted>
-6.0115

> <Gold.Chemscore.Internal_Hbond.Weighted>
0.0000

> <Gold.Chemscore.DEClash.Weighted>
0.0536

> <Gold.Chemscore.DEInternal.Weighted>
0.6082

> <Gold.Chemscore.Rot.Weighted>
4.6665

> <Gold.Chemscore.Internal.Correction.Weighted>
   9.000000E+99

> <Gold.Protein.RotatedTorsions>
[ 6907 6896 6895 6894 ] final   97.79 input  -60.11 | X-H torsion
[ 7974 7965 7964 7962 ] final -161.44 input  175.53 | X-H torsion
[ 8008 7997 7996 7995 ] final -144.64 input   59.86 | X-H torsion
[ 10167 10162 10161 10158 ] final  -56.87 input  -65.29 | X-H torsion
[ 10718 10713 10712 10709 ] final  -19.43 input   66.30 | X-H torsion
[ 10763 10752 10751 10750 ] final   69.86 input  -60.55 | X-H torsion
[ 11005 11000 10999 10996 ] final  110.05 input  -57.11 | X-H torsion

> <Gold.Protein.ActiveResidues>
 VAL166  LYS551  ARG553  GLY616  TRP617  ASP618  TYR619  PRO620  LYS621  CYS622 
 ASP623  PHE694  ASN695  SER759  ASP760  ASP761  ALA762  ILE779  LEU786  VAL792 
 PHE793  MET794  SER795  GLU796  ALA797  LYS798  CYS799  TRP800  GLU811  SER814 

> <Gold.Protein.RotatedAtoms>
  152.5418  134.0680  159.8180 H   0  0  0  0  0  0  0  0  0  0  0  0  # atno 6907 bound_to 6896
  151.0798  133.5391  159.2628 H   0  0  0  0  0  0  0  0  0  0  0  0  # atno 6908 bound_to 6896
  151.2223  135.0531  159.9008 H   0  0  0  0  0  0  0  0  0  0  0  0  # atno 6909 bound_to 6896
  144.7391  140.3397  143.6137 H   0  0  0  0  0  0  0  0  0  0  0  0  # atno 7974 bound_to 7965
  155.5302  140.0599  157.2890 H   0  0  0  0  0  0  0  0  0  0  0  0  # atno 8008 bound_to 7997
  154.4487  140.1937  156.0532 H   0  0  0  0  0  0  0  0  0  0  0  0  # atno 8009 bound_to 7997
  156.0657  140.3266  155.7519 H   0  0  0  0  0  0  0  0  0  0  0  0  # atno 8010 bound_to 7997
  140.6291  143.2451  151.5286 H   0  0  0  0  0  0  0  0  0  0  0  0  # atno 10167 bound_to 10162
  156.5458  130.4689  149.6476 H   0  0  0  0  0  0  0  0  0  0  0  0  # atno 10718 bound_to 10713
  153.0310  135.5195  154.7353 H   0  0  0  0  0  0  0  0  0  0  0  0  # atno 10763 bound_to 10752
  154.6369  135.2907  155.0153 H   0  0  0  0  0  0  0  0  0  0  0  0  # atno 10764 bound_to 10752
  154.1084  135.6625  153.4933 H   0  0  0  0  0  0  0  0  0  0  0  0  # atno 10765 bound_to 10752
  139.8874  134.9474  156.6220 H   0  0  0  0  0  0  0  0  0  0  0  0  # atno 11005 bound_to 11000
  145.7387  139.1757  143.2388 LP  0  0  0  0  0  0  0  0  0  0  0  0  # atno 17320 bound_to 7965
  146.1151  140.7380  142.9484 LP  0  0  0  0  0  0  0  0  0  0  0  0  # atno 17321 bound_to 7965
  139.5508  144.2401  152.1526 LP  0  0  0  0  0  0  0  0  0  0  0  0  # atno 17342 bound_to 10162
  140.1640  144.4998  150.6616 LP  0  0  0  0  0  0  0  0  0  0  0  0  # atno 17343 bound_to 10162
  156.2930  130.7134  151.1988 LP  0  0  0  0  0  0  0  0  0  0  0  0  # atno 17370 bound_to 10713
  157.7397  131.0526  150.5216 LP  0  0  0  0  0  0  0  0  0  0  0  0  # atno 17371 bound_to 10713
  140.7732  133.8721  155.8508 LP  0  0  0  0  0  0  0  0  0  0  0  0  # atno 17394 bound_to 11000
  140.9824  134.1388  157.4482 LP  0  0  0  0  0  0  0  0  0  0  0  0  # atno 17395 bound_to 11000

$$$$
