#       Name:                AV-unprocessed.smi:36
#       Creating user name   scv26
#       Creation time:       Thu Mar 26 16:09:18 2020


#       File generated by GOLD software.
#

@<TRIPOS>MOLECULE
AV-unprocessed.smi:36
    73    76     1
SMALL
NO_CHARGES


@<TRIPOS>ATOM
      1 ****        -6.0603   1.9800  -1.0323 C.3            1 S1                 0.0000
      2 ****        -5.7647   0.7628  -0.1398 C.3            1 S1                 0.0000
      3 ****        -6.7125   0.7604   1.0709 C.3            1 S1                 0.0000
      4 ****        -5.9504  -0.5335  -0.9459 C.3            1 S1                 0.0000
      5 ****        -3.9600   0.8534   0.4815 Si             1 S1                 0.0000
      6 ****        -2.7386   0.8123  -0.9737 C.3            1 S1                 0.0000
      7 ****        -3.6693   2.4197   1.5171 C.3            1 S1                 0.0000
      8 ****        -3.6816  -0.4908   1.4731 O.3            1 S1                 0.0000
      9 ****        -2.4272  -0.8104   2.0401 C.3            1 S1                 0.0000
     10 ****        -1.9037  -2.1136   1.4152 C.3            1 S1                 0.0000
     11 ****        -1.4346  -1.9090   0.0832 O.3            1 S1                 0.0000
     12 ****        -0.3016  -2.6845  -0.1741 C.3            1 S1                 0.0000
     13 ****         0.8628  -1.7648  -0.3664 N.pl3          1 S1                 0.0000
     14 ****         1.0133  -0.4777   0.0110 C.2            1 S1                 0.0000
     15 ****         2.1647   0.1200  -0.2905 N.2            1 S1                 0.0000
     16 ****         2.8470  -0.8980  -0.9403 C.ar           1 S1                 0.0000
     17 ****         4.1408  -0.9657  -1.5270 C.ar           1 S1                 0.0000
     18 ****         4.9854   0.0767  -1.5485 N.pl3          1 S1                -1.0000
     19 ****         5.7797   0.3282  -0.4772 C.2            1 S1                 0.0000
     20 ****         5.8617  -0.3144   0.5718 O.2            1 S1                 0.0000
     21 ****         6.6968   1.5048  -0.6809 C.ar           1 S1                 0.0000
     22 ****         8.0068   1.4715  -0.1500 C.ar           1 S1                 0.0000
     23 ****         8.8736   2.5699  -0.3109 C.ar           1 S1                 0.0000
     24 ****         8.4363   3.7188  -0.9965 C.ar           1 S1                 0.0000
     25 ****         7.1296   3.7700  -1.5168 C.ar           1 S1                 0.0000
     26 ****         6.2622   2.6718  -1.3563 C.ar           1 S1                 0.0000
     27 ****         4.4942  -2.1443  -2.1010 N.ar           1 S1                 0.0000
     28 ****         3.6505  -3.1830  -2.0890 C.ar           1 S1                 0.0000
     29 ****         2.4205  -3.2615  -1.5717 N.ar           1 S1                 0.0000
     30 ****         2.0516  -2.0787  -0.9994 C.ar           1 S1                 0.0000
     31 ****        -0.0706  -3.5759   1.0494 C.3            1 S1                 0.0000
     32 ****        -0.7554  -2.8062   2.1629 C.3            1 S1                 0.0000
     33 ****         0.1327  -1.8900   2.7760 O.3            1 S1                 0.0000
     34 ****        -7.0849   1.9582  -1.4051 H              1 S1                 0.0000
     35 ****        -5.3974   2.0094  -1.8973 H              1 S1                 0.0000
     36 ****        -5.9300   2.9143  -0.4857 H              1 S1                 0.0000
     37 ****        -6.6061   1.6706   1.6615 H              1 S1                 0.0000
     38 ****        -6.5105  -0.0846   1.7300 H              1 S1                 0.0000
     39 ****        -7.7551   0.6924   0.7585 H              1 S1                 0.0000
     40 ****        -6.9757  -0.6357  -1.3032 H              1 S1                 0.0000
     41 ****        -5.7231  -1.4117  -0.3404 H              1 S1                 0.0000
     42 ****        -5.2959  -0.5572  -1.8176 H              1 S1                 0.0000
     43 ****        -2.9042   1.6420  -1.6601 H              1 S1                 0.0000
     44 ****        -2.8296  -0.1090  -1.5485 H              1 S1                 0.0000
     45 ****        -1.7066   0.8789  -0.6316 H              1 S1                 0.0000
     46 ****        -3.8594   3.3237   0.9390 H              1 S1                 0.0000
     47 ****        -2.6421   2.4754   1.8767 H              1 S1                 0.0000
     48 ****        -4.3199   2.4489   2.3908 H              1 S1                 0.0000
     49 ****        -1.7170   0.0068   1.9110 H              1 S1                 0.0000
     50 ****        -2.5755  -0.9416   3.1121 H              1 S1                 0.0000
     51 ****        -2.7254  -2.8287   1.3491 H              1 S1                 0.0000
     52 ****        -0.3839  -3.2275  -1.1164 H              1 S1                 0.0000
     53 ****         0.2379   0.0535   0.5413 H              1 S1                 0.0000
     54 ****         8.3578   0.5975   0.3800 H              1 S1                 0.0000
     55 ****         9.8743   2.5304   0.0934 H              1 S1                 0.0000
     56 ****         9.1008   4.5612  -1.1196 H              1 S1                 0.0000
     57 ****         6.7901   4.6531  -2.0377 H              1 S1                 0.0000
     58 ****         5.2597   2.7358  -1.7547 H              1 S1                 0.0000
     59 ****         4.0136  -4.0817  -2.5648 H              1 S1                 0.0000
     60 ****        -0.5866  -4.5214   0.8783 H              1 S1                 0.0000
     61 ****         0.9865  -3.7851   1.2213 H              1 S1                 0.0000
     62 ****        -1.1317  -3.4747   2.9378 H              1 S1                 0.0000
     63 ****        -0.3396  -1.4095   3.4386 H              1 S1                 0.0000
     64 ****        -1.2041  -0.9435  -0.0375 LP             1 S1                 0.0000
     65 ****        -2.1570  -2.1622  -0.5603 LP             1 S1                 0.0000
     66 ****         2.4596   1.0561  -0.0989 LP             1 S1                 0.0000
     67 ****         5.0296   0.6681  -2.3537 LP             1 S1                 0.0000
     68 ****         5.2976  -1.1295   0.7043 LP             1 S1                 0.0000
     69 ****         6.4923  -0.0206   1.2901 LP             1 S1                 0.0000
     70 ****         5.3902  -2.2368  -2.5353 LP             1 S1                 0.0000
     71 ****         1.8460  -4.0795  -1.6003 LP             1 S1                 0.0000
     72 ****         0.4892  -1.2559   2.0898 LP             1 S1                 0.0000
     73 ****         0.8917  -2.3869   3.1969 LP             1 S1                 0.0000
@<TRIPOS>BOND
    1    1    2 1     
    2    1   34 1     
    3    1   35 1     
    4    1   36 1     
    5    2    3 1     
    6    2    4 1     
    7    2    5 1     
    8    3   37 1     
    9    3   38 1     
   10    3   39 1     
   11    4   40 1     
   12    4   41 1     
   13    4   42 1     
   14    5    6 1     
   15    5    7 1     
   16    5    8 1     
   17    6   43 1     
   18    6   44 1     
   19    6   45 1     
   20    7   46 1     
   21    7   47 1     
   22    7   48 1     
   23    8    9 1     
   24    9   10 1     
   25    9   49 1     
   26    9   50 1     
   27   10   32 1     
   28   10   11 1     
   29   10   51 1     
   30   11   12 1     
   31   12   13 1     
   32   12   31 1     
   33   12   52 1     
   34   13   30 1     
   35   13   14 1     
   36   14   15 2     
   37   14   53 1     
   38   15   16 1     
   39   16   30 ar    
   40   16   17 ar    
   41   17   18 1     
   42   17   27 ar    
   43   18   19 1     
   44   19   20 2     
   45   19   21 1     
   46   21   26 ar    
   47   21   22 ar    
   48   22   23 ar    
   49   22   54 1     
   50   23   24 ar    
   51   23   55 1     
   52   24   25 ar    
   53   24   56 1     
   54   25   26 ar    
   55   25   57 1     
   56   26   58 1     
   57   27   28 ar    
   58   28   29 ar    
   59   28   59 1     
   60   29   30 ar    
   61   31   32 1     
   62   31   60 1     
   63   31   61 1     
   64   32   33 1     
   65   32   62 1     
   66   33   63 1     
   67   11   64 1     
   68   11   65 1     
   69   15   66 1     
   70   18   67 1     
   71   20   68 1     
   72   20   69 1     
   73   27   70 1     
   74   29   71 1     
   75   33   72 1     
   76   33   73 1     
@<TRIPOS>SUBSTRUCTURE
      1 S1             1
@<TRIPOS>SET
LONE_PAIRS      STATIC     ATOMS    <user>   **** ""
10 64 65 66 67 68 69 70 71 72 73
DONOR_HYDROGENS      STATIC     ATOMS    <user>   **** ""
1 63
ATOM$BLUE        STATIC     ATOMS    COLORGROUP SYSTEM
10 64 65 66 67 68 69 70 71 72 73
ATOM$RED        STATIC     ATOMS    COLORGROUP SYSTEM
1 63
