#       Name:                AV-unprocessed.smi:340
#       Creating user name   scv26
#       Creation time:       Thu Mar 26 22:30:42 2020


#       File generated by GOLD software.
#

@<TRIPOS>MOLECULE
AV-unprocessed.smi:340
    39    40     1
SMALL
NO_CHARGES


@<TRIPOS>ATOM
      1 ****        -4.3582   4.1920   0.3517 C.3            1 S1                 0.0000
      2 ****        -2.5839   4.6675   0.3824 S.o2           1 S1                 0.0000
      3 ****        -2.3506   5.4254  -0.8576 O.2            1 S1                 0.0000
      4 ****        -2.3816   5.3801   1.6543 O.2            1 S1                 0.0000
      5 ****        -1.8839   3.2062   0.3646 N.pl3          1 S1                -1.0000
      6 ****        -0.4351   3.1155   0.3791 C.3            1 S1                 0.0000
      7 ****         0.0348   1.6693   0.3191 C.ar           1 S1                 0.0000
      8 ****         0.2713   0.9296   1.4994 C.ar           1 S1                 0.0000
      9 ****         0.7051  -0.4065   1.3915 C.ar           1 S1                 0.0000
     10 ****         0.8859  -0.9606   0.1076 C.ar           1 S1                 0.0000
     11 ****         1.3121  -2.2914  -0.0044 N.3            1 S1                 0.0000
     12 ****         2.6501  -2.4253  -0.5671 C.3            1 S1                 0.0000
     13 ****         3.0858  -3.9006  -0.5420 C.3            1 S1                 0.0000
     14 ****         2.1235  -4.6962  -1.2289 O.3            1 S1                 0.0000
     15 ****         0.8346  -4.6162  -0.6265 C.3            1 S1                 0.0000
     16 ****         0.3419  -3.1597  -0.6598 C.3            1 S1                 0.0000
     17 ****         0.6627  -0.2582  -1.0285 N.ar           1 S1                 0.0000
     18 ****         0.2470   1.0226  -0.9201 C.ar           1 S1                 0.0000
     19 ****        -4.9724   5.0918   0.3571 H              1 S1                 0.0000
     20 ****        -4.5884   3.5895   1.2299 H              1 S1                 0.0000
     21 ****        -4.5646   3.6164  -0.5502 H              1 S1                 0.0000
     22 ****         0.0125   3.6494  -0.4598 H              1 S1                 0.0000
     23 ****        -0.0114   3.5715   1.2745 H              1 S1                 0.0000
     24 ****         0.1262   1.3623   2.4800 H              1 S1                 0.0000
     25 ****         0.8910  -0.9933   2.2792 H              1 S1                 0.0000
     26 ****         2.6585  -2.0549  -1.5933 H              1 S1                 0.0000
     27 ****         3.3537  -1.8167   0.0023 H              1 S1                 0.0000
     28 ****         4.0544  -4.0151  -1.0285 H              1 S1                 0.0000
     29 ****         3.2002  -4.2550   0.4837 H              1 S1                 0.0000
     30 ****         0.1451  -5.2594  -1.1732 H              1 S1                 0.0000
     31 ****         0.8759  -4.9894   0.3981 H              1 S1                 0.0000
     32 ****        -0.6241  -3.0779  -0.1599 H              1 S1                 0.0000
     33 ****         0.1987  -2.8426  -1.6938 H              1 S1                 0.0000
     34 ****         0.0818   1.5310  -1.8602 H              1 S1                 0.0000
     35 ****        -2.4428   2.3772   0.3439 LP             1 S1                 0.0000
     36 ****         1.3767  -2.6180   0.9385 LP             1 S1                 0.0000
     37 ****         2.4261  -5.6493  -1.2181 LP             1 S1                 0.0000
     38 ****         2.0579  -4.3781  -2.1747 LP             1 S1                 0.0000
     39 ****         0.8022  -0.6774  -1.9257 LP             1 S1                 0.0000
@<TRIPOS>BOND
    1    1    2 1     
    2    1   19 1     
    3    1   20 1     
    4    1   21 1     
    5    2    3 2     
    6    2    4 2     
    7    2    5 1     
    8    5    6 1     
    9    6    7 1     
   10    6   22 1     
   11    6   23 1     
   12    7   18 ar    
   13    7    8 ar    
   14    8    9 ar    
   15    8   24 1     
   16    9   10 ar    
   17    9   25 1     
   18   10   11 1     
   19   10   17 ar    
   20   11   16 1     
   21   11   12 1     
   22   12   13 1     
   23   12   26 1     
   24   12   27 1     
   25   13   14 1     
   26   13   28 1     
   27   13   29 1     
   28   14   15 1     
   29   15   16 1     
   30   15   30 1     
   31   15   31 1     
   32   16   32 1     
   33   16   33 1     
   34   17   18 ar    
   35   18   34 1     
   36    5   35 1     
   37   11   36 1     
   38   14   37 1     
   39   14   38 1     
   40   17   39 1     
@<TRIPOS>SUBSTRUCTURE
      1 S1             1
@<TRIPOS>SET
LONE_PAIRS      STATIC     ATOMS    <user>   **** ""
7 3 4 35 36 37 38 39
ATOM$BLUE        STATIC     ATOMS    COLORGROUP SYSTEM
7 3 4 35 36 37 38 39
