AV-unprocessed.smi:3083|AV-procd|sdf|11745|dock3
  -GOLD-   2272017143D 1   1.00000     0.00000
 Structure written by MMmdl.
 28 29  0  0  0  0  0  0  0  0  2 V2000
  146.4873  135.7556  151.7515 N   0  3  0  0  0  0  0  0  0  0  0  0
  146.0097  134.5304  151.0835 C   0  0  1  0  0  0  0  0  0  0  0  0
  146.4329  133.2680  151.8670 C   0  0  0  0  0  0  0  0  0  0  0  0
  145.9089  131.9856  151.2011 C   0  0  0  0  0  0  0  0  0  0  0  0
  144.3895  132.0424  150.9817 C   0  0  0  0  0  0  0  0  0  0  0  0
  144.0005  133.2729  150.1453 C   0  0  0  0  0  0  0  0  0  0  0  0
  144.4860  134.5966  150.7740 C   0  0  1  0  0  0  0  0  0  0  0  0
  143.6320  134.9997  151.8939 N   0  0  0  0  0  0  0  0  0  0  0  0
  143.3843  136.2871  152.3279 C   0  0  0  0  0  0  0  0  0  0  0  0
  142.5038  136.2140  153.3685 C   0  0  0  0  0  0  0  0  0  0  0  0
  142.2465  134.8216  153.4930 C   0  0  0  0  0  0  0  0  0  0  0  0
  142.9156  134.1018  152.6081 N   0  0  0  0  0  0  0  0  0  0  0  0
  146.2742  136.5544  151.1706 H   0  0  0  0  0  0  0  0  0  0  0  0
  147.4859  135.6984  151.8910 H   0  0  0  0  0  0  0  0  0  0  0  0
  146.5283  134.4943  150.1244 H   0  0  0  0  0  0  0  0  0  0  0  0
  147.5208  133.2212  151.9279 H   0  0  0  0  0  0  0  0  0  0  0  0
  146.0837  133.3090  152.8977 H   0  0  0  0  0  0  0  0  0  0  0  0
  146.4084  131.8428  150.2418 H   0  0  0  0  0  0  0  0  0  0  0  0
  146.1642  131.1195  151.8124 H   0  0  0  0  0  0  0  0  0  0  0  0
  144.0564  131.1348  150.4773 H   0  0  0  0  0  0  0  0  0  0  0  0
  143.8751  132.0622  151.9430 H   0  0  0  0  0  0  0  0  0  0  0  0
  144.4358  133.1710  149.1502 H   0  0  0  0  0  0  0  0  0  0  0  0
  142.9200  133.2976  149.9982 H   0  0  0  0  0  0  0  0  0  0  0  0
  144.3542  135.3718  150.0173 H   0  0  0  0  0  0  0  0  0  0  0  0
  143.8514  137.1433  151.8636 H   0  0  0  0  0  0  0  0  0  0  0  0
  142.0983  137.0316  153.9462 H   0  0  0  0  0  0  0  0  0  0  0  0
  141.5960  134.3166  154.1919 H   0  0  0  0  0  0  0  0  0  0  0  0
  146.0265  135.8560  152.6445 H   0  0  0  0  0  0  0  0  0  0  0  0
  1  2  1  0  0  0  0
  1 13  1  0  0  0  0
  1 14  1  0  0  0  0
  1 28  1  0  0  0  0
  2  7  1  0  0  0  0
  2  3  1  0  0  0  0
  2 15  1  0  0  0  0
  3  4  1  0  0  0  0
  3 16  1  0  0  0  0
  3 17  1  0  0  0  0
  4  5  1  0  0  0  0
  4 18  1  0  0  0  0
  4 19  1  0  0  0  0
  5  6  1  0  0  0  0
  5 20  1  0  0  0  0
  5 21  1  0  0  0  0
  6  7  1  0  0  0  0
  6 22  1  0  0  0  0
  6 23  1  0  0  0  0
  7  8  1  0  0  0  0
  7 24  1  0  0  0  0
  8 12  1  0  0  0  0
  8  9  1  0  0  0  0
  9 10  2  0  0  0  0
  9 25  1  0  0  0  0
 10 11  1  0  0  0  0
 10 26  1  0  0  0  0
 11 12  2  0  0  0  0
 11 27  1  0  0  0  0
M  CHG  1   1   1
M  END
> <s_m_source_file>
AV-unprocessed.smi

> <i_m_source_file_index>
3083

> <i_lp_mmshare_version>
43012

> <i_f3d_flags>
0

> <s_epik_input>
W05IMl1bQ0BASF0xW0NIMl1bQ0gyXVtDSDJdW0NIMl1bQ0BIXTFuMltjSF1bY0hdW2NIXW4y

> <s_epik_cmdline>
J2VwaWtfcHl0aG9uJywgJy1waCcsICc3LjAnLCAnLXRuJywgJzgnLCAnLW1hJywgJzIwMCcsICctbWV0YWxfYmluZGluZycsICctaW1hZScsICc8aW5maWxlLm1hZT4nLCAnLW9tYWUnLCAnPG91dGZpbGUubWFlPic=

> <r_lp_tautomer_probability>
1

> <r_epik_Ionization_Penalty>
0.00385053

> <r_epik_Ionization_Penalty_Charging>
0.0038389

> <r_epik_Ionization_Penalty_Neutral>
1.16305e-05

> <r_epik_State_Penalty>
-0

> <r_epik_Charging_Adjusted_Penalty>
0.0038389

> <i_epik_Tot_Q>
1

> <i_epik_Tot_abs_Q>
1

> <r_epik_Metal_State_Penalty>
-0

> <b_epik_Metal_Only>
0

> <s_lp_Force_Field>
OPLS_2005

> <r_lp_Energy>
16.3847

> <b_lp_Chiralities_Consistent>
1

> <s_lp_Variant>
AV-unprocessed.smi:3083-2

> <Gold.Version>
5.8.1

> <Gold.Id.Protein>
6NUR|6NUR_protein|mol2

> <Gold.PLP.Fitness>
33.3091

> <Gold.PLP.PLP>
-23.5935

> <Gold.PLP.part.hbond>
-0.8485

> <Gold.PLP.part.metal>
0.0000

> <Gold.PLP.part.buried>
-5.3632

> <Gold.PLP.part.nonpolar>
-19.0796

> <Gold.PLP.part.repulsive>
0.2796

> <Gold.PLP.ligand.clash>
0.0000

> <Gold.PLP.ligand.torsion>
0.6387

> <Gold.PLP.Chemscore.Hbond>
2.0000

> <Gold.PLP.Chemscore.CHOScore>
1.6427

> <Gold.PLP.Chemscore.Metal>
0.0000

> <Gold.Chemscore.Hbonds>
donor molecule, donor type, donor heavy atom, donor atom, acceptor molecule, acceptor atom, score
      L1  H     1    14       P1  7948  1.98
      L1  C     9    25       P1 10171  1.00
      L1  C    11    27       P1 10957  0.19
      L1  C    11    27       P1 11000  0.42

> <Gold.PLP.Chemscore.Internal.Correction>
0.0648

> <Gold.Rescore>
     Score         DG    S(hbond)    S(metal)    S(lipo)     H(rot)  DE(clash)    DE(int)     intcor
     11.00     -12.98       0.99        0.00      57.73       1.00       0.25       1.74       ----

> <Gold.Chemscore.Fitness>
10.9954

> <Gold.Chemscore.DG>
-12.9823

> <Gold.Chemscore.ZeroCoef>
-5.4800

> <Gold.Chemscore.Hbond>
0.9903

> <Gold.Chemscore.Metal>
0.0000

> <Gold.Chemscore.Lipo>
57.7327

> <Gold.Chemscore.Internal_Hbond>
0.0000

> <Gold.Chemscore.DEClash>
0.2496

> <Gold.Chemscore.DEInternal>
1.7374

> <Gold.Chemscore.Rot>
1.0000

> <Gold.Chemscore.Internal.Correction>
   9.000000E+99

> <Gold.Chemscore.Hbonds>
donor molecule, donor type, donor heavy atom, donor atom, acceptor molecule, acceptor atom, score
      L1  H     1    14       P1  7948  0.91

> <Gold.Chemscore.Hbond.Weighted>
-3.3076

> <Gold.Chemscore.Metal.Weighted>
-0.0000

> <Gold.Chemscore.Lipo.Weighted>
-6.7547

> <Gold.Chemscore.Internal_Hbond.Weighted>
0.0000

> <Gold.Chemscore.DEClash.Weighted>
0.2496

> <Gold.Chemscore.DEInternal.Weighted>
1.7374

> <Gold.Chemscore.Rot.Weighted>
2.5600

> <Gold.Chemscore.Internal.Correction.Weighted>
   9.000000E+99

> <Gold.Protein.RotatedTorsions>
[ 6907 6896 6895 6894 ] final  102.38 input  -60.11 | X-H torsion
[ 7974 7965 7964 7962 ] final  115.35 input  175.53 | X-H torsion
[ 8008 7997 7996 7995 ] final  116.97 input   59.86 | X-H torsion
[ 10167 10162 10161 10158 ] final  -44.64 input  -65.29 | X-H torsion
[ 10718 10713 10712 10709 ] final  145.35 input   66.30 | X-H torsion
[ 10763 10752 10751 10750 ] final  -34.89 input  -60.55 | X-H torsion
[ 11005 11000 10999 10996 ] final  179.30 input  -57.11 | X-H torsion

> <Gold.Protein.ActiveResidues>
 VAL166  LYS551  ARG553  GLY616  TRP617  ASP618  TYR619  PRO620  LYS621  CYS622 
 ASP623  PHE694  ASN695  SER759  ASP760  ASP761  ALA762  ILE779  LEU786  VAL792 
 PHE793  MET794  SER795  GLU796  ALA797  LYS798  CYS799  TRP800  GLU811  SER814 

> <Gold.Protein.RotatedAtoms>
  152.5325  133.9985  159.7883 H   0  0  0  0  0  0  0  0  0  0  0  0  # atno 6907 bound_to 6896
  151.0208  133.5871  159.2678 H   0  0  0  0  0  0  0  0  0  0  0  0  # atno 6908 bound_to 6896
  151.2911  135.0749  159.9258 H   0  0  0  0  0  0  0  0  0  0  0  0  # atno 6909 bound_to 6896
  145.1931  139.2990  143.4358 H   0  0  0  0  0  0  0  0  0  0  0  0  # atno 7974 bound_to 7965
  156.2468  140.2906  156.0605 H   0  0  0  0  0  0  0  0  0  0  0  0  # atno 8008 bound_to 7997
  155.1781  140.0403  157.2894 H   0  0  0  0  0  0  0  0  0  0  0  0  # atno 8009 bound_to 7997
  154.6279  140.2492  155.7476 H   0  0  0  0  0  0  0  0  0  0  0  0  # atno 8010 bound_to 7997
  140.6889  143.2920  151.3524 H   0  0  0  0  0  0  0  0  0  0  0  0  # atno 10167 bound_to 10162
  157.3463  131.0944  151.1038 H   0  0  0  0  0  0  0  0  0  0  0  0  # atno 10718 bound_to 10713
  153.8542  135.6846  153.4789 H   0  0  0  0  0  0  0  0  0  0  0  0  # atno 10763 bound_to 10752
  153.1379  135.4670  154.9449 H   0  0  0  0  0  0  0  0  0  0  0  0  # atno 10764 bound_to 10752
  154.7788  135.3262  154.7982 H   0  0  0  0  0  0  0  0  0  0  0  0  # atno 10765 bound_to 10752
  140.4046  134.6747  157.4581 H   0  0  0  0  0  0  0  0  0  0  0  0  # atno 11005 bound_to 11000
  146.3432  140.2150  142.8590 LP  0  0  0  0  0  0  0  0  0  0  0  0  # atno 17320 bound_to 7965
  145.0022  140.8641  143.5275 LP  0  0  0  0  0  0  0  0  0  0  0  0  # atno 17321 bound_to 7965
  139.6272  144.0790  152.2445 LP  0  0  0  0  0  0  0  0  0  0  0  0  # atno 17342 bound_to 10162
  140.0253  144.6122  150.7532 LP  0  0  0  0  0  0  0  0  0  0  0  0  # atno 17343 bound_to 10162
  157.2231  130.6490  149.5819 LP  0  0  0  0  0  0  0  0  0  0  0  0  # atno 17370 bound_to 10713
  155.9715  130.4623  150.6140 LP  0  0  0  0  0  0  0  0  0  0  0  0  # atno 17371 bound_to 10713
  140.0311  134.6404  155.9105 LP  0  0  0  0  0  0  0  0  0  0  0  0  # atno 17394 bound_to 11000
  141.1844  133.6553  156.5155 LP  0  0  0  0  0  0  0  0  0  0  0  0  # atno 17395 bound_to 11000

$$$$
