AV-unprocessed.smi:3313|AV-procd|sdf|12729|dock4
  -GOLD-   2272019 73D 1   1.00000     0.00000
 Structure written by MMmdl.
 43 43  0  0  0  0  0  0  0  0  2 V2000
  145.4412  136.0967  153.0504 C   0  0  0  0  0  0  0  0  0  0  0  0
  145.0613  136.7234  151.6982 C   0  0  2  0  0  0  0  0  0  0  0  0
  145.8123  136.0696  150.5146 C   0  0  0  0  0  0  0  0  0  0  0  0
  145.5295  134.6519  150.3812 N   0  0  0  0  0  0  0  0  0  0  0  0
  144.3124  134.0298  150.1961 C   0  0  0  0  0  0  0  0  0  0  0  0
  144.5487  132.6862  150.1367 C   0  0  0  0  0  0  0  0  0  0  0  0
  145.9581  132.5826  150.3033 C   0  0  0  0  0  0  0  0  0  0  0  0
  146.5419  133.7609  150.4516 N   0  0  0  0  0  0  0  0  0  0  0  0
  145.3040  138.1831  151.7507 N   0  3  0  0  0  0  0  0  0  0  0  0
  146.6964  138.5847  152.0440 C   0  0  0  0  0  0  0  0  0  0  0  0
  146.7720  140.0751  152.4169 C   0  0  0  0  0  0  0  0  0  0  0  0
  147.4608  140.3117  153.7644 C   0  0  0  0  0  0  0  0  0  0  0  0
  146.8512  140.8668  154.6782 O   0  0  0  0  0  0  0  0  0  0  0  0
  148.7335  139.8863  153.8614 N   0  0  0  0  0  0  0  0  0  0  0  0
  149.6399  139.9740  155.0131 C   0  0  0  0  0  0  0  0  0  0  0  0
  151.0022  139.4255  154.5528 C   0  0  0  0  0  0  0  0  0  0  0  0
  149.1222  139.1100  156.1830 C   0  0  0  0  0  0  0  0  0  0  0  0
  149.8143  141.4416  155.4567 C   0  0  0  0  0  0  0  0  0  0  0  0
  145.1834  135.0380  153.0896 H   0  0  0  0  0  0  0  0  0  0  0  0
  144.9142  136.5849  153.8707 H   0  0  0  0  0  0  0  0  0  0  0  0
  146.5112  136.1855  153.2424 H   0  0  0  0  0  0  0  0  0  0  0  0
  143.9893  136.5721  151.5629 H   0  0  0  0  0  0  0  0  0  0  0  0
  145.5486  136.5472  149.5708 H   0  0  0  0  0  0  0  0  0  0  0  0
  146.8892  136.1955  150.6361 H   0  0  0  0  0  0  0  0  0  0  0  0
  143.3906  134.5875  150.1204 H   0  0  0  0  0  0  0  0  0  0  0  0
  143.8250  131.8968  149.9974 H   0  0  0  0  0  0  0  0  0  0  0  0
  146.5703  131.6928  150.3219 H   0  0  0  0  0  0  0  0  0  0  0  0
  145.0720  138.5589  150.8423 H   0  0  0  0  0  0  0  0  0  0  0  0
  147.0851  137.9746  152.8596 H   0  0  0  0  0  0  0  0  0  0  0  0
  147.3186  138.3912  151.1689 H   0  0  0  0  0  0  0  0  0  0  0  0
  147.3058  140.6208  151.6371 H   0  0  0  0  0  0  0  0  0  0  0  0
  145.7690  140.5003  152.4672 H   0  0  0  0  0  0  0  0  0  0  0  0
  149.1254  139.4489  153.0401 H   0  0  0  0  0  0  0  0  0  0  0  0
  151.7357  139.4551  155.3594 H   0  0  0  0  0  0  0  0  0  0  0  0
  151.4066  140.0061  153.7225 H   0  0  0  0  0  0  0  0  0  0  0  0
  150.9229  138.3892  154.2213 H   0  0  0  0  0  0  0  0  0  0  0  0
  148.9578  138.0773  155.8727 H   0  0  0  0  0  0  0  0  0  0  0  0
  148.1829  139.4864  156.5880 H   0  0  0  0  0  0  0  0  0  0  0  0
  149.8385  139.0940  157.0053 H   0  0  0  0  0  0  0  0  0  0  0  0
  150.5584  141.5259  156.2495 H   0  0  0  0  0  0  0  0  0  0  0  0
  148.8880  141.8667  155.8430 H   0  0  0  0  0  0  0  0  0  0  0  0
  150.1458  142.0702  154.6295 H   0  0  0  0  0  0  0  0  0  0  0  0
  144.6858  138.5959  152.4345 H   0  0  0  0  0  0  0  0  0  0  0  0
  1  2  1  0  0  0  0
  1 19  1  0  0  0  0
  1 20  1  0  0  0  0
  1 21  1  0  0  0  0
  2  3  1  0  0  0  0
  2  9  1  0  0  0  0
  2 22  1  0  0  0  0
  3  4  1  0  0  0  0
  3 23  1  0  0  0  0
  3 24  1  0  0  0  0
  4  8  1  0  0  0  0
  4  5  1  0  0  0  0
  5  6  2  0  0  0  0
  5 25  1  0  0  0  0
  6  7  1  0  0  0  0
  6 26  1  0  0  0  0
  7  8  2  0  0  0  0
  7 27  1  0  0  0  0
  9 10  1  0  0  0  0
  9 28  1  0  0  0  0
  9 43  1  0  0  0  0
 10 11  1  0  0  0  0
 10 29  1  0  0  0  0
 10 30  1  0  0  0  0
 11 12  1  0  0  0  0
 11 31  1  0  0  0  0
 11 32  1  0  0  0  0
 12 13  2  0  0  0  0
 12 14  1  0  0  0  0
 14 15  1  0  0  0  0
 14 33  1  0  0  0  0
 15 16  1  0  0  0  0
 15 17  1  0  0  0  0
 15 18  1  0  0  0  0
 16 34  1  0  0  0  0
 16 35  1  0  0  0  0
 16 36  1  0  0  0  0
 17 37  1  0  0  0  0
 17 38  1  0  0  0  0
 17 39  1  0  0  0  0
 18 40  1  0  0  0  0
 18 41  1  0  0  0  0
 18 42  1  0  0  0  0
M  CHG  1   9   1
M  END
> <s_m_source_file>
AV-unprocessed.smi

> <i_m_source_file_index>
3313

> <i_lp_mmshare_version>
43012

> <i_f3d_flags>
0

> <s_epik_input>
bjFbY0hdW2NIXVtjSF1uMVtDSDJdW0NAQEhdKFtDSDNdKVtOSF1bQ0gyXVtDSDJdQyg9TylbTkhdQyhbQ0gzXSkoW0NIM10pW0NIM10=

> <s_epik_cmdline>
J2VwaWtfcHl0aG9uJywgJy1waCcsICc3LjAnLCAnLXRuJywgJzgnLCAnLW1hJywgJzIwMCcsICctbWV0YWxfYmluZGluZycsICctaW1hZScsICc8aW5maWxlLm1hZT4nLCAnLW9tYWUnLCAnPG91dGZpbGUubWFlPic=

> <r_lp_tautomer_probability>
1

> <r_epik_Ionization_Penalty>
0.0056766

> <r_epik_Ionization_Penalty_Charging>
0.00567288

> <r_epik_Ionization_Penalty_Neutral>
3.71277e-06

> <r_epik_State_Penalty>
0.0041598

> <r_epik_Charging_Adjusted_Penalty>
0.00983268

> <i_epik_Tot_Q>
1

> <i_epik_Tot_abs_Q>
1

> <r_epik_Metal_State_Penalty>
-0

> <b_epik_Metal_Only>
0

> <s_lp_Force_Field>
OPLS_2005

> <r_lp_Energy>
7.49453

> <b_lp_Chiralities_Consistent>
1

> <s_lp_Variant>
AV-unprocessed.smi:3313-1

> <Gold.Version>
5.8.1

> <Gold.Id.Protein>
6NUR|6NUR_protein|mol2

> <Gold.PLP.Fitness>
44.5877

> <Gold.PLP.PLP>
-31.7742

> <Gold.PLP.part.hbond>
-2.7770

> <Gold.PLP.part.metal>
0.0000

> <Gold.PLP.part.buried>
2.9067

> <Gold.PLP.part.nonpolar>
-31.2742

> <Gold.PLP.part.repulsive>
0.5123

> <Gold.PLP.ligand.clash>
0.0000

> <Gold.PLP.ligand.torsion>
0.4531

> <Gold.PLP.Chemscore.Hbond>
3.0103

> <Gold.PLP.Chemscore.CHOScore>
1.5378

> <Gold.PLP.Chemscore.Metal>
0.0000

> <Gold.Chemscore.Hbonds>
donor molecule, donor type, donor heavy atom, donor atom, acceptor molecule, acceptor atom, score
      L1  H     9    28       P1 10171  0.83
      L1  H     9    43       P1 10175  0.99
      L1  H    14    33       P1  7957  0.74
      L1  C     5    25       P1 10186  1.00
      L1  C     7    27       P1 10747  0.98

> <Gold.PLP.Chemscore.Internal.Correction>
0.0753

> <Gold.Rescore>
     Score         DG    S(hbond)    S(metal)    S(lipo)     H(rot)  DE(clash)    DE(int)     intcor
     13.99     -15.61       1.90        0.00      80.40       2.20       1.11       0.51       ----

> <Gold.Chemscore.Fitness>
13.9873

> <Gold.Chemscore.DG>
-15.6055

> <Gold.Chemscore.ZeroCoef>
-5.4800

> <Gold.Chemscore.Hbond>
1.9034

> <Gold.Chemscore.Metal>
0.0000

> <Gold.Chemscore.Lipo>
80.4025

> <Gold.Chemscore.Internal_Hbond>
0.0000

> <Gold.Chemscore.DEClash>
1.1054

> <Gold.Chemscore.DEInternal>
0.5128

> <Gold.Chemscore.Rot>
2.2027

> <Gold.Chemscore.Internal.Correction>
   9.000000E+99

> <Gold.Chemscore.Hbonds>
donor molecule, donor type, donor heavy atom, donor atom, acceptor molecule, acceptor atom, score
      L1  H     9    28       P1 10171  0.79
      L1  H     9    43       P1 10175  0.49
      L1  H    14    33       P1  7957  0.69

> <Gold.Chemscore.Hbond.Weighted>
-6.3574

> <Gold.Chemscore.Metal.Weighted>
-0.0000

> <Gold.Chemscore.Lipo.Weighted>
-9.4071

> <Gold.Chemscore.Internal_Hbond.Weighted>
0.0000

> <Gold.Chemscore.DEClash.Weighted>
1.1054

> <Gold.Chemscore.DEInternal.Weighted>
0.5128

> <Gold.Chemscore.Rot.Weighted>
5.6390

> <Gold.Chemscore.Internal.Correction.Weighted>
   9.000000E+99

> <Gold.Protein.RotatedTorsions>
[ 6907 6896 6895 6894 ] final   24.85 input  -60.11 | X-H torsion
[ 7974 7965 7964 7962 ] final -114.46 input  175.53 | X-H torsion
[ 8008 7997 7996 7995 ] final  118.06 input   59.86 | X-H torsion
[ 10167 10162 10161 10158 ] final   75.14 input  -65.29 | X-H torsion
[ 10718 10713 10712 10709 ] final   81.31 input   66.30 | X-H torsion
[ 10763 10752 10751 10750 ] final  144.50 input  -60.55 | X-H torsion
[ 11005 11000 10999 10996 ] final  -17.52 input  -57.11 | X-H torsion

> <Gold.Protein.ActiveResidues>
 VAL166  LYS551  ARG553  GLY616  TRP617  ASP618  TYR619  PRO620  LYS621  CYS622 
 ASP623  PHE694  ASN695  SER759  ASP760  ASP761  ALA762  ILE779  LEU786  VAL792 
 PHE793  MET794  SER795  GLU796  ALA797  LYS798  CYS799  TRP800  GLU811  SER814 

> <Gold.Protein.RotatedAtoms>
  151.9636  135.0111  160.0548 H   0  0  0  0  0  0  0  0  0  0  0  0  # atno 6907 bound_to 6896
  152.1846  133.4726  159.4984 H   0  0  0  0  0  0  0  0  0  0  0  0  # atno 6908 bound_to 6896
  150.6923  134.1707  159.4254 H   0  0  0  0  0  0  0  0  0  0  0  0  # atno 6909 bound_to 6896
  145.1198  140.8662  143.3820 H   0  0  0  0  0  0  0  0  0  0  0  0  # atno 7974 bound_to 7965
  156.2527  140.2883  156.0775 H   0  0  0  0  0  0  0  0  0  0  0  0  # atno 8008 bound_to 7997
  155.1603  140.0399  157.2858 H   0  0  0  0  0  0  0  0  0  0  0  0  # atno 8009 bound_to 7997
  154.6397  140.2519  155.7343 H   0  0  0  0  0  0  0  0  0  0  0  0  # atno 8010 bound_to 7997
  140.0062  144.5649  150.7696 H   0  0  0  0  0  0  0  0  0  0  0  0  # atno 10167 bound_to 10162
  157.6829  130.9998  150.2208 H   0  0  0  0  0  0  0  0  0  0  0  0  # atno 10718 bound_to 10713
  153.9900  135.2933  155.3413 H   0  0  0  0  0  0  0  0  0  0  0  0  # atno 10763 bound_to 10752
  154.7220  135.5105  153.8830 H   0  0  0  0  0  0  0  0  0  0  0  0  # atno 10764 bound_to 10752
  153.0814  135.6680  154.0153 H   0  0  0  0  0  0  0  0  0  0  0  0  # atno 10765 bound_to 10752
  140.8176  133.8093  155.9626 H   0  0  0  0  0  0  0  0  0  0  0  0  # atno 11005 bound_to 11000
  145.0753  139.3001  143.5811 LP  0  0  0  0  0  0  0  0  0  0  0  0  # atno 17320 bound_to 7965
  146.3521  140.0241  142.8656 LP  0  0  0  0  0  0  0  0  0  0  0  0  # atno 17321 bound_to 7965
  140.7400  143.2798  151.3632 LP  0  0  0  0  0  0  0  0  0  0  0  0  # atno 17342 bound_to 10162
  139.6237  144.0856  152.2415 LP  0  0  0  0  0  0  0  0  0  0  0  0  # atno 17343 bound_to 10162
  156.2860  130.3739  149.7888 LP  0  0  0  0  0  0  0  0  0  0  0  0  # atno 17370 bound_to 10713
  156.5562  130.8363  151.3315 LP  0  0  0  0  0  0  0  0  0  0  0  0  # atno 17371 bound_to 10713
  140.9133  134.2234  157.4972 LP  0  0  0  0  0  0  0  0  0  0  0  0  # atno 17394 bound_to 11000
  139.8710  134.9760  156.4903 LP  0  0  0  0  0  0  0  0  0  0  0  0  # atno 17395 bound_to 11000

$$$$
