AV-unprocessed.smi:33|AV-procd|sdf|211|dock6
  -GOLD-   2262015513D 1   1.00000     0.00000
 Structure written by MMmdl.
 67 72  0  0  0  0  0  0  0  0  1 V2000
  152.8876  140.8871  157.9578 O   0  0  0  0  0  0  0  0  0  0  0  0
  152.3410  141.7769  158.6126 C   0  0  0  0  0  0  0  0  0  0  0  0
  151.3281  142.5319  158.1440 O   0  0  0  0  0  0  0  0  0  0  0  0
  150.8080  142.2927  156.8463 C   0  0  0  0  0  0  0  0  0  0  0  0
  149.7160  141.2130  156.9206 C   0  0  2  0  0  0  0  0  0  0  0  0
  150.1343  140.1937  157.8169 O   0  0  0  0  0  0  0  0  0  0  0  0
  150.8586  139.2207  157.1270 C   0  0  1  0  0  0  0  0  0  0  0  0
  150.4203  137.8962  157.6546 N   0  0  0  0  0  0  0  0  0  0  0  0
  151.1822  136.9216  158.2625 C   0  0  0  0  0  0  0  0  0  0  0  0
  150.5322  135.8457  158.6173 N   0  0  0  0  0  0  0  0  0  0  0  0
  149.2256  136.0973  158.2189 C   0  0  0  0  0  0  0  0  0  0  0  0
  148.0116  135.3628  158.2868 C   0  0  0  0  0  0  0  0  0  0  0  0
  147.9299  134.1278  158.8344 N   0  0  0  0  0  0  0  0  0  0  0  0
  147.9384  132.9863  157.9078 C   0  0  0  0  0  0  0  0  0  0  0  0
  147.4278  131.9190  158.2534 O   0  0  0  0  0  0  0  0  0  0  0  0
  148.5224  133.1251  156.5303 C   0  0  0  0  0  0  0  0  0  0  0  0
  147.8596  132.5543  155.4216 C   0  0  0  0  0  0  0  0  0  0  0  0
  148.4092  132.6684  154.1300 C   0  0  0  0  0  0  0  0  0  0  0  0
  149.6336  133.3371  153.9413 C   0  0  0  0  0  0  0  0  0  0  0  0
  150.3138  133.8835  155.0461 C   0  0  0  0  0  0  0  0  0  0  0  0
  149.7649  133.7704  156.3379 C   0  0  0  0  0  0  0  0  0  0  0  0
  147.8415  134.0459  160.2999 C   0  0  0  0  0  0  0  0  0  0  0  0
  148.2084  133.0185  160.8737 O   0  0  0  0  0  0  0  0  0  0  0  0
  147.3621  135.2206  161.1051 C   0  0  0  0  0  0  0  0  0  0  0  0
  146.2486  135.9698  160.6655 C   0  0  0  0  0  0  0  0  0  0  0  0
  145.8015  137.0799  161.4078 C   0  0  0  0  0  0  0  0  0  0  0  0
  146.4762  137.4596  162.5835 C   0  0  0  0  0  0  0  0  0  0  0  0
  147.6041  136.7343  163.0124 C   0  0  0  0  0  0  0  0  0  0  0  0
  148.0514  135.6235  162.2712 C   0  0  0  0  0  0  0  0  0  0  0  0
  146.8904  135.9339  157.7752 N   0  0  0  0  0  0  0  0  0  0  0  0
  146.9554  137.1536  157.2325 C   0  0  0  0  0  0  0  0  0  0  0  0
  148.0156  137.9552  157.1026 N   0  0  0  0  0  0  0  0  0  0  0  0
  149.1435  137.3805  157.6126 C   0  0  0  0  0  0  0  0  0  0  0  0
  150.5144  139.3413  155.6316 C   0  0  2  0  0  0  0  0  0  0  0  0
  151.6427  139.6865  154.8536 O   0  0  0  0  0  0  0  0  0  0  0  0
  149.4887  140.4666  155.6052 C   0  0  1  0  0  0  0  0  0  0  0  0
  148.2604  139.9462  155.6019 F   0  0  0  0  0  0  0  0  0  0  0  0
  152.7334  142.1310  160.0072 C   0  0  0  0  0  0  0  0  0  0  0  0
  153.6835  141.3306  160.6834 C   0  0  0  0  0  0  0  0  0  0  0  0
  154.0725  141.6375  162.0018 C   0  0  0  0  0  0  0  0  0  0  0  0
  153.5146  142.7484  162.6609 C   0  0  0  0  0  0  0  0  0  0  0  0
  152.5682  143.5526  161.9994 C   0  0  0  0  0  0  0  0  0  0  0  0
  152.1793  143.2480  160.6803 C   0  0  0  0  0  0  0  0  0  0  0  0
  150.4157  143.2144  156.4148 H   0  0  0  0  0  0  0  0  0  0  0  0
  151.6188  141.9518  156.2011 H   0  0  0  0  0  0  0  0  0  0  0  0
  148.7925  141.6604  157.2908 H   0  0  0  0  0  0  0  0  0  0  0  0
  151.9245  139.2957  157.3464 H   0  0  0  0  0  0  0  0  0  0  0  0
  152.2429  137.0341  158.4333 H   0  0  0  0  0  0  0  0  0  0  0  0
  146.9194  132.0390  155.5546 H   0  0  0  0  0  0  0  0  0  0  0  0
  147.8913  132.2409  153.2842 H   0  0  0  0  0  0  0  0  0  0  0  0
  150.0545  133.4246  152.9504 H   0  0  0  0  0  0  0  0  0  0  0  0
  151.2577  134.3885  154.9035 H   0  0  0  0  0  0  0  0  0  0  0  0
  150.2986  134.1892  157.1789 H   0  0  0  0  0  0  0  0  0  0  0  0
  145.7227  135.6869  159.7649 H   0  0  0  0  0  0  0  0  0  0  0  0
  144.9409  137.6405  161.0741 H   0  0  0  0  0  0  0  0  0  0  0  0
  146.1329  138.3111  163.1523 H   0  0  0  0  0  0  0  0  0  0  0  0
  148.1273  137.0304  163.9094 H   0  0  0  0  0  0  0  0  0  0  0  0
  148.9210  135.0773  162.6073 H   0  0  0  0  0  0  0  0  0  0  0  0
  146.0249  137.5425  156.8463 H   0  0  0  0  0  0  0  0  0  0  0  0
  150.1018  138.4088  155.2423 H   0  0  0  0  0  0  0  0  0  0  0  0
  152.1946  138.9236  154.7710 H   0  0  0  0  0  0  0  0  0  0  0  0
  149.5565  141.1067  154.7243 H   0  0  0  0  0  0  0  0  0  0  0  0
  154.1257  140.4724  160.1982 H   0  0  0  0  0  0  0  0  0  0  0  0
  154.7994  141.0191  162.5073 H   0  0  0  0  0  0  0  0  0  0  0  0
  153.8119  142.9831  163.6723 H   0  0  0  0  0  0  0  0  0  0  0  0
  152.1387  144.4049  162.5050 H   0  0  0  0  0  0  0  0  0  0  0  0
  151.4492  143.8851  160.2027 H   0  0  0  0  0  0  0  0  0  0  0  0
  1  2  2  0  0  0  0
  2  3  1  0  0  0  0
  2 38  1  0  0  0  0
  3  4  1  0  0  0  0
  4  5  1  0  0  0  0
  4 44  1  0  0  0  0
  4 45  1  0  0  0  0
  5 36  1  0  0  0  0
  5  6  1  0  0  0  0
  5 46  1  0  0  0  0
  6  7  1  0  0  0  0
  7  8  1  0  0  0  0
  7 34  1  0  0  0  0
  7 47  1  0  0  0  0
  8 33  1  0  0  0  0
  8  9  1  0  0  0  0
  9 10  2  0  0  0  0
  9 48  1  0  0  0  0
 10 11  1  0  0  0  0
 11 33  2  0  0  0  0
 11 12  1  0  0  0  0
 12 13  1  0  0  0  0
 12 30  2  0  0  0  0
 13 14  1  0  0  0  0
 13 22  1  0  0  0  0
 14 15  2  0  0  0  0
 14 16  1  0  0  0  0
 16 21  1  0  0  0  0
 16 17  2  0  0  0  0
 17 18  1  0  0  0  0
 17 49  1  0  0  0  0
 18 19  2  0  0  0  0
 18 50  1  0  0  0  0
 19 20  1  0  0  0  0
 19 51  1  0  0  0  0
 20 21  2  0  0  0  0
 20 52  1  0  0  0  0
 21 53  1  0  0  0  0
 22 23  2  0  0  0  0
 22 24  1  0  0  0  0
 24 29  1  0  0  0  0
 24 25  2  0  0  0  0
 25 26  1  0  0  0  0
 25 54  1  0  0  0  0
 26 27  2  0  0  0  0
 26 55  1  0  0  0  0
 27 28  1  0  0  0  0
 27 56  1  0  0  0  0
 28 29  2  0  0  0  0
 28 57  1  0  0  0  0
 29 58  1  0  0  0  0
 30 31  1  0  0  0  0
 31 32  2  0  0  0  0
 31 59  1  0  0  0  0
 32 33  1  0  0  0  0
 34 35  1  0  0  0  0
 34 36  1  0  0  0  0
 34 60  1  0  0  0  0
 35 61  1  0  0  0  0
 36 37  1  0  0  0  0
 36 62  1  0  0  0  0
 38 43  1  0  0  0  0
 38 39  2  0  0  0  0
 39 40  1  0  0  0  0
 39 63  1  0  0  0  0
 40 41  2  0  0  0  0
 40 64  1  0  0  0  0
 41 42  1  0  0  0  0
 41 65  1  0  0  0  0
 42 43  2  0  0  0  0
 42 66  1  0  0  0  0
 43 67  1  0  0  0  0
M  END
> <s_m_source_file>
AV-unprocessed.smi

> <i_m_source_file_index>
33

> <i_lp_mmshare_version>
43012

> <i_f3d_flags>
0

> <s_epik_input>
W2NIXTFbY0hdW2NIXVtjSF1bY0hdYzFDKD1PKU9bQ0gyXVtDQEBIXTJPW0NASF0oW0NAQEhdKFtPSF0pW0NAQEhdMkYpbihbY0hdbjMpYyhjMzQpbltjSF1uYzROKEMoPU8pYzVbY0hdW2NIXVtjSF1bY0hdW2NIXTUpQyg9TyljNltjSF1bY0hdW2NIXVtjSF1bY0hdNg==

> <s_epik_cmdline>
J2VwaWtfcHl0aG9uJywgJy1waCcsICc3LjAnLCAnLXRuJywgJzgnLCAnLW1hJywgJzIwMCcsICctbWV0YWxfYmluZGluZycsICctaW1hZScsICc8aW5maWxlLm1hZT4nLCAnLW9tYWUnLCAnPG91dGZpbGUubWFlPic=

> <r_lp_tautomer_probability>
1

> <r_epik_Ionization_Penalty>
0.00067664

> <r_epik_Ionization_Penalty_Charging>
0

> <r_epik_Ionization_Penalty_Neutral>
0.00067664

> <r_epik_State_Penalty>
0.000428095

> <r_epik_Charging_Adjusted_Penalty>
0.000428095

> <i_epik_Tot_Q>
0

> <i_epik_Tot_abs_Q>
0

> <r_epik_Metal_State_Penalty>
-0

> <b_epik_Metal_Only>
0

> <s_epik_Chemistry_Notes>
This compound has an ester and may undergo hydrolysis at high or low pH. This compound contains an acetal/aminal-like group ( X-CH(R)-Y where X, Y are N, S, or O) that may be acid/base labile, releasing an aldehyde.

> <s_lp_Force_Field>
OPLS_2005

> <r_lp_Energy>
69.3236

> <b_lp_Chiralities_Consistent>
1

> <s_lp_Variant>
AV-unprocessed.smi:33-13

> <Gold.Version>
5.8.1

> <Gold.Id.Protein>
6NUR|6NUR_protein|mol2

> <Gold.PLP.Fitness>
66.4984

> <Gold.PLP.PLP>
-61.5674

> <Gold.PLP.part.hbond>
-2.7722

> <Gold.PLP.part.metal>
0.0000

> <Gold.PLP.part.buried>
-5.0022

> <Gold.PLP.part.nonpolar>
-54.0271

> <Gold.PLP.part.repulsive>
0.0448

> <Gold.PLP.ligand.clash>
0.0000

> <Gold.PLP.ligand.torsion>
3.7191

> <Gold.PLP.Chemscore.Hbond>
2.5111

> <Gold.PLP.Chemscore.CHOScore>
0.0000

> <Gold.PLP.Chemscore.Metal>
0.0000

> <Gold.Chemscore.Hbonds>
donor molecule, donor type, donor heavy atom, donor atom, acceptor molecule, acceptor atom, score
      P1  H  6896  6908       L1    10  0.73
      P1  H  7989  7998       L1    35  1.00
      P1  H  7997  8009       L1     1  0.55

> <Gold.PLP.Chemscore.Internal.Correction>
4.8358

> <Gold.Rescore>
     Score         DG    S(hbond)    S(metal)    S(lipo)     H(rot)  DE(clash)    DE(int)     intcor
     12.79     -25.04       2.24        0.00     158.58       2.52       0.36      11.90       ----

> <Gold.Chemscore.Fitness>
12.7893

> <Gold.Chemscore.DG>
-25.0422

> <Gold.Chemscore.ZeroCoef>
-5.4800

> <Gold.Chemscore.Hbond>
2.2372

> <Gold.Chemscore.Metal>
0.0000

> <Gold.Chemscore.Lipo>
158.5757

> <Gold.Chemscore.Internal_Hbond>
0.0000

> <Gold.Chemscore.DEClash>
0.3567

> <Gold.Chemscore.DEInternal>
11.8962

> <Gold.Chemscore.Rot>
2.5247

> <Gold.Chemscore.Internal.Correction>
   9.000000E+99

> <Gold.Chemscore.Hbonds>
donor molecule, donor type, donor heavy atom, donor atom, acceptor molecule, acceptor atom, score
      P1  H  6896  6908       L1    10  0.70
      P1  H  7989  7998       L1    35  0.93
      P1  H  7997  8009       L1     1  0.53

> <Gold.Chemscore.Hbond.Weighted>
-7.4721

> <Gold.Chemscore.Metal.Weighted>
-0.0000

> <Gold.Chemscore.Lipo.Weighted>
-18.5534

> <Gold.Chemscore.Internal_Hbond.Weighted>
0.0000

> <Gold.Chemscore.DEClash.Weighted>
0.3567

> <Gold.Chemscore.DEInternal.Weighted>
11.8962

> <Gold.Chemscore.Rot.Weighted>
6.4633

> <Gold.Chemscore.Internal.Correction.Weighted>
   9.000000E+99

> <Gold.Protein.RotatedTorsions>
[ 6907 6896 6895 6894 ] final -174.21 input  -60.11 | X-H torsion
[ 7974 7965 7964 7962 ] final -175.85 input  175.53 | X-H torsion
[ 8008 7997 7996 7995 ] final  162.75 input   59.86 | X-H torsion
[ 10167 10162 10161 10158 ] final  171.06 input  -65.29 | X-H torsion
[ 10718 10713 10712 10709 ] final -168.13 input   66.30 | X-H torsion
[ 10763 10752 10751 10750 ] final  -98.51 input  -60.55 | X-H torsion
[ 11005 11000 10999 10996 ] final  -89.99 input  -57.11 | X-H torsion

> <Gold.Protein.ActiveResidues>
 VAL166  LYS551  ARG553  GLY616  TRP617  ASP618  TYR619  PRO620  LYS621  CYS622 
 ASP623  PHE694  ASN695  SER759  ASP760  ASP761  ALA762  ILE779  LEU786  VAL792 
 PHE793  MET794  SER795  GLU796  ALA797  LYS798  CYS799  TRP800  GLU811  SER814 

> <Gold.Protein.RotatedAtoms>
  151.5686  133.3393  159.2984 H   0  0  0  0  0  0  0  0  0  0  0  0  # atno 6907 bound_to 6896
  150.8380  134.7664  159.6920 H   0  0  0  0  0  0  0  0  0  0  0  0  # atno 6908 bound_to 6896
  152.4453  134.5514  159.9919 H   0  0  0  0  0  0  0  0  0  0  0  0  # atno 6909 bound_to 6896
  144.7127  140.1259  143.6402 H   0  0  0  0  0  0  0  0  0  0  0  0  # atno 7974 bound_to 7965
  156.2008  140.1742  156.7903 H   0  0  0  0  0  0  0  0  0  0  0  0  # atno 8008 bound_to 7997
  154.5589  140.0703  156.8819 H   0  0  0  0  0  0  0  0  0  0  0  0  # atno 8009 bound_to 7997
  155.2885  140.3354  155.4256 H   0  0  0  0  0  0  0  0  0  0  0  0  # atno 8010 bound_to 7997
  139.5036  144.3527  151.9906 H   0  0  0  0  0  0  0  0  0  0  0  0  # atno 10167 bound_to 10162
  156.6925  130.9165  151.3070 H   0  0  0  0  0  0  0  0  0  0  0  0  # atno 10718 bound_to 10713
  154.7420  135.5006  153.9140 H   0  0  0  0  0  0  0  0  0  0  0  0  # atno 10763 bound_to 10752
  153.1053  135.6695  153.9605 H   0  0  0  0  0  0  0  0  0  0  0  0  # atno 10764 bound_to 10752
  153.9380  135.3071  155.3423 H   0  0  0  0  0  0  0  0  0  0  0  0  # atno 10765 bound_to 10752
  141.1574  133.7664  156.9674 H   0  0  0  0  0  0  0  0  0  0  0  0  # atno 11005 bound_to 11000
  145.9330  139.2618  143.1314 LP  0  0  0  0  0  0  0  0  0  0  0  0  # atno 17320 bound_to 7965
  145.9503  140.8913  143.0262 LP  0  0  0  0  0  0  0  0  0  0  0  0  # atno 17321 bound_to 7965
  140.2964  144.3696  150.6073 LP  0  0  0  0  0  0  0  0  0  0  0  0  # atno 17342 bound_to 10162
  140.5907  143.2168  151.7258 LP  0  0  0  0  0  0  0  0  0  0  0  0  # atno 17343 bound_to 10162
  157.7003  130.9326  150.0767 LP  0  0  0  0  0  0  0  0  0  0  0  0  # atno 17370 bound_to 10713
  156.1787  130.3649  149.9065 LP  0  0  0  0  0  0  0  0  0  0  0  0  # atno 17371 bound_to 10713
  140.1152  134.9452  157.2123 LP  0  0  0  0  0  0  0  0  0  0  0  0  # atno 17394 bound_to 11000
  140.3142  134.2989  155.7260 LP  0  0  0  0  0  0  0  0  0  0  0  0  # atno 17395 bound_to 11000

$$$$
