AV-unprocessed.smi:3330|AV-procd|sdf|12811|dock3
  -GOLD-   2272019183D 1   1.00000     0.00000
 Structure written by MMmdl.
 38 39  0  0  0  0  0  0  0  0  3 V2000
  149.4209  139.9517  154.9210 C   0  0  0  0  0  0  0  0  0  0  0  0
  148.7463  141.3301  154.7946 C   0  0  2  0  0  0  0  0  0  0  0  0
  148.9494  142.0749  156.0577 N   0  3  0  0  0  0  0  0  0  0  0  0
  150.2683  141.8785  156.6911 C   0  0  0  0  0  0  0  0  0  0  0  0
  150.3928  142.7239  157.9662 C   0  0  0  0  0  0  0  0  0  0  0  0
  151.6186  142.3956  158.6984 N   0  0  0  0  0  0  0  0  0  0  0  0
  151.9283  141.1737  159.1417 C   0  0  0  0  0  0  0  0  0  0  0  0
  151.2672  140.1410  159.0323 O   0  0  0  0  0  0  0  0  0  0  0  0
  153.2791  141.2622  159.8129 C   0  0  0  0  0  0  0  0  0  0  0  0
  153.6163  142.6578  159.6431 N   0  5  0  0  0  0  0  0  0  0  0  0
  152.6062  143.2664  158.9798 C   0  0  0  0  0  0  0  0  0  0  0  0
  152.5503  144.4496  158.6457 O   0  0  0  0  0  0  0  0  0  0  0  0
  147.2338  141.2366  154.4524 C   0  0  1  0  0  0  0  0  0  0  0  0
  146.6411  142.5708  153.9598 C   0  0  0  0  0  0  0  0  0  0  0  0
  146.9548  140.1822  153.4854 N   0  0  0  0  0  0  0  0  0  0  0  0
  147.2633  140.1538  152.1406 C   0  0  0  0  0  0  0  0  0  0  0  0
  146.8088  138.9668  151.6420 C   0  0  0  0  0  0  0  0  0  0  0  0
  146.2318  138.3238  152.7721 C   0  0  0  0  0  0  0  0  0  0  0  0
  146.3214  139.0519  153.8732 N   0  0  0  0  0  0  0  0  0  0  0  0
  149.4040  139.4032  153.9791 H   0  0  0  0  0  0  0  0  0  0  0  0
  148.9278  139.3360  155.6739 H   0  0  0  0  0  0  0  0  0  0  0  0
  150.4676  140.0543  155.2091 H   0  0  0  0  0  0  0  0  0  0  0  0
  149.2557  141.8584  153.9864 H   0  0  0  0  0  0  0  0  0  0  0  0
  148.8192  143.0594  155.8744 H   0  0  0  0  0  0  0  0  0  0  0  0
  150.3963  140.8212  156.9277 H   0  0  0  0  0  0  0  0  0  0  0  0
  151.0560  142.1471  155.9865 H   0  0  0  0  0  0  0  0  0  0  0  0
  150.3867  143.7861  157.7147 H   0  0  0  0  0  0  0  0  0  0  0  0
  149.5219  142.5661  158.6050 H   0  0  0  0  0  0  0  0  0  0  0  0
  153.1950  140.9630  160.8581 H   0  0  0  0  0  0  0  0  0  0  0  0
  153.9821  140.5869  159.3241 H   0  0  0  0  0  0  0  0  0  0  0  0
  146.7033  140.9641  155.3661 H   0  0  0  0  0  0  0  0  0  0  0  0
  146.6820  143.3368  154.7341 H   0  0  0  0  0  0  0  0  0  0  0  0
  145.5933  142.4544  153.6811 H   0  0  0  0  0  0  0  0  0  0  0  0
  147.1761  142.9495  153.0882 H   0  0  0  0  0  0  0  0  0  0  0  0
  147.7739  140.9722  151.6545 H   0  0  0  0  0  0  0  0  0  0  0  0
  146.8795  138.6111  150.6246 H   0  0  0  0  0  0  0  0  0  0  0  0
  145.7542  137.3564  152.8249 H   0  0  0  0  0  0  0  0  0  0  0  0
  148.2458  141.7758  156.7176 H   0  0  0  0  0  0  0  0  0  0  0  0
  1  2  1  0  0  0  0
  1 20  1  0  0  0  0
  1 21  1  0  0  0  0
  1 22  1  0  0  0  0
  2  3  1  0  0  0  0
  2 13  1  0  0  0  0
  2 23  1  0  0  0  0
  3  4  1  0  0  0  0
  3 24  1  0  0  0  0
  3 38  1  0  0  0  0
  4  5  1  0  0  0  0
  4 25  1  0  0  0  0
  4 26  1  0  0  0  0
  5  6  1  0  0  0  0
  5 27  1  0  0  0  0
  5 28  1  0  0  0  0
  6 11  1  0  0  0  0
  6  7  1  0  0  0  0
  7  8  2  0  0  0  0
  7  9  1  0  0  0  0
  9 10  1  0  0  0  0
  9 29  1  0  0  0  0
  9 30  1  0  0  0  0
 10 11  1  0  0  0  0
 11 12  2  0  0  0  0
 13 14  1  0  0  0  0
 13 15  1  0  0  0  0
 13 31  1  0  0  0  0
 14 32  1  0  0  0  0
 14 33  1  0  0  0  0
 14 34  1  0  0  0  0
 15 19  1  0  0  0  0
 15 16  1  0  0  0  0
 16 17  2  0  0  0  0
 16 35  1  0  0  0  0
 17 18  1  0  0  0  0
 17 36  1  0  0  0  0
 18 19  2  0  0  0  0
 18 37  1  0  0  0  0
M  CHG  1   3   1
M  CHG  1  10  -1
M  END
> <s_m_source_file>
AV-unprocessed.smi

> <i_m_source_file_index>
3330

> <i_lp_mmshare_version>
43012

> <i_f3d_flags>
0

> <s_epik_input>
bjFbY0hdW2NIXVtjSF1uMVtDQEBIXShbQ0gzXSlbQ0BIXShbQ0gzXSlbTkhdW0NIMl1bQ0gyXU4yQyg9TylbQ0gyXVtOSF1DMj1P

> <s_epik_cmdline>
J2VwaWtfcHl0aG9uJywgJy1waCcsICc3LjAnLCAnLXRuJywgJzgnLCAnLW1hJywgJzIwMCcsICctbWV0YWxfYmluZGluZycsICctaW1hZScsICc8aW5maWxlLm1hZT4nLCAnLW9tYWUnLCAnPG91dGZpbGUubWFlPic=

> <r_lp_tautomer_probability>
1

> <r_epik_Ionization_Penalty>
5.18149

> <r_epik_Ionization_Penalty_Charging>
5.18148

> <r_epik_Ionization_Penalty_Neutral>
9.83265e-06

> <r_epik_State_Penalty>
5.18201

> <r_epik_Charging_Adjusted_Penalty>
10.3635

> <i_epik_Tot_Q>
0

> <i_epik_Tot_abs_Q>
2

> <r_epik_Metal_State_Penalty>
1.25422

> <b_epik_Metal_Only>
1

> <s_lp_Force_Field>
OPLS_2005

> <r_lp_Energy>
16.3237

> <b_lp_Chiralities_Consistent>
1

> <s_lp_Variant>
AV-unprocessed.smi:3330-11

> <Gold.Version>
5.8.1

> <Gold.Id.Protein>
6NUR|6NUR_protein|mol2

> <Gold.PLP.Fitness>
42.8035

> <Gold.PLP.PLP>
-36.5361

> <Gold.PLP.part.hbond>
-1.0000

> <Gold.PLP.part.metal>
0.0000

> <Gold.PLP.part.buried>
-1.8607

> <Gold.PLP.part.nonpolar>
-35.2495

> <Gold.PLP.part.repulsive>
0.2462

> <Gold.PLP.ligand.clash>
0.0000

> <Gold.PLP.ligand.torsion>
0.6231

> <Gold.PLP.Chemscore.Hbond>
2.0000

> <Gold.PLP.Chemscore.CHOScore>
0.4524

> <Gold.PLP.Chemscore.Metal>
0.0000

> <Gold.Chemscore.Hbonds>
donor molecule, donor type, donor heavy atom, donor atom, acceptor molecule, acceptor atom, score
      L1  H     3    24       P1  8028  2.00
      L1  C    16    35       P1  7957  0.43

> <Gold.PLP.Chemscore.Internal.Correction>
0.1564

> <Gold.Rescore>
     Score         DG    S(hbond)    S(metal)    S(lipo)     H(rot)  DE(clash)    DE(int)     intcor
      8.68     -10.88       1.00        0.00      74.33       2.59       1.74       0.47       ----

> <Gold.Chemscore.Fitness>
8.6756

> <Gold.Chemscore.DG>
-10.8847

> <Gold.Chemscore.ZeroCoef>
-5.4800

> <Gold.Chemscore.Hbond>
0.9997

> <Gold.Chemscore.Metal>
0.0000

> <Gold.Chemscore.Lipo>
74.3323

> <Gold.Chemscore.Internal_Hbond>
0.0000

> <Gold.Chemscore.DEClash>
1.7356

> <Gold.Chemscore.DEInternal>
0.4734

> <Gold.Chemscore.Rot>
2.5903

> <Gold.Chemscore.Internal.Correction>
   9.000000E+99

> <Gold.Chemscore.Hbonds>
donor molecule, donor type, donor heavy atom, donor atom, acceptor molecule, acceptor atom, score
      L1  H     3    24       P1  8028  1.00

> <Gold.Chemscore.Hbond.Weighted>
-3.3389

> <Gold.Chemscore.Metal.Weighted>
-0.0000

> <Gold.Chemscore.Lipo.Weighted>
-8.6969

> <Gold.Chemscore.Internal_Hbond.Weighted>
0.0000

> <Gold.Chemscore.DEClash.Weighted>
1.7356

> <Gold.Chemscore.DEInternal.Weighted>
0.4734

> <Gold.Chemscore.Rot.Weighted>
6.6311

> <Gold.Chemscore.Internal.Correction.Weighted>
   9.000000E+99

> <Gold.Protein.RotatedTorsions>
[ 6907 6896 6895 6894 ] final  115.13 input  -60.11 | X-H torsion
[ 7974 7965 7964 7962 ] final -160.05 input  175.53 | X-H torsion
[ 8008 7997 7996 7995 ] final  158.04 input   59.86 | X-H torsion
[ 10167 10162 10161 10158 ] final   99.89 input  -65.29 | X-H torsion
[ 10718 10713 10712 10709 ] final  -61.28 input   66.30 | X-H torsion
[ 10763 10752 10751 10750 ] final  -25.83 input  -60.55 | X-H torsion
[ 11005 11000 10999 10996 ] final  -86.73 input  -57.11 | X-H torsion

> <Gold.Protein.ActiveResidues>
 VAL166  LYS551  ARG553  GLY616  TRP617  ASP618  TYR619  PRO620  LYS621  CYS622 
 ASP623  PHE694  ASN695  SER759  ASP760  ASP761  ALA762  ILE779  LEU786  VAL792 
 PHE793  MET794  SER795  GLU796  ALA797  LYS798  CYS799  TRP800  GLU811  SER814 

> <Gold.Protein.RotatedAtoms>
  152.4761  133.8141  159.7018 H   0  0  0  0  0  0  0  0  0  0  0  0  # atno 6907 bound_to 6896
  150.8778  133.7404  159.2947 H   0  0  0  0  0  0  0  0  0  0  0  0  # atno 6908 bound_to 6896
  151.4918  135.1061  159.9857 H   0  0  0  0  0  0  0  0  0  0  0  0  # atno 6909 bound_to 6896
  144.7442  140.3598  143.6098 H   0  0  0  0  0  0  0  0  0  0  0  0  # atno 7974 bound_to 7965
  156.2327  140.1869  156.7200 H   0  0  0  0  0  0  0  0  0  0  0  0  # atno 8008 bound_to 7997
  154.6051  140.0630  156.9447 H   0  0  0  0  0  0  0  0  0  0  0  0  # atno 8009 bound_to 7997
  155.2109  140.3300  155.4331 H   0  0  0  0  0  0  0  0  0  0  0  0  # atno 8010 bound_to 7997
  139.7576  144.6964  151.0339 H   0  0  0  0  0  0  0  0  0  0  0  0  # atno 10167 bound_to 10162
  156.0932  130.4197  150.0973 H   0  0  0  0  0  0  0  0  0  0  0  0  # atno 10718 bound_to 10713
  153.7061  135.6953  153.5050 H   0  0  0  0  0  0  0  0  0  0  0  0  # atno 10763 bound_to 10752
  153.2306  135.4339  155.0590 H   0  0  0  0  0  0  0  0  0  0  0  0  # atno 10764 bound_to 10752
  154.8329  135.3483  154.6599 H   0  0  0  0  0  0  0  0  0  0  0  0  # atno 10765 bound_to 10752
  141.1626  133.7471  156.9204 H   0  0  0  0  0  0  0  0  0  0  0  0  # atno 11005 bound_to 11000
  145.7189  139.1704  143.2496 LP  0  0  0  0  0  0  0  0  0  0  0  0  # atno 17320 bound_to 7965
  146.1291  140.7208  142.9420 LP  0  0  0  0  0  0  0  0  0  0  0  0  # atno 17321 bound_to 7965
  140.7804  143.4734  151.0115 LP  0  0  0  0  0  0  0  0  0  0  0  0  # atno 17342 bound_to 10162
  139.8421  143.7550  152.3180 LP  0  0  0  0  0  0  0  0  0  0  0  0  # atno 17343 bound_to 10162
  156.8978  130.9610  151.3580 LP  0  0  0  0  0  0  0  0  0  0  0  0  # atno 17370 bound_to 10713
  157.6087  130.8566  149.8916 LP  0  0  0  0  0  0  0  0  0  0  0  0  # atno 17371 bound_to 10713
  140.1455  134.9265  157.2524 LP  0  0  0  0  0  0  0  0  0  0  0  0  # atno 17394 bound_to 11000
  140.2785  134.3377  155.7350 LP  0  0  0  0  0  0  0  0  0  0  0  0  # atno 17395 bound_to 11000

$$$$
