AV-unprocessed.smi:3046|AV-procd|sdf|11617|dock4
  -GOLD-   2272017 03D 1   1.00000     0.00000
 Structure written by MMmdl.
 37 37  0  0  0  0  0  0  0  0  1 V2000
  146.3144  133.0156  151.8834 C   0  0  0  0  0  0  0  0  0  0  0  0
  145.7829  134.2130  152.1717 C   0  0  0  0  0  0  0  0  0  0  0  0
  146.0068  134.9588  153.4696 C   0  0  0  0  0  0  0  0  0  0  0  0
  146.6314  136.2470  153.2136 N   0  0  0  0  0  0  0  0  0  0  0  0
  146.1859  137.4194  153.6871 C   0  0  0  0  0  0  0  0  0  0  0  0
  145.1845  137.5210  154.3970 O   0  0  0  0  0  0  0  0  0  0  0  0
  146.9860  138.6599  153.2709 C   0  0  2  0  0  0  0  0  0  0  0  0
  146.9528  138.8747  151.7444 C   0  0  0  0  0  0  0  0  0  0  0  0
  148.3695  138.5430  153.7572 N   0  0  0  0  0  0  0  0  0  0  0  0
  148.7305  139.5579  154.7448 C   0  0  2  0  0  0  0  0  0  0  0  0
  148.4307  140.9318  154.1302 C   0  0  0  0  0  0  0  0  0  0  0  0
  150.2238  139.4225  155.1146 C   0  0  0  0  0  0  0  0  0  0  0  0
  150.6031  140.2229  156.2661 N   0  0  0  0  0  0  0  0  0  0  0  0
  150.4336  141.5779  156.4590 C   0  0  0  0  0  0  0  0  0  0  0  0
  150.9556  141.8826  157.6834 C   0  0  0  0  0  0  0  0  0  0  0  0
  151.4164  140.6293  158.1753 C   0  0  0  0  0  0  0  0  0  0  0  0
  151.2001  139.6372  157.3268 N   0  0  0  0  0  0  0  0  0  0  0  0
  146.9555  132.5026  152.5853 H   0  0  0  0  0  0  0  0  0  0  0  0
  146.1137  132.5323  150.9386 H   0  0  0  0  0  0  0  0  0  0  0  0
  145.1428  134.6938  151.4459 H   0  0  0  0  0  0  0  0  0  0  0  0
  145.0431  135.1108  153.9576 H   0  0  0  0  0  0  0  0  0  0  0  0
  146.6292  134.3680  154.1439 H   0  0  0  0  0  0  0  0  0  0  0  0
  147.4579  136.2518  152.6332 H   0  0  0  0  0  0  0  0  0  0  0  0
  146.5038  139.5145  153.7481 H   0  0  0  0  0  0  0  0  0  0  0  0
  145.9277  138.9095  151.3736 H   0  0  0  0  0  0  0  0  0  0  0  0
  147.4718  138.0756  151.2136 H   0  0  0  0  0  0  0  0  0  0  0  0
  147.4265  139.8151  151.4628 H   0  0  0  0  0  0  0  0  0  0  0  0
  149.0280  138.5601  152.9914 H   0  0  0  0  0  0  0  0  0  0  0  0
  148.1255  139.4641  155.6479 H   0  0  0  0  0  0  0  0  0  0  0  0
  148.6773  141.7331  154.8272 H   0  0  0  0  0  0  0  0  0  0  0  0
  147.3733  141.0294  153.8814 H   0  0  0  0  0  0  0  0  0  0  0  0
  149.0059  141.0981  153.2184 H   0  0  0  0  0  0  0  0  0  0  0  0
  150.4738  138.3801  155.3182 H   0  0  0  0  0  0  0  0  0  0  0  0
  150.8463  139.7296  154.2728 H   0  0  0  0  0  0  0  0  0  0  0  0
  149.9714  142.2071  155.7125 H   0  0  0  0  0  0  0  0  0  0  0  0
  151.0015  142.8529  158.1553 H   0  0  0  0  0  0  0  0  0  0  0  0
  151.8988  140.4123  159.1169 H   0  0  0  0  0  0  0  0  0  0  0  0
  1  2  2  0  0  0  0
  1 18  1  0  0  0  0
  1 19  1  0  0  0  0
  2  3  1  0  0  0  0
  2 20  1  0  0  0  0
  3  4  1  0  0  0  0
  3 21  1  0  0  0  0
  3 22  1  0  0  0  0
  4  5  1  0  0  0  0
  4 23  1  0  0  0  0
  5  6  2  0  0  0  0
  5  7  1  0  0  0  0
  7  8  1  0  0  0  0
  7  9  1  0  0  0  0
  7 24  1  0  0  0  0
  8 25  1  0  0  0  0
  8 26  1  0  0  0  0
  8 27  1  0  0  0  0
  9 10  1  0  0  0  0
  9 28  1  0  0  0  0
 10 11  1  0  0  0  0
 10 12  1  0  0  0  0
 10 29  1  0  0  0  0
 11 30  1  0  0  0  0
 11 31  1  0  0  0  0
 11 32  1  0  0  0  0
 12 13  1  0  0  0  0
 12 33  1  0  0  0  0
 12 34  1  0  0  0  0
 13 17  1  0  0  0  0
 13 14  1  0  0  0  0
 14 15  2  0  0  0  0
 14 35  1  0  0  0  0
 15 16  1  0  0  0  0
 15 36  1  0  0  0  0
 16 17  2  0  0  0  0
 16 37  1  0  0  0  0
M  END
> <s_m_source_file>
AV-unprocessed.smi

> <i_m_source_file_index>
3046

> <i_lp_mmshare_version>
43012

> <i_f3d_flags>
0

> <s_epik_input>
W0NIMl09W0NIXVtDSDJdW05IXUMoPU8pW0NASF0oW0NIM10pW05IXVtDQEhdKFtDSDNdKVtDSDJdbjFbY0hdW2NIXVtjSF1uMQ==

> <s_epik_cmdline>
J2VwaWtfcHl0aG9uJywgJy1waCcsICc3LjAnLCAnLXRuJywgJzgnLCAnLW1hJywgJzIwMCcsICctbWV0YWxfYmluZGluZycsICctaW1hZScsICc8aW5maWxlLm1hZT4nLCAnLW9tYWUnLCAnPG91dGZpbGUubWFlPic=

> <r_lp_tautomer_probability>
1

> <r_epik_Ionization_Penalty>
0.950627

> <r_epik_Ionization_Penalty_Charging>
0

> <r_epik_Ionization_Penalty_Neutral>
0.950627

> <r_epik_State_Penalty>
0.994814

> <r_epik_Charging_Adjusted_Penalty>
0.994814

> <i_epik_Tot_Q>
0

> <i_epik_Tot_abs_Q>
0

> <r_epik_Metal_State_Penalty>
0.994788

> <b_epik_Metal_Only>
0

> <s_lp_Force_Field>
OPLS_2005

> <r_lp_Energy>
5.49444

> <b_lp_Chiralities_Consistent>
1

> <s_lp_Variant>
AV-unprocessed.smi:3046-5

> <Gold.Version>
5.8.1

> <Gold.Id.Protein>
6NUR|6NUR_protein|mol2

> <Gold.PLP.Fitness>
39.5501

> <Gold.PLP.PLP>
-32.3604

> <Gold.PLP.part.hbond>
-2.8116

> <Gold.PLP.part.metal>
0.0000

> <Gold.PLP.part.buried>
-0.1870

> <Gold.PLP.part.nonpolar>
-29.6748

> <Gold.PLP.part.repulsive>
0.1243

> <Gold.PLP.ligand.clash>
0.0000

> <Gold.PLP.ligand.torsion>
0.8989

> <Gold.PLP.Chemscore.Hbond>
1.9440

> <Gold.PLP.Chemscore.CHOScore>
1.0000

> <Gold.PLP.Chemscore.Metal>
0.0000

> <Gold.Chemscore.Hbonds>
donor molecule, donor type, donor heavy atom, donor atom, acceptor molecule, acceptor atom, score
      L1  H     4    23       P1  7948  1.00
      L1  H     9    28       P1  7957  0.04
      L1  C    14    35       P1  8028  0.48

> <Gold.PLP.Chemscore.Internal.Correction>
0.1555

> <Gold.Rescore>
     Score         DG    S(hbond)    S(metal)    S(lipo)     H(rot)  DE(clash)    DE(int)     intcor
     13.22     -14.48       1.94        0.00      69.06       2.17       0.13       1.12       ----

> <Gold.Chemscore.Fitness>
13.2248

> <Gold.Chemscore.DG>
-14.4814

> <Gold.Chemscore.ZeroCoef>
-5.4800

> <Gold.Chemscore.Hbond>
1.9420

> <Gold.Chemscore.Metal>
0.0000

> <Gold.Chemscore.Lipo>
69.0627

> <Gold.Chemscore.Internal_Hbond>
0.0000

> <Gold.Chemscore.DEClash>
0.1321

> <Gold.Chemscore.DEInternal>
1.1246

> <Gold.Chemscore.Rot>
2.1739

> <Gold.Chemscore.Internal.Correction>
   9.000000E+99

> <Gold.Chemscore.Hbonds>
donor molecule, donor type, donor heavy atom, donor atom, acceptor molecule, acceptor atom, score
      L1  H     4    23       P1  7948  1.00
      L1  H     9    28       P1  7957  0.07

> <Gold.Chemscore.Hbond.Weighted>
-6.4863

> <Gold.Chemscore.Metal.Weighted>
-0.0000

> <Gold.Chemscore.Lipo.Weighted>
-8.0803

> <Gold.Chemscore.Internal_Hbond.Weighted>
0.0000

> <Gold.Chemscore.DEClash.Weighted>
0.1321

> <Gold.Chemscore.DEInternal.Weighted>
1.1246

> <Gold.Chemscore.Rot.Weighted>
5.5652

> <Gold.Chemscore.Internal.Correction.Weighted>
   9.000000E+99

> <Gold.Protein.RotatedTorsions>
[ 6907 6896 6895 6894 ] final -115.33 input  -60.11 | X-H torsion
[ 7974 7965 7964 7962 ] final   45.45 input  175.53 | X-H torsion
[ 8008 7997 7996 7995 ] final   16.44 input   59.86 | X-H torsion
[ 10167 10162 10161 10158 ] final  137.25 input  -65.29 | X-H torsion
[ 10718 10713 10712 10709 ] final   70.72 input   66.30 | X-H torsion
[ 10763 10752 10751 10750 ] final  133.05 input  -60.55 | X-H torsion
[ 11005 11000 10999 10996 ] final -177.71 input  -57.11 | X-H torsion

> <Gold.Protein.ActiveResidues>
 VAL166  LYS551  ARG553  GLY616  TRP617  ASP618  TYR619  PRO620  LYS621  CYS622 
 ASP623  PHE694  ASN695  SER759  ASP760  ASP761  ALA762  ILE779  LEU786  VAL792 
 PHE793  MET794  SER795  GLU796  ALA797  LYS798  CYS799  TRP800  GLU811  SER814 

> <Gold.Protein.RotatedAtoms>
  150.7969  133.8674  159.3248 H   0  0  0  0  0  0  0  0  0  0  0  0  # atno 6907 bound_to 6896
  151.6497  135.1001  160.0167 H   0  0  0  0  0  0  0  0  0  0  0  0  # atno 6908 bound_to 6896
  152.4052  133.6839  159.6385 H   0  0  0  0  0  0  0  0  0  0  0  0  # atno 6909 bound_to 6896
  146.0479  139.4963  142.9737 H   0  0  0  0  0  0  0  0  0  0  0  0  # atno 7974 bound_to 7965
  154.8770  140.2967  155.5447 H   0  0  0  0  0  0  0  0  0  0  0  0  # atno 8008 bound_to 7997
  156.3022  140.2449  156.3701 H   0  0  0  0  0  0  0  0  0  0  0  0  # atno 8009 bound_to 7997
  154.8756  140.0400  157.1740 H   0  0  0  0  0  0  0  0  0  0  0  0  # atno 8010 bound_to 7997
  139.5151  144.6420  151.5542 H   0  0  0  0  0  0  0  0  0  0  0  0  # atno 10167 bound_to 10162
  157.6415  130.9492  150.0690 H   0  0  0  0  0  0  0  0  0  0  0  0  # atno 10718 bound_to 10713
  153.8007  135.3142  155.3390 H   0  0  0  0  0  0  0  0  0  0  0  0  # atno 10763 bound_to 10752
  154.8090  135.4679  154.0469 H   0  0  0  0  0  0  0  0  0  0  0  0  # atno 10764 bound_to 10752
  153.1816  135.6894  153.8557 H   0  0  0  0  0  0  0  0  0  0  0  0  # atno 10765 bound_to 10752
  140.4379  134.6458  157.4743 H   0  0  0  0  0  0  0  0  0  0  0  0  # atno 11005 bound_to 11000
  145.6774  141.0200  143.1625 LP  0  0  0  0  0  0  0  0  0  0  0  0  # atno 17320 bound_to 7965
  144.7107  139.8381  143.7415 LP  0  0  0  0  0  0  0  0  0  0  0  0  # atno 17321 bound_to 7965
  140.6191  143.9293  150.6512 LP  0  0  0  0  0  0  0  0  0  0  0  0  # atno 17342 bound_to 10162
  140.2560  143.3558  152.1364 LP  0  0  0  0  0  0  0  0  0  0  0  0  # atno 17343 bound_to 10162
  156.1700  130.3646  149.9179 LP  0  0  0  0  0  0  0  0  0  0  0  0  # atno 17370 bound_to 10713
  156.7156  130.8987  151.3613 LP  0  0  0  0  0  0  0  0  0  0  0  0  # atno 17371 bound_to 10713
  140.0090  134.6720  155.9411 LP  0  0  0  0  0  0  0  0  0  0  0  0  # atno 17394 bound_to 11000
  141.1718  133.6538  156.4679 LP  0  0  0  0  0  0  0  0  0  0  0  0  # atno 17395 bound_to 11000

$$$$
