AV-unprocessed.smi:2607|AV-procd|sdf|10200|dock6
  -GOLD-   2272014213D 1   1.00000     0.00000
 Structure written by MMmdl.
 21 22  0  0  0  0  0  0  0  0  2 V2000
  149.7373  140.5561  158.1288 C   0  0  0  0  0  0  0  0  0  0  0  0
  151.2713  140.7122  158.1035 C   0  0  1  0  0  0  0  0  0  0  0  0
  151.7001  142.1774  158.2982 C   0  0  0  0  0  0  0  0  0  0  0  0
  152.5624  142.5873  159.3476 C   0  0  0  0  0  0  0  0  0  0  0  0
  152.9361  143.8762  159.5101 N   0  0  0  0  0  0  0  0  0  0  0  0
  152.4475  144.7657  158.6193 C   0  0  0  0  0  0  0  0  0  0  0  0
  151.5877  144.3709  157.5742 C   0  0  0  0  0  0  0  0  0  0  0  0
  151.2122  143.0837  157.4134 N   0  0  0  0  0  0  0  0  0  0  0  0
  151.8500  139.8167  159.0873 N   0  0  0  0  0  0  0  0  0  0  0  0
  152.6668  138.9272  158.5269 C   0  0  0  0  0  0  0  0  0  0  0  0
  153.2746  138.0961  159.1976 O   0  0  0  0  0  0  0  0  0  0  0  0
  152.6921  139.0984  157.1920 N   0  5  0  0  0  0  0  0  0  0  0  0
  151.8832  140.1161  156.8233 C   0  0  0  0  0  0  0  0  0  0  0  0
  151.6140  140.5375  155.6986 O   0  0  0  0  0  0  0  0  0  0  0  0
  149.2594  141.1606  157.3573 H   0  0  0  0  0  0  0  0  0  0  0  0
  149.3282  140.8674  159.0904 H   0  0  0  0  0  0  0  0  0  0  0  0
  149.4360  139.5207  157.9631 H   0  0  0  0  0  0  0  0  0  0  0  0
  152.9634  141.8905  160.0680 H   0  0  0  0  0  0  0  0  0  0  0  0
  152.7426  145.7973  158.7404 H   0  0  0  0  0  0  0  0  0  0  0  0
  151.2000  145.0891  156.8672 H   0  0  0  0  0  0  0  0  0  0  0  0
  151.6662  139.8861  160.0771 H   0  0  0  0  0  0  0  0  0  0  0  0
  1  2  1  0  0  0  0
  1 15  1  0  0  0  0
  1 16  1  0  0  0  0
  1 17  1  0  0  0  0
  2 13  1  0  0  0  0
  2  3  1  0  0  0  0
  2  9  1  0  0  0  0
  3  8  1  0  0  0  0
  3  4  2  0  0  0  0
  4  5  1  0  0  0  0
  4 18  1  0  0  0  0
  5  6  2  0  0  0  0
  6  7  1  0  0  0  0
  6 19  1  0  0  0  0
  7  8  2  0  0  0  0
  7 20  1  0  0  0  0
  9 10  1  0  0  0  0
  9 21  1  0  0  0  0
 10 11  2  0  0  0  0
 10 12  1  0  0  0  0
 12 13  1  0  0  0  0
 13 14  2  0  0  0  0
M  CHG  1  12  -1
M  END
> <s_m_source_file>
AV-unprocessed.smi

> <i_m_source_file_index>
2607

> <i_lp_mmshare_version>
43012

> <i_f3d_flags>
0

> <s_epik_input>
Tz1DMVtOSF1DKD1PKVtOSF1bQ0BAXTEoW0NIM10pYzJbY0hdbltjSF1bY0hdbjI=

> <s_epik_cmdline>
J2VwaWtfcHl0aG9uJywgJy1waCcsICc3LjAnLCAnLXRuJywgJzgnLCAnLW1hJywgJzIwMCcsICctbWV0YWxfYmluZGluZycsICctaW1hZScsICc8aW5maWxlLm1hZT4nLCAnLW9tYWUnLCAnPG91dGZpbGUubWFlPic=

> <r_lp_tautomer_probability>
1

> <r_epik_Ionization_Penalty>
1.72482

> <r_epik_Ionization_Penalty_Charging>
1.72482

> <r_epik_Ionization_Penalty_Neutral>
2.42073e-06

> <r_epik_State_Penalty>
1.83265

> <r_epik_Charging_Adjusted_Penalty>
3.55747

> <i_epik_Tot_Q>
-1

> <i_epik_Tot_abs_Q>
1

> <r_epik_Metal_State_Penalty>
0.535818

> <b_epik_Metal_Only>
0

> <s_lp_Force_Field>
OPLS_2005

> <r_lp_Energy>
15.5794

> <b_lp_Chiralities_Consistent>
1

> <s_lp_Variant>
AV-unprocessed.smi:2607-3

> <Gold.Version>
5.8.1

> <Gold.Id.Protein>
6NUR|6NUR_protein|mol2

> <Gold.PLP.Fitness>
35.0875

> <Gold.PLP.PLP>
-24.3014

> <Gold.PLP.part.hbond>
-2.0000

> <Gold.PLP.part.metal>
0.0000

> <Gold.PLP.part.buried>
-3.7819

> <Gold.PLP.part.nonpolar>
-19.2177

> <Gold.PLP.part.repulsive>
0.2686

> <Gold.PLP.ligand.clash>
0.0000

> <Gold.PLP.ligand.torsion>
0.0736

> <Gold.PLP.Chemscore.Hbond>
2.7520

> <Gold.PLP.Chemscore.CHOScore>
0.8649

> <Gold.PLP.Chemscore.Metal>
0.0000

> <Gold.Chemscore.Hbonds>
donor molecule, donor type, donor heavy atom, donor atom, acceptor molecule, acceptor atom, score
      P1  H  7989  7998       L1    14  0.42
      P1  H  7997  8009       L1    12  1.40
      L1  C     7    20       P1  8028  0.74

> <Gold.PLP.Chemscore.Internal.Correction>
0.0826

> <Gold.Rescore>
     Score         DG    S(hbond)    S(metal)    S(lipo)     H(rot)  DE(clash)    DE(int)     intcor
     11.61     -11.71       0.78        0.00      52.97       1.00       0.01       0.09       ----

> <Gold.Chemscore.Fitness>
11.6068

> <Gold.Chemscore.DG>
-11.7079

> <Gold.Chemscore.ZeroCoef>
-5.4800

> <Gold.Chemscore.Hbond>
0.7754

> <Gold.Chemscore.Metal>
0.0000

> <Gold.Chemscore.Lipo>
52.9747

> <Gold.Chemscore.Internal_Hbond>
0.0000

> <Gold.Chemscore.DEClash>
0.0106

> <Gold.Chemscore.DEInternal>
0.0904

> <Gold.Chemscore.Rot>
1.0000

> <Gold.Chemscore.Internal.Correction>
   9.000000E+99

> <Gold.Chemscore.Hbonds>
donor molecule, donor type, donor heavy atom, donor atom, acceptor molecule, acceptor atom, score
      P1  H  7989  7998       L1    14  0.41
      P1  H  7997  8009       L1    12  0.05

> <Gold.Chemscore.Hbond.Weighted>
-2.5898

> <Gold.Chemscore.Metal.Weighted>
-0.0000

> <Gold.Chemscore.Lipo.Weighted>
-6.1980

> <Gold.Chemscore.Internal_Hbond.Weighted>
0.0000

> <Gold.Chemscore.DEClash.Weighted>
0.0106

> <Gold.Chemscore.DEInternal.Weighted>
0.0904

> <Gold.Chemscore.Rot.Weighted>
2.5600

> <Gold.Chemscore.Internal.Correction.Weighted>
   9.000000E+99

> <Gold.Protein.RotatedTorsions>
[ 6907 6896 6895 6894 ] final   81.78 input  -60.11 | X-H torsion
[ 7974 7965 7964 7962 ] final  132.25 input  175.53 | X-H torsion
[ 8008 7997 7996 7995 ] final  176.67 input   59.86 | X-H torsion
[ 10167 10162 10161 10158 ] final   11.96 input  -65.29 | X-H torsion
[ 10718 10713 10712 10709 ] final   29.84 input   66.30 | X-H torsion
[ 10763 10752 10751 10750 ] final   61.24 input  -60.55 | X-H torsion
[ 11005 11000 10999 10996 ] final  171.62 input  -57.11 | X-H torsion

> <Gold.Protein.ActiveResidues>
 VAL166  LYS551  ARG553  GLY616  TRP617  ASP618  TYR619  PRO620  LYS621  CYS622 
 ASP623  PHE694  ASN695  SER759  ASP760  ASP761  ALA762  ILE779  LEU786  VAL792 
 PHE793  MET794  SER795  GLU796  ALA797  LYS798  CYS799  TRP800  GLU811  SER814 

> <Gold.Protein.RotatedAtoms>
  152.5279  134.3151  159.9127 H   0  0  0  0  0  0  0  0  0  0  0  0  # atno 6907 bound_to 6896
  151.3100  133.4078  159.2654 H   0  0  0  0  0  0  0  0  0  0  0  0  # atno 6908 bound_to 6896
  151.0046  134.9366  159.8030 H   0  0  0  0  0  0  0  0  0  0  0  0  # atno 6909 bound_to 6896
  144.9988  139.4332  143.5302 H   0  0  0  0  0  0  0  0  0  0  0  0  # atno 7974 bound_to 7965
  156.0740  140.1378  156.9794 H   0  0  0  0  0  0  0  0  0  0  0  0  # atno 8008 bound_to 7997
  154.4547  140.0966  156.6774 H   0  0  0  0  0  0  0  0  0  0  0  0  # atno 8009 bound_to 7997
  155.5183  140.3455  155.4404 H   0  0  0  0  0  0  0  0  0  0  0  0  # atno 8010 bound_to 7997
  140.6098  143.8431  150.7053 H   0  0  0  0  0  0  0  0  0  0  0  0  # atno 10167 bound_to 10162
  157.2519  130.7119  149.6409 H   0  0  0  0  0  0  0  0  0  0  0  0  # atno 10718 bound_to 10713
  152.9944  135.5508  154.6002 H   0  0  0  0  0  0  0  0  0  0  0  0  # atno 10763 bound_to 10752
  154.5345  135.2815  155.1153 H   0  0  0  0  0  0  0  0  0  0  0  0  # atno 10764 bound_to 10752
  154.2455  135.6408  153.5274 H   0  0  0  0  0  0  0  0  0  0  0  0  # atno 10765 bound_to 10752
  140.3210  134.7437  157.4064 H   0  0  0  0  0  0  0  0  0  0  0  0  # atno 11005 bound_to 11000
  146.3447  139.9365  142.8746 LP  0  0  0  0  0  0  0  0  0  0  0  0  # atno 17320 bound_to 7965
  145.2182  140.9924  143.4061 LP  0  0  0  0  0  0  0  0  0  0  0  0  # atno 17321 bound_to 7965
  140.1996  143.3970  152.1801 LP  0  0  0  0  0  0  0  0  0  0  0  0  # atno 17342 bound_to 10162
  139.5353  144.7202  151.4916 LP  0  0  0  0  0  0  0  0  0  0  0  0  # atno 17343 bound_to 10162
  155.9666  130.4425  150.5383 LP  0  0  0  0  0  0  0  0  0  0  0  0  # atno 17370 bound_to 10713
  157.3269  131.0692  151.1890 LP  0  0  0  0  0  0  0  0  0  0  0  0  # atno 17371 bound_to 10713
  140.0942  134.5560  155.8415 LP  0  0  0  0  0  0  0  0  0  0  0  0  # atno 17394 bound_to 11000
  141.2086  133.6676  156.6385 LP  0  0  0  0  0  0  0  0  0  0  0  0  # atno 17395 bound_to 11000

$$$$
