AV-unprocessed.smi:244|AV-procd|sdf|1866|dock2
  -GOLD-   2262020503D 1   1.00000     0.00000
 Structure written by MMmdl.
 57 61  0  0  0  0  0  0  0  0  2 V2000
  146.3152  139.6314  156.9426 C   0  0  0  0  0  0  0  0  0  0  0  0
  146.3591  140.5962  155.8193 N   0  3  1  0  0  0  0  0  0  0  0  0
  147.2443  141.7620  156.0647 C   0  0  0  0  0  0  0  0  0  0  0  0
  148.7274  141.4021  155.8855 C   0  0  0  0  0  0  0  0  0  0  0  0
  148.9792  140.8124  154.4837 C   0  0  1  0  0  0  0  0  0  0  0  0
  150.3516  140.4797  154.2705 O   0  0  0  0  0  0  0  0  0  0  0  0
  150.8061  139.3427  154.9986 C   0  0  0  0  0  0  0  0  0  0  0  0
  149.9450  138.1233  154.6478 C   0  0  0  0  0  0  0  0  0  0  0  0
  148.5340  138.4052  154.8844 N   0  0  0  0  0  0  0  0  0  0  0  0
  147.8019  137.2729  154.7620 C   0  0  0  0  0  0  0  0  0  0  0  0
  147.9226  136.2713  155.6732 N   0  0  0  0  0  0  0  0  0  0  0  0
  147.1932  135.1588  155.5430 C   0  0  0  0  0  0  0  0  0  0  0  0
  146.3038  134.8502  154.5966 N   0  0  0  0  0  0  0  0  0  0  0  0
  146.1750  135.8585  153.6872 C   0  0  0  0  0  0  0  0  0  0  0  0
  146.8752  137.0962  153.7015 C   0  0  0  0  0  0  0  0  0  0  0  0
  146.4863  137.8794  152.6232 N   0  0  0  0  0  0  0  0  0  0  0  0
  145.6065  137.1428  152.0008 C   0  0  0  0  0  0  0  0  0  0  0  0
  145.3692  135.9080  152.5630 N   0  0  0  0  0  0  0  0  0  0  0  0
  144.4527  134.8904  152.0706 C   0  0  0  0  0  0  0  0  0  0  0  0
  144.9161  134.2066  150.7551 C   0  0  0  0  0  0  0  0  0  0  0  0
  144.8527  135.1754  149.7241 O   0  0  0  0  0  0  0  0  0  0  0  0
  146.3637  133.6714  150.7994 C   0  0  0  0  0  0  0  0  0  0  0  0
  146.4666  132.4015  151.6627 C   0  0  0  0  0  0  0  0  0  0  0  0
  145.5743  131.4081  151.1698 O   0  0  0  0  0  0  0  0  0  0  0  0
  144.2086  131.8048  151.2320 C   0  0  0  0  0  0  0  0  0  0  0  0
  143.9809  133.0485  150.3538 C   0  0  0  0  0  0  0  0  0  0  0  0
  148.0570  139.6056  154.1856 C   0  0  1  0  0  0  0  0  0  0  0  0
  146.5752  139.9771  154.4837 C   0  0  0  0  0  0  0  0  0  0  0  0
  147.2943  139.2041  157.1541 H   0  0  0  0  0  0  0  0  0  0  0  0
  145.6268  138.8142  156.7245 H   0  0  0  0  0  0  0  0  0  0  0  0
  145.9650  140.1241  157.8497 H   0  0  0  0  0  0  0  0  0  0  0  0
  146.9751  142.5525  155.3629 H   0  0  0  0  0  0  0  0  0  0  0  0
  147.0651  142.1634  157.0628 H   0  0  0  0  0  0  0  0  0  0  0  0
  149.3410  142.2922  156.0253 H   0  0  0  0  0  0  0  0  0  0  0  0
  149.0219  140.7040  156.6675 H   0  0  0  0  0  0  0  0  0  0  0  0
  148.7464  141.5946  153.7601 H   0  0  0  0  0  0  0  0  0  0  0  0
  151.8450  139.1506  154.7303 H   0  0  0  0  0  0  0  0  0  0  0  0
  150.7968  139.5330  156.0713 H   0  0  0  0  0  0  0  0  0  0  0  0
  150.0891  137.8583  153.5992 H   0  0  0  0  0  0  0  0  0  0  0  0
  150.2668  137.2662  155.2415 H   0  0  0  0  0  0  0  0  0  0  0  0
  147.3450  134.4079  156.3045 H   0  0  0  0  0  0  0  0  0  0  0  0
  145.1083  137.4776  151.1022 H   0  0  0  0  0  0  0  0  0  0  0  0
  144.3107  134.1551  152.8621 H   0  0  0  0  0  0  0  0  0  0  0  0
  143.4789  135.3601  151.9238 H   0  0  0  0  0  0  0  0  0  0  0  0
  145.3354  134.8525  148.9786 H   0  0  0  0  0  0  0  0  0  0  0  0
  146.6897  133.4193  149.7892 H   0  0  0  0  0  0  0  0  0  0  0  0
  147.0601  134.4307  151.1548 H   0  0  0  0  0  0  0  0  0  0  0  0
  147.4826  132.0088  151.6248 H   0  0  0  0  0  0  0  0  0  0  0  0
  146.2494  132.6112  152.7102 H   0  0  0  0  0  0  0  0  0  0  0  0
  143.5900  130.9813  150.8750 H   0  0  0  0  0  0  0  0  0  0  0  0
  143.9174  131.9879  152.2666 H   0  0  0  0  0  0  0  0  0  0  0  0
  142.9368  133.3600  150.4038 H   0  0  0  0  0  0  0  0  0  0  0  0
  144.1664  132.7691  149.3154 H   0  0  0  0  0  0  0  0  0  0  0  0
  148.1365  139.3940  153.1181 H   0  0  0  0  0  0  0  0  0  0  0  0
  145.8970  139.1346  154.3499 H   0  0  0  0  0  0  0  0  0  0  0  0
  146.2598  140.7137  153.7439 H   0  0  0  0  0  0  0  0  0  0  0  0
  145.4234  140.9750  155.7831 H   0  0  0  0  0  0  0  0  0  0  0  0
  1  2  1  0  0  0  0
  1 29  1  0  0  0  0
  1 30  1  0  0  0  0
  1 31  1  0  0  0  0
  2 28  1  0  0  0  0
  2  3  1  0  0  0  0
  2 57  1  0  0  0  0
  3  4  1  0  0  0  0
  3 32  1  0  0  0  0
  3 33  1  0  0  0  0
  4  5  1  0  0  0  0
  4 34  1  0  0  0  0
  4 35  1  0  0  0  0
  5 27  1  0  0  0  0
  5  6  1  0  0  0  0
  5 36  1  0  0  0  0
  6  7  1  0  0  0  0
  7  8  1  0  0  0  0
  7 37  1  0  0  0  0
  7 38  1  0  0  0  0
  8  9  1  0  0  0  0
  8 39  1  0  0  0  0
  8 40  1  0  0  0  0
  9 10  1  0  0  0  0
  9 27  1  0  0  0  0
 10 15  1  0  0  0  0
 10 11  2  0  0  0  0
 11 12  1  0  0  0  0
 12 13  2  0  0  0  0
 12 41  1  0  0  0  0
 13 14  1  0  0  0  0
 14 18  1  0  0  0  0
 14 15  2  0  0  0  0
 15 16  1  0  0  0  0
 16 17  2  0  0  0  0
 17 18  1  0  0  0  0
 17 42  1  0  0  0  0
 18 19  1  0  0  0  0
 19 20  1  0  0  0  0
 19 43  1  0  0  0  0
 19 44  1  0  0  0  0
 20 26  1  0  0  0  0
 20 21  1  0  0  0  0
 20 22  1  0  0  0  0
 21 45  1  0  0  0  0
 22 23  1  0  0  0  0
 22 46  1  0  0  0  0
 22 47  1  0  0  0  0
 23 24  1  0  0  0  0
 23 48  1  0  0  0  0
 23 49  1  0  0  0  0
 24 25  1  0  0  0  0
 25 26  1  0  0  0  0
 25 50  1  0  0  0  0
 25 51  1  0  0  0  0
 26 52  1  0  0  0  0
 26 53  1  0  0  0  0
 27 28  1  0  0  0  0
 27 54  1  0  0  0  0
 28 55  1  0  0  0  0
 28 56  1  0  0  0  0
M  CHG  1   2   1
M  END
> <s_m_source_file>
AV-unprocessed.smi

> <i_m_source_file_index>
244

> <i_lp_mmshare_version>
43012

> <i_f3d_flags>
0

> <s_epik_input>
W0NIMl0xW0NIMl1OKFtDSDNdKVtDSDJdW0NAQEhdKFtDQEhdMTIpTihbQ0gyXVtDSDJdTzIpYyhuW2NIXW4zKWMoYzM0KW5bY0hdbjRbQ0gyXUM1KFtPSF0pW0NIMl1bQ0gyXU9bQ0gyXVtDSDJdNQ==

> <s_epik_cmdline>
J2VwaWtfcHl0aG9uJywgJy1waCcsICc3LjAnLCAnLXRuJywgJzgnLCAnLW1hJywgJzIwMCcsICctbWV0YWxfYmluZGluZycsICctaW1hZScsICc8aW5maWxlLm1hZT4nLCAnLW9tYWUnLCAnPG91dGZpbGUubWFlPic=

> <r_lp_tautomer_probability>
1

> <r_epik_Ionization_Penalty>
0.0136215

> <r_epik_Ionization_Penalty_Charging>
0.0131385

> <r_epik_Ionization_Penalty_Neutral>
0.000483022

> <r_epik_State_Penalty>
0.0104001

> <r_epik_Charging_Adjusted_Penalty>
0.0235387

> <i_epik_Tot_Q>
1

> <i_epik_Tot_abs_Q>
1

> <r_epik_Metal_State_Penalty>
0.0104469

> <b_epik_Metal_Only>
0

> <s_lp_Force_Field>
OPLS_2005

> <r_lp_Energy>
49.6468

> <b_lp_Chiralities_Consistent>
1

> <s_lp_Variant>
AV-unprocessed.smi:244-3

> <Gold.Version>
5.8.1

> <Gold.Id.Protein>
6NUR|6NUR_protein|mol2

> <Gold.PLP.Fitness>
39.6731

> <Gold.PLP.PLP>
-31.7117

> <Gold.PLP.part.hbond>
-1.5136

> <Gold.PLP.part.metal>
0.0000

> <Gold.PLP.part.buried>
-3.8430

> <Gold.PLP.part.nonpolar>
-28.0672

> <Gold.PLP.part.repulsive>
1.2471

> <Gold.PLP.ligand.clash>
0.0000

> <Gold.PLP.ligand.torsion>
0.4870

> <Gold.PLP.Chemscore.Hbond>
1.9280

> <Gold.PLP.Chemscore.CHOScore>
1.0000

> <Gold.PLP.Chemscore.Metal>
0.0000

> <Gold.Chemscore.Hbonds>
donor molecule, donor type, donor heavy atom, donor atom, acceptor molecule, acceptor atom, score
      L1  H    21    45       P1  7921  1.00
      P1  H  7989  7998       L1     6  0.93
      L1  C    17    42       P1 10171  1.00

> <Gold.PLP.Chemscore.Internal.Correction>
0.1514

> <Gold.Rescore>
     Score         DG    S(hbond)    S(metal)    S(lipo)     H(rot)  DE(clash)    DE(int)     intcor
     10.50     -15.69       1.97        0.00      76.68       2.09       0.78       4.40       ----

> <Gold.Chemscore.Fitness>
10.4976

> <Gold.Chemscore.DG>
-15.6859

> <Gold.Chemscore.ZeroCoef>
-5.4800

> <Gold.Chemscore.Hbond>
1.9724

> <Gold.Chemscore.Metal>
0.0000

> <Gold.Chemscore.Lipo>
76.6773

> <Gold.Chemscore.Internal_Hbond>
0.0000

> <Gold.Chemscore.DEClash>
0.7844

> <Gold.Chemscore.DEInternal>
4.4039

> <Gold.Chemscore.Rot>
2.0911

> <Gold.Chemscore.Internal.Correction>
   9.000000E+99

> <Gold.Chemscore.Hbonds>
donor molecule, donor type, donor heavy atom, donor atom, acceptor molecule, acceptor atom, score
      L1  H    21    45       P1  7921  0.96
      P1  H  7989  7998       L1     6  0.29

> <Gold.Chemscore.Hbond.Weighted>
-6.5877

> <Gold.Chemscore.Metal.Weighted>
-0.0000

> <Gold.Chemscore.Lipo.Weighted>
-8.9712

> <Gold.Chemscore.Internal_Hbond.Weighted>
0.0000

> <Gold.Chemscore.DEClash.Weighted>
0.7844

> <Gold.Chemscore.DEInternal.Weighted>
4.4039

> <Gold.Chemscore.Rot.Weighted>
5.3531

> <Gold.Chemscore.Internal.Correction.Weighted>
   9.000000E+99

> <Gold.Protein.RotatedTorsions>
[ 6907 6896 6895 6894 ] final   27.94 input  -60.11 | X-H torsion
[ 7974 7965 7964 7962 ] final   73.53 input  175.53 | X-H torsion
[ 8008 7997 7996 7995 ] final  151.86 input   59.86 | X-H torsion
[ 10167 10162 10161 10158 ] final   58.40 input  -65.29 | X-H torsion
[ 10718 10713 10712 10709 ] final   27.12 input   66.30 | X-H torsion
[ 10763 10752 10751 10750 ] final  171.02 input  -60.55 | X-H torsion
[ 11005 11000 10999 10996 ] final  105.89 input  -57.11 | X-H torsion

> <Gold.Protein.ActiveResidues>
 VAL166  LYS551  ARG553  GLY616  TRP617  ASP618  TYR619  PRO620  LYS621  CYS622 
 ASP623  PHE694  ASN695  SER759  ASP760  ASP761  ALA762  ILE779  LEU786  VAL792 
 PHE793  MET794  SER795  GLU796  ALA797  LYS798  CYS799  TRP800  GLU811  SER814 

> <Gold.Protein.RotatedAtoms>
  152.0097  134.9883  160.0567 H   0  0  0  0  0  0  0  0  0  0  0  0  # atno 6907 bound_to 6896
  152.1441  133.4477  159.4789 H   0  0  0  0  0  0  0  0  0  0  0  0  # atno 6908 bound_to 6896
  150.6868  134.2188  159.4431 H   0  0  0  0  0  0  0  0  0  0  0  0  # atno 6909 bound_to 6896
  145.7397  139.2716  143.1493 H   0  0  0  0  0  0  0  0  0  0  0  0  # atno 7974 bound_to 7965
  156.2655  140.2036  156.6242 H   0  0  0  0  0  0  0  0  0  0  0  0  # atno 8008 bound_to 7997
  154.6733  140.0548  157.0213 H   0  0  0  0  0  0  0  0  0  0  0  0  # atno 8009 bound_to 7997
  155.1105  140.3215  155.4525 H   0  0  0  0  0  0  0  0  0  0  0  0  # atno 8010 bound_to 7997
  140.1876  144.4119  150.6586 H   0  0  0  0  0  0  0  0  0  0  0  0  # atno 10167 bound_to 10162
  157.2160  130.6956  149.6249 H   0  0  0  0  0  0  0  0  0  0  0  0  # atno 10718 bound_to 10713
  154.4059  135.2755  155.2067 H   0  0  0  0  0  0  0  0  0  0  0  0  # atno 10763 bound_to 10752
  154.4073  135.6030  153.5936 H   0  0  0  0  0  0  0  0  0  0  0  0  # atno 10764 bound_to 10752
  152.9831  135.5941  154.4334 H   0  0  0  0  0  0  0  0  0  0  0  0  # atno 10765 bound_to 10752
  139.8807  134.9351  156.5583 H   0  0  0  0  0  0  0  0  0  0  0  0  # atno 11005 bound_to 11000
  146.0459  140.8118  142.9805 LP  0  0  0  0  0  0  0  0  0  0  0  0  # atno 17320 bound_to 7965
  144.6873  140.2980  143.7267 LP  0  0  0  0  0  0  0  0  0  0  0  0  # atno 17321 bound_to 7965
  140.6478  143.2217  151.6147 LP  0  0  0  0  0  0  0  0  0  0  0  0  # atno 17342 bound_to 10162
  139.5269  144.3031  152.1057 LP  0  0  0  0  0  0  0  0  0  0  0  0  # atno 17343 bound_to 10162
  155.9686  130.4535  150.5816 LP  0  0  0  0  0  0  0  0  0  0  0  0  # atno 17370 bound_to 10713
  157.3624  131.0752  151.1625 LP  0  0  0  0  0  0  0  0  0  0  0  0  # atno 17371 bound_to 10713
  140.8189  133.8370  155.8877 LP  0  0  0  0  0  0  0  0  0  0  0  0  # atno 17394 bound_to 11000
  140.9437  134.1868  157.4779 LP  0  0  0  0  0  0  0  0  0  0  0  0  # atno 17395 bound_to 11000

$$$$
