AV-unprocessed.smi:696|AV-procd|sdf|3387|dock2
  -GOLD-   22720 0363D 1   1.00000     0.00000
 Structure written by MMmdl.
 37 38  0  0  0  0  0  0  0  0  2 V2000
  154.7155  141.4966  162.3831 O   0  0  0  0  0  0  0  0  0  0  0  0
  154.2306  141.2363  161.2814 C   0  0  0  0  0  0  0  0  0  0  0  0
  154.6451  140.2121  160.5193 N   0  0  0  0  0  0  0  0  0  0  0  0
  155.7014  139.2727  160.8782 C   0  0  0  0  0  0  0  0  0  0  0  0
  155.9293  138.2284  159.7656 C   0  0  0  0  0  0  0  0  0  0  0  0
  154.8107  137.2096  159.5942 C   0  0  0  0  0  0  0  0  0  0  0  0
  154.3092  136.4322  160.4824 N   0  0  0  0  0  0  0  0  0  0  0  0
  153.2938  135.6898  159.7959 N   0  5  0  0  0  0  0  0  0  0  0  0
  153.2905  136.1181  158.5103 C   0  0  0  0  0  0  0  0  0  0  0  0
  152.5780  135.7501  157.5788 O   0  0  0  0  0  0  0  0  0  0  0  0
  154.2212  137.0559  158.3702 N   0  0  0  0  0  0  0  0  0  0  0  0
  153.0955  142.1018  160.7134 C   0  0  0  0  0  0  0  0  0  0  0  0
  153.4045  142.4902  159.2485 C   0  0  0  0  0  0  0  0  0  0  0  0
  152.1627  142.9728  158.4794 C   0  0  0  0  0  0  0  0  0  0  0  0
  151.8496  144.4750  158.6023 C   0  0  0  0  0  0  0  0  0  0  0  0
  152.0849  145.1194  159.9803 C   0  0  0  0  0  0  0  0  0  0  0  0
  151.7095  144.2484  161.1899 C   0  0  0  0  0  0  0  0  0  0  0  0
  152.8510  143.3163  161.6339 C   0  0  0  0  0  0  0  0  0  0  0  0
  154.4544  137.5630  157.5296 H   0  0  0  0  0  0  0  0  0  0  0  0
  154.1924  140.0699  159.6281 H   0  0  0  0  0  0  0  0  0  0  0  0
  156.6124  139.8487  161.0449 H   0  0  0  0  0  0  0  0  0  0  0  0
  155.4588  138.7875  161.8255 H   0  0  0  0  0  0  0  0  0  0  0  0
  156.0770  138.7319  158.8095 H   0  0  0  0  0  0  0  0  0  0  0  0
  156.8517  137.6833  159.9695 H   0  0  0  0  0  0  0  0  0  0  0  0
  152.1908  141.4911  160.7183 H   0  0  0  0  0  0  0  0  0  0  0  0
  154.2015  143.2333  159.1965 H   0  0  0  0  0  0  0  0  0  0  0  0
  153.7878  141.6108  158.7276 H   0  0  0  0  0  0  0  0  0  0  0  0
  152.2931  142.7464  157.4206 H   0  0  0  0  0  0  0  0  0  0  0  0
  151.2932  142.3914  158.7883 H   0  0  0  0  0  0  0  0  0  0  0  0
  152.4412  145.0234  157.8685 H   0  0  0  0  0  0  0  0  0  0  0  0
  150.8103  144.6283  158.3099 H   0  0  0  0  0  0  0  0  0  0  0  0
  153.1275  145.4279  160.0662 H   0  0  0  0  0  0  0  0  0  0  0  0
  151.5100  146.0453  160.0184 H   0  0  0  0  0  0  0  0  0  0  0  0
  151.4864  144.9146  162.0241 H   0  0  0  0  0  0  0  0  0  0  0  0
  150.7919  143.6894  161.0028 H   0  0  0  0  0  0  0  0  0  0  0  0
  152.6142  142.9484  162.6337 H   0  0  0  0  0  0  0  0  0  0  0  0
  153.7676  143.8975  161.7473 H   0  0  0  0  0  0  0  0  0  0  0  0
  1  2  2  0  0  0  0
  2  3  1  0  0  0  0
  2 12  1  0  0  0  0
  3  4  1  0  0  0  0
  3 20  1  0  0  0  0
  4  5  1  0  0  0  0
  4 21  1  0  0  0  0
  4 22  1  0  0  0  0
  5  6  1  0  0  0  0
  5 23  1  0  0  0  0
  5 24  1  0  0  0  0
  6 11  1  0  0  0  0
  6  7  2  0  0  0  0
  7  8  1  0  0  0  0
  8  9  1  0  0  0  0
  9 10  2  0  0  0  0
  9 11  1  0  0  0  0
 11 19  1  0  0  0  0
 12 18  1  0  0  0  0
 12 13  1  0  0  0  0
 12 25  1  0  0  0  0
 13 14  1  0  0  0  0
 13 26  1  0  0  0  0
 13 27  1  0  0  0  0
 14 15  1  0  0  0  0
 14 28  1  0  0  0  0
 14 29  1  0  0  0  0
 15 16  1  0  0  0  0
 15 30  1  0  0  0  0
 15 31  1  0  0  0  0
 16 17  1  0  0  0  0
 16 32  1  0  0  0  0
 16 33  1  0  0  0  0
 17 18  1  0  0  0  0
 17 34  1  0  0  0  0
 17 35  1  0  0  0  0
 18 36  1  0  0  0  0
 18 37  1  0  0  0  0
M  CHG  1   8  -1
M  END
> <s_m_source_file>
AV-unprocessed.smi

> <i_m_source_file_index>
696

> <i_lp_mmshare_version>
43012

> <i_f3d_flags>
0

> <s_epik_input>
W0NIMl0xW0NIMl1bQ0gyXVtDSDJdW0NIMl1bQ0gyXVtDSF0xQyg9TylbTkhdW0NIMl1bQ0gyXWMybltuSF1jKD1PKVtuSF0y

> <s_epik_cmdline>
J2VwaWtfcHl0aG9uJywgJy1waCcsICc3LjAnLCAnLXRuJywgJzgnLCAnLW1hJywgJzIwMCcsICctbWV0YWxfYmluZGluZycsICctaW1hZScsICc8aW5maWxlLm1hZT4nLCAnLW9tYWUnLCAnPG91dGZpbGUubWFlPic=

> <r_lp_tautomer_probability>
1

> <r_epik_Ionization_Penalty>
14.1589

> <r_epik_Ionization_Penalty_Charging>
13.7723

> <r_epik_Ionization_Penalty_Neutral>
0.386566

> <r_epik_State_Penalty>
4.88838

> <r_epik_Charging_Adjusted_Penalty>
18.6607

> <i_epik_Tot_Q>
-1

> <i_epik_Tot_abs_Q>
1

> <r_epik_Metal_State_Penalty>
1.30742

> <b_epik_Metal_Only>
1

> <s_lp_Force_Field>
OPLS_2005

> <r_lp_Energy>
24.8818

> <b_lp_Chiralities_Consistent>
1

> <s_lp_Variant>
AV-unprocessed.smi:696-2

> <Gold.Version>
5.8.1

> <Gold.Id.Protein>
6NUR|6NUR_protein|mol2

> <Gold.PLP.Fitness>
45.4277

> <Gold.PLP.PLP>
-36.8088

> <Gold.PLP.part.hbond>
-3.0000

> <Gold.PLP.part.metal>
0.0000

> <Gold.PLP.part.buried>
-4.7339

> <Gold.PLP.part.nonpolar>
-29.0797

> <Gold.PLP.part.repulsive>
0.1717

> <Gold.PLP.ligand.clash>
0.0000

> <Gold.PLP.ligand.torsion>
0.2164

> <Gold.PLP.Chemscore.Hbond>
3.0000

> <Gold.PLP.Chemscore.CHOScore>
0.0000

> <Gold.PLP.Chemscore.Metal>
0.0000

> <Gold.Chemscore.Hbonds>
donor molecule, donor type, donor heavy atom, donor atom, acceptor molecule, acceptor atom, score
      P1  H  6896  6907       L1     8  0.94

> <Gold.PLP.Chemscore.Internal.Correction>
0.0518

> <Gold.Rescore>
     Score         DG    S(hbond)    S(metal)    S(lipo)     H(rot)  DE(clash)    DE(int)     intcor
     16.90     -17.23       1.98        0.00      93.25       2.25       0.03       0.30       ----

> <Gold.Chemscore.Fitness>
16.9046

> <Gold.Chemscore.DG>
-17.2320

> <Gold.Chemscore.ZeroCoef>
-5.4800

> <Gold.Chemscore.Hbond>
1.9767

> <Gold.Chemscore.Metal>
0.0000

> <Gold.Chemscore.Lipo>
93.2481

> <Gold.Chemscore.Internal_Hbond>
0.0000

> <Gold.Chemscore.DEClash>
0.0323

> <Gold.Chemscore.DEInternal>
0.2951

> <Gold.Chemscore.Rot>
2.2501

> <Gold.Chemscore.Internal.Correction>
   9.000000E+99

> <Gold.Chemscore.Hbonds>
donor molecule, donor type, donor heavy atom, donor atom, acceptor molecule, acceptor atom, score
      P1  H  6896  6907       L1     8  0.37
      P1  H 10752 10763       L1    10  0.01

> <Gold.Chemscore.Hbond.Weighted>
-6.6023

> <Gold.Chemscore.Metal.Weighted>
-0.0000

> <Gold.Chemscore.Lipo.Weighted>
-10.9100

> <Gold.Chemscore.Internal_Hbond.Weighted>
0.0000

> <Gold.Chemscore.DEClash.Weighted>
0.0323

> <Gold.Chemscore.DEInternal.Weighted>
0.2951

> <Gold.Chemscore.Rot.Weighted>
5.7603

> <Gold.Chemscore.Internal.Correction.Weighted>
   9.000000E+99

> <Gold.Protein.RotatedTorsions>
[ 6907 6896 6895 6894 ] final   55.76 input  -60.11 | X-H torsion
[ 7974 7965 7964 7962 ] final  -98.54 input  175.53 | X-H torsion
[ 8008 7997 7996 7995 ] final   60.68 input   59.86 | X-H torsion
[ 10167 10162 10161 10158 ] final   52.63 input  -65.29 | X-H torsion
[ 10718 10713 10712 10709 ] final    5.48 input   66.30 | X-H torsion
[ 10763 10752 10751 10750 ] final  132.13 input  -60.55 | X-H torsion
[ 11005 11000 10999 10996 ] final -100.60 input  -57.11 | X-H torsion

> <Gold.Protein.ActiveResidues>
 VAL166  LYS551  ARG553  GLY616  TRP617  ASP618  TYR619  PRO620  LYS621  CYS622 
 ASP623  PHE694  ASN695  SER759  ASP760  ASP761  ALA762  ILE779  LEU786  VAL792 
 PHE793  MET794  SER795  GLU796  ALA797  LYS798  CYS799  TRP800  GLU811  SER814 

> <Gold.Protein.RotatedAtoms>
  152.3570  134.6926  160.0218 H   0  0  0  0  0  0  0  0  0  0  0  0  # atno 6907 bound_to 6896
  151.7262  133.3310  159.3336 H   0  0  0  0  0  0  0  0  0  0  0  0  # atno 6908 bound_to 6896
  150.7578  134.6338  159.6245 H   0  0  0  0  0  0  0  0  0  0  0  0  # atno 6909 bound_to 6896
  145.3193  140.9418  143.2725 H   0  0  0  0  0  0  0  0  0  0  0  0  # atno 7974 bound_to 7965
  155.5863  140.3492  155.4554 H   0  0  0  0  0  0  0  0  0  0  0  0  # atno 8008 bound_to 7997
  156.0335  140.1280  157.0257 H   0  0  0  0  0  0  0  0  0  0  0  0  # atno 8009 bound_to 7997
  154.4362  140.1038  156.6120 H   0  0  0  0  0  0  0  0  0  0  0  0  # atno 8010 bound_to 7997
  140.2494  144.3496  150.6353 H   0  0  0  0  0  0  0  0  0  0  0  0  # atno 10167 bound_to 10162
  156.9081  130.5746  149.5647 H   0  0  0  0  0  0  0  0  0  0  0  0  # atno 10718 bound_to 10713
  153.7856  135.3162  155.3372 H   0  0  0  0  0  0  0  0  0  0  0  0  # atno 10763 bound_to 10752
  154.8145  135.4645  154.0608 H   0  0  0  0  0  0  0  0  0  0  0  0  # atno 10764 bound_to 10752
  153.1910  135.6908  153.8438 H   0  0  0  0  0  0  0  0  0  0  0  0  # atno 10765 bound_to 10752
  141.1264  133.8412  157.1123 H   0  0  0  0  0  0  0  0  0  0  0  0  # atno 11005 bound_to 11000
  144.8952  139.4721  143.6659 LP  0  0  0  0  0  0  0  0  0  0  0  0  # atno 17320 bound_to 7965
  146.3088  139.7674  142.9035 LP  0  0  0  0  0  0  0  0  0  0  0  0  # atno 17321 bound_to 7965
  140.6053  143.2167  151.6994 LP  0  0  0  0  0  0  0  0  0  0  0  0  # atno 17342 bound_to 10162
  139.5051  144.3729  152.0452 LP  0  0  0  0  0  0  0  0  0  0  0  0  # atno 17343 bound_to 10162
  156.0549  130.5612  150.9070 LP  0  0  0  0  0  0  0  0  0  0  0  0  # atno 17370 bound_to 10713
  157.5984  131.0942  150.9001 LP  0  0  0  0  0  0  0  0  0  0  0  0  # atno 17371 bound_to 10713
  140.0267  134.9920  157.0700 LP  0  0  0  0  0  0  0  0  0  0  0  0  # atno 17394 bound_to 11000
  140.4351  134.1740  155.7170 LP  0  0  0  0  0  0  0  0  0  0  0  0  # atno 17395 bound_to 11000

$$$$
