AV-unprocessed.smi:1774|AV-procd|sdf|7167|dock3
  -GOLD-   22720 8403D 1   1.00000     0.00000
 Structure written by MMmdl.
 46 47  0  0  0  0  0  0  0  0  2 V2000
  150.7823  144.9994  158.7695 C   0  0  0  0  0  0  0  0  0  0  0  0
  151.6104  143.7595  159.0655 C   0  0  0  0  0  0  0  0  0  0  0  0
  152.4980  143.7679  160.1626 C   0  0  0  0  0  0  0  0  0  0  0  0
  153.2605  142.6197  160.4366 C   0  0  0  0  0  0  0  0  0  0  0  0
  153.1012  141.5041  159.5971 C   0  0  0  0  0  0  0  0  0  0  0  0
  152.2555  141.4872  158.5468 N   0  0  0  0  0  0  0  0  0  0  0  0
  151.5117  142.5873  158.2687 C   0  0  0  0  0  0  0  0  0  0  0  0
  150.6032  142.6419  157.1739 N   0  0  0  0  0  0  0  0  0  0  0  0
  150.4654  141.7714  156.1580 C   0  0  0  0  0  0  0  0  0  0  0  0
  151.1109  140.7329  156.0131 O   0  0  0  0  0  0  0  0  0  0  0  0
  149.5142  142.1703  155.3009 N   0  0  0  0  0  0  0  0  0  0  0  0
  149.0980  141.4311  154.1144 C   0  0  0  0  0  0  0  0  0  0  0  0
  147.5662  141.4418  153.9410 C   0  0  0  0  0  0  0  0  0  0  0  0
  146.8765  142.1715  155.0339 N   0  3  1  0  0  0  0  0  0  0  0  0
  145.5342  142.6533  154.6305 C   0  0  0  0  0  0  0  0  0  0  0  0
  144.8838  143.4604  155.7700 C   0  0  1  0  0  0  0  0  0  0  0  0
  143.4617  143.9126  155.4217 C   0  0  0  0  0  0  0  0  0  0  0  0
  144.8173  142.6469  156.9360 O   0  0  0  0  0  0  0  0  0  0  0  0
  146.1023  142.2422  157.3946 C   0  0  1  0  0  0  0  0  0  0  0  0
  145.9201  141.4570  158.6982 C   0  0  0  0  0  0  0  0  0  0  0  0
  146.7871  141.4021  156.2998 C   0  0  0  0  0  0  0  0  0  0  0  0
  150.9942  145.7980  159.4812 H   0  0  0  0  0  0  0  0  0  0  0  0
  149.7181  144.7697  158.8309 H   0  0  0  0  0  0  0  0  0  0  0  0
  151.0000  145.3753  157.7694 H   0  0  0  0  0  0  0  0  0  0  0  0
  152.5959  144.6424  160.7890 H   0  0  0  0  0  0  0  0  0  0  0  0
  153.9490  142.5951  161.2682 H   0  0  0  0  0  0  0  0  0  0  0  0
  153.6672  140.6014  159.7724 H   0  0  0  0  0  0  0  0  0  0  0  0
  149.9828  143.4378  157.1694 H   0  0  0  0  0  0  0  0  0  0  0  0
  149.0307  143.0355  155.4939 H   0  0  0  0  0  0  0  0  0  0  0  0
  149.6021  141.8515  153.2440 H   0  0  0  0  0  0  0  0  0  0  0  0
  149.4532  140.4051  154.2140 H   0  0  0  0  0  0  0  0  0  0  0  0
  147.3368  141.9253  152.9902 H   0  0  0  0  0  0  0  0  0  0  0  0
  147.1681  140.4280  153.8752 H   0  0  0  0  0  0  0  0  0  0  0  0
  145.6198  143.2790  153.7412 H   0  0  0  0  0  0  0  0  0  0  0  0
  144.9067  141.8009  154.3635 H   0  0  0  0  0  0  0  0  0  0  0  0
  145.4861  144.3453  155.9832 H   0  0  0  0  0  0  0  0  0  0  0  0
  143.4559  144.5440  154.5329 H   0  0  0  0  0  0  0  0  0  0  0  0
  143.0253  144.4867  156.2395 H   0  0  0  0  0  0  0  0  0  0  0  0
  142.8109  143.0590  155.2308 H   0  0  0  0  0  0  0  0  0  0  0  0
  146.7027  143.1290  157.6066 H   0  0  0  0  0  0  0  0  0  0  0  0
  146.8805  141.1303  159.0976 H   0  0  0  0  0  0  0  0  0  0  0  0
  145.3027  140.5717  158.5437 H   0  0  0  0  0  0  0  0  0  0  0  0
  145.4370  142.0713  159.4584 H   0  0  0  0  0  0  0  0  0  0  0  0
  146.2284  140.4804  156.1274 H   0  0  0  0  0  0  0  0  0  0  0  0
  147.7805  141.1134  156.6406 H   0  0  0  0  0  0  0  0  0  0  0  0
  147.4282  142.9956  155.2247 H   0  0  0  0  0  0  0  0  0  0  0  0
  1  2  1  0  0  0  0
  1 22  1  0  0  0  0
  1 23  1  0  0  0  0
  1 24  1  0  0  0  0
  2  7  1  0  0  0  0
  2  3  2  0  0  0  0
  3  4  1  0  0  0  0
  3 25  1  0  0  0  0
  4  5  2  0  0  0  0
  4 26  1  0  0  0  0
  5  6  1  0  0  0  0
  5 27  1  0  0  0  0
  6  7  2  0  0  0  0
  7  8  1  0  0  0  0
  8  9  1  0  0  0  0
  8 28  1  0  0  0  0
  9 10  2  0  0  0  0
  9 11  1  0  0  0  0
 11 12  1  0  0  0  0
 11 29  1  0  0  0  0
 12 13  1  0  0  0  0
 12 30  1  0  0  0  0
 12 31  1  0  0  0  0
 13 14  1  0  0  0  0
 13 32  1  0  0  0  0
 13 33  1  0  0  0  0
 14 21  1  0  0  0  0
 14 15  1  0  0  0  0
 14 46  1  0  0  0  0
 15 16  1  0  0  0  0
 15 34  1  0  0  0  0
 15 35  1  0  0  0  0
 16 17  1  0  0  0  0
 16 18  1  0  0  0  0
 16 36  1  0  0  0  0
 17 37  1  0  0  0  0
 17 38  1  0  0  0  0
 17 39  1  0  0  0  0
 18 19  1  0  0  0  0
 19 20  1  0  0  0  0
 19 21  1  0  0  0  0
 19 40  1  0  0  0  0
 20 41  1  0  0  0  0
 20 42  1  0  0  0  0
 20 43  1  0  0  0  0
 21 44  1  0  0  0  0
 21 45  1  0  0  0  0
M  CHG  1  14   1
M  END
> <s_m_source_file>
AV-unprocessed.smi

> <i_m_source_file_index>
1774

> <i_lp_mmshare_version>
43012

> <i_f3d_flags>
0

> <s_epik_input>
W0NIM11jMVtjSF1bY0hdW2NIXW5jMVtOSF1DKD1PKVtOSF1bQ0gyXVtDSDJdTjJbQ0gyXVtDQEBIXShbQ0gzXSlPW0NAQEhdKFtDSDNdKVtDSDJdMg==

> <s_epik_cmdline>
J2VwaWtfcHl0aG9uJywgJy1waCcsICc3LjAnLCAnLXRuJywgJzgnLCAnLW1hJywgJzIwMCcsICctbWV0YWxfYmluZGluZycsICctaW1hZScsICc8aW5maWxlLm1hZT4nLCAnLW9tYWUnLCAnPG91dGZpbGUubWFlPic=

> <r_epik_Ionization_Penalty>
0.602573

> <r_epik_Ionization_Penalty_Charging>
0.602531

> <r_epik_Ionization_Penalty_Neutral>
4.21996e-05

> <r_epik_State_Penalty>
0.617039

> <r_epik_Charging_Adjusted_Penalty>
1.21957

> <i_epik_Tot_Q>
1

> <i_epik_Tot_abs_Q>
1

> <r_epik_Metal_State_Penalty>
0.617042

> <b_epik_Metal_Only>
0

> <s_lp_Force_Field>
OPLS_2005

> <r_lp_Energy>
15.6229

> <b_lp_Chiralities_Consistent>
1

> <s_lp_Variant>
AV-unprocessed.smi:1774-4

> <Gold.Version>
5.8.1

> <Gold.Id.Protein>
6NUR|6NUR_protein|mol2

> <Gold.PLP.Fitness>
51.3017

> <Gold.PLP.PLP>
-41.1185

> <Gold.PLP.part.hbond>
-3.0000

> <Gold.PLP.part.metal>
0.0000

> <Gold.PLP.part.buried>
-5.6803

> <Gold.PLP.part.nonpolar>
-31.5653

> <Gold.PLP.part.repulsive>
0.4375

> <Gold.PLP.ligand.clash>
0.0000

> <Gold.PLP.ligand.torsion>
0.7132

> <Gold.PLP.Chemscore.Hbond>
3.8596

> <Gold.PLP.Chemscore.CHOScore>
0.0000

> <Gold.PLP.Chemscore.Metal>
0.0000

> <Gold.Chemscore.Hbonds>
donor molecule, donor type, donor heavy atom, donor atom, acceptor molecule, acceptor atom, score
      L1  H     8    28       P1  8028  0.34
      L1  H    11    29       P1  8028  1.00
      L1  H    14    46       P1  8028  0.85

> <Gold.PLP.Chemscore.Internal.Correction>
0.0308

> <Gold.Rescore>
     Score         DG    S(hbond)    S(metal)    S(lipo)     H(rot)  DE(clash)    DE(int)     intcor
     18.61     -21.19       2.41        0.00      98.20       1.49       0.48       2.11       ----

> <Gold.Chemscore.Fitness>
18.6064

> <Gold.Chemscore.DG>
-21.1944

> <Gold.Chemscore.ZeroCoef>
-5.4800

> <Gold.Chemscore.Hbond>
2.4103

> <Gold.Chemscore.Metal>
0.0000

> <Gold.Chemscore.Lipo>
98.2045

> <Gold.Chemscore.Internal_Hbond>
0.0000

> <Gold.Chemscore.DEClash>
0.4777

> <Gold.Chemscore.DEInternal>
2.1102

> <Gold.Chemscore.Rot>
1.4946

> <Gold.Chemscore.Internal.Correction>
   9.000000E+99

> <Gold.Chemscore.Hbonds>
donor molecule, donor type, donor heavy atom, donor atom, acceptor molecule, acceptor atom, score
      L1  H     8    28       P1  8028  0.33
      L1  H    11    29       P1  8028  0.98
      L1  H    14    46       P1  8028  0.12

> <Gold.Chemscore.Hbond.Weighted>
-8.0505

> <Gold.Chemscore.Metal.Weighted>
-0.0000

> <Gold.Chemscore.Lipo.Weighted>
-11.4899

> <Gold.Chemscore.Internal_Hbond.Weighted>
0.0000

> <Gold.Chemscore.DEClash.Weighted>
0.4777

> <Gold.Chemscore.DEInternal.Weighted>
2.1102

> <Gold.Chemscore.Rot.Weighted>
3.8261

> <Gold.Chemscore.Internal.Correction.Weighted>
   9.000000E+99

> <Gold.Protein.RotatedTorsions>
[ 6907 6896 6895 6894 ] final   33.71 input  -60.11 | X-H torsion
[ 7974 7965 7964 7962 ] final  -16.07 input  175.53 | X-H torsion
[ 8008 7997 7996 7995 ] final  165.85 input   59.86 | X-H torsion
[ 10167 10162 10161 10158 ] final  -56.77 input  -65.29 | X-H torsion
[ 10718 10713 10712 10709 ] final -131.96 input   66.30 | X-H torsion
[ 10763 10752 10751 10750 ] final  101.02 input  -60.55 | X-H torsion
[ 11005 11000 10999 10996 ] final  -50.69 input  -57.11 | X-H torsion

> <Gold.Protein.ActiveResidues>
 VAL166  LYS551  ARG553  GLY616  TRP617  ASP618  TYR619  PRO620  LYS621  CYS622 
 ASP623  PHE694  ASN695  SER759  ASP760  ASP761  ALA762  ILE779  LEU786  VAL792 
 PHE793  MET794  SER795  GLU796  ALA797  LYS798  CYS799  TRP800  GLU811  SER814 

> <Gold.Protein.RotatedAtoms>
  152.0923  134.9398  160.0571 H   0  0  0  0  0  0  0  0  0  0  0  0  # atno 6907 bound_to 6896
  152.0645  133.4072  159.4440 H   0  0  0  0  0  0  0  0  0  0  0  0  # atno 6908 bound_to 6896
  150.6837  134.3083  159.4779 H   0  0  0  0  0  0  0  0  0  0  0  0  # atno 6909 bound_to 6896
  146.2004  140.3584  142.8425 H   0  0  0  0  0  0  0  0  0  0  0  0  # atno 7974 bound_to 7965
  156.1767  140.1659  156.8350 H   0  0  0  0  0  0  0  0  0  0  0  0  # atno 8008 bound_to 7997
  154.5315  140.0756  156.8386 H   0  0  0  0  0  0  0  0  0  0  0  0  # atno 8009 bound_to 7997
  155.3398  140.3384  155.4241 H   0  0  0  0  0  0  0  0  0  0  0  0  # atno 8010 bound_to 7997
  140.6297  143.2454  151.5272 H   0  0  0  0  0  0  0  0  0  0  0  0  # atno 10167 bound_to 10162
  156.2297  130.7030  151.0845 H   0  0  0  0  0  0  0  0  0  0  0  0  # atno 10718 bound_to 10713
  153.3213  135.4059  155.1419 H   0  0  0  0  0  0  0  0  0  0  0  0  # atno 10763 bound_to 10752
  154.8601  135.3588  154.5592 H   0  0  0  0  0  0  0  0  0  0  0  0  # atno 10764 bound_to 10752
  153.6026  135.7070  153.5437 H   0  0  0  0  0  0  0  0  0  0  0  0  # atno 10765 bound_to 10752
  141.0830  133.6649  156.3768 H   0  0  0  0  0  0  0  0  0  0  0  0  # atno 11005 bound_to 11000
  144.8671  140.7220  143.6071 LP  0  0  0  0  0  0  0  0  0  0  0  0  # atno 17320 bound_to 7965
  145.3503  139.1708  143.4438 LP  0  0  0  0  0  0  0  0  0  0  0  0  # atno 17321 bound_to 7965
  139.5513  144.2388  152.1535 LP  0  0  0  0  0  0  0  0  0  0  0  0  # atno 17342 bound_to 10162
  140.1629  144.5009  150.6622 LP  0  0  0  0  0  0  0  0  0  0  0  0  # atno 17343 bound_to 10162
  157.7127  131.0726  150.6442 LP  0  0  0  0  0  0  0  0  0  0  0  0  # atno 17370 bound_to 10713
  156.6509  130.4485  149.5720 LP  0  0  0  0  0  0  0  0  0  0  0  0  # atno 17371 bound_to 10713
  140.5426  134.6105  157.5384 LP  0  0  0  0  0  0  0  0  0  0  0  0  # atno 17394 bound_to 11000
  139.9645  134.7396  156.0166 LP  0  0  0  0  0  0  0  0  0  0  0  0  # atno 17395 bound_to 11000

$$$$
