AV-unprocessed.smi:2349|AV-procd|sdf|9371|dock3
  -GOLD-   2272012593D 1   1.00000     0.00000
 Structure written by MMmdl.
 52 53  0  0  0  0  0  0  0  0  1 V2000
  151.3699  145.6613  159.6513 C   0  0  0  0  0  0  0  0  0  0  0  0
  152.0615  144.3968  160.1158 C   0  0  0  0  0  0  0  0  0  0  0  0
  152.5412  143.4505  159.1857 C   0  0  0  0  0  0  0  0  0  0  0  0
  153.1760  142.2924  159.6743 C   0  0  0  0  0  0  0  0  0  0  0  0
  153.3047  142.1240  161.0680 C   0  0  0  0  0  0  0  0  0  0  0  0
  153.9950  140.8989  161.6429 C   0  0  0  0  0  0  0  0  0  0  0  0
  154.6457  140.0083  160.5708 C   0  0  0  0  0  0  0  0  0  0  0  0
  153.6771  139.0889  159.9880 N   0  0  0  0  0  0  0  0  0  0  0  0
  153.8527  138.3921  158.8550 C   0  0  0  0  0  0  0  0  0  0  0  0
  154.8782  138.4914  158.1798 O   0  0  0  0  0  0  0  0  0  0  0  0
  152.8183  137.5761  158.5279 N   0  0  0  0  0  0  0  0  0  0  0  0
  151.4338  137.6799  159.0188 C   0  0  0  0  0  0  0  0  0  0  0  0
  150.5450  138.2046  157.8777 C   0  0  0  0  0  0  0  0  0  0  0  0
  150.6271  137.2908  156.6338 C   0  0  0  0  0  0  0  0  0  0  0  0
  149.8022  137.8797  155.4645 C   0  0  0  0  0  0  0  0  0  0  0  0
  150.1913  139.3119  155.0441 C   0  0  0  0  0  0  0  0  0  0  0  0
  151.3585  139.5510  154.7292 O   0  0  0  0  0  0  0  0  0  0  0  0
  149.2345  140.2693  155.0258 N   0  0  0  0  0  0  0  0  0  0  0  0
  149.5652  141.6543  154.6822 C   0  0  0  0  0  0  0  0  0  0  0  0
  147.8215  140.0029  155.3071 C   0  0  0  0  0  0  0  0  0  0  0  0
  152.1058  137.0252  156.2538 C   0  0  0  0  0  0  0  0  0  0  0  0
  152.9273  136.5636  157.4716 C   0  0  0  0  0  0  0  0  0  0  0  0
  152.7857  143.1288  161.9125 C   0  0  0  0  0  0  0  0  0  0  0  0
  152.1790  144.2440  161.4533 N   0  0  0  0  0  0  0  0  0  0  0  0
  151.4484  145.7803  158.5703 H   0  0  0  0  0  0  0  0  0  0  0  0
  151.8179  146.5371  160.1216 H   0  0  0  0  0  0  0  0  0  0  0  0
  150.3126  145.6315  159.9154 H   0  0  0  0  0  0  0  0  0  0  0  0
  152.4282  143.6064  158.1229 H   0  0  0  0  0  0  0  0  0  0  0  0
  153.5600  141.5494  158.9907 H   0  0  0  0  0  0  0  0  0  0  0  0
  154.7529  141.2238  162.3572 H   0  0  0  0  0  0  0  0  0  0  0  0
  153.2699  140.3181  162.2143 H   0  0  0  0  0  0  0  0  0  0  0  0
  155.0941  140.6291  159.7937 H   0  0  0  0  0  0  0  0  0  0  0  0
  155.4509  139.4223  161.0164 H   0  0  0  0  0  0  0  0  0  0  0  0
  152.8133  138.9573  160.4938 H   0  0  0  0  0  0  0  0  0  0  0  0
  151.0905  136.6929  159.3325 H   0  0  0  0  0  0  0  0  0  0  0  0
  151.3191  138.3127  159.8988 H   0  0  0  0  0  0  0  0  0  0  0  0
  149.5123  138.2752  158.2210 H   0  0  0  0  0  0  0  0  0  0  0  0
  150.8538  139.2180  157.6162 H   0  0  0  0  0  0  0  0  0  0  0  0
  150.1838  136.3360  156.9219 H   0  0  0  0  0  0  0  0  0  0  0  0
  149.9165  137.2438  154.5861 H   0  0  0  0  0  0  0  0  0  0  0  0
  148.7475  137.8450  155.7386 H   0  0  0  0  0  0  0  0  0  0  0  0
  150.4814  141.9791  155.1778 H   0  0  0  0  0  0  0  0  0  0  0  0
  148.7826  142.3524  154.9813 H   0  0  0  0  0  0  0  0  0  0  0  0
  149.7082  141.7511  153.6052 H   0  0  0  0  0  0  0  0  0  0  0  0
  147.4712  139.1127  154.7831 H   0  0  0  0  0  0  0  0  0  0  0  0
  147.1770  140.8230  154.9896 H   0  0  0  0  0  0  0  0  0  0  0  0
  147.6685  139.8574  156.3771 H   0  0  0  0  0  0  0  0  0  0  0  0
  152.1732  136.2711  155.4700 H   0  0  0  0  0  0  0  0  0  0  0  0
  152.5497  137.9336  155.8439 H   0  0  0  0  0  0  0  0  0  0  0  0
  153.9591  136.3746  157.1723 H   0  0  0  0  0  0  0  0  0  0  0  0
  152.5483  135.6096  157.8409 H   0  0  0  0  0  0  0  0  0  0  0  0
  152.8689  143.0426  162.9860 H   0  0  0  0  0  0  0  0  0  0  0  0
  1  2  1  0  0  0  0
  1 25  1  0  0  0  0
  1 26  1  0  0  0  0
  1 27  1  0  0  0  0
  2 24  1  0  0  0  0
  2  3  2  0  0  0  0
  3  4  1  0  0  0  0
  3 28  1  0  0  0  0
  4  5  2  0  0  0  0
  4 29  1  0  0  0  0
  5  6  1  0  0  0  0
  5 23  1  0  0  0  0
  6  7  1  0  0  0  0
  6 30  1  0  0  0  0
  6 31  1  0  0  0  0
  7  8  1  0  0  0  0
  7 32  1  0  0  0  0
  7 33  1  0  0  0  0
  8  9  1  0  0  0  0
  8 34  1  0  0  0  0
  9 10  2  0  0  0  0
  9 11  1  0  0  0  0
 11 22  1  0  0  0  0
 11 12  1  0  0  0  0
 12 13  1  0  0  0  0
 12 35  1  0  0  0  0
 12 36  1  0  0  0  0
 13 14  1  0  0  0  0
 13 37  1  0  0  0  0
 13 38  1  0  0  0  0
 14 15  1  0  0  0  0
 14 21  1  0  0  0  0
 14 39  1  0  0  0  0
 15 16  1  0  0  0  0
 15 40  1  0  0  0  0
 15 41  1  0  0  0  0
 16 17  2  0  0  0  0
 16 18  1  0  0  0  0
 18 19  1  0  0  0  0
 18 20  1  0  0  0  0
 19 42  1  0  0  0  0
 19 43  1  0  0  0  0
 19 44  1  0  0  0  0
 20 45  1  0  0  0  0
 20 46  1  0  0  0  0
 20 47  1  0  0  0  0
 21 22  1  0  0  0  0
 21 48  1  0  0  0  0
 21 49  1  0  0  0  0
 22 50  1  0  0  0  0
 22 51  1  0  0  0  0
 23 24  2  0  0  0  0
 23 52  1  0  0  0  0
M  END
> <s_m_source_file>
AV-unprocessed.smi

> <i_m_source_file_index>
2349

> <i_lp_mmshare_version>
43012

> <i_f3d_flags>
0

> <s_epik_input>
W0NIM11jMVtjSF1bY0hdYyhbY0hdbjEpW0NIMl1bQ0gyXVtOSF1DKD1PKU4yW0NIMl1bQ0gyXVtDSF0oW0NIMl1bQ0gyXTIpW0NIMl1DKD1PKU4oW0NIM10pW0NIM10=

> <s_epik_cmdline>
J2VwaWtfcHl0aG9uJywgJy1waCcsICc3LjAnLCAnLXRuJywgJzgnLCAnLW1hJywgJzIwMCcsICctbWV0YWxfYmluZGluZycsICctaW1hZScsICc8aW5maWxlLm1hZT4nLCAnLW9tYWUnLCAnPG91dGZpbGUubWFlPic=

> <r_epik_Ionization_Penalty>
0.0570544

> <r_epik_Ionization_Penalty_Charging>
0

> <r_epik_Ionization_Penalty_Neutral>
0.0570544

> <r_epik_State_Penalty>
0.0491874

> <r_epik_Charging_Adjusted_Penalty>
0.0491874

> <i_epik_Tot_Q>
0

> <i_epik_Tot_abs_Q>
0

> <r_epik_Metal_State_Penalty>
0.0448474

> <b_epik_Metal_Only>
0

> <s_lp_Force_Field>
OPLS_2005

> <r_lp_Energy>
37.0132

> <b_lp_Chiralities_Consistent>
1

> <s_lp_Variant>
AV-unprocessed.smi:2349-1

> <Gold.Version>
5.8.1

> <Gold.Id.Protein>
6NUR|6NUR_protein|mol2

> <Gold.PLP.Fitness>
50.8870

> <Gold.PLP.PLP>
-45.6234

> <Gold.PLP.part.hbond>
-2.0000

> <Gold.PLP.part.metal>
0.0000

> <Gold.PLP.part.buried>
-4.5678

> <Gold.PLP.part.nonpolar>
-37.7583

> <Gold.PLP.part.repulsive>
0.2875

> <Gold.PLP.ligand.clash>
0.0000

> <Gold.PLP.ligand.torsion>
0.4299

> <Gold.PLP.Chemscore.Hbond>
1.9920

> <Gold.PLP.Chemscore.CHOScore>
0.0000

> <Gold.PLP.Chemscore.Metal>
0.0000

> <Gold.Chemscore.Hbonds>
donor molecule, donor type, donor heavy atom, donor atom, acceptor molecule, acceptor atom, score
      P1  H  7989  7998       L1    17  1.00
      P1  H  7997  8010       L1    10  1.00

> <Gold.PLP.Chemscore.Internal.Correction>
0.1474

> <Gold.Rescore>
     Score         DG    S(hbond)    S(metal)    S(lipo)     H(rot)  DE(clash)    DE(int)     intcor
     21.09     -21.91       1.93        0.00     121.62       1.66       0.31       0.52       ----

> <Gold.Chemscore.Fitness>
21.0873

> <Gold.Chemscore.DG>
-21.9146

> <Gold.Chemscore.ZeroCoef>
-5.4800

> <Gold.Chemscore.Hbond>
1.9336

> <Gold.Chemscore.Metal>
0.0000

> <Gold.Chemscore.Lipo>
121.6172

> <Gold.Chemscore.Internal_Hbond>
0.0000

> <Gold.Chemscore.DEClash>
0.3094

> <Gold.Chemscore.DEInternal>
0.5179

> <Gold.Chemscore.Rot>
1.6612

> <Gold.Chemscore.Internal.Correction>
   9.000000E+99

> <Gold.Chemscore.Hbonds>
donor molecule, donor type, donor heavy atom, donor atom, acceptor molecule, acceptor atom, score
      P1  H  7989  7998       L1    17  0.96
      P1  H  7997  8010       L1    10  0.89

> <Gold.Chemscore.Hbond.Weighted>
-6.4582

> <Gold.Chemscore.Metal.Weighted>
-0.0000

> <Gold.Chemscore.Lipo.Weighted>
-14.2292

> <Gold.Chemscore.Internal_Hbond.Weighted>
0.0000

> <Gold.Chemscore.DEClash.Weighted>
0.3094

> <Gold.Chemscore.DEInternal.Weighted>
0.5179

> <Gold.Chemscore.Rot.Weighted>
4.2528

> <Gold.Chemscore.Internal.Correction.Weighted>
   9.000000E+99

> <Gold.Protein.RotatedTorsions>
[ 6907 6896 6895 6894 ] final   59.77 input  -60.11 | X-H torsion
[ 7974 7965 7964 7962 ] final -149.25 input  175.53 | X-H torsion
[ 8008 7997 7996 7995 ] final   -0.20 input   59.86 | X-H torsion
[ 10167 10162 10161 10158 ] final  -20.04 input  -65.29 | X-H torsion
[ 10718 10713 10712 10709 ] final  -81.68 input   66.30 | X-H torsion
[ 10763 10752 10751 10750 ] final  157.51 input  -60.55 | X-H torsion
[ 11005 11000 10999 10996 ] final   24.74 input  -57.11 | X-H torsion

> <Gold.Protein.ActiveResidues>
 VAL166  LYS551  ARG553  GLY616  TRP617  ASP618  TYR619  PRO620  LYS621  CYS622 
 ASP623  PHE694  ASN695  SER759  ASP760  ASP761  ALA762  ILE779  LEU786  VAL792 
 PHE793  MET794  SER795  GLU796  ALA797  LYS798  CYS799  TRP800  GLU811  SER814 

> <Gold.Protein.RotatedAtoms>
  152.3944  134.6389  160.0094 H   0  0  0  0  0  0  0  0  0  0  0  0  # atno 6907 bound_to 6896
  151.6613  133.3311  159.3182 H   0  0  0  0  0  0  0  0  0  0  0  0  # atno 6908 bound_to 6896
  150.7854  134.6879  159.6525 H   0  0  0  0  0  0  0  0  0  0  0  0  # atno 6909 bound_to 6896
  144.7979  140.5090  143.5727 H   0  0  0  0  0  0  0  0  0  0  0  0  # atno 7974 bound_to 7965
  154.6607  140.2590  155.7111 H   0  0  0  0  0  0  0  0  0  0  0  0  # atno 8008 bound_to 7997
  156.2617  140.2849  156.1000 H   0  0  0  0  0  0  0  0  0  0  0  0  # atno 8009 bound_to 7997
  155.1312  140.0378  157.2765 H   0  0  0  0  0  0  0  0  0  0  0  0  # atno 8010 bound_to 7997
  140.7273  143.4761  151.0181 H   0  0  0  0  0  0  0  0  0  0  0  0  # atno 10167 bound_to 10162
  156.0046  130.4611  150.3989 H   0  0  0  0  0  0  0  0  0  0  0  0  # atno 10718 bound_to 10713
  154.2014  135.2790  155.2989 H   0  0  0  0  0  0  0  0  0  0  0  0  # atno 10763 bound_to 10752
  154.5851  135.5577  153.7227 H   0  0  0  0  0  0  0  0  0  0  0  0  # atno 10764 bound_to 10752
  153.0087  135.6354  154.2152 H   0  0  0  0  0  0  0  0  0  0  0  0  # atno 10765 bound_to 10752
  140.3554  134.2183  155.7676 H   0  0  0  0  0  0  0  0  0  0  0  0  # atno 11005 bound_to 11000
  145.5627  139.1480  143.3332 LP  0  0  0  0  0  0  0  0  0  0  0  0  # atno 17320 bound_to 7965
  146.2252  140.5762  142.8999 LP  0  0  0  0  0  0  0  0  0  0  0  0  # atno 17321 bound_to 7965
  139.8456  143.7506  152.3179 LP  0  0  0  0  0  0  0  0  0  0  0  0  # atno 17342 bound_to 10162
  139.7670  144.7489  151.0280 LP  0  0  0  0  0  0  0  0  0  0  0  0  # atno 17343 bound_to 10162
  157.2059  131.0449  151.2625 LP  0  0  0  0  0  0  0  0  0  0  0  0  # atno 17370 bound_to 10713
  157.3933  130.7293  149.6713 LP  0  0  0  0  0  0  0  0  0  0  0  0  # atno 17371 bound_to 10713
  141.2000  133.7998  157.0511 LP  0  0  0  0  0  0  0  0  0  0  0  0  # atno 17394 bound_to 11000
  140.0669  134.9724  157.1401 LP  0  0  0  0  0  0  0  0  0  0  0  0  # atno 17395 bound_to 11000

$$$$
