AV-unprocessed.smi:35|AV-procd|sdf|260|dock4
  -GOLD-   2262016 23D 1   1.00000     0.00000
 Structure written by MMmdl.
 29 30  0  0  0  0  0  0  0  0  1 V2000
  152.5348  136.6843  159.8618 O   0  0  0  0  0  0  0  0  0  0  0  0
  152.2457  137.6359  159.1398 C   0  0  0  0  0  0  0  0  0  0  0  0
  152.2954  138.9412  159.6383 N   0  0  0  0  0  0  0  0  0  0  0  0
  151.9941  140.0975  158.9157 C   0  0  0  0  0  0  0  0  0  0  0  0
  152.0501  141.1977  159.4638 O   0  0  0  0  0  0  0  0  0  0  0  0
  151.6226  139.9344  157.5624 N   0  0  0  0  0  0  0  0  0  0  0  0
  151.2771  141.1547  156.7405 C   0  0  1  0  0  0  0  0  0  0  0  0
  150.9475  140.7472  155.4445 O   0  0  0  0  0  0  0  0  0  0  0  0
  149.6942  141.3011  155.0572 C   0  0  1  0  0  0  0  0  0  0  0  0
  149.0238  140.3663  154.0380 C   0  0  0  0  0  0  0  0  0  0  0  0
  148.3044  141.1104  153.0785 O   0  0  0  0  0  0  0  0  0  0  0  0
  148.9479  141.4559  156.3845 C   0  0  2  0  0  0  0  0  0  0  0  0
  147.8859  142.3898  156.3358 O   0  0  0  0  0  0  0  0  0  0  0  0
  150.0578  141.8724  157.3423 C   0  0  2  0  0  0  0  0  0  0  0  0
  150.2596  143.2746  157.3714 O   0  0  0  0  0  0  0  0  0  0  0  0
  151.5373  138.6546  157.0295 C   0  0  0  0  0  0  0  0  0  0  0  0
  151.8279  137.5431  157.7451 C   0  0  0  0  0  0  0  0  0  0  0  0
  151.6428  135.8103  156.8030 Br  0  0  0  0  0  0  0  0  0  0  0  0
  152.5667  139.0568  160.6041 H   0  0  0  0  0  0  0  0  0  0  0  0
  152.1801  141.7667  156.6931 H   0  0  0  0  0  0  0  0  0  0  0  0
  149.8911  142.2791  154.6139 H   0  0  0  0  0  0  0  0  0  0  0  0
  149.7812  139.7833  153.5137 H   0  0  0  0  0  0  0  0  0  0  0  0
  148.3580  139.6580  154.5320 H   0  0  0  0  0  0  0  0  0  0  0  0
  148.7469  141.0369  152.2465 H   0  0  0  0  0  0  0  0  0  0  0  0
  148.5517  140.4885  156.6965 H   0  0  0  0  0  0  0  0  0  0  0  0
  148.2292  143.2142  156.0258 H   0  0  0  0  0  0  0  0  0  0  0  0
  149.8615  141.5337  158.3607 H   0  0  0  0  0  0  0  0  0  0  0  0
  149.6668  143.6749  156.7535 H   0  0  0  0  0  0  0  0  0  0  0  0
  151.2216  138.5242  156.0050 H   0  0  0  0  0  0  0  0  0  0  0  0
  1  2  2  0  0  0  0
  2 17  1  0  0  0  0
  2  3  1  0  0  0  0
  3 19  1  0  0  0  0
  3  4  1  0  0  0  0
  4  5  2  0  0  0  0
  4  6  1  0  0  0  0
  6  7  1  0  0  0  0
  6 16  1  0  0  0  0
  7 14  1  0  0  0  0
  7  8  1  0  0  0  0
  7 20  1  0  0  0  0
  8  9  1  0  0  0  0
  9 10  1  0  0  0  0
  9 12  1  0  0  0  0
  9 21  1  0  0  0  0
 10 11  1  0  0  0  0
 10 22  1  0  0  0  0
 10 23  1  0  0  0  0
 11 24  1  0  0  0  0
 12 13  1  0  0  0  0
 12 14  1  0  0  0  0
 12 25  1  0  0  0  0
 13 26  1  0  0  0  0
 14 15  1  0  0  0  0
 14 27  1  0  0  0  0
 15 28  1  0  0  0  0
 16 17  2  0  0  0  0
 16 29  1  0  0  0  0
 17 18  1  0  0  0  0
M  END
> <s_m_source_file>
AV-unprocessed.smi

> <i_m_source_file_index>
35

> <i_lp_mmshare_version>
43012

> <i_f3d_flags>
0

> <s_epik_input>
Tz1jMVtuSF1jKD1PKW4oW2NIXWMxQnIpW0NAQEhdMk9bQ0BASF0oW0NIMl1bT0hdKVtDQEBIXShbT0hdKVtDQEhdMltPSF0=

> <s_epik_cmdline>
J2VwaWtfcHl0aG9uJywgJy1waCcsICc3LjAnLCAnLXRuJywgJzgnLCAnLW1hJywgJzIwMCcsICctbWV0YWxfYmluZGluZycsICctaW1hZScsICc8aW5maWxlLm1hZT4nLCAnLW9tYWUnLCAnPG91dGZpbGUubWFlPic=

> <r_lp_tautomer_probability>
0.999537

> <r_epik_Ionization_Penalty>
0.10812

> <r_epik_Ionization_Penalty_Charging>
0.108119

> <r_epik_Ionization_Penalty_Neutral>
4.93006e-07

> <r_epik_State_Penalty>
0.0979238

> <r_epik_Charging_Adjusted_Penalty>
0.206043

> <i_epik_Tot_Q>
0

> <i_epik_Tot_abs_Q>
0

> <r_epik_Metal_State_Penalty>
3.07911

> <b_epik_Metal_Only>
0

> <s_epik_Chemistry_Notes>
This compound contains an acetal/aminal-like group ( X-CH(R)-Y where X, Y are N, S, or O) that may be acid/base labile, releasing an aldehyde.

> <s_lp_Force_Field>
OPLS_2005

> <r_lp_Energy>
30.2872

> <b_lp_Chiralities_Consistent>
1

> <s_lp_Variant>
AV-unprocessed.smi:35-14

> <Gold.Version>
5.8.1

> <Gold.Id.Protein>
6NUR|6NUR_protein|mol2

> <Gold.PLP.Fitness>
38.3939

> <Gold.PLP.PLP>
-24.7289

> <Gold.PLP.part.hbond>
-5.0000

> <Gold.PLP.part.metal>
0.0000

> <Gold.PLP.part.buried>
-3.9354

> <Gold.PLP.part.nonpolar>
-15.3998

> <Gold.PLP.part.repulsive>
0.1369

> <Gold.PLP.ligand.clash>
0.0000

> <Gold.PLP.ligand.torsion>
0.5238

> <Gold.PLP.Chemscore.Hbond>
4.9000

> <Gold.PLP.Chemscore.CHOScore>
0.0000

> <Gold.PLP.Chemscore.Metal>
0.0000

> <Gold.Chemscore.Hbonds>
donor molecule, donor type, donor heavy atom, donor atom, acceptor molecule, acceptor atom, score
      L1  H    11    24       P1  7957  0.98
      L1  H    13    26       P1  8028  1.00
      L1  H    15    28       P1  8028  1.00
      P1  H  6896  6907       L1     1  1.00
      P1  H  7989  7998       L1     8  0.42

> <Gold.PLP.Chemscore.Internal.Correction>
0.0125

> <Gold.Rescore>
     Score         DG    S(hbond)    S(metal)    S(lipo)     H(rot)  DE(clash)    DE(int)     intcor
     12.85     -13.57       3.93        0.00      37.35       3.67       0.12       0.60       ----

> <Gold.Chemscore.Fitness>
12.8461

> <Gold.Chemscore.DG>
-13.5661

> <Gold.Chemscore.ZeroCoef>
-5.4800

> <Gold.Chemscore.Hbond>
3.9255

> <Gold.Chemscore.Metal>
0.0000

> <Gold.Chemscore.Lipo>
37.3524

> <Gold.Chemscore.Internal_Hbond>
0.0000

> <Gold.Chemscore.DEClash>
0.1184

> <Gold.Chemscore.DEInternal>
0.6016

> <Gold.Chemscore.Rot>
3.6701

> <Gold.Chemscore.Internal.Correction>
   9.000000E+99

> <Gold.Chemscore.Hbonds>
donor molecule, donor type, donor heavy atom, donor atom, acceptor molecule, acceptor atom, score
      L1  H    11    24       P1  7957  0.93
      L1  H    13    26       P1  8028  0.70
      L1  H    15    28       P1  8028  0.99
      P1  H  6896  6907       L1     1  0.99
      P1  H  7989  7998       L1     8  0.02

> <Gold.Chemscore.Hbond.Weighted>
-13.1113

> <Gold.Chemscore.Metal.Weighted>
-0.0000

> <Gold.Chemscore.Lipo.Weighted>
-4.3702

> <Gold.Chemscore.Internal_Hbond.Weighted>
0.0000

> <Gold.Chemscore.DEClash.Weighted>
0.1184

> <Gold.Chemscore.DEInternal.Weighted>
0.6016

> <Gold.Chemscore.Rot.Weighted>
9.3955

> <Gold.Chemscore.Internal.Correction.Weighted>
   9.000000E+99

> <Gold.Protein.RotatedTorsions>
[ 6907 6896 6895 6894 ] final   33.79 input  -60.11 | X-H torsion
[ 7974 7965 7964 7962 ] final  -62.90 input  175.53 | X-H torsion
[ 8008 7997 7996 7995 ] final   93.90 input   59.86 | X-H torsion
[ 10167 10162 10161 10158 ] final  105.55 input  -65.29 | X-H torsion
[ 10718 10713 10712 10709 ] final -159.53 input   66.30 | X-H torsion
[ 10763 10752 10751 10750 ] final    7.16 input  -60.55 | X-H torsion
[ 11005 11000 10999 10996 ] final  -60.84 input  -57.11 | X-H torsion

> <Gold.Protein.ActiveResidues>
 VAL166  LYS551  ARG553  GLY616  TRP617  ASP618  TYR619  PRO620  LYS621  CYS622 
 ASP623  PHE694  ASN695  SER759  ASP760  ASP761  ALA762  ILE779  LEU786  VAL792 
 PHE793  MET794  SER795  GLU796  ALA797  LYS798  CYS799  TRP800  GLU811  SER814 

> <Gold.Protein.RotatedAtoms>
  152.0934  134.9392  160.0571 H   0  0  0  0  0  0  0  0  0  0  0  0  # atno 6907 bound_to 6896
  152.0634  133.4068  159.4436 H   0  0  0  0  0  0  0  0  0  0  0  0  # atno 6908 bound_to 6896
  150.6837  134.3094  159.4783 H   0  0  0  0  0  0  0  0  0  0  0  0  # atno 6909 bound_to 6896
  145.7856  140.8738  143.0307 H   0  0  0  0  0  0  0  0  0  0  0  0  # atno 7974 bound_to 7965
  156.0519  140.3307  155.7361 H   0  0  0  0  0  0  0  0  0  0  0  0  # atno 8008 bound_to 7997
  155.5588  140.0617  157.2851 H   0  0  0  0  0  0  0  0  0  0  0  0  # atno 8009 bound_to 7997
  154.4440  140.1881  156.0750 H   0  0  0  0  0  0  0  0  0  0  0  0  # atno 8010 bound_to 7997
  139.7083  144.7082  151.1069 H   0  0  0  0  0  0  0  0  0  0  0  0  # atno 10167 bound_to 10162
  156.5694  130.8682  151.2833 H   0  0  0  0  0  0  0  0  0  0  0  0  # atno 10718 bound_to 10713
  153.2395  135.6902  153.7799 H   0  0  0  0  0  0  0  0  0  0  0  0  # atno 10763 bound_to 10752
  153.6934  135.3309  155.3208 H   0  0  0  0  0  0  0  0  0  0  0  0  # atno 10764 bound_to 10752
  154.8349  135.4550  154.1311 H   0  0  0  0  0  0  0  0  0  0  0  0  # atno 10765 bound_to 10752
  141.1302  133.6625  156.5285 H   0  0  0  0  0  0  0  0  0  0  0  0  # atno 11005 bound_to 11000
  144.6789  140.0050  143.7484 LP  0  0  0  0  0  0  0  0  0  0  0  0  # atno 17320 bound_to 7965
  146.0030  139.3106  143.0916 LP  0  0  0  0  0  0  0  0  0  0  0  0  # atno 17321 bound_to 7965
  140.7727  143.5327  150.9404 LP  0  0  0  0  0  0  0  0  0  0  0  0  # atno 17342 bound_to 10162
  139.9011  143.6834  152.3131 LP  0  0  0  0  0  0  0  0  0  0  0  0  # atno 17343 bound_to 10162
  157.7351  130.9757  150.2065 LP  0  0  0  0  0  0  0  0  0  0  0  0  # atno 17370 bound_to 10713
  156.2728  130.3724  149.8014 LP  0  0  0  0  0  0  0  0  0  0  0  0  # atno 17371 bound_to 10713
  140.4235  134.7166  157.4903 LP  0  0  0  0  0  0  0  0  0  0  0  0  # atno 17394 bound_to 11000
  140.0343  134.6360  155.9064 LP  0  0  0  0  0  0  0  0  0  0  0  0  # atno 17395 bound_to 11000

$$$$
