AV-unprocessed.smi:3156|AV-procd|sdf|12032|dock9
  -GOLD-   2272017453D 1   1.00000     0.00000
 Structure written by MMmdl.
 41 42  0  0  0  0  0  0  0  0  2 V2000
  146.3542  138.8915  151.4533 C   0  0  0  0  0  0  0  0  0  0  0  0
  146.4456  138.1148  152.7791 C   0  0  1  0  0  0  0  0  0  0  0  0
  146.5151  136.6679  152.4759 N   0  3  0  0  0  0  0  0  0  0  0  0
  145.5333  136.1907  151.4794 C   0  0  0  0  0  0  0  0  0  0  0  0
  145.3945  134.6616  151.5166 C   0  0  1  0  0  0  0  0  0  0  0  0
  144.4123  134.1311  150.4511 C   0  0  0  0  0  0  0  0  0  0  0  0
  144.3838  132.5984  150.4578 C   0  0  0  0  0  0  0  0  0  0  0  0
  145.8098  132.0544  150.3233 C   0  0  0  0  0  0  0  0  0  0  0  0
  146.7242  132.6872  151.3839 C   0  0  0  0  0  0  0  0  0  0  0  0
  146.6852  134.1073  151.2744 O   0  0  0  0  0  0  0  0  0  0  0  0
  147.6565  138.5471  153.6511 C   0  0  2  0  0  0  0  0  0  0  0  0
  147.8377  137.6755  154.9086 C   0  0  0  0  0  0  0  0  0  0  0  0
  147.5844  139.9527  154.0295 N   0  0  0  0  0  0  0  0  0  0  0  0
  146.5858  140.8632  153.7499 C   0  0  0  0  0  0  0  0  0  0  0  0
  146.9565  142.0573  154.2988 C   0  0  0  0  0  0  0  0  0  0  0  0
  148.2150  141.7772  154.8999 C   0  0  0  0  0  0  0  0  0  0  0  0
  148.5888  140.5187  154.7364 N   0  0  0  0  0  0  0  0  0  0  0  0
  146.1953  139.9576  151.6162 H   0  0  0  0  0  0  0  0  0  0  0  0
  145.5193  138.5347  150.8493 H   0  0  0  0  0  0  0  0  0  0  0  0
  147.2642  138.7765  150.8634 H   0  0  0  0  0  0  0  0  0  0  0  0
  145.5259  138.3179  153.3312 H   0  0  0  0  0  0  0  0  0  0  0  0
  147.4387  136.4645  152.1214 H   0  0  0  0  0  0  0  0  0  0  0  0
  144.5633  136.6603  151.6459 H   0  0  0  0  0  0  0  0  0  0  0  0
  145.8720  136.5044  150.4911 H   0  0  0  0  0  0  0  0  0  0  0  0
  145.0661  134.3589  152.5127 H   0  0  0  0  0  0  0  0  0  0  0  0
  143.4086  134.5192  150.6266 H   0  0  0  0  0  0  0  0  0  0  0  0
  144.7144  134.4840  149.4640 H   0  0  0  0  0  0  0  0  0  0  0  0
  143.9413  132.2424  151.3891 H   0  0  0  0  0  0  0  0  0  0  0  0
  143.7558  132.2250  149.6483 H   0  0  0  0  0  0  0  0  0  0  0  0
  145.8109  130.9685  150.4221 H   0  0  0  0  0  0  0  0  0  0  0  0
  146.1963  132.2782  149.3284 H   0  0  0  0  0  0  0  0  0  0  0  0
  146.4265  132.3803  152.3878 H   0  0  0  0  0  0  0  0  0  0  0  0
  147.7515  132.3511  151.2412 H   0  0  0  0  0  0  0  0  0  0  0  0
  148.5582  138.4360  153.0466 H   0  0  0  0  0  0  0  0  0  0  0  0
  148.0555  136.6392  154.6505 H   0  0  0  0  0  0  0  0  0  0  0  0
  146.9436  137.6827  155.5329 H   0  0  0  0  0  0  0  0  0  0  0  0
  148.6685  138.0356  155.5165 H   0  0  0  0  0  0  0  0  0  0  0  0
  145.7040  140.5896  153.1894 H   0  0  0  0  0  0  0  0  0  0  0  0
  146.4126  142.9900  154.2727 H   0  0  0  0  0  0  0  0  0  0  0  0
  148.8645  142.4462  155.4449 H   0  0  0  0  0  0  0  0  0  0  0  0
  146.3825  136.1567  153.3368 H   0  0  0  0  0  0  0  0  0  0  0  0
  1  2  1  0  0  0  0
  1 18  1  0  0  0  0
  1 19  1  0  0  0  0
  1 20  1  0  0  0  0
  2  3  1  0  0  0  0
  2 11  1  0  0  0  0
  2 21  1  0  0  0  0
  3  4  1  0  0  0  0
  3 22  1  0  0  0  0
  3 41  1  0  0  0  0
  4  5  1  0  0  0  0
  4 23  1  0  0  0  0
  4 24  1  0  0  0  0
  5 10  1  0  0  0  0
  5  6  1  0  0  0  0
  5 25  1  0  0  0  0
  6  7  1  0  0  0  0
  6 26  1  0  0  0  0
  6 27  1  0  0  0  0
  7  8  1  0  0  0  0
  7 28  1  0  0  0  0
  7 29  1  0  0  0  0
  8  9  1  0  0  0  0
  8 30  1  0  0  0  0
  8 31  1  0  0  0  0
  9 10  1  0  0  0  0
  9 32  1  0  0  0  0
  9 33  1  0  0  0  0
 11 12  1  0  0  0  0
 11 13  1  0  0  0  0
 11 34  1  0  0  0  0
 12 35  1  0  0  0  0
 12 36  1  0  0  0  0
 12 37  1  0  0  0  0
 13 17  1  0  0  0  0
 13 14  1  0  0  0  0
 14 15  2  0  0  0  0
 14 38  1  0  0  0  0
 15 16  1  0  0  0  0
 15 39  1  0  0  0  0
 16 17  2  0  0  0  0
 16 40  1  0  0  0  0
M  CHG  1   3   1
M  END
> <s_m_source_file>
AV-unprocessed.smi

> <i_m_source_file_index>
3156

> <i_lp_mmshare_version>
43012

> <i_f3d_flags>
0

> <s_epik_input>
bjFbY0hdW2NIXVtjSF1uMVtDQEBIXShbQ0gzXSlbQ0BIXShbQ0gzXSlbTkhdW0NIMl1bQ0BASF0yW0NIMl1bQ0gyXVtDSDJdW0NIMl1PMg==

> <s_epik_cmdline>
J2VwaWtfcHl0aG9uJywgJy1waCcsICc3LjAnLCAnLXRuJywgJzgnLCAnLW1hJywgJzIwMCcsICctbWV0YWxfYmluZGluZycsICctaW1hZScsICc8aW5maWxlLm1hZT4nLCAnLW9tYWUnLCAnPG91dGZpbGUubWFlPic=

> <r_lp_tautomer_probability>
1

> <r_epik_Ionization_Penalty>
0.00658015

> <r_epik_Ionization_Penalty_Charging>
0.00656881

> <r_epik_Ionization_Penalty_Neutral>
1.13431e-05

> <r_epik_State_Penalty>
0.0048654

> <r_epik_Charging_Adjusted_Penalty>
0.0114342

> <i_epik_Tot_Q>
1

> <i_epik_Tot_abs_Q>
1

> <r_epik_Metal_State_Penalty>
-0

> <b_epik_Metal_Only>
0

> <s_lp_Force_Field>
OPLS_2005

> <r_lp_Energy>
19.0125

> <b_lp_Chiralities_Consistent>
1

> <s_lp_Variant>
AV-unprocessed.smi:3156-4

> <Gold.Version>
5.8.1

> <Gold.Id.Protein>
6NUR|6NUR_protein|mol2

> <Gold.PLP.Fitness>
44.0434

> <Gold.PLP.PLP>
-32.3986

> <Gold.PLP.part.hbond>
-1.0000

> <Gold.PLP.part.metal>
0.0000

> <Gold.PLP.part.buried>
-0.2414

> <Gold.PLP.part.nonpolar>
-32.2272

> <Gold.PLP.part.repulsive>
0.5226

> <Gold.PLP.ligand.clash>
0.0000

> <Gold.PLP.ligand.torsion>
0.1834

> <Gold.PLP.Chemscore.Hbond>
2.0000

> <Gold.PLP.Chemscore.CHOScore>
1.9755

> <Gold.PLP.Chemscore.Metal>
0.0000

> <Gold.Chemscore.Hbonds>
donor molecule, donor type, donor heavy atom, donor atom, acceptor molecule, acceptor atom, score
      L1  H     3    22       P1  7948  2.00
      L1  C    14    38       P1 10175  1.00
      L1  C    16    40       P1  8028  1.00

> <Gold.PLP.Chemscore.Internal.Correction>
0.0850

> <Gold.Rescore>
     Score         DG    S(hbond)    S(metal)    S(lipo)     H(rot)  DE(clash)    DE(int)     intcor
     13.92     -14.62       0.99        0.00      84.77       1.59       0.40       0.31       ----

> <Gold.Chemscore.Fitness>
13.9165

> <Gold.Chemscore.DG>
-14.6221

> <Gold.Chemscore.ZeroCoef>
-5.4800

> <Gold.Chemscore.Hbond>
0.9893

> <Gold.Chemscore.Metal>
0.0000

> <Gold.Chemscore.Lipo>
84.7699

> <Gold.Chemscore.Internal_Hbond>
0.0000

> <Gold.Chemscore.DEClash>
0.3980

> <Gold.Chemscore.DEInternal>
0.3076

> <Gold.Chemscore.Rot>
1.5938

> <Gold.Chemscore.Internal.Correction>
   9.000000E+99

> <Gold.Chemscore.Hbonds>
donor molecule, donor type, donor heavy atom, donor atom, acceptor molecule, acceptor atom, score
      L1  H     3    22       P1  7948  0.93

> <Gold.Chemscore.Hbond.Weighted>
-3.3043

> <Gold.Chemscore.Metal.Weighted>
-0.0000

> <Gold.Chemscore.Lipo.Weighted>
-9.9181

> <Gold.Chemscore.Internal_Hbond.Weighted>
0.0000

> <Gold.Chemscore.DEClash.Weighted>
0.3980

> <Gold.Chemscore.DEInternal.Weighted>
0.3076

> <Gold.Chemscore.Rot.Weighted>
4.0802

> <Gold.Chemscore.Internal.Correction.Weighted>
   9.000000E+99

> <Gold.Protein.RotatedTorsions>
[ 6907 6896 6895 6894 ] final   40.97 input  -60.11 | X-H torsion
[ 7974 7965 7964 7962 ] final  153.30 input  175.53 | X-H torsion
[ 8008 7997 7996 7995 ] final  133.63 input   59.86 | X-H torsion
[ 10167 10162 10161 10158 ] final -136.22 input  -65.29 | X-H torsion
[ 10718 10713 10712 10709 ] final -172.46 input   66.30 | X-H torsion
[ 10763 10752 10751 10750 ] final  163.11 input  -60.55 | X-H torsion
[ 11005 11000 10999 10996 ] final   28.64 input  -57.11 | X-H torsion

> <Gold.Protein.ActiveResidues>
 VAL166  LYS551  ARG553  GLY616  TRP617  ASP618  TYR619  PRO620  LYS621  CYS622 
 ASP623  PHE694  ASN695  SER759  ASP760  ASP761  ALA762  ILE779  LEU786  VAL792 
 PHE793  MET794  SER795  GLU796  ALA797  LYS798  CYS799  TRP800  GLU811  SER814 

> <Gold.Protein.RotatedAtoms>
  152.1893  134.8686  160.0518 H   0  0  0  0  0  0  0  0  0  0  0  0  # atno 6907 bound_to 6896
  151.9581  133.3681  159.4033 H   0  0  0  0  0  0  0  0  0  0  0  0  # atno 6908 bound_to 6896
  150.6932  134.4193  159.5241 H   0  0  0  0  0  0  0  0  0  0  0  0  # atno 6909 bound_to 6896
  144.8164  139.6783  143.6119 H   0  0  0  0  0  0  0  0  0  0  0  0  # atno 7974 bound_to 7965
  156.2994  140.2516  156.3285 H   0  0  0  0  0  0  0  0  0  0  0  0  # atno 8008 bound_to 7997
  154.9167  140.0402  157.1995 H   0  0  0  0  0  0  0  0  0  0  0  0  # atno 8009 bound_to 7997
  154.8351  140.2882  155.5700 H   0  0  0  0  0  0  0  0  0  0  0  0  # atno 8010 bound_to 7997
  139.8700  143.6969  152.2641 H   0  0  0  0  0  0  0  0  0  0  0  0  # atno 10167 bound_to 10162
  156.7559  130.9395  151.3116 H   0  0  0  0  0  0  0  0  0  0  0  0  # atno 10718 bound_to 10713
  154.2887  135.2761  155.2664 H   0  0  0  0  0  0  0  0  0  0  0  0  # atno 10763 bound_to 10752
  154.5153  135.5771  153.6641 H   0  0  0  0  0  0  0  0  0  0  0  0  # atno 10764 bound_to 10752
  152.9917  135.6191  154.3050 H   0  0  0  0  0  0  0  0  0  0  0  0  # atno 10765 bound_to 10752
  140.3135  134.2623  155.7730 H   0  0  0  0  0  0  0  0  0  0  0  0  # atno 11005 bound_to 11000
  146.2467  139.6113  142.9455 LP  0  0  0  0  0  0  0  0  0  0  0  0  # atno 17320 bound_to 7965
  145.5206  141.0432  143.2438 LP  0  0  0  0  0  0  0  0  0  0  0  0  # atno 17321 bound_to 7965
  139.7293  144.7586  151.0828 LP  0  0  0  0  0  0  0  0  0  0  0  0  # atno 17342 bound_to 10162
  140.7762  143.5108  150.9654 LP  0  0  0  0  0  0  0  0  0  0  0  0  # atno 17343 bound_to 10162
  157.6756  130.9091  150.0143 LP  0  0  0  0  0  0  0  0  0  0  0  0  # atno 17370 bound_to 10713
  156.1370  130.3642  149.9641 LP  0  0  0  0  0  0  0  0  0  0  0  0  # atno 17371 bound_to 10713
  141.2103  133.7724  156.9942 LP  0  0  0  0  0  0  0  0  0  0  0  0  # atno 17394 bound_to 11000
  140.1004  134.9539  157.1914 LP  0  0  0  0  0  0  0  0  0  0  0  0  # atno 17395 bound_to 11000

$$$$
