AV-unprocessed.smi:3263|AV-procd|sdf|12492|dock2
  -GOLD-   2272018393D 1   1.00000     0.00000
 Structure written by MMmdl.
 42 44  0  0  0  0  0  0  0  0  2 V2000
  153.8718  140.1742  159.0223 O   0  0  0  0  0  0  0  0  0  0  0  0
  154.1121  140.7313  160.0935 C   0  0  0  0  0  0  0  0  0  0  0  0
  153.0502  141.6051  160.7698 C   0  0  0  0  0  0  0  0  0  0  0  0
  153.0253  143.0586  160.2453 C   0  0  2  0  0  0  0  0  0  0  0  0
  152.1746  144.0289  161.1009 C   0  0  0  0  0  0  0  0  0  0  0  0
  151.1958  144.6313  160.0769 C   0  0  1  0  0  0  0  0  0  0  0  0
  151.9627  145.5504  159.1080 C   0  0  0  0  0  0  0  0  0  0  0  0
  152.7465  144.5484  158.2393 C   0  0  0  0  0  0  0  0  0  0  0  0
  152.3597  143.1904  158.8558 C   0  0  2  0  0  0  0  0  0  0  0  0
  150.8913  143.4250  159.1987 C   0  0  0  0  0  0  0  0  0  0  0  0
  155.2853  140.6161  160.7342 N   0  0  0  0  0  0  0  0  0  0  0  0
  156.4259  139.8434  160.2574 C   0  0  0  0  0  0  0  0  0  0  0  0
  157.1073  140.5211  159.0569 C   0  0  0  0  0  0  0  0  0  0  0  0
  158.5051  141.0050  159.3897 C   0  0  0  0  0  0  0  0  0  0  0  0
  159.3645  141.5469  158.4094 C   0  0  0  0  0  0  0  0  0  0  0  0
  160.6506  141.9860  158.7874 C   0  0  0  0  0  0  0  0  0  0  0  0
  161.0497  141.8748  160.1355 C   0  0  0  0  0  0  0  0  0  0  0  0
  160.1510  141.3260  161.0731 C   0  0  0  0  0  0  0  0  0  0  0  0
  158.9272  140.9167  160.6720 N   0  3  0  0  0  0  0  0  0  0  0  0
  152.0793  141.1395  160.5968 H   0  0  0  0  0  0  0  0  0  0  0  0
  153.2043  141.5970  161.8498 H   0  0  0  0  0  0  0  0  0  0  0  0
  154.0531  143.4203  160.1851 H   0  0  0  0  0  0  0  0  0  0  0  0
  151.6209  143.4973  161.8760 H   0  0  0  0  0  0  0  0  0  0  0  0
  152.7822  144.7893  161.5929 H   0  0  0  0  0  0  0  0  0  0  0  0
  150.3242  145.1031  160.5311 H   0  0  0  0  0  0  0  0  0  0  0  0
  151.2741  146.1330  158.4946 H   0  0  0  0  0  0  0  0  0  0  0  0
  152.6175  146.2468  159.6330 H   0  0  0  0  0  0  0  0  0  0  0  0
  152.4194  144.6068  157.2005 H   0  0  0  0  0  0  0  0  0  0  0  0
  153.8219  144.7281  158.2597 H   0  0  0  0  0  0  0  0  0  0  0  0
  152.5488  142.3469  158.1912 H   0  0  0  0  0  0  0  0  0  0  0  0
  150.4291  142.5991  159.7417 H   0  0  0  0  0  0  0  0  0  0  0  0
  150.2770  143.6667  158.3293 H   0  0  0  0  0  0  0  0  0  0  0  0
  155.3978  141.1077  161.6091 H   0  0  0  0  0  0  0  0  0  0  0  0
  157.1406  139.6945  161.0687 H   0  0  0  0  0  0  0  0  0  0  0  0
  156.0675  138.8533  159.9746 H   0  0  0  0  0  0  0  0  0  0  0  0
  157.1625  139.8282  158.2162 H   0  0  0  0  0  0  0  0  0  0  0  0
  156.5128  141.3698  158.7158 H   0  0  0  0  0  0  0  0  0  0  0  0
  159.0436  141.6281  157.3809 H   0  0  0  0  0  0  0  0  0  0  0  0
  161.3222  142.4043  158.0521 H   0  0  0  0  0  0  0  0  0  0  0  0
  162.0299  142.2066  160.4456 H   0  0  0  0  0  0  0  0  0  0  0  0
  160.3718  141.2040  162.1235 H   0  0  0  0  0  0  0  0  0  0  0  0
  158.2928  140.5242  161.3680 H   0  0  0  0  0  0  0  0  0  0  0  0
  1  2  2  0  0  0  0
  2  3  1  0  0  0  0
  2 11  1  0  0  0  0
  3  4  1  0  0  0  0
  3 20  1  0  0  0  0
  3 21  1  0  0  0  0
  4  9  1  0  0  0  0
  4  5  1  0  0  0  0
  4 22  1  0  0  0  0
  5  6  1  0  0  0  0
  5 23  1  0  0  0  0
  5 24  1  0  0  0  0
  6 10  1  0  0  0  0
  6  7  1  0  0  0  0
  6 25  1  0  0  0  0
  7  8  1  0  0  0  0
  7 26  1  0  0  0  0
  7 27  1  0  0  0  0
  8  9  1  0  0  0  0
  8 28  1  0  0  0  0
  8 29  1  0  0  0  0
  9 10  1  0  0  0  0
  9 30  1  0  0  0  0
 10 31  1  0  0  0  0
 10 32  1  0  0  0  0
 11 12  1  0  0  0  0
 11 33  1  0  0  0  0
 12 13  1  0  0  0  0
 12 34  1  0  0  0  0
 12 35  1  0  0  0  0
 13 14  1  0  0  0  0
 13 36  1  0  0  0  0
 13 37  1  0  0  0  0
 14 19  1  0  0  0  0
 14 15  2  0  0  0  0
 15 16  1  0  0  0  0
 15 38  1  0  0  0  0
 16 17  2  0  0  0  0
 16 39  1  0  0  0  0
 17 18  1  0  0  0  0
 17 40  1  0  0  0  0
 18 19  2  0  0  0  0
 18 41  1  0  0  0  0
 19 42  1  0  0  0  0
M  CHG  1  19   1
M  END
> <s_m_source_file>
AV-unprocessed.smi

> <i_m_source_file_index>
3263

> <i_lp_mmshare_version>
43012

> <i_f3d_flags>
0

> <s_epik_input>
W0NIMl0xW0NIMl1bQ0BASF0oW0NIMl0yKVtDQEBIXShbQ0gyXVtDQEhdMTIpW0NIMl1DKD1PKVtOSF1bQ0gyXVtDSDJdYzNbY0hdW2NIXVtjSF1bY0hdbjM=

> <s_epik_cmdline>
J2VwaWtfcHl0aG9uJywgJy1waCcsICc3LjAnLCAnLXRuJywgJzgnLCAnLW1hJywgJzIwMCcsICctbWV0YWxfYmluZGluZycsICctaW1hZScsICc8aW5maWxlLm1hZT4nLCAnLW9tYWUnLCAnPG91dGZpbGUubWFlPic=

> <r_epik_Ionization_Penalty>
1.83579

> <r_epik_Ionization_Penalty_Charging>
1.83579

> <r_epik_Ionization_Penalty_Neutral>
2.47288e-08

> <r_epik_State_Penalty>
1.95213

> <r_epik_Charging_Adjusted_Penalty>
3.78793

> <i_epik_Tot_Q>
1

> <i_epik_Tot_abs_Q>
1

> <r_epik_Metal_State_Penalty>
1.97847

> <b_epik_Metal_Only>
0

> <s_lp_Force_Field>
OPLS_2005

> <r_lp_Energy>
51.8999

> <b_lp_Chiralities_Consistent>
1

> <s_lp_Variant>
AV-unprocessed.smi:3263-7

> <Gold.Version>
5.8.1

> <Gold.Id.Protein>
6NUR|6NUR_protein|mol2

> <Gold.PLP.Fitness>
50.0555

> <Gold.PLP.PLP>
-49.1032

> <Gold.PLP.part.hbond>
-2.7442

> <Gold.PLP.part.metal>
0.0000

> <Gold.PLP.part.buried>
-3.5615

> <Gold.PLP.part.nonpolar>
-42.7148

> <Gold.PLP.part.repulsive>
0.0362

> <Gold.PLP.ligand.clash>
0.0000

> <Gold.PLP.ligand.torsion>
0.9077

> <Gold.PLP.Chemscore.Hbond>
0.9120

> <Gold.PLP.Chemscore.CHOScore>
0.0000

> <Gold.PLP.Chemscore.Metal>
0.0000

> <Gold.Chemscore.Hbonds>
donor molecule, donor type, donor heavy atom, donor atom, acceptor molecule, acceptor atom, score
      P1  H  7997  8009       L1     1  0.89

> <Gold.PLP.Chemscore.Internal.Correction>
0.0317

> <Gold.Rescore>
     Score         DG    S(hbond)    S(metal)    S(lipo)     H(rot)  DE(clash)    DE(int)     intcor
     20.14     -21.35       0.83        0.00     146.18       1.56       0.33       0.89       ----

> <Gold.Chemscore.Fitness>
20.1363

> <Gold.Chemscore.DG>
-21.3539

> <Gold.Chemscore.ZeroCoef>
-5.4800

> <Gold.Chemscore.Hbond>
0.8308

> <Gold.Chemscore.Metal>
0.0000

> <Gold.Chemscore.Lipo>
146.1767

> <Gold.Chemscore.Internal_Hbond>
0.0000

> <Gold.Chemscore.DEClash>
0.3325

> <Gold.Chemscore.DEInternal>
0.8851

> <Gold.Chemscore.Rot>
1.5640

> <Gold.Chemscore.Internal.Correction>
   9.000000E+99

> <Gold.Chemscore.Hbonds>
donor molecule, donor type, donor heavy atom, donor atom, acceptor molecule, acceptor atom, score
      P1  H  7997  8009       L1     1  0.82

> <Gold.Chemscore.Hbond.Weighted>
-2.7750

> <Gold.Chemscore.Metal.Weighted>
-0.0000

> <Gold.Chemscore.Lipo.Weighted>
-17.1027

> <Gold.Chemscore.Internal_Hbond.Weighted>
0.0000

> <Gold.Chemscore.DEClash.Weighted>
0.3325

> <Gold.Chemscore.DEInternal.Weighted>
0.8851

> <Gold.Chemscore.Rot.Weighted>
4.0038

> <Gold.Chemscore.Internal.Correction.Weighted>
   9.000000E+99

> <Gold.Protein.RotatedTorsions>
[ 6907 6896 6895 6894 ] final  -85.51 input  -60.11 | X-H torsion
[ 7974 7965 7964 7962 ] final  151.89 input  175.53 | X-H torsion
[ 8008 7997 7996 7995 ] final  128.99 input   59.86 | X-H torsion
[ 10167 10162 10161 10158 ] final -126.46 input  -65.29 | X-H torsion
[ 10718 10713 10712 10709 ] final   56.59 input   66.30 | X-H torsion
[ 10763 10752 10751 10750 ] final  167.25 input  -60.55 | X-H torsion
[ 11005 11000 10999 10996 ] final  -35.45 input  -57.11 | X-H torsion

> <Gold.Protein.ActiveResidues>
 VAL166  LYS551  ARG553  GLY616  TRP617  ASP618  TYR619  PRO620  LYS621  CYS622 
 ASP623  PHE694  ASN695  SER759  ASP760  ASP761  ALA762  ILE779  LEU786  VAL792 
 PHE793  MET794  SER795  GLU796  ALA797  LYS798  CYS799  TRP800  GLU811  SER814 

> <Gold.Protein.RotatedAtoms>
  150.6870  134.3194  159.4779 H   0  0  0  0  0  0  0  0  0  0  0  0  # atno 6907 bound_to 6896
  152.1071  134.9298  160.0577 H   0  0  0  0  0  0  0  0  0  0  0  0  # atno 6908 bound_to 6896
  152.0555  133.4003  159.4432 H   0  0  0  0  0  0  0  0  0  0  0  0  # atno 6909 bound_to 6896
  144.8261  139.6596  143.6079 H   0  0  0  0  0  0  0  0  0  0  0  0  # atno 7974 bound_to 7965
  156.2927  140.2631  156.2526 H   0  0  0  0  0  0  0  0  0  0  0  0  # atno 8008 bound_to 7997
  154.9867  140.0389  157.2320 H   0  0  0  0  0  0  0  0  0  0  0  0  # atno 8009 bound_to 7997
  154.7722  140.2780  155.6133 H   0  0  0  0  0  0  0  0  0  0  0  0  # atno 8010 bound_to 7997
  139.9712  143.5843  152.2412 H   0  0  0  0  0  0  0  0  0  0  0  0  # atno 10167 bound_to 10162
  157.5444  130.8720  149.8869 H   0  0  0  0  0  0  0  0  0  0  0  0  # atno 10718 bound_to 10713
  154.3511  135.2753  155.2371 H   0  0  0  0  0  0  0  0  0  0  0  0  # atno 10763 bound_to 10752
  154.4600  135.5909  153.6253 H   0  0  0  0  0  0  0  0  0  0  0  0  # atno 10764 bound_to 10752
  152.9850  135.6062  154.3722 H   0  0  0  0  0  0  0  0  0  0  0  0  # atno 10765 bound_to 10752
  140.9797  133.7063  156.1663 H   0  0  0  0  0  0  0  0  0  0  0  0  # atno 11005 bound_to 11000
  146.2566  139.6315  142.9391 LP  0  0  0  0  0  0  0  0  0  0  0  0  # atno 17320 bound_to 7965
  145.4998  141.0437  143.2547 LP  0  0  0  0  0  0  0  0  0  0  0  0  # atno 17321 bound_to 7965
  139.6480  144.7659  151.2205 LP  0  0  0  0  0  0  0  0  0  0  0  0  # atno 17342 bound_to 10162
  140.7521  143.6208  150.8515 LP  0  0  0  0  0  0  0  0  0  0  0  0  # atno 17343 bound_to 10162
  156.0523  130.3715  150.1172 LP  0  0  0  0  0  0  0  0  0  0  0  0  # atno 17370 bound_to 10713
  156.9350  130.9726  151.3526 LP  0  0  0  0  0  0  0  0  0  0  0  0  # atno 17371 bound_to 10713
  140.7205  134.4363  157.5575 LP  0  0  0  0  0  0  0  0  0  0  0  0  # atno 17394 bound_to 11000
  139.8945  134.8705  156.2174 LP  0  0  0  0  0  0  0  0  0  0  0  0  # atno 17395 bound_to 11000

$$$$
