AV-unprocessed.smi:2079|AV-procd|sdf|8480|dock7
  -GOLD-   2272011183D 1   1.00000     0.00000
 Structure written by MMmdl.
 41 42  0  0  0  0  0  0  0  0  3 V2000
  145.8570  136.0509  162.0627 C   0  0  0  0  0  0  0  0  0  0  0  0
  146.9448  136.3352  161.0840 C   0  0  0  0  0  0  0  0  0  0  0  0
  148.1560  135.7493  160.8488 C   0  0  0  0  0  0  0  0  0  0  0  0
  148.6841  136.5152  159.7740 C   0  0  0  0  0  0  0  0  0  0  0  0
  149.8780  136.3317  159.1892 N   0  5  0  0  0  0  0  0  0  0  0  0
  150.4409  137.3251  158.4644 C   0  0  0  0  0  0  0  0  0  0  0  0
  149.9655  137.8616  157.4611 O   0  0  0  0  0  0  0  0  0  0  0  0
  151.6338  137.7193  158.9284 N   0  0  0  0  0  0  0  0  0  0  0  0
  152.4646  138.7548  158.3304 C   0  0  0  0  0  0  0  0  0  0  0  0
  152.7409  139.8704  159.3515 C   0  0  0  0  0  0  0  0  0  0  0  0
  152.6523  141.2393  158.7747 N   0  3  1  0  0  0  0  0  0  0  0  0
  151.3162  141.4980  158.1724 C   0  0  0  0  0  0  0  0  0  0  0  0
  151.2939  142.8239  157.3958 C   0  0  0  0  0  0  0  0  0  0  0  0
  151.7207  143.9918  158.2905 C   0  0  0  0  0  0  0  0  0  0  0  0
  153.0936  143.6968  158.9087 C   0  0  0  0  0  0  0  0  0  0  0  0
  153.1189  142.3505  159.6640 C   0  0  1  0  0  0  0  0  0  0  0  0
  152.3675  142.4233  161.0105 C   0  0  0  0  0  0  0  0  0  0  0  0
  147.8722  137.4899  159.4004 N   0  0  0  0  0  0  0  0  0  0  0  0
  146.7509  137.3769  160.2310 O   0  0  0  0  0  0  0  0  0  0  0  0
  146.2341  136.1064  163.0837 H   0  0  0  0  0  0  0  0  0  0  0  0
  145.4500  135.0520  161.9063 H   0  0  0  0  0  0  0  0  0  0  0  0
  145.0411  136.7675  161.9647 H   0  0  0  0  0  0  0  0  0  0  0  0
  148.5943  134.9064  161.3615 H   0  0  0  0  0  0  0  0  0  0  0  0
  151.9873  137.2587  159.7542 H   0  0  0  0  0  0  0  0  0  0  0  0
  153.3956  138.2955  157.9971 H   0  0  0  0  0  0  0  0  0  0  0  0
  151.9614  139.1578  157.4505 H   0  0  0  0  0  0  0  0  0  0  0  0
  152.0006  139.7877  160.1489 H   0  0  0  0  0  0  0  0  0  0  0  0
  153.7107  139.7234  159.8280 H   0  0  0  0  0  0  0  0  0  0  0  0
  151.0610  140.6876  157.4883 H   0  0  0  0  0  0  0  0  0  0  0  0
  150.5504  141.4998  158.9486 H   0  0  0  0  0  0  0  0  0  0  0  0
  151.9629  142.7563  156.5367 H   0  0  0  0  0  0  0  0  0  0  0  0
  150.2956  143.0058  156.9966 H   0  0  0  0  0  0  0  0  0  0  0  0
  151.7606  144.9140  157.7101 H   0  0  0  0  0  0  0  0  0  0  0  0
  150.9798  144.1509  159.0749 H   0  0  0  0  0  0  0  0  0  0  0  0
  153.8410  143.6742  158.1144 H   0  0  0  0  0  0  0  0  0  0  0  0
  153.3865  144.5104  159.5733 H   0  0  0  0  0  0  0  0  0  0  0  0
  154.1677  142.1706  159.8968 H   0  0  0  0  0  0  0  0  0  0  0  0
  152.7290  143.2612  161.6070 H   0  0  0  0  0  0  0  0  0  0  0  0
  152.5221  141.5256  161.6087 H   0  0  0  0  0  0  0  0  0  0  0  0
  151.2944  142.5577  160.8803 H   0  0  0  0  0  0  0  0  0  0  0  0
  153.2954  141.2371  157.9957 H   0  0  0  0  0  0  0  0  0  0  0  0
  1  2  1  0  0  0  0
  1 20  1  0  0  0  0
  1 21  1  0  0  0  0
  1 22  1  0  0  0  0
  2 19  1  0  0  0  0
  2  3  2  0  0  0  0
  3  4  1  0  0  0  0
  3 23  1  0  0  0  0
  4  5  1  0  0  0  0
  4 18  2  0  0  0  0
  5  6  1  0  0  0  0
  6  7  2  0  0  0  0
  6  8  1  0  0  0  0
  8  9  1  0  0  0  0
  8 24  1  0  0  0  0
  9 10  1  0  0  0  0
  9 25  1  0  0  0  0
  9 26  1  0  0  0  0
 10 11  1  0  0  0  0
 10 27  1  0  0  0  0
 10 28  1  0  0  0  0
 11 16  1  0  0  0  0
 11 12  1  0  0  0  0
 11 41  1  0  0  0  0
 12 13  1  0  0  0  0
 12 29  1  0  0  0  0
 12 30  1  0  0  0  0
 13 14  1  0  0  0  0
 13 31  1  0  0  0  0
 13 32  1  0  0  0  0
 14 15  1  0  0  0  0
 14 33  1  0  0  0  0
 14 34  1  0  0  0  0
 15 16  1  0  0  0  0
 15 35  1  0  0  0  0
 15 36  1  0  0  0  0
 16 17  1  0  0  0  0
 16 37  1  0  0  0  0
 17 38  1  0  0  0  0
 17 39  1  0  0  0  0
 17 40  1  0  0  0  0
 18 19  1  0  0  0  0
M  CHG  1   5  -1
M  CHG  1  11   1
M  END
> <s_m_source_file>
AV-unprocessed.smi

> <i_m_source_file_index>
2079

> <i_lp_mmshare_version>
43012

> <i_f3d_flags>
0

> <s_epik_input>
W0NIM11jMVtjSF1jKG5vMSlbTkhdQyg9TylbTkhdW0NIMl1bQ0gyXU4yW0NIMl1bQ0gyXVtDSDJdW0NIMl1bQ0BIXTJbQ0gzXQ==

> <s_epik_cmdline>
J2VwaWtfcHl0aG9uJywgJy1waCcsICc3LjAnLCAnLXRuJywgJzgnLCAnLW1hJywgJzIwMCcsICctbWV0YWxfYmluZGluZycsICctaW1hZScsICc8aW5maWxlLm1hZT4nLCAnLW9tYWUnLCAnPG91dGZpbGUubWFlPic=

> <r_epik_Ionization_Penalty>
6.22371

> <r_epik_Ionization_Penalty_Charging>
6.22362

> <r_epik_Ionization_Penalty_Neutral>
9.40454e-05

> <r_epik_State_Penalty>
6.22363

> <r_epik_Charging_Adjusted_Penalty>
12.4472

> <i_epik_Tot_Q>
0

> <i_epik_Tot_abs_Q>
2

> <r_epik_Metal_State_Penalty>
2.16675

> <b_epik_Metal_Only>
1

> <s_lp_Force_Field>
OPLS_2005

> <r_lp_Energy>
9.70106

> <b_lp_Chiralities_Consistent>
1

> <s_lp_Variant>
AV-unprocessed.smi:2079-6

> <Gold.Version>
5.8.1

> <Gold.Id.Protein>
6NUR|6NUR_protein|mol2

> <Gold.PLP.Fitness>
42.7311

> <Gold.PLP.PLP>
-37.6763

> <Gold.PLP.part.hbond>
-3.4263

> <Gold.PLP.part.metal>
0.0000

> <Gold.PLP.part.buried>
-5.5430

> <Gold.PLP.part.nonpolar>
-29.6291

> <Gold.PLP.part.repulsive>
0.2091

> <Gold.PLP.ligand.clash>
0.0000

> <Gold.PLP.ligand.torsion>
0.9559

> <Gold.PLP.Chemscore.Hbond>
2.3000

> <Gold.PLP.Chemscore.CHOScore>
0.0000

> <Gold.PLP.Chemscore.Metal>
0.0000

> <Gold.Chemscore.Hbonds>
donor molecule, donor type, donor heavy atom, donor atom, acceptor molecule, acceptor atom, score
      P1  H  6896  6908       L1     5  2.00
      P1  H  6934  6947       L1    19  0.40

> <Gold.PLP.Chemscore.Internal.Correction>
0.0667

> <Gold.Rescore>
     Score         DG    S(hbond)    S(metal)    S(lipo)     H(rot)  DE(clash)    DE(int)     intcor
     14.54     -16.74       0.95        0.00     102.76       1.54       0.02       2.18       ----

> <Gold.Chemscore.Fitness>
14.5381

> <Gold.Chemscore.DG>
-16.7436

> <Gold.Chemscore.ZeroCoef>
-5.4800

> <Gold.Chemscore.Hbond>
0.9536

> <Gold.Chemscore.Metal>
0.0000

> <Gold.Chemscore.Lipo>
102.7633

> <Gold.Chemscore.Internal_Hbond>
0.0000

> <Gold.Chemscore.DEClash>
0.0247

> <Gold.Chemscore.DEInternal>
2.1808

> <Gold.Chemscore.Rot>
1.5409

> <Gold.Chemscore.Internal.Correction>
   9.000000E+99

> <Gold.Chemscore.Hbonds>
donor molecule, donor type, donor heavy atom, donor atom, acceptor molecule, acceptor atom, score
      P1  H  6896  6908       L1     5  0.93
      P1  H  6934  6947       L1    19  0.01

> <Gold.Chemscore.Hbond.Weighted>
-3.1849

> <Gold.Chemscore.Metal.Weighted>
-0.0000

> <Gold.Chemscore.Lipo.Weighted>
-12.0233

> <Gold.Chemscore.Internal_Hbond.Weighted>
0.0000

> <Gold.Chemscore.DEClash.Weighted>
0.0247

> <Gold.Chemscore.DEInternal.Weighted>
2.1808

> <Gold.Chemscore.Rot.Weighted>
3.9446

> <Gold.Chemscore.Internal.Correction.Weighted>
   9.000000E+99

> <Gold.Protein.RotatedTorsions>
[ 6907 6896 6895 6894 ] final -159.15 input  -60.11 | X-H torsion
[ 7974 7965 7964 7962 ] final -100.57 input  175.53 | X-H torsion
[ 8008 7997 7996 7995 ] final  -44.46 input   59.86 | X-H torsion
[ 10167 10162 10161 10158 ] final  -45.29 input  -65.29 | X-H torsion
[ 10718 10713 10712 10709 ] final  -34.03 input   66.30 | X-H torsion
[ 10763 10752 10751 10750 ] final  108.48 input  -60.55 | X-H torsion
[ 11005 11000 10999 10996 ] final  -70.19 input  -57.11 | X-H torsion

> <Gold.Protein.ActiveResidues>
 VAL166  LYS551  ARG553  GLY616  TRP617  ASP618  TYR619  PRO620  LYS621  CYS622 
 ASP623  PHE694  ASN695  SER759  ASP760  ASP761  ALA762  ILE779  LEU786  VAL792 
 PHE793  MET794  SER795  GLU796  ALA797  LYS798  CYS799  TRP800  GLU811  SER814 

> <Gold.Protein.RotatedAtoms>
  151.3291  133.4008  159.2660 H   0  0  0  0  0  0  0  0  0  0  0  0  # atno 6907 bound_to 6896
  150.9971  134.9292  159.7943 H   0  0  0  0  0  0  0  0  0  0  0  0  # atno 6908 bound_to 6896
  152.5264  134.3256  159.9216 H   0  0  0  0  0  0  0  0  0  0  0  0  # atno 6909 bound_to 6896
  145.2928  140.9357  143.2868 H   0  0  0  0  0  0  0  0  0  0  0  0  # atno 7974 bound_to 7965
  154.3997  140.1421  156.3688 H   0  0  0  0  0  0  0  0  0  0  0  0  # atno 8008 bound_to 7997
  155.8112  140.3472  155.5438 H   0  0  0  0  0  0  0  0  0  0  0  0  # atno 8009 bound_to 7997
  155.8384  140.0923  157.1740 H   0  0  0  0  0  0  0  0  0  0  0  0  # atno 8010 bound_to 7997
  140.6864  143.2887  151.3617 H   0  0  0  0  0  0  0  0  0  0  0  0  # atno 10167 bound_to 10162
  156.3555  130.4315  149.7668 H   0  0  0  0  0  0  0  0  0  0  0  0  # atno 10718 bound_to 10713
  153.4213  135.3810  155.2113 H   0  0  0  0  0  0  0  0  0  0  0  0  # atno 10763 bound_to 10752
  154.8745  135.3818  154.4380 H   0  0  0  0  0  0  0  0  0  0  0  0  # atno 10764 bound_to 10752
  153.4901  135.7088  153.5952 H   0  0  0  0  0  0  0  0  0  0  0  0  # atno 10765 bound_to 10752
  141.1569  133.6783  156.6715 H   0  0  0  0  0  0  0  0  0  0  0  0  # atno 11005 bound_to 11000
  144.9158  139.4472  143.6565 LP  0  0  0  0  0  0  0  0  0  0  0  0  # atno 17320 bound_to 7965
  146.3179  139.7992  142.8969 LP  0  0  0  0  0  0  0  0  0  0  0  0  # atno 17321 bound_to 7965
  139.6226  144.0877  152.2405 LP  0  0  0  0  0  0  0  0  0  0  0  0  # atno 17342 bound_to 10162
  140.0326  144.6069  150.7475 LP  0  0  0  0  0  0  0  0  0  0  0  0  # atno 17343 bound_to 10162
  156.4852  130.8059  151.3072 LP  0  0  0  0  0  0  0  0  0  0  0  0  # atno 17370 bound_to 10713
  157.7467  130.9993  150.2884 LP  0  0  0  0  0  0  0  0  0  0  0  0  # atno 17371 bound_to 10713
  140.3171  134.8038  157.4223 LP  0  0  0  0  0  0  0  0  0  0  0  0  # atno 17394 bound_to 11000
  140.1129  134.5322  155.8250 LP  0  0  0  0  0  0  0  0  0  0  0  0  # atno 17395 bound_to 11000

$$$$
