#       Name:                AV-unprocessed.smi:1082
#       Creating user name   scv26
#       Creation time:       Fri Mar 27 03:23:50 2020


#       File generated by GOLD software.
#

@<TRIPOS>MOLECULE
AV-unprocessed.smi:1082
    52    54     1
SMALL
NO_CHARGES


@<TRIPOS>ATOM
      1 ****         0.9687   1.8300  -1.1329 O.2            1 S1                 0.0000
      2 ****         0.3913   0.7430  -1.1618 C.2            1 S1                 0.0000
      3 ****         1.0098  -0.4271  -0.9507 N.am           1 S1                 0.0000
      4 ****         2.4291  -0.5768  -0.6527 C.3            1 S1                 0.0000
      5 ****         2.7155  -0.3318   0.8401 C.3            1 S1                 0.0000
      6 ****         4.1577  -0.4461   1.1612 N.4            1 S1                 1.0000
      7 ****         4.5149   0.0142   2.5250 C.3            1 S1                 0.0000
      8 ****         5.4583  -1.0385   3.1207 C.3            1 S1                 0.0000
      9 ****         5.9380  -1.8428   1.9184 C.3            1 S1                 0.0000
     10 ****         4.7364  -1.7952   0.9807 C.3            1 S1                 0.0000
     11 ****        -0.9228   0.5682  -1.3767 N.am           1 S1                 0.0000
     12 ****        -1.9105   1.5651  -1.6134 C.ar           1 S1                 0.0000
     13 ****        -1.6235   2.7759  -2.2887 C.ar           1 S1                 0.0000
     14 ****        -2.6609   3.6999  -2.5089 C.ar           1 S1                 0.0000
     15 ****        -3.9518   3.3770  -2.0540 C.ar           1 S1                 0.0000
     16 ****        -4.2444   2.2214  -1.4230 N.ar           1 S1                 0.0000
     17 ****        -3.2481   1.3296  -1.2031 C.ar           1 S1                 0.0000
     18 ****        -3.5839   0.1201  -0.5677 N.3            1 S1                 0.0000
     19 ****        -4.1655  -0.8812  -1.4550 C.3            1 S1                 0.0000
     20 ****        -5.4231  -1.4061  -0.7563 C.3            1 S1                 0.0000
     21 ****        -5.1574  -1.1143   0.7159 C.3            1 S1                 0.0000
     22 ****        -4.3784   0.1972   0.6542 C.3            1 S1                 0.0000
     23 ****         0.4580  -1.2718  -0.9915 H              1 S1                 0.0000
     24 ****         2.7194  -1.5882  -0.9366 H              1 S1                 0.0000
     25 ****         3.0173   0.1018  -1.2731 H              1 S1                 0.0000
     26 ****         2.3848   0.6726   1.1097 H              1 S1                 0.0000
     27 ****         2.1445  -1.0264   1.4582 H              1 S1                 0.0000
     28 ****         5.0103   0.9823   2.4453 H              1 S1                 0.0000
     29 ****         3.6381   0.1445   3.1612 H              1 S1                 0.0000
     30 ****         6.2788  -0.5974   3.6873 H              1 S1                 0.0000
     31 ****         4.9012  -1.6903   3.7952 H              1 S1                 0.0000
     32 ****         6.7930  -1.3480   1.4554 H              1 S1                 0.0000
     33 ****         6.2349  -2.8595   2.1776 H              1 S1                 0.0000
     34 ****         4.0113  -2.5543   1.2794 H              1 S1                 0.0000
     35 ****         5.0128  -1.9815  -0.0576 H              1 S1                 0.0000
     36 ****        -1.2756  -0.3712  -1.2643 H              1 S1                 0.0000
     37 ****        -0.6334   3.0018  -2.6542 H              1 S1                 0.0000
     38 ****        -2.4720   4.6319  -3.0209 H              1 S1                 0.0000
     39 ****        -4.7734   4.0606  -2.2084 H              1 S1                 0.0000
     40 ****        -4.3977  -0.4859  -2.4453 H              1 S1                 0.0000
     41 ****        -3.4397  -1.6846  -1.5821 H              1 S1                 0.0000
     42 ****        -6.2929  -0.8387  -1.0906 H              1 S1                 0.0000
     43 ****        -5.6115  -2.4611  -0.9566 H              1 S1                 0.0000
     44 ****        -6.0686  -1.0404   1.3099 H              1 S1                 0.0000
     45 ****        -4.5340  -1.9005   1.1440 H              1 S1                 0.0000
     46 ****        -3.7359   0.3197   1.5263 H              1 S1                 0.0000
     47 ****        -5.0721   1.0380   0.6319 H              1 S1                 0.0000
     48 ****         4.6532   0.1652   0.5279 H              1 S1                 0.0000
     49 ****         1.9499   1.8701  -0.9443 LP             1 S1                 0.0000
     50 ****         0.4564   2.6728  -1.2980 LP             1 S1                 0.0000
     51 ****        -5.1783   2.0265  -1.1233 LP             1 S1                 0.0000
     52 ****        -2.6722  -0.1726  -0.2795 LP             1 S1                 0.0000
@<TRIPOS>BOND
    1    1    2 2     
    2    2    3 am    
    3    2   11 am    
    4    3    4 1     
    5    3   23 1     
    6    4    5 1     
    7    4   24 1     
    8    4   25 1     
    9    5    6 1     
   10    5   26 1     
   11    5   27 1     
   12    6   10 1     
   13    6    7 1     
   14    6   48 1     
   15    7    8 1     
   16    7   28 1     
   17    7   29 1     
   18    8    9 1     
   19    8   30 1     
   20    8   31 1     
   21    9   10 1     
   22    9   32 1     
   23    9   33 1     
   24   10   34 1     
   25   10   35 1     
   26   11   12 1     
   27   11   36 1     
   28   12   17 ar    
   29   12   13 ar    
   30   13   14 ar    
   31   13   37 1     
   32   14   15 ar    
   33   14   38 1     
   34   15   16 ar    
   35   15   39 1     
   36   16   17 ar    
   37   17   18 1     
   38   18   22 1     
   39   18   19 1     
   40   19   20 1     
   41   19   40 1     
   42   19   41 1     
   43   20   21 1     
   44   20   42 1     
   45   20   43 1     
   46   21   22 1     
   47   21   44 1     
   48   21   45 1     
   49   22   46 1     
   50   22   47 1     
   51    1   49 1     
   52    1   50 1     
   53   16   51 1     
   54   18   52 1     
@<TRIPOS>SUBSTRUCTURE
      1 S1             1
@<TRIPOS>SET
LONE_PAIRS      STATIC     ATOMS    <user>   **** ""
4 49 50 51 52
DONOR_HYDROGENS      STATIC     ATOMS    <user>   **** ""
3 23 48 36
ATOM$BLUE        STATIC     ATOMS    COLORGROUP SYSTEM
4 49 50 51 52
ATOM$RED        STATIC     ATOMS    COLORGROUP SYSTEM
3 23 48 36
