#       Name:                AV-unprocessed.smi:2469
#       Creating user name   scv26
#       Creation time:       Fri Mar 27 13:37:22 2020


#       File generated by GOLD software.
#

@<TRIPOS>MOLECULE
AV-unprocessed.smi:2469
    39    40     1
SMALL
NO_CHARGES


@<TRIPOS>ATOM
      1 ****        -2.3649   5.5550   0.8746 O.3            1 S1                 0.0000
      2 ****        -2.4007   5.0299  -0.4354 C.3            1 S1                 0.0000
      3 ****        -2.0249   3.5432  -0.4223 C.3            1 S1                 0.0000
      4 ****        -0.6050   3.4244  -0.4312 O.3            1 S1                 0.0000
      5 ****        -0.0488   2.1617  -0.4289 C.ar           1 S1                 0.0000
      6 ****         1.3551   2.0443  -0.4305 C.ar           1 S1                 0.0000
      7 ****         1.9277   0.7583  -0.4276 C.ar           1 S1                 0.0000
      8 ****         1.0857  -0.3722  -0.4221 C.ar           1 S1                 0.0000
      9 ****         1.6675  -1.6490  -0.4189 N.pl3          1 S1                 0.0000
     10 ****         0.8745  -2.8480  -0.1789 C.3            1 S1                 0.0000
     11 ****         0.4184  -2.9999   1.2597 C.3            1 S1                 0.0000
     12 ****         0.1034  -4.4909   1.3235 C.3            1 S1                 0.0000
     13 ****         1.0093  -5.1183   0.4191 O.3            1 S1                 0.0000
     14 ****         1.6782  -4.1337  -0.3642 C.3            1 S1                 0.0000
     15 ****        -0.3119  -0.1473  -0.4249 C.ar           1 S1                 0.0000
     16 ****        -0.8690   1.0822  -0.4275 N.ar           1 S1                 0.0000
     17 ****        -2.6169   6.4651   0.8405 H              1 S1                 0.0000
     18 ****        -3.4181   5.1493  -0.8089 H              1 S1                 0.0000
     19 ****        -1.7456   5.6003  -1.0944 H              1 S1                 0.0000
     20 ****        -2.4696   3.0375   0.4369 H              1 S1                 0.0000
     21 ****        -2.4211   3.0739  -1.3244 H              1 S1                 0.0000
     22 ****         1.9812   2.9244  -0.4332 H              1 S1                 0.0000
     23 ****         3.0022   0.6454  -0.4279 H              1 S1                 0.0000
     24 ****         2.6732  -1.7278  -0.3701 H              1 S1                 0.0000
     25 ****         0.0148  -2.8765  -0.8497 H              1 S1                 0.0000
     26 ****         1.2317  -2.7625   1.9475 H              1 S1                 0.0000
     27 ****        -0.4380  -2.3758   1.5153 H              1 S1                 0.0000
     28 ****         0.2010  -4.8944   2.3315 H              1 S1                 0.0000
     29 ****        -0.9143  -4.6794   0.9797 H              1 S1                 0.0000
     30 ****         1.7519  -4.4350  -1.4094 H              1 S1                 0.0000
     31 ****         2.6905  -4.0209   0.0272 H              1 S1                 0.0000
     32 ****        -1.0171  -0.9645  -0.4265 H              1 S1                 0.0000
     33 ****        -1.4394   5.4751   1.2447 LP             1 S1                 0.0000
     34 ****        -3.0017   5.0505   1.4576 LP             1 S1                 0.0000
     35 ****        -0.2643   3.8983   0.3808 LP             1 S1                 0.0000
     36 ****        -0.2752   3.8906  -1.2521 LP             1 S1                 0.0000
     37 ****         0.5016  -5.7327  -0.1848 LP             1 S1                 0.0000
     38 ****         1.6842  -5.6432   0.9377 LP             1 S1                 0.0000
     39 ****        -1.8627   1.1942  -0.4283 LP             1 S1                 0.0000
@<TRIPOS>BOND
    1    1    2 1     
    2    1   17 1     
    3    2    3 1     
    4    2   18 1     
    5    2   19 1     
    6    3    4 1     
    7    3   20 1     
    8    3   21 1     
    9    4    5 1     
   10    5   16 ar    
   11    5    6 ar    
   12    6    7 ar    
   13    6   22 1     
   14    7    8 ar    
   15    7   23 1     
   16    8    9 1     
   17    8   15 ar    
   18    9   10 1     
   19    9   24 1     
   20   10   14 1     
   21   10   11 1     
   22   10   25 1     
   23   11   12 1     
   24   11   26 1     
   25   11   27 1     
   26   12   13 1     
   27   12   28 1     
   28   12   29 1     
   29   13   14 1     
   30   14   30 1     
   31   14   31 1     
   32   15   16 ar    
   33   15   32 1     
   34    1   33 1     
   35    1   34 1     
   36    4   35 1     
   37    4   36 1     
   38   13   37 1     
   39   13   38 1     
   40   16   39 1     
@<TRIPOS>SUBSTRUCTURE
      1 S1             1
@<TRIPOS>SET
LONE_PAIRS      STATIC     ATOMS    <user>   **** ""
7 33 34 35 36 37 38 39
DONOR_HYDROGENS      STATIC     ATOMS    <user>   **** ""
2 17 24
ATOM$BLUE        STATIC     ATOMS    COLORGROUP SYSTEM
7 33 34 35 36 37 38 39
ATOM$RED        STATIC     ATOMS    COLORGROUP SYSTEM
2 17 24
