AV-unprocessed.smi:237|AV-procd|sdf|1817|dock3
  -GOLD-   2262020413D 1   1.00000     0.00000
 Structure written by MMmdl.
 53 56  0  0  0  0  0  0  0  0  1 V2000
  153.5957  136.7346  162.7132 C   0  0  0  0  0  0  0  0  0  0  0  0
  154.9159  137.4614  162.4459 C   0  0  0  0  0  0  0  0  0  0  0  0
  154.6339  138.6844  161.7822 O   0  0  0  0  0  0  0  0  0  0  0  0
  153.8716  138.5486  160.5885 C   0  0  0  0  0  0  0  0  0  0  0  0
  153.5689  139.8991  159.8858 C   0  0  2  0  0  0  0  0  0  0  0  0
  153.5508  141.0236  160.9452 C   0  0  0  0  0  0  0  0  0  0  0  0
  153.1907  142.3842  160.3330 C   0  0  0  0  0  0  0  0  0  0  0  0
  151.8516  142.2839  159.5943 C   0  0  0  0  0  0  0  0  0  0  0  0
  151.9053  141.1651  158.5454 C   0  0  0  0  0  0  0  0  0  0  0  0
  152.2934  139.8904  159.1492 N   0  0  0  0  0  0  0  0  0  0  0  0
  152.1415  138.8801  158.2641 C   0  0  0  0  0  0  0  0  0  0  0  0
  153.0895  138.7493  157.3042 N   0  0  0  0  0  0  0  0  0  0  0  0
  152.9780  137.7861  156.3845 C   0  0  0  0  0  0  0  0  0  0  0  0
  152.0188  136.8675  156.2485 N   0  0  0  0  0  0  0  0  0  0  0  0
  151.0721  136.9894  157.2232 C   0  0  0  0  0  0  0  0  0  0  0  0
  151.0575  137.9572  158.2654 C   0  0  0  0  0  0  0  0  0  0  0  0
  149.9356  137.7768  159.0650 N   0  0  0  0  0  0  0  0  0  0  0  0
  149.3161  136.7668  158.5187 C   0  0  0  0  0  0  0  0  0  0  0  0
  149.9343  136.2242  157.4139 N   0  0  0  0  0  0  0  0  0  0  0  0
  149.4671  135.1085  156.6035 C   0  0  0  0  0  0  0  0  0  0  0  0
  148.9780  135.4933  155.1864 C   0  0  0  0  0  0  0  0  0  0  0  0
  148.5741  134.2049  154.4567 C   0  0  0  0  0  0  0  0  0  0  0  0
  147.8217  134.4867  153.2940 O   0  0  0  0  0  0  0  0  0  0  0  0
  148.0079  136.6814  155.0570 C   0  0  0  0  0  0  0  0  0  0  0  0
  149.0720  137.5754  154.6675 O   0  0  0  0  0  0  0  0  0  0  0  0
  149.9047  136.4295  154.3928 C   0  0  0  0  0  0  0  0  0  0  0  0
  153.7695  135.7823  163.2144 H   0  0  0  0  0  0  0  0  0  0  0  0
  153.0644  136.5308  161.7836 H   0  0  0  0  0  0  0  0  0  0  0  0
  152.9419  137.3332  163.3477 H   0  0  0  0  0  0  0  0  0  0  0  0
  155.4283  137.6545  163.3894 H   0  0  0  0  0  0  0  0  0  0  0  0
  155.5662  136.8289  161.8424 H   0  0  0  0  0  0  0  0  0  0  0  0
  154.4194  137.8990  159.9047 H   0  0  0  0  0  0  0  0  0  0  0  0
  152.9468  138.0183  160.8221 H   0  0  0  0  0  0  0  0  0  0  0  0
  154.3684  140.1362  159.1848 H   0  0  0  0  0  0  0  0  0  0  0  0
  152.8300  140.7798  161.7271 H   0  0  0  0  0  0  0  0  0  0  0  0
  154.5234  141.0928  161.4336 H   0  0  0  0  0  0  0  0  0  0  0  0
  153.1362  143.1456  161.1114 H   0  0  0  0  0  0  0  0  0  0  0  0
  153.9731  142.6975  159.6406 H   0  0  0  0  0  0  0  0  0  0  0  0
  151.0510  142.0816  160.3071 H   0  0  0  0  0  0  0  0  0  0  0  0
  151.6121  143.2343  159.1169 H   0  0  0  0  0  0  0  0  0  0  0  0
  150.9293  141.0676  158.0668 H   0  0  0  0  0  0  0  0  0  0  0  0
  152.6177  141.4316  157.7634 H   0  0  0  0  0  0  0  0  0  0  0  0
  153.7688  137.7475  155.6501 H   0  0  0  0  0  0  0  0  0  0  0  0
  148.3815  136.3924  158.9093 H   0  0  0  0  0  0  0  0  0  0  0  0
  150.2807  134.3851  156.5377 H   0  0  0  0  0  0  0  0  0  0  0  0
  148.6773  134.6097  157.1658 H   0  0  0  0  0  0  0  0  0  0  0  0
  149.4537  133.6359  154.1538 H   0  0  0  0  0  0  0  0  0  0  0  0
  147.9901  133.5524  155.1066 H   0  0  0  0  0  0  0  0  0  0  0  0
  148.3208  135.0740  152.7470 H   0  0  0  0  0  0  0  0  0  0  0  0
  147.2726  136.5629  154.2594 H   0  0  0  0  0  0  0  0  0  0  0  0
  147.5177  136.9798  155.9825 H   0  0  0  0  0  0  0  0  0  0  0  0
  150.9107  136.5255  154.7989 H   0  0  0  0  0  0  0  0  0  0  0  0
  149.9463  136.2121  153.3241 H   0  0  0  0  0  0  0  0  0  0  0  0
  1  2  1  0  0  0  0
  1 27  1  0  0  0  0
  1 28  1  0  0  0  0
  1 29  1  0  0  0  0
  2  3  1  0  0  0  0
  2 30  1  0  0  0  0
  2 31  1  0  0  0  0
  3  4  1  0  0  0  0
  4  5  1  0  0  0  0
  4 32  1  0  0  0  0
  4 33  1  0  0  0  0
  5 10  1  0  0  0  0
  5  6  1  0  0  0  0
  5 34  1  0  0  0  0
  6  7  1  0  0  0  0
  6 35  1  0  0  0  0
  6 36  1  0  0  0  0
  7  8  1  0  0  0  0
  7 37  1  0  0  0  0
  7 38  1  0  0  0  0
  8  9  1  0  0  0  0
  8 39  1  0  0  0  0
  8 40  1  0  0  0  0
  9 10  1  0  0  0  0
  9 41  1  0  0  0  0
  9 42  1  0  0  0  0
 10 11  1  0  0  0  0
 11 16  1  0  0  0  0
 11 12  2  0  0  0  0
 12 13  1  0  0  0  0
 13 14  2  0  0  0  0
 13 43  1  0  0  0  0
 14 15  1  0  0  0  0
 15 19  1  0  0  0  0
 15 16  2  0  0  0  0
 16 17  1  0  0  0  0
 17 18  2  0  0  0  0
 18 19  1  0  0  0  0
 18 44  1  0  0  0  0
 19 20  1  0  0  0  0
 20 21  1  0  0  0  0
 20 45  1  0  0  0  0
 20 46  1  0  0  0  0
 21 26  1  0  0  0  0
 21 22  1  0  0  0  0
 21 24  1  0  0  0  0
 22 23  1  0  0  0  0
 22 47  1  0  0  0  0
 22 48  1  0  0  0  0
 23 49  1  0  0  0  0
 24 25  1  0  0  0  0
 24 50  1  0  0  0  0
 24 51  1  0  0  0  0
 25 26  1  0  0  0  0
 26 52  1  0  0  0  0
 26 53  1  0  0  0  0
M  END
> <s_m_source_file>
AV-unprocessed.smi

> <i_m_source_file_index>
237

> <i_lp_mmshare_version>
43012

> <i_f3d_flags>
0

> <s_epik_input>
W0NIM11bQ0gyXU9bQ0gyXVtDQEBIXTFbQ0gyXVtDSDJdW0NIMl1bQ0gyXU4xYyhuW2NIXW4yKWMoYzIzKW5bY0hdbjNbQ0gyXUM0KFtDSDJdW09IXSlbQ0gyXU9bQ0gyXTQ=

> <s_epik_cmdline>
J2VwaWtfcHl0aG9uJywgJy1waCcsICc3LjAnLCAnLXRuJywgJzgnLCAnLW1hJywgJzIwMCcsICctbWV0YWxfYmluZGluZycsICctaW1hZScsICc8aW5maWxlLm1hZT4nLCAnLW9tYWUnLCAnPG91dGZpbGUubWFlPic=

> <r_lp_tautomer_probability>
1

> <r_epik_Ionization_Penalty>
0.00358373

> <r_epik_Ionization_Penalty_Charging>
0

> <r_epik_Ionization_Penalty_Neutral>
0.00358373

> <r_epik_State_Penalty>
0.00240903

> <r_epik_Charging_Adjusted_Penalty>
0.00240903

> <i_epik_Tot_Q>
0

> <i_epik_Tot_abs_Q>
0

> <r_epik_Metal_State_Penalty>
-0

> <b_epik_Metal_Only>
0

> <s_lp_Force_Field>
OPLS_2005

> <r_lp_Energy>
38.4441

> <b_lp_Chiralities_Consistent>
1

> <s_lp_Variant>
AV-unprocessed.smi:237-1

> <Gold.Version>
5.8.1

> <Gold.Id.Protein>
6NUR|6NUR_protein|mol2

> <Gold.PLP.Fitness>
43.1305

> <Gold.PLP.PLP>
-36.8658

> <Gold.PLP.part.hbond>
-3.5621

> <Gold.PLP.part.metal>
0.0000

> <Gold.PLP.part.buried>
-4.4189

> <Gold.PLP.part.nonpolar>
-29.3263

> <Gold.PLP.part.repulsive>
0.1641

> <Gold.PLP.ligand.clash>
0.0000

> <Gold.PLP.ligand.torsion>
1.0675

> <Gold.PLP.Chemscore.Hbond>
2.5688

> <Gold.PLP.Chemscore.CHOScore>
0.0000

> <Gold.PLP.Chemscore.Metal>
0.0000

> <Gold.Chemscore.Hbonds>
donor molecule, donor type, donor heavy atom, donor atom, acceptor molecule, acceptor atom, score
      L1  H    23    49       P1  7948  1.00
      P1  H  7997  8009       L1    12  1.00
      P1  H 10752 10764       L1    14  0.50

> <Gold.PLP.Chemscore.Internal.Correction>
0.6935

> <Gold.Rescore>
     Score         DG    S(hbond)    S(metal)    S(lipo)     H(rot)  DE(clash)    DE(int)     intcor
     12.57     -14.60       1.97        0.00      88.81       3.06       0.16       1.88       ----

> <Gold.Chemscore.Fitness>
12.5651

> <Gold.Chemscore.DG>
-14.5991

> <Gold.Chemscore.ZeroCoef>
-5.4800

> <Gold.Chemscore.Hbond>
1.9660

> <Gold.Chemscore.Metal>
0.0000

> <Gold.Chemscore.Lipo>
88.8145

> <Gold.Chemscore.Internal_Hbond>
0.0000

> <Gold.Chemscore.DEClash>
0.1568

> <Gold.Chemscore.DEInternal>
1.8772

> <Gold.Chemscore.Rot>
3.0620

> <Gold.Chemscore.Internal.Correction>
   9.000000E+99

> <Gold.Chemscore.Hbonds>
donor molecule, donor type, donor heavy atom, donor atom, acceptor molecule, acceptor atom, score
      L1  H    23    49       P1  7948  0.75
      P1  H  7997  8009       L1    12  0.78
      P1  H 10752 10764       L1    14  0.06

> <Gold.Chemscore.Hbond.Weighted>
-6.5666

> <Gold.Chemscore.Metal.Weighted>
-0.0000

> <Gold.Chemscore.Lipo.Weighted>
-10.3913

> <Gold.Chemscore.Internal_Hbond.Weighted>
0.0000

> <Gold.Chemscore.DEClash.Weighted>
0.1568

> <Gold.Chemscore.DEInternal.Weighted>
1.8772

> <Gold.Chemscore.Rot.Weighted>
7.8388

> <Gold.Chemscore.Internal.Correction.Weighted>
   9.000000E+99

> <Gold.Protein.RotatedTorsions>
[ 6907 6896 6895 6894 ] final  -56.23 input  -60.11 | X-H torsion
[ 7974 7965 7964 7962 ] final   58.48 input  175.53 | X-H torsion
[ 8008 7997 7996 7995 ] final  168.28 input   59.86 | X-H torsion
[ 10167 10162 10161 10158 ] final -160.18 input  -65.29 | X-H torsion
[ 10718 10713 10712 10709 ] final -119.30 input   66.30 | X-H torsion
[ 10763 10752 10751 10750 ] final  -21.93 input  -60.55 | X-H torsion
[ 11005 11000 10999 10996 ] final  131.95 input  -57.11 | X-H torsion

> <Gold.Protein.ActiveResidues>
 VAL166  LYS551  ARG553  GLY616  TRP617  ASP618  TYR619  PRO620  LYS621  CYS622 
 ASP623  PHE694  ASN695  SER759  ASP760  ASP761  ALA762  ILE779  LEU786  VAL792 
 PHE793  MET794  SER795  GLU796  ALA797  LYS798  CYS799  TRP800  GLU811  SER814 

> <Gold.Protein.RotatedAtoms>
  150.8185  134.7379  159.6750 H   0  0  0  0  0  0  0  0  0  0  0  0  # atno 6907 bound_to 6896
  152.4302  134.5789  159.9952 H   0  0  0  0  0  0  0  0  0  0  0  0  # atno 6908 bound_to 6896
  151.5979  133.3322  159.3077 H   0  0  0  0  0  0  0  0  0  0  0  0  # atno 6909 bound_to 6896
  145.9178  139.3705  143.0497 H   0  0  0  0  0  0  0  0  0  0  0  0  # atno 7974 bound_to 7965
  156.1560  140.1594  156.8691 H   0  0  0  0  0  0  0  0  0  0  0  0  # atno 8008 bound_to 7997
  154.5115  140.0800  156.8036 H   0  0  0  0  0  0  0  0  0  0  0  0  # atno 8009 bound_to 7997
  155.3802  140.3404  155.4249 H   0  0  0  0  0  0  0  0  0  0  0  0  # atno 8010 bound_to 7997
  139.6558  144.0001  152.2193 H   0  0  0  0  0  0  0  0  0  0  0  0  # atno 10167 bound_to 10162
  156.1171  130.6294  150.9399 H   0  0  0  0  0  0  0  0  0  0  0  0  # atno 10718 bound_to 10713
  153.6440  135.6984  153.5232 H   0  0  0  0  0  0  0  0  0  0  0  0  # atno 10763 bound_to 10752
  153.2760  135.4200  155.1032 H   0  0  0  0  0  0  0  0  0  0  0  0  # atno 10764 bound_to 10752
  154.8493  135.3590  154.5984 H   0  0  0  0  0  0  0  0  0  0  0  0  # atno 10765 bound_to 10752
  139.9761  134.9563  156.9512 H   0  0  0  0  0  0  0  0  0  0  0  0  # atno 11005 bound_to 11000
  145.8589  140.9486  143.0710 LP  0  0  0  0  0  0  0  0  0  0  0  0  # atno 17320 bound_to 7965
  144.6749  140.0505  143.7479 LP  0  0  0  0  0  0  0  0  0  0  0  0  # atno 17321 bound_to 7965
  139.9727  144.6483  150.7974 LP  0  0  0  0  0  0  0  0  0  0  0  0  # atno 17342 bound_to 10162
  140.7558  143.3054  151.2975 LP  0  0  0  0  0  0  0  0  0  0  0  0  # atno 17343 bound_to 10162
  157.6354  131.0916  150.8359 LP  0  0  0  0  0  0  0  0  0  0  0  0  # atno 17370 bound_to 10713
  156.8461  130.5064  149.5316 LP  0  0  0  0  0  0  0  0  0  0  0  0  # atno 17371 bound_to 10713
  140.5192  134.0924  155.7288 LP  0  0  0  0  0  0  0  0  0  0  0  0  # atno 17394 bound_to 11000
  141.1438  133.9092  157.2265 LP  0  0  0  0  0  0  0  0  0  0  0  0  # atno 17395 bound_to 11000

$$$$
