#       Name:                AV-unprocessed.smi:2035
#       Creating user name   scv26
#       Creation time:       Fri Mar 27 10:54:10 2020


#       File generated by GOLD software.
#

@<TRIPOS>MOLECULE
AV-unprocessed.smi:2035
    39    40     1
SMALL
NO_CHARGES


@<TRIPOS>ATOM
      1 ****         1.3758   0.8767  -0.4206 O.2            1 S1                 0.0000
      2 ****         1.0700  -0.2108   0.0671 C.2            1 S1                 0.0000
      3 ****         1.9160  -1.2239   0.3253 N.am           1 S1                 0.0000
      4 ****         3.3214  -1.3142   0.1184 C.ar           1 S1                 0.0000
      5 ****         3.9483  -2.5249   0.4807 C.ar           1 S1                 0.0000
      6 ****         5.3384  -2.6573   0.2919 C.ar           1 S1                 0.0000
      7 ****         6.1128  -1.6794  -0.2218 N.ar           1 S1                 0.0000
      8 ****         5.5139  -0.5206  -0.5676 C.ar           1 S1                 0.0000
      9 ****         4.1320  -0.2846  -0.4203 C.ar           1 S1                 0.0000
     10 ****        -0.1849  -0.5349   0.4122 N.am           1 S1                 0.0000
     11 ****        -1.3567   0.3354   0.2968 C.3            1 S1                 0.0000
     12 ****        -1.9294   0.2696  -1.1369 C.3            1 S1                 0.0000
     13 ****        -2.7728   1.4935  -1.5297 C.3            1 S1                 0.0000
     14 ****        -4.0441   1.6986  -0.6923 C.3            1 S1                 0.0000
     15 ****        -3.7661   2.0192   0.7863 C.3            1 S1                 0.0000
     16 ****        -3.4380   0.8317   1.5652 N.am           1 S1                 0.0000
     17 ****        -2.3823   0.0197   1.4020 C.2            1 S1                 0.0000
     18 ****        -2.2385  -0.9691   2.1208 O.2            1 S1                 0.0000
     19 ****         1.4941  -2.0489   0.7258 H              1 S1                 0.0000
     20 ****         3.3778  -3.3424   0.8970 H              1 S1                 0.0000
     21 ****         5.8413  -3.5742   0.5614 H              1 S1                 0.0000
     22 ****         6.1569   0.2452  -0.9759 H              1 S1                 0.0000
     23 ****         3.7386   0.6723  -0.7225 H              1 S1                 0.0000
     24 ****        -0.3469  -1.4490   0.8098 H              1 S1                 0.0000
     25 ****        -1.0129   1.3545   0.4842 H              1 S1                 0.0000
     26 ****        -1.1103   0.1993  -1.8540 H              1 S1                 0.0000
     27 ****        -2.5118  -0.6438  -1.2667 H              1 S1                 0.0000
     28 ****        -2.1551   2.3910  -1.4798 H              1 S1                 0.0000
     29 ****        -3.0616   1.3914  -2.5762 H              1 S1                 0.0000
     30 ****        -4.5978   2.5332  -1.1239 H              1 S1                 0.0000
     31 ****        -4.6995   0.8306  -0.7767 H              1 S1                 0.0000
     32 ****        -2.9815   2.7703   0.8871 H              1 S1                 0.0000
     33 ****        -4.6622   2.4524   1.2312 H              1 S1                 0.0000
     34 ****        -4.0861   0.5930   2.3020 H              1 S1                 0.0000
     35 ****         2.3276   1.0667  -0.6616 LP             1 S1                 0.0000
     36 ****         0.6726   1.5705  -0.5760 LP             1 S1                 0.0000
     37 ****         7.0971  -1.8088  -0.3422 LP             1 S1                 0.0000
     38 ****        -1.4523  -1.5729   1.9891 LP             1 S1                 0.0000
     39 ****        -2.9078  -1.1686   2.8365 LP             1 S1                 0.0000
@<TRIPOS>BOND
    1    1    2 2     
    2    2    3 am    
    3    2   10 am    
    4    3    4 1     
    5    3   19 1     
    6    4    9 ar    
    7    4    5 ar    
    8    5    6 ar    
    9    5   20 1     
   10    6    7 ar    
   11    6   21 1     
   12    7    8 ar    
   13    8    9 ar    
   14    8   22 1     
   15    9   23 1     
   16   10   11 1     
   17   10   24 1     
   18   11   17 1     
   19   11   12 1     
   20   11   25 1     
   21   12   13 1     
   22   12   26 1     
   23   12   27 1     
   24   13   14 1     
   25   13   28 1     
   26   13   29 1     
   27   14   15 1     
   28   14   30 1     
   29   14   31 1     
   30   15   16 1     
   31   15   32 1     
   32   15   33 1     
   33   16   17 am    
   34   16   34 1     
   35   17   18 2     
   36    1   35 1     
   37    1   36 1     
   38    7   37 1     
   39   18   38 1     
   40   18   39 1     
@<TRIPOS>SUBSTRUCTURE
      1 S1             1
@<TRIPOS>SET
LONE_PAIRS      STATIC     ATOMS    <user>   **** ""
5 35 36 37 38 39
DONOR_HYDROGENS      STATIC     ATOMS    <user>   **** ""
3 19 24 34
ATOM$BLUE        STATIC     ATOMS    COLORGROUP SYSTEM
5 35 36 37 38 39
ATOM$RED        STATIC     ATOMS    COLORGROUP SYSTEM
3 19 24 34
