AV-unprocessed.smi:1075|AV-procd|sdf|4695|dock7
  -GOLD-   22720 3213D 1   1.00000     0.00000
 Structure written by MMmdl.
 50 51  0  0  0  0  0  0  0  0  1 V2000
  148.5589  138.8391  157.6004 C   0  0  0  0  0  0  0  0  0  0  0  0
  147.6092  139.8739  157.0682 C   0  0  0  0  0  0  0  0  0  0  0  0
  146.3235  139.7810  157.3609 N   0  0  0  0  0  0  0  0  0  0  0  0
  145.7534  140.8326  156.7416 N   0  0  0  0  0  0  0  0  0  0  0  0
  144.3218  141.0316  156.8574 C   0  0  0  0  0  0  0  0  0  0  0  0
  146.6798  141.5910  156.0520 C   0  0  0  0  0  0  0  0  0  0  0  0
  146.2805  142.8080  155.2780 C   0  0  0  0  0  0  0  0  0  0  0  0
  147.9041  141.0004  156.2439 C   0  0  0  0  0  0  0  0  0  0  0  0
  149.2690  141.3993  155.7181 C   0  0  2  0  0  0  0  0  0  0  0  0
  149.8068  140.3805  154.6955 C   0  0  0  0  0  0  0  0  0  0  0  0
  150.2284  141.6465  156.8947 C   0  0  0  0  0  0  0  0  0  0  0  0
  150.5629  140.7228  157.6369 O   0  0  0  0  0  0  0  0  0  0  0  0
  150.6531  142.9148  157.0452 N   0  0  0  0  0  0  0  0  0  0  0  0
  151.5057  143.4818  158.0967 C   0  0  1  0  0  0  0  0  0  0  0  0
  152.2182  144.7476  157.5649 C   0  0  0  0  0  0  0  0  0  0  0  0
  150.5494  143.8481  159.2598 C   0  0  0  0  0  0  0  0  0  0  0  0
  151.2705  144.2146  160.5689 C   0  0  0  0  0  0  0  0  0  0  0  0
  152.2287  143.0999  161.0184 C   0  0  2  0  0  0  0  0  0  0  0  0
  152.9449  143.4652  162.3263 C   0  0  0  0  0  0  0  0  0  0  0  0
  153.2301  142.7846  159.8957 C   0  0  0  0  0  0  0  0  0  0  0  0
  152.5192  142.4096  158.5838 C   0  0  0  0  0  0  0  0  0  0  0  0
  149.0972  138.3509  156.7878 H   0  0  0  0  0  0  0  0  0  0  0  0
  148.0399  138.0634  158.1647 H   0  0  0  0  0  0  0  0  0  0  0  0
  149.2963  139.2925  158.2628 H   0  0  0  0  0  0  0  0  0  0  0  0
  143.8471  140.8352  155.8960 H   0  0  0  0  0  0  0  0  0  0  0  0
  144.1161  142.0600  157.1547 H   0  0  0  0  0  0  0  0  0  0  0  0
  143.8987  140.3590  157.6047 H   0  0  0  0  0  0  0  0  0  0  0  0
  147.0352  143.0792  154.5411 H   0  0  0  0  0  0  0  0  0  0  0  0
  146.1411  143.6588  155.9450 H   0  0  0  0  0  0  0  0  0  0  0  0
  145.3470  142.6435  154.7397 H   0  0  0  0  0  0  0  0  0  0  0  0
  149.1976  142.3528  155.1937 H   0  0  0  0  0  0  0  0  0  0  0  0
  149.9330  139.3893  155.1314 H   0  0  0  0  0  0  0  0  0  0  0  0
  150.7727  140.6917  154.2959 H   0  0  0  0  0  0  0  0  0  0  0  0
  149.1231  140.2841  153.8517 H   0  0  0  0  0  0  0  0  0  0  0  0
  150.3110  143.5793  156.3661 H   0  0  0  0  0  0  0  0  0  0  0  0
  152.7941  145.2486  158.3420 H   0  0  0  0  0  0  0  0  0  0  0  0
  151.4999  145.4710  157.1779 H   0  0  0  0  0  0  0  0  0  0  0  0
  152.9149  144.5157  156.7596 H   0  0  0  0  0  0  0  0  0  0  0  0
  149.8924  144.6671  158.9636 H   0  0  0  0  0  0  0  0  0  0  0  0
  149.8925  143.0012  159.4666 H   0  0  0  0  0  0  0  0  0  0  0  0
  151.8177  145.1493  160.4452 H   0  0  0  0  0  0  0  0  0  0  0  0
  150.5296  144.3999  161.3474 H   0  0  0  0  0  0  0  0  0  0  0  0
  151.6380  142.2021  161.2065 H   0  0  0  0  0  0  0  0  0  0  0  0
  153.5602  144.3573  162.2063 H   0  0  0  0  0  0  0  0  0  0  0  0
  153.5944  142.6545  162.6577 H   0  0  0  0  0  0  0  0  0  0  0  0
  152.2284  143.6601  163.1247 H   0  0  0  0  0  0  0  0  0  0  0  0
  153.8831  143.6418  159.7291 H   0  0  0  0  0  0  0  0  0  0  0  0
  153.8804  141.9637  160.2000 H   0  0  0  0  0  0  0  0  0  0  0  0
  151.9969  141.4637  158.7376 H   0  0  0  0  0  0  0  0  0  0  0  0
  153.2713  142.2139  157.8193 H   0  0  0  0  0  0  0  0  0  0  0  0
  1  2  1  0  0  0  0
  1 22  1  0  0  0  0
  1 23  1  0  0  0  0
  1 24  1  0  0  0  0
  2  8  1  0  0  0  0
  2  3  2  0  0  0  0
  3  4  1  0  0  0  0
  4  5  1  0  0  0  0
  4  6  1  0  0  0  0
  5 25  1  0  0  0  0
  5 26  1  0  0  0  0
  5 27  1  0  0  0  0
  6  7  1  0  0  0  0
  6  8  2  0  0  0  0
  7 28  1  0  0  0  0
  7 29  1  0  0  0  0
  7 30  1  0  0  0  0
  8  9  1  0  0  0  0
  9 10  1  0  0  0  0
  9 11  1  0  0  0  0
  9 31  1  0  0  0  0
 10 32  1  0  0  0  0
 10 33  1  0  0  0  0
 10 34  1  0  0  0  0
 11 12  2  0  0  0  0
 11 13  1  0  0  0  0
 13 14  1  0  0  0  0
 13 35  1  0  0  0  0
 14 21  1  0  0  0  0
 14 15  1  0  0  0  0
 14 16  1  0  0  0  0
 15 36  1  0  0  0  0
 15 37  1  0  0  0  0
 15 38  1  0  0  0  0
 16 17  1  0  0  0  0
 16 39  1  0  0  0  0
 16 40  1  0  0  0  0
 17 18  1  0  0  0  0
 17 41  1  0  0  0  0
 17 42  1  0  0  0  0
 18 19  1  0  0  0  0
 18 20  1  0  0  0  0
 18 43  1  0  0  0  0
 19 44  1  0  0  0  0
 19 45  1  0  0  0  0
 19 46  1  0  0  0  0
 20 21  1  0  0  0  0
 20 47  1  0  0  0  0
 20 48  1  0  0  0  0
 21 49  1  0  0  0  0
 21 50  1  0  0  0  0
M  END
> <s_m_source_file>
AV-unprocessed.smi

> <i_m_source_file_index>
1075

> <i_lp_mmshare_version>
43012

> <i_f3d_flags>
0

> <s_epik_input>
W0NIM11jMW5uKFtDSDNdKWMoW0NIM10pYzFbQ0BIXShbQ0gzXSlDKD1PKVtOSF1bQ0BAXTIoW0NIM10pW0NIMl1bQ0gyXVtDQEBIXShbQ0gzXSlbQ0gyXVtDSDJdMg==

> <s_epik_cmdline>
J2VwaWtfcHl0aG9uJywgJy1waCcsICc3LjAnLCAnLXRuJywgJzgnLCAnLW1hJywgJzIwMCcsICctbWV0YWxfYmluZGluZycsICctaW1hZScsICc8aW5maWxlLm1hZT4nLCAnLW9tYWUnLCAnPG91dGZpbGUubWFlPic=

> <r_lp_tautomer_probability>
1

> <r_epik_Ionization_Penalty>
0.00502928

> <r_epik_Ionization_Penalty_Charging>
0

> <r_epik_Ionization_Penalty_Neutral>
0.00502928

> <r_epik_State_Penalty>
0.0036576

> <r_epik_Charging_Adjusted_Penalty>
0.0036576

> <i_epik_Tot_Q>
0

> <i_epik_Tot_abs_Q>
0

> <r_epik_Metal_State_Penalty>
-0

> <b_epik_Metal_Only>
0

> <s_lp_Force_Field>
OPLS_2005

> <r_lp_Energy>
7.43589

> <b_lp_Chiralities_Consistent>
1

> <s_lp_Variant>
AV-unprocessed.smi:1075-3

> <Gold.Version>
5.8.1

> <Gold.Id.Protein>
6NUR|6NUR_protein|mol2

> <Gold.PLP.Fitness>
39.3438

> <Gold.PLP.PLP>
-37.5457

> <Gold.PLP.part.hbond>
-1.0000

> <Gold.PLP.part.metal>
0.0000

> <Gold.PLP.part.buried>
-4.9758

> <Gold.PLP.part.nonpolar>
-30.6377

> <Gold.PLP.part.repulsive>
0.0285

> <Gold.PLP.ligand.clash>
0.0000

> <Gold.PLP.ligand.torsion>
0.6315

> <Gold.PLP.Chemscore.Hbond>
0.9920

> <Gold.PLP.Chemscore.CHOScore>
0.0000

> <Gold.PLP.Chemscore.Metal>
0.0000

> <Gold.Chemscore.Hbonds>
donor molecule, donor type, donor heavy atom, donor atom, acceptor molecule, acceptor atom, score
      L1  H    13    35       P1  8028  1.00

> <Gold.PLP.Chemscore.Internal.Correction>
0.0851

> <Gold.Rescore>
     Score         DG    S(hbond)    S(metal)    S(lipo)     H(rot)  DE(clash)    DE(int)     intcor
     14.94     -18.53       0.85        0.00     114.19       1.23       0.30       3.29       ----

> <Gold.Chemscore.Fitness>
14.9424

> <Gold.Chemscore.DG>
-18.5251

> <Gold.Chemscore.ZeroCoef>
-5.4800

> <Gold.Chemscore.Hbond>
0.8499

> <Gold.Chemscore.Metal>
0.0000

> <Gold.Chemscore.Lipo>
114.1938

> <Gold.Chemscore.Internal_Hbond>
0.0000

> <Gold.Chemscore.DEClash>
0.2970

> <Gold.Chemscore.DEInternal>
3.2857

> <Gold.Chemscore.Rot>
1.2321

> <Gold.Chemscore.Internal.Correction>
   9.000000E+99

> <Gold.Chemscore.Hbonds>
donor molecule, donor type, donor heavy atom, donor atom, acceptor molecule, acceptor atom, score
      L1  H    13    35       P1  8028  0.94

> <Gold.Chemscore.Hbond.Weighted>
-2.8385

> <Gold.Chemscore.Metal.Weighted>
-0.0000

> <Gold.Chemscore.Lipo.Weighted>
-13.3607

> <Gold.Chemscore.Internal_Hbond.Weighted>
0.0000

> <Gold.Chemscore.DEClash.Weighted>
0.2970

> <Gold.Chemscore.DEInternal.Weighted>
3.2857

> <Gold.Chemscore.Rot.Weighted>
3.1541

> <Gold.Chemscore.Internal.Correction.Weighted>
   9.000000E+99

> <Gold.Protein.RotatedTorsions>
[ 6907 6896 6895 6894 ] final  -88.32 input  -60.11 | X-H torsion
[ 7974 7965 7964 7962 ] final  146.83 input  175.53 | X-H torsion
[ 8008 7997 7996 7995 ] final -173.95 input   59.86 | X-H torsion
[ 10167 10162 10161 10158 ] final  164.19 input  -65.29 | X-H torsion
[ 10718 10713 10712 10709 ] final -105.90 input   66.30 | X-H torsion
[ 10763 10752 10751 10750 ] final  166.34 input  -60.55 | X-H torsion
[ 11005 11000 10999 10996 ] final -147.21 input  -57.11 | X-H torsion

> <Gold.Protein.ActiveResidues>
 VAL166  LYS551  ARG553  GLY616  TRP617  ASP618  TYR619  PRO620  LYS621  CYS622 
 ASP623  PHE694  ASN695  SER759  ASP760  ASP761  ALA762  ILE779  LEU786  VAL792 
 PHE793  MET794  SER795  GLU796  ALA797  LYS798  CYS799  TRP800  GLU811  SER814 

> <Gold.Protein.RotatedAtoms>
  150.6868  134.2759  159.4607 H   0  0  0  0  0  0  0  0  0  0  0  0  # atno 6907 bound_to 6896
  152.0677  134.9551  160.0584 H   0  0  0  0  0  0  0  0  0  0  0  0  # atno 6908 bound_to 6896
  152.0953  133.4186  159.4599 H   0  0  0  0  0  0  0  0  0  0  0  0  # atno 6909 bound_to 6896
  144.8640  139.5953  143.5917 H   0  0  0  0  0  0  0  0  0  0  0  0  # atno 7974 bound_to 7965
  155.9640  140.1150  157.0871 H   0  0  0  0  0  0  0  0  0  0  0  0  # atno 8008 bound_to 7997
  154.4139  140.1176  156.5283 H   0  0  0  0  0  0  0  0  0  0  0  0  # atno 8009 bound_to 7997
  155.6684  140.3473  155.4811 H   0  0  0  0  0  0  0  0  0  0  0  0  # atno 8010 bound_to 7997
  139.4885  144.4260  151.9128 H   0  0  0  0  0  0  0  0  0  0  0  0  # atno 10167 bound_to 10162
  156.0366  130.5586  150.7604 H   0  0  0  0  0  0  0  0  0  0  0  0  # atno 10718 bound_to 10713
  154.3376  135.2754  155.2439 H   0  0  0  0  0  0  0  0  0  0  0  0  # atno 10763 bound_to 10752
  154.4724  135.5879  153.6334 H   0  0  0  0  0  0  0  0  0  0  0  0  # atno 10764 bound_to 10752
  152.9860  135.6091  154.3574 H   0  0  0  0  0  0  0  0  0  0  0  0  # atno 10765 bound_to 10752
  140.7740  134.3156  157.5066 H   0  0  0  0  0  0  0  0  0  0  0  0  # atno 11005 bound_to 11000
  146.2881  139.7062  142.9180 LP  0  0  0  0  0  0  0  0  0  0  0  0  # atno 17320 bound_to 7965
  145.4258  141.0411  143.2938 LP  0  0  0  0  0  0  0  0  0  0  0  0  # atno 17321 bound_to 7965
  140.3706  144.2860  150.5920 LP  0  0  0  0  0  0  0  0  0  0  0  0  # atno 17342 bound_to 10162
  140.5322  143.2241  151.8220 LP  0  0  0  0  0  0  0  0  0  0  0  0  # atno 17343 bound_to 10162
  157.5125  131.0926  151.0180 LP  0  0  0  0  0  0  0  0  0  0  0  0  # atno 17370 bound_to 10713
  157.0532  130.5795  149.5373 LP  0  0  0  0  0  0  0  0  0  0  0  0  # atno 17371 bound_to 10713
  139.8752  134.9278  156.3434 LP  0  0  0  0  0  0  0  0  0  0  0  0  # atno 17394 bound_to 11000
  140.9547  133.7428  156.0319 LP  0  0  0  0  0  0  0  0  0  0  0  0  # atno 17395 bound_to 11000

$$$$
