AV-unprocessed.smi:1692|AV-procd|sdf|6779|dock10
  -GOLD-   22720 7543D 1   1.00000     0.00000
 Structure written by MMmdl.
 46 47  0  0  0  0  0  0  0  0  2 V2000
  144.1788  137.8011  156.5342 C   0  0  0  0  0  0  0  0  0  0  0  0
  144.3244  138.1438  155.0474 C   0  0  1  0  0  0  0  0  0  0  0  0
  145.6960  138.7668  154.7260 C   0  0  0  0  0  0  0  0  0  0  0  0
  145.8272  139.0146  153.2707 N   0  3  1  0  0  0  0  0  0  0  0  0
  147.1098  139.6754  152.9217 C   0  0  0  0  0  0  0  0  0  0  0  0
  147.5280  140.7313  153.9588 C   0  0  0  0  0  0  0  0  0  0  0  0
  149.0529  140.9234  154.0119 C   0  0  0  0  0  0  0  0  0  0  0  0
  149.4387  141.9151  155.0094 N   0  0  0  0  0  0  0  0  0  0  0  0
  150.3245  141.7082  155.9950 C   0  0  0  0  0  0  0  0  0  0  0  0
  150.9237  140.6438  156.1527 O   0  0  0  0  0  0  0  0  0  0  0  0
  150.4635  142.8025  156.7641 N   0  0  0  0  0  0  0  0  0  0  0  0
  151.2952  142.9751  157.9026 C   0  0  0  0  0  0  0  0  0  0  0  0
  151.6659  144.3112  158.1764 C   0  0  0  0  0  0  0  0  0  0  0  0
  152.4883  144.5887  159.2855 C   0  0  0  0  0  0  0  0  0  0  0  0
  152.9182  143.5219  160.0945 C   0  0  0  0  0  0  0  0  0  0  0  0
  152.5038  142.2216  159.7521 C   0  0  0  0  0  0  0  0  0  0  0  0
  151.7171  141.9531  158.6886 N   0  0  0  0  0  0  0  0  0  0  0  0
  145.5775  137.7642  152.5122 C   0  0  0  0  0  0  0  0  0  0  0  0
  144.2093  137.1665  152.8921 C   0  0  1  0  0  0  0  0  0  0  0  0
  143.9456  135.8304  152.1891 C   0  0  0  0  0  0  0  0  0  0  0  0
  144.1726  136.9435  154.2977 O   0  0  0  0  0  0  0  0  0  0  0  0
  144.2804  138.6920  157.1543 H   0  0  0  0  0  0  0  0  0  0  0  0
  144.9367  137.0843  156.8507 H   0  0  0  0  0  0  0  0  0  0  0  0
  143.2014  137.3636  156.7394 H   0  0  0  0  0  0  0  0  0  0  0  0
  143.5304  138.8411  154.7735 H   0  0  0  0  0  0  0  0  0  0  0  0
  145.8081  139.7051  155.2708 H   0  0  0  0  0  0  0  0  0  0  0  0
  146.4993  138.1058  155.0560 H   0  0  0  0  0  0  0  0  0  0  0  0
  147.8960  138.9205  152.8738 H   0  0  0  0  0  0  0  0  0  0  0  0
  147.0436  140.1150  151.9253 H   0  0  0  0  0  0  0  0  0  0  0  0
  147.0566  141.6867  153.7301 H   0  0  0  0  0  0  0  0  0  0  0  0
  147.1658  140.4361  154.9445 H   0  0  0  0  0  0  0  0  0  0  0  0
  149.5381  139.9814  154.2683 H   0  0  0  0  0  0  0  0  0  0  0  0
  149.4368  141.2133  153.0322 H   0  0  0  0  0  0  0  0  0  0  0  0
  148.9899  142.8179  154.9532 H   0  0  0  0  0  0  0  0  0  0  0  0
  149.9065  143.6046  156.5092 H   0  0  0  0  0  0  0  0  0  0  0  0
  151.3252  145.1195  157.5458 H   0  0  0  0  0  0  0  0  0  0  0  0
  152.7832  145.6027  159.5115 H   0  0  0  0  0  0  0  0  0  0  0  0
  153.5483  143.6952  160.9543 H   0  0  0  0  0  0  0  0  0  0  0  0
  152.8112  141.3746  160.3472 H   0  0  0  0  0  0  0  0  0  0  0  0
  145.5983  137.9597  151.4407 H   0  0  0  0  0  0  0  0  0  0  0  0
  146.3730  137.0467  152.7212 H   0  0  0  0  0  0  0  0  0  0  0  0
  143.4152  137.8639  152.6189 H   0  0  0  0  0  0  0  0  0  0  0  0
  143.9543  135.9481  151.1052 H   0  0  0  0  0  0  0  0  0  0  0  0
  142.9725  135.4273  152.4708 H   0  0  0  0  0  0  0  0  0  0  0  0
  144.7012  135.0891  152.4513 H   0  0  0  0  0  0  0  0  0  0  0  0
  145.0918  139.6625  153.0265 H   0  0  0  0  0  0  0  0  0  0  0  0
  1  2  1  0  0  0  0
  1 22  1  0  0  0  0
  1 23  1  0  0  0  0
  1 24  1  0  0  0  0
  2 21  1  0  0  0  0
  2  3  1  0  0  0  0
  2 25  1  0  0  0  0
  3  4  1  0  0  0  0
  3 26  1  0  0  0  0
  3 27  1  0  0  0  0
  4  5  1  0  0  0  0
  4 18  1  0  0  0  0
  4 46  1  0  0  0  0
  5  6  1  0  0  0  0
  5 28  1  0  0  0  0
  5 29  1  0  0  0  0
  6  7  1  0  0  0  0
  6 30  1  0  0  0  0
  6 31  1  0  0  0  0
  7  8  1  0  0  0  0
  7 32  1  0  0  0  0
  7 33  1  0  0  0  0
  8  9  1  0  0  0  0
  8 34  1  0  0  0  0
  9 10  2  0  0  0  0
  9 11  1  0  0  0  0
 11 12  1  0  0  0  0
 11 35  1  0  0  0  0
 12 17  1  0  0  0  0
 12 13  2  0  0  0  0
 13 14  1  0  0  0  0
 13 36  1  0  0  0  0
 14 15  2  0  0  0  0
 14 37  1  0  0  0  0
 15 16  1  0  0  0  0
 15 38  1  0  0  0  0
 16 17  2  0  0  0  0
 16 39  1  0  0  0  0
 18 19  1  0  0  0  0
 18 40  1  0  0  0  0
 18 41  1  0  0  0  0
 19 20  1  0  0  0  0
 19 21  1  0  0  0  0
 19 42  1  0  0  0  0
 20 43  1  0  0  0  0
 20 44  1  0  0  0  0
 20 45  1  0  0  0  0
M  CHG  1   4   1
M  END
> <s_m_source_file>
AV-unprocessed.smi

> <i_m_source_file_index>
1692

> <i_lp_mmshare_version>
43012

> <i_f3d_flags>
0

> <s_epik_input>
W0NIM11bQ0BASF0xW0NIMl1OKFtDSDJdW0NASF0oTzEpW0NIM10pW0NIMl1bQ0gyXVtDSDJdW05IXUMoPU8pW05IXWMyW2NIXVtjSF1bY0hdW2NIXW4y

> <s_epik_cmdline>
J2VwaWtfcHl0aG9uJywgJy1waCcsICc3LjAnLCAnLXRuJywgJzgnLCAnLW1hJywgJzIwMCcsICctbWV0YWxfYmluZGluZycsICctaW1hZScsICc8aW5maWxlLm1hZT4nLCAnLW9tYWUnLCAnPG91dGZpbGUubWFlPic=

> <r_epik_Ionization_Penalty>
0.270538

> <r_epik_Ionization_Penalty_Charging>
0.270496

> <r_epik_Ionization_Penalty_Neutral>
4.22978e-05

> <r_epik_State_Penalty>
0.262618

> <r_epik_Charging_Adjusted_Penalty>
0.533114

> <i_epik_Tot_Q>
1

> <i_epik_Tot_abs_Q>
1

> <r_epik_Metal_State_Penalty>
0.262618

> <b_epik_Metal_Only>
0

> <s_lp_Force_Field>
OPLS_2005

> <r_lp_Energy>
16.7861

> <b_lp_Chiralities_Consistent>
1

> <s_lp_Variant>
AV-unprocessed.smi:1692-2

> <Gold.Version>
5.8.1

> <Gold.Id.Protein>
6NUR|6NUR_protein|mol2

> <Gold.PLP.Fitness>
49.3525

> <Gold.PLP.PLP>
-38.3562

> <Gold.PLP.part.hbond>
-3.0000

> <Gold.PLP.part.metal>
0.0000

> <Gold.PLP.part.buried>
-2.6849

> <Gold.PLP.part.nonpolar>
-32.8099

> <Gold.PLP.part.repulsive>
0.3343

> <Gold.PLP.ligand.clash>
0.0000

> <Gold.PLP.ligand.torsion>
0.4822

> <Gold.PLP.Chemscore.Hbond>
3.9760

> <Gold.PLP.Chemscore.CHOScore>
0.0000

> <Gold.PLP.Chemscore.Metal>
0.0000

> <Gold.Chemscore.Hbonds>
donor molecule, donor type, donor heavy atom, donor atom, acceptor molecule, acceptor atom, score
      L1  H     4    46       P1 10175  2.00
      L1  H     8    34       P1  8028  0.96
      L1  H    11    35       P1  8028  1.00

> <Gold.PLP.Chemscore.Internal.Correction>
0.0328

> <Gold.Rescore>
     Score         DG    S(hbond)    S(metal)    S(lipo)     H(rot)  DE(clash)    DE(int)     intcor
     19.30     -20.94       2.95        0.00      86.79       1.78       0.07       1.56       ----

> <Gold.Chemscore.Fitness>
19.2977

> <Gold.Chemscore.DG>
-20.9356

> <Gold.Chemscore.ZeroCoef>
-5.4800

> <Gold.Chemscore.Hbond>
2.9527

> <Gold.Chemscore.Metal>
0.0000

> <Gold.Chemscore.Lipo>
86.7864

> <Gold.Chemscore.Internal_Hbond>
0.0000

> <Gold.Chemscore.DEClash>
0.0733

> <Gold.Chemscore.DEInternal>
1.5647

> <Gold.Chemscore.Rot>
1.7814

> <Gold.Chemscore.Internal.Correction>
   9.000000E+99

> <Gold.Chemscore.Hbonds>
donor molecule, donor type, donor heavy atom, donor atom, acceptor molecule, acceptor atom, score
      L1  H     4    46       P1 10175  1.00
      L1  H     8    34       P1  8028  0.87
      L1  H    11    35       P1  8028  1.00

> <Gold.Chemscore.Hbond.Weighted>
-9.8619

> <Gold.Chemscore.Metal.Weighted>
-0.0000

> <Gold.Chemscore.Lipo.Weighted>
-10.1540

> <Gold.Chemscore.Internal_Hbond.Weighted>
0.0000

> <Gold.Chemscore.DEClash.Weighted>
0.0733

> <Gold.Chemscore.DEInternal.Weighted>
1.5647

> <Gold.Chemscore.Rot.Weighted>
4.5603

> <Gold.Chemscore.Internal.Correction.Weighted>
   9.000000E+99

> <Gold.Protein.RotatedTorsions>
[ 6907 6896 6895 6894 ] final   57.12 input  -60.11 | X-H torsion
[ 7974 7965 7964 7962 ] final    6.69 input  175.53 | X-H torsion
[ 8008 7997 7996 7995 ] final -162.01 input   59.86 | X-H torsion
[ 10167 10162 10161 10158 ] final   76.98 input  -65.29 | X-H torsion
[ 10718 10713 10712 10709 ] final  161.42 input   66.30 | X-H torsion
[ 10763 10752 10751 10750 ] final -122.21 input  -60.55 | X-H torsion
[ 11005 11000 10999 10996 ] final   16.67 input  -57.11 | X-H torsion

> <Gold.Protein.ActiveResidues>
 VAL166  LYS551  ARG553  GLY616  TRP617  ASP618  TYR619  PRO620  LYS621  CYS622 
 ASP623  PHE694  ASN695  SER759  ASP760  ASP761  ALA762  ILE779  LEU786  VAL792 
 PHE793  MET794  SER795  GLU796  ALA797  LYS798  CYS799  TRP800  GLU811  SER814 

> <Gold.Protein.RotatedAtoms>
  152.3701  134.6746  160.0178 H   0  0  0  0  0  0  0  0  0  0  0  0  # atno 6907 bound_to 6896
  151.7042  133.3306  159.3282 H   0  0  0  0  0  0  0  0  0  0  0  0  # atno 6908 bound_to 6896
  150.7667  134.6524  159.6340 H   0  0  0  0  0  0  0  0  0  0  0  0  # atno 6909 bound_to 6896
  146.2433  140.0195  142.8399 H   0  0  0  0  0  0  0  0  0  0  0  0  # atno 7974 bound_to 7965
  155.8006  140.0891  157.1959 H   0  0  0  0  0  0  0  0  0  0  0  0  # atno 8008 bound_to 7997
  154.3982  140.1473  156.3329 H   0  0  0  0  0  0  0  0  0  0  0  0  # atno 8009 bound_to 7997
  155.8466  140.3436  155.5669 H   0  0  0  0  0  0  0  0  0  0  0  0  # atno 8010 bound_to 7997
  139.9864  144.5789  150.7855 H   0  0  0  0  0  0  0  0  0  0  0  0  # atno 10167 bound_to 10162
  157.1367  131.0530  151.2346 H   0  0  0  0  0  0  0  0  0  0  0  0  # atno 10718 bound_to 10713
  154.8685  135.4141  154.2745 H   0  0  0  0  0  0  0  0  0  0  0  0  # atno 10763 bound_to 10752
  153.3649  135.7005  153.6689 H   0  0  0  0  0  0  0  0  0  0  0  0  # atno 10764 bound_to 10752
  153.5574  135.3616  155.2757 H   0  0  0  0  0  0  0  0  0  0  0  0  # atno 10765 bound_to 10752
  140.4445  134.1287  155.7694 H   0  0  0  0  0  0  0  0  0  0  0  0  # atno 11005 bound_to 11000
  145.1254  140.9487  143.4576 LP  0  0  0  0  0  0  0  0  0  0  0  0  # atno 17320 bound_to 7965
  145.0440  139.3236  143.5962 LP  0  0  0  0  0  0  0  0  0  0  0  0  # atno 17321 bound_to 7965
  140.7470  143.2900  151.3356 LP  0  0  0  0  0  0  0  0  0  0  0  0  # atno 17342 bound_to 10162
  139.6372  144.0608  152.2525 LP  0  0  0  0  0  0  0  0  0  0  0  0  # atno 17343 bound_to 10162
  157.4344  130.7508  149.7016 LP  0  0  0  0  0  0  0  0  0  0  0  0  # atno 17370 bound_to 10713
  155.9797  130.4037  150.3573 LP  0  0  0  0  0  0  0  0  0  0  0  0  # atno 17371 bound_to 10713
  141.1691  133.8645  157.1626 LP  0  0  0  0  0  0  0  0  0  0  0  0  # atno 17394 bound_to 11000
  140.0047  135.0013  157.0267 LP  0  0  0  0  0  0  0  0  0  0  0  0  # atno 17395 bound_to 11000

$$$$
