#       Name:                AV-unprocessed.smi:3227
#       Creating user name   scv26
#       Creation time:       Fri Mar 27 18:16:37 2020


#       File generated by GOLD software.
#

@<TRIPOS>MOLECULE
AV-unprocessed.smi:3227
    43    44     1
SMALL
NO_CHARGES


@<TRIPOS>ATOM
      1 ****        -1.5560  -2.2409  -0.2228 C.3            1 S1                 0.0000
      2 ****        -2.0078  -1.8864   1.1154 N.3            1 S1                 0.0000
      3 ****        -2.4668  -2.9886   1.9516 C.3            1 S1                 0.0000
      4 ****        -2.7911  -0.7150   1.1398 C.ar           1 S1                 0.0000
      5 ****        -4.1345  -0.8718   1.2355 N.ar           1 S1                 0.0000
      6 ****        -4.9204   0.2238   1.2419 C.ar           1 S1                 0.0000
      7 ****        -4.4149   1.5328   1.1601 C.ar           1 S1                 0.0000
      8 ****        -3.0227   1.7061   1.0633 C.ar           1 S1                 0.0000
      9 ****        -2.1829   0.5659   1.0397 C.ar           1 S1                 0.0000
     10 ****        -0.7629   0.6665   0.9909 N.am           1 S1                 0.0000
     11 ****        -0.0124   1.6313   0.4290 C.2            1 S1                 0.0000
     12 ****        -0.4617   2.6065  -0.1725 O.2            1 S1                 0.0000
     13 ****         1.5001   1.4511   0.5398 C.3            1 S1                 0.0000
     14 ****         2.0349   1.3068  -0.7653 O.3            1 S1                 0.0000
     15 ****         3.4449   1.1671  -0.7622 C.3            1 S1                 0.0000
     16 ****         3.9315   1.0301  -2.1890 C.3            1 S1                 0.0000
     17 ****         4.0925  -0.3323  -2.8246 C.3            1 S1                 0.0000
     18 ****         5.3116   0.4811  -2.4728 C.3            1 S1                 0.0000
     19 ****        -0.9884  -1.4314  -0.6817 H              1 S1                 0.0000
     20 ****        -2.4077  -2.4684  -0.8650 H              1 S1                 0.0000
     21 ****        -0.9128  -3.1204  -0.1872 H              1 S1                 0.0000
     22 ****        -2.7759  -2.6306   2.9344 H              1 S1                 0.0000
     23 ****        -1.6631  -3.7108   2.0966 H              1 S1                 0.0000
     24 ****        -3.3087  -3.5044   1.4887 H              1 S1                 0.0000
     25 ****        -5.9836   0.0515   1.3211 H              1 S1                 0.0000
     26 ****        -5.0786   2.3844   1.1802 H              1 S1                 0.0000
     27 ****        -2.6235   2.7081   1.0290 H              1 S1                 0.0000
     28 ****        -0.2606  -0.1302   1.3554 H              1 S1                 0.0000
     29 ****         1.9258   2.3264   1.0328 H              1 S1                 0.0000
     30 ****         1.7405   0.5766   1.1475 H              1 S1                 0.0000
     31 ****         3.9112   2.0453  -0.3132 H              1 S1                 0.0000
     32 ****         3.7447   0.2929  -0.1820 H              1 S1                 0.0000
     33 ****         3.6014   1.8334  -2.8450 H              1 S1                 0.0000
     34 ****         3.8784  -1.2065  -2.2129 H              1 S1                 0.0000
     35 ****         3.8370  -0.4269  -3.8780 H              1 S1                 0.0000
     36 ****         5.8713   0.9288  -3.2917 H              1 S1                 0.0000
     37 ****         5.9097   0.1468  -1.6272 H              1 S1                 0.0000
     38 ****        -1.1723  -1.6353   1.6043 LP             1 S1                 0.0000
     39 ****        -4.5359  -1.7853   1.3003 LP             1 S1                 0.0000
     40 ****        -1.4502   2.7221  -0.2698 LP             1 S1                 0.0000
     41 ****         0.1618   3.2833  -0.5640 LP             1 S1                 0.0000
     42 ****         1.7941   2.1157  -1.3017 LP             1 S1                 0.0000
     43 ****         1.6332   0.4946  -1.1884 LP             1 S1                 0.0000
@<TRIPOS>BOND
    1    1    2 1     
    2    1   19 1     
    3    1   20 1     
    4    1   21 1     
    5    2    3 1     
    6    2    4 1     
    7    3   22 1     
    8    3   23 1     
    9    3   24 1     
   10    4    9 ar    
   11    4    5 ar    
   12    5    6 ar    
   13    6    7 ar    
   14    6   25 1     
   15    7    8 ar    
   16    7   26 1     
   17    8    9 ar    
   18    8   27 1     
   19    9   10 1     
   20   10   11 am    
   21   10   28 1     
   22   11   12 2     
   23   11   13 1     
   24   13   14 1     
   25   13   29 1     
   26   13   30 1     
   27   14   15 1     
   28   15   16 1     
   29   15   31 1     
   30   15   32 1     
   31   16   18 1     
   32   16   17 1     
   33   16   33 1     
   34   17   18 1     
   35   17   34 1     
   36   17   35 1     
   37   18   36 1     
   38   18   37 1     
   39    2   38 1     
   40    5   39 1     
   41   12   40 1     
   42   12   41 1     
   43   14   42 1     
   44   14   43 1     
@<TRIPOS>SUBSTRUCTURE
      1 S1             1
@<TRIPOS>SET
LONE_PAIRS      STATIC     ATOMS    <user>   **** ""
6 38 39 40 41 42 43
DONOR_HYDROGENS      STATIC     ATOMS    <user>   **** ""
1 28
ATOM$BLUE        STATIC     ATOMS    COLORGROUP SYSTEM
6 38 39 40 41 42 43
ATOM$RED        STATIC     ATOMS    COLORGROUP SYSTEM
1 28
