AV-unprocessed.smi:3124|AV-procd|sdf|11902|dock10
  -GOLD-   2272017283D 1   1.00000     0.00000
 Structure written by MMmdl.
 24 24  0  0  0  0  0  0  0  0  2 V2000
  147.2770  128.2023  152.1486 C   0  0  0  0  0  0  0  0  0  0  0  0
  146.4931  129.4223  151.8018 C   0  0  0  0  0  0  0  0  0  0  0  0
  145.1626  129.6011  151.5462 C   0  0  0  0  0  0  0  0  0  0  0  0
  145.0385  130.9971  151.2823 C   0  0  0  0  0  0  0  0  0  0  0  0
  143.7919  131.7682  150.9407 C   0  0  0  0  0  0  0  0  0  0  0  0
  143.8955  132.5090  149.5933 C   0  0  2  0  0  0  0  0  0  0  0  0
  144.3958  133.9486  149.7738 C   0  0  0  0  0  0  0  0  0  0  0  0
  142.6017  132.5059  148.8855 N   0  3  0  0  0  0  0  0  0  0  0  0
  146.1986  131.6319  151.3659 N   0  0  0  0  0  0  0  0  0  0  0  0
  147.0771  130.6622  151.6822 N   0  0  0  0  0  0  0  0  0  0  0  0
  148.0591  130.8588  151.8162 H   0  0  0  0  0  0  0  0  0  0  0  0
  146.6168  127.3562  152.3410 H   0  0  0  0  0  0  0  0  0  0  0  0
  147.8795  128.3680  153.0420 H   0  0  0  0  0  0  0  0  0  0  0  0
  147.9473  127.9281  151.3338 H   0  0  0  0  0  0  0  0  0  0  0  0
  144.3903  128.8462  151.5506 H   0  0  0  0  0  0  0  0  0  0  0  0
  143.5838  132.4876  151.7341 H   0  0  0  0  0  0  0  0  0  0  0  0
  142.9353  131.0929  150.9229 H   0  0  0  0  0  0  0  0  0  0  0  0
  144.6101  131.9827  148.9592 H   0  0  0  0  0  0  0  0  0  0  0  0
  145.3737  133.9666  150.2561 H   0  0  0  0  0  0  0  0  0  0  0  0
  143.7120  134.5340  150.3898 H   0  0  0  0  0  0  0  0  0  0  0  0
  144.4960  134.4546  148.8128 H   0  0  0  0  0  0  0  0  0  0  0  0
  142.1283  133.3842  149.0411 H   0  0  0  0  0  0  0  0  0  0  0  0
  142.0306  131.7494  149.2355 H   0  0  0  0  0  0  0  0  0  0  0  0
  142.7585  132.3783  147.8960 H   0  0  0  0  0  0  0  0  0  0  0  0
  1 12  1  0  0  0  0
  1 13  1  0  0  0  0
  1 14  1  0  0  0  0
  1  2  1  0  0  0  0
  2 10  1  0  0  0  0
  2  3  2  0  0  0  0
  3  4  1  0  0  0  0
  3 15  1  0  0  0  0
  4  5  1  0  0  0  0
  4  9  2  0  0  0  0
  5  6  1  0  0  0  0
  5 16  1  0  0  0  0
  5 17  1  0  0  0  0
  6  7  1  0  0  0  0
  6  8  1  0  0  0  0
  6 18  1  0  0  0  0
  7 19  1  0  0  0  0
  7 20  1  0  0  0  0
  7 21  1  0  0  0  0
  8 22  1  0  0  0  0
  8 23  1  0  0  0  0
  8 24  1  0  0  0  0
  9 10  1  0  0  0  0
 10 11  1  0  0  0  0
M  CHG  1   8   1
M  END
> <s_m_source_file>
AV-unprocessed.smi

> <i_m_source_file_index>
3124

> <i_lp_mmshare_version>
43012

> <i_f3d_flags>
0

> <s_epik_input>
W0NIM11jMVtjSF1jKFtuSF1uMSlbQ0gyXVtDQEhdKFtDSDNdKVtOSDJd

> <s_epik_cmdline>
J2VwaWtfcHl0aG9uJywgJy1waCcsICc3LjAnLCAnLXRuJywgJzgnLCAnLW1hJywgJzIwMCcsICctbWV0YWxfYmluZGluZycsICctaW1hZScsICc8aW5maWxlLm1hZT4nLCAnLW9tYWUnLCAnPG91dGZpbGUubWFlPic=

> <r_lp_tautomer_probability>
0.5

> <r_epik_Ionization_Penalty>
0.00151643

> <r_epik_Ionization_Penalty_Charging>
0.00146569

> <r_epik_Ionization_Penalty_Neutral>
5.07401e-05

> <r_epik_State_Penalty>
0.379573

> <r_epik_Charging_Adjusted_Penalty>
0.381038

> <i_epik_Tot_Q>
1

> <i_epik_Tot_abs_Q>
1

> <r_epik_Metal_State_Penalty>
0.378341

> <b_epik_Metal_Only>
0

> <s_lp_Force_Field>
OPLS_2005

> <r_lp_Energy>
2.04404

> <b_lp_Chiralities_Consistent>
1

> <s_lp_Variant>
AV-unprocessed.smi:3124-1

> <Gold.Version>
5.8.1

> <Gold.Id.Protein>
6NUR|6NUR_protein|mol2

> <Gold.PLP.Fitness>
31.5662

> <Gold.PLP.PLP>
-22.5810

> <Gold.PLP.part.hbond>
-2.3363

> <Gold.PLP.part.metal>
0.0000

> <Gold.PLP.part.buried>
-2.6406

> <Gold.PLP.part.nonpolar>
-18.0028

> <Gold.PLP.part.repulsive>
0.7707

> <Gold.PLP.ligand.clash>
0.0000

> <Gold.PLP.ligand.torsion>
0.4649

> <Gold.PLP.Chemscore.Hbond>
3.3040

> <Gold.PLP.Chemscore.CHOScore>
0.0000

> <Gold.PLP.Chemscore.Metal>
0.0000

> <Gold.Chemscore.Hbonds>
donor molecule, donor type, donor heavy atom, donor atom, acceptor molecule, acceptor atom, score
      L1  H     8    22       P1 10186  2.00
      L1  H     8    23       P1 10952  1.00
      L1  H    10    11       P1 10747  0.27

> <Gold.PLP.Chemscore.Internal.Correction>
0.0030

> <Gold.Rescore>
     Score         DG    S(hbond)    S(metal)    S(lipo)     H(rot)  DE(clash)    DE(int)     intcor
     17.71     -18.68       2.46        0.00      70.96       1.30       0.50       0.46       ----

> <Gold.Chemscore.Fitness>
17.7111

> <Gold.Chemscore.DG>
-18.6755

> <Gold.Chemscore.ZeroCoef>
-5.4800

> <Gold.Chemscore.Hbond>
2.4603

> <Gold.Chemscore.Metal>
0.0000

> <Gold.Chemscore.Lipo>
70.9622

> <Gold.Chemscore.Internal_Hbond>
0.0000

> <Gold.Chemscore.DEClash>
0.5000

> <Gold.Chemscore.DEInternal>
0.4644

> <Gold.Chemscore.Rot>
1.2987

> <Gold.Chemscore.Internal.Correction>
   9.000000E+99

> <Gold.Chemscore.Hbonds>
donor molecule, donor type, donor heavy atom, donor atom, acceptor molecule, acceptor atom, score
      L1  H     8    22       P1 10186  0.98
      L1  H     8    23       P1 10952  1.00
      L1  H    10    11       P1 10747  0.26

> <Gold.Chemscore.Hbond.Weighted>
-8.2176

> <Gold.Chemscore.Metal.Weighted>
-0.0000

> <Gold.Chemscore.Lipo.Weighted>
-8.3026

> <Gold.Chemscore.Internal_Hbond.Weighted>
0.0000

> <Gold.Chemscore.DEClash.Weighted>
0.5000

> <Gold.Chemscore.DEInternal.Weighted>
0.4644

> <Gold.Chemscore.Rot.Weighted>
3.3246

> <Gold.Chemscore.Internal.Correction.Weighted>
   9.000000E+99

> <Gold.Protein.RotatedTorsions>
[ 6907 6896 6895 6894 ] final  -47.39 input  -60.11 | X-H torsion
[ 7974 7965 7964 7962 ] final  -74.35 input  175.53 | X-H torsion
[ 8008 7997 7996 7995 ] final -141.95 input   59.86 | X-H torsion
[ 10167 10162 10161 10158 ] final  154.74 input  -65.29 | X-H torsion
[ 10718 10713 10712 10709 ] final   -4.76 input   66.30 | X-H torsion
[ 10763 10752 10751 10750 ] final  -90.53 input  -60.55 | X-H torsion
[ 11005 11000 10999 10996 ] final -101.54 input  -57.11 | X-H torsion

> <Gold.Protein.ActiveResidues>
 VAL166  LYS551  ARG553  GLY616  TRP617  ASP618  TYR619  PRO620  LYS621  CYS622 
 ASP623  PHE694  ASN695  SER759  ASP760  ASP761  ALA762  ILE779  LEU786  VAL792 
 PHE793  MET794  SER795  GLU796  ALA797  LYS798  CYS799  TRP800  GLU811  SER814 

> <Gold.Protein.RotatedAtoms>
  150.9013  134.8425  159.7361 H   0  0  0  0  0  0  0  0  0  0  0  0  # atno 6907 bound_to 6896
  152.4894  134.4499  159.9581 H   0  0  0  0  0  0  0  0  0  0  0  0  # atno 6908 bound_to 6896
  151.4550  133.3568  159.2836 H   0  0  0  0  0  0  0  0  0  0  0  0  # atno 6909 bound_to 6896
  145.6403  140.9313  143.1039 H   0  0  0  0  0  0  0  0  0  0  0  0  # atno 7974 bound_to 7965
  155.4862  140.0564  157.2960 H   0  0  0  0  0  0  0  0  0  0  0  0  # atno 8008 bound_to 7997
  154.4641  140.2010  156.0117 H   0  0  0  0  0  0  0  0  0  0  0  0  # atno 8009 bound_to 7997
  156.0943  140.3229  155.7861 H   0  0  0  0  0  0  0  0  0  0  0  0  # atno 8010 bound_to 7997
  139.4822  144.5160  151.7950 H   0  0  0  0  0  0  0  0  0  0  0  0  # atno 10167 bound_to 10162
  156.7565  130.5256  149.5793 H   0  0  0  0  0  0  0  0  0  0  0  0  # atno 10718 bound_to 10713
  154.6668  135.5301  153.8087 H   0  0  0  0  0  0  0  0  0  0  0  0  # atno 10763 bound_to 10752
  153.0476  135.6519  154.0787 H   0  0  0  0  0  0  0  0  0  0  0  0  # atno 10764 bound_to 10752
  154.0690  135.2955  155.3291 H   0  0  0  0  0  0  0  0  0  0  0  0  # atno 10765 bound_to 10752
  141.1226  133.8486  157.1245 H   0  0  0  0  0  0  0  0  0  0  0  0  # atno 11005 bound_to 11000
  144.7160  139.8196  143.7398 LP  0  0  0  0  0  0  0  0  0  0  0  0  # atno 17320 bound_to 7965
  146.1286  139.4317  143.0183 LP  0  0  0  0  0  0  0  0  0  0  0  0  # atno 17321 bound_to 7965
  140.4669  144.1643  150.5913 LP  0  0  0  0  0  0  0  0  0  0  0  0  # atno 17342 bound_to 10162
  140.4425  143.2520  151.9455 LP  0  0  0  0  0  0  0  0  0  0  0  0  # atno 17343 bound_to 10162
  156.1367  130.6216  151.0409 LP  0  0  0  0  0  0  0  0  0  0  0  0  # atno 17370 bound_to 10713
  157.6753  131.0852  150.7509 LP  0  0  0  0  0  0  0  0  0  0  0  0  # atno 17371 bound_to 10713
  140.0197  134.9951  157.0566 LP  0  0  0  0  0  0  0  0  0  0  0  0  # atno 17394 bound_to 11000
  140.4461  134.1631  155.7177 LP  0  0  0  0  0  0  0  0  0  0  0  0  # atno 17395 bound_to 11000

$$$$
