AV-unprocessed.smi:3214|AV-procd|sdf|12284|dock5
  -GOLD-   2272018123D 1   1.00000     0.00000
 Structure written by MMmdl.
 37 37  0  0  0  0  0  0  0  0  2 V2000
  144.6690  134.2947  151.0432 C   0  0  0  0  0  0  0  0  0  0  0  0
  144.2770  135.3435  152.0888 C   0  0  0  0  0  0  0  0  0  0  0  0
  144.9539  136.6063  151.8276 N   0  0  0  0  0  0  0  0  0  0  0  0
  145.8906  137.1416  152.6234 C   0  0  0  0  0  0  0  0  0  0  0  0
  146.2705  136.6111  153.6674 O   0  0  0  0  0  0  0  0  0  0  0  0
  146.4810  138.4817  152.1736 C   0  0  0  0  0  0  0  0  0  0  0  0
  147.2811  139.1827  153.2843 C   0  0  0  0  0  0  0  0  0  0  0  0
  148.7214  138.8666  153.1780 N   0  3  0  0  0  0  0  0  0  0  0  0
  149.5336  139.1749  154.3784 C   0  0  1  0  0  0  0  0  0  0  0  0
  150.8872  138.4606  154.2638 C   0  0  0  0  0  0  0  0  0  0  0  0
  149.7433  140.6969  154.5522 C   0  0  0  0  0  0  0  0  0  0  0  0
  150.5437  141.0471  155.7117 N   0  0  0  0  0  0  0  0  0  0  0  0
  150.9455  142.2985  156.1308 C   0  0  0  0  0  0  0  0  0  0  0  0
  151.6871  142.1281  157.2646 C   0  0  0  0  0  0  0  0  0  0  0  0
  151.6945  140.7181  157.4559 C   0  0  0  0  0  0  0  0  0  0  0  0
  151.0135  140.0738  156.5219 N   0  0  0  0  0  0  0  0  0  0  0  0
  144.1620  133.3490  151.2353 H   0  0  0  0  0  0  0  0  0  0  0  0
  145.7427  134.1040  151.0580 H   0  0  0  0  0  0  0  0  0  0  0  0
  144.3982  134.6182  150.0378 H   0  0  0  0  0  0  0  0  0  0  0  0
  143.1971  135.4986  152.0728 H   0  0  0  0  0  0  0  0  0  0  0  0
  144.5379  134.9878  153.0867 H   0  0  0  0  0  0  0  0  0  0  0  0
  144.6915  137.1031  150.9885 H   0  0  0  0  0  0  0  0  0  0  0  0
  147.1211  138.3222  151.3043 H   0  0  0  0  0  0  0  0  0  0  0  0
  145.6597  139.1209  151.8467 H   0  0  0  0  0  0  0  0  0  0  0  0
  147.1358  140.2600  153.2220 H   0  0  0  0  0  0  0  0  0  0  0  0
  146.9179  138.8655  154.2633 H   0  0  0  0  0  0  0  0  0  0  0  0
  148.7906  137.8724  153.0144 H   0  0  0  0  0  0  0  0  0  0  0  0
  149.0356  138.7692  155.2606 H   0  0  0  0  0  0  0  0  0  0  0  0
  151.4968  138.6306  155.1519 H   0  0  0  0  0  0  0  0  0  0  0  0
  151.4529  138.8131  153.4005 H   0  0  0  0  0  0  0  0  0  0  0  0
  150.7567  137.3829  154.1596 H   0  0  0  0  0  0  0  0  0  0  0  0
  150.2460  141.1060  153.6746 H   0  0  0  0  0  0  0  0  0  0  0  0
  148.7823  141.2088  154.6217 H   0  0  0  0  0  0  0  0  0  0  0  0
  150.6709  143.1965  155.5971 H   0  0  0  0  0  0  0  0  0  0  0  0
  152.1575  142.8935  157.8640 H   0  0  0  0  0  0  0  0  0  0  0  0
  152.1721  140.1476  158.2388 H   0  0  0  0  0  0  0  0  0  0  0  0
  149.1165  139.3483  152.3831 H   0  0  0  0  0  0  0  0  0  0  0  0
  1  2  1  0  0  0  0
  1 17  1  0  0  0  0
  1 18  1  0  0  0  0
  1 19  1  0  0  0  0
  2  3  1  0  0  0  0
  2 20  1  0  0  0  0
  2 21  1  0  0  0  0
  3  4  1  0  0  0  0
  3 22  1  0  0  0  0
  4  5  2  0  0  0  0
  4  6  1  0  0  0  0
  6  7  1  0  0  0  0
  6 23  1  0  0  0  0
  6 24  1  0  0  0  0
  7  8  1  0  0  0  0
  7 25  1  0  0  0  0
  7 26  1  0  0  0  0
  8  9  1  0  0  0  0
  8 27  1  0  0  0  0
  8 37  1  0  0  0  0
  9 10  1  0  0  0  0
  9 11  1  0  0  0  0
  9 28  1  0  0  0  0
 10 29  1  0  0  0  0
 10 30  1  0  0  0  0
 10 31  1  0  0  0  0
 11 12  1  0  0  0  0
 11 32  1  0  0  0  0
 11 33  1  0  0  0  0
 12 16  1  0  0  0  0
 12 13  1  0  0  0  0
 13 14  2  0  0  0  0
 13 34  1  0  0  0  0
 14 15  1  0  0  0  0
 14 35  1  0  0  0  0
 15 16  2  0  0  0  0
 15 36  1  0  0  0  0
M  CHG  1   8   1
M  END
> <s_m_source_file>
AV-unprocessed.smi

> <i_m_source_file_index>
3214

> <i_lp_mmshare_version>
43012

> <i_f3d_flags>
0

> <s_epik_input>
W0NIM11bQ0gyXVtOSF1DKD1PKVtDSDJdW0NIMl1bTkhdW0NASF0oW0NIM10pW0NIMl1uMVtjSF1bY0hdW2NIXW4x

> <s_epik_cmdline>
J2VwaWtfcHl0aG9uJywgJy1waCcsICc3LjAnLCAnLXRuJywgJzgnLCAnLW1hJywgJzIwMCcsICctbWV0YWxfYmluZGluZycsICctaW1hZScsICc8aW5maWxlLm1hZT4nLCAnLW9tYWUnLCAnPG91dGZpbGUubWFlPic=

> <r_lp_tautomer_probability>
1

> <r_epik_Ionization_Penalty>
0.00598156

> <r_epik_Ionization_Penalty_Charging>
0.00597743

> <r_epik_Ionization_Penalty_Neutral>
4.12922e-06

> <r_epik_State_Penalty>
0.00439883

> <r_epik_Charging_Adjusted_Penalty>
0.0103763

> <i_epik_Tot_Q>
1

> <i_epik_Tot_abs_Q>
1

> <r_epik_Metal_State_Penalty>
-0

> <b_epik_Metal_Only>
0

> <s_lp_Force_Field>
OPLS_2005

> <r_lp_Energy>
6.42892

> <b_lp_Chiralities_Consistent>
1

> <s_lp_Variant>
AV-unprocessed.smi:3214-2

> <Gold.Version>
5.8.1

> <Gold.Id.Protein>
6NUR|6NUR_protein|mol2

> <Gold.PLP.Fitness>
47.7065

> <Gold.PLP.PLP>
-33.7498

> <Gold.PLP.part.hbond>
-2.9481

> <Gold.PLP.part.metal>
0.0000

> <Gold.PLP.part.buried>
-4.2627

> <Gold.PLP.part.nonpolar>
-28.0089

> <Gold.PLP.part.repulsive>
0.2588

> <Gold.PLP.ligand.clash>
0.0000

> <Gold.PLP.ligand.torsion>
0.5790

> <Gold.PLP.Chemscore.Hbond>
3.9750

> <Gold.PLP.Chemscore.CHOScore>
1.0000

> <Gold.PLP.Chemscore.Metal>
0.0000

> <Gold.Chemscore.Hbonds>
donor molecule, donor type, donor heavy atom, donor atom, acceptor molecule, acceptor atom, score
      L1  H     3    22       P1 10171  0.93
      L1  H     8    27       P1  7948  2.00
      L1  H     8    37       P1  7957  0.88
      L1  C    13    34       P1  8028  1.00

> <Gold.PLP.Chemscore.Internal.Correction>
0.1898

> <Gold.Rescore>
     Score         DG    S(hbond)    S(metal)    S(lipo)     H(rot)  DE(clash)    DE(int)     intcor
     14.91     -16.84       2.92        0.00      66.03       2.39       0.06       1.87       ----

> <Gold.Chemscore.Fitness>
14.9121

> <Gold.Chemscore.DG>
-16.8423

> <Gold.Chemscore.ZeroCoef>
-5.4800

> <Gold.Chemscore.Hbond>
2.9243

> <Gold.Chemscore.Metal>
0.0000

> <Gold.Chemscore.Lipo>
66.0319

> <Gold.Chemscore.Internal_Hbond>
0.0000

> <Gold.Chemscore.DEClash>
0.0579

> <Gold.Chemscore.DEInternal>
1.8724

> <Gold.Chemscore.Rot>
2.3948

> <Gold.Chemscore.Internal.Correction>
   9.000000E+99

> <Gold.Chemscore.Hbonds>
donor molecule, donor type, donor heavy atom, donor atom, acceptor molecule, acceptor atom, score
      L1  H     3    22       P1 10171  0.88
      L1  H     8    27       P1  7948  0.94
      L1  H     8    37       P1  7957  0.86

> <Gold.Chemscore.Hbond.Weighted>
-9.7672

> <Gold.Chemscore.Metal.Weighted>
-0.0000

> <Gold.Chemscore.Lipo.Weighted>
-7.7257

> <Gold.Chemscore.Internal_Hbond.Weighted>
0.0000

> <Gold.Chemscore.DEClash.Weighted>
0.0579

> <Gold.Chemscore.DEInternal.Weighted>
1.8724

> <Gold.Chemscore.Rot.Weighted>
6.1306

> <Gold.Chemscore.Internal.Correction.Weighted>
   9.000000E+99

> <Gold.Protein.RotatedTorsions>
[ 6907 6896 6895 6894 ] final  -19.34 input  -60.11 | X-H torsion
[ 7974 7965 7964 7962 ] final   51.75 input  175.53 | X-H torsion
[ 8008 7997 7996 7995 ] final  100.20 input   59.86 | X-H torsion
[ 10167 10162 10161 10158 ] final   32.08 input  -65.29 | X-H torsion
[ 10718 10713 10712 10709 ] final  -32.00 input   66.30 | X-H torsion
[ 10763 10752 10751 10750 ] final  117.36 input  -60.55 | X-H torsion
[ 11005 11000 10999 10996 ] final  150.72 input  -57.11 | X-H torsion

> <Gold.Protein.ActiveResidues>
 VAL166  LYS551  ARG553  GLY616  TRP617  ASP618  TYR619  PRO620  LYS621  CYS622 
 ASP623  PHE694  ASN695  SER759  ASP760  ASP761  ALA762  ILE779  LEU786  VAL792 
 PHE793  MET794  SER795  GLU796  ALA797  LYS798  CYS799  TRP800  GLU811  SER814 

> <Gold.Protein.RotatedAtoms>
  151.2646  135.0665  159.9110 H   0  0  0  0  0  0  0  0  0  0  0  0  # atno 6907 bound_to 6896
  152.5360  134.0194  159.7985 H   0  0  0  0  0  0  0  0  0  0  0  0  # atno 6908 bound_to 6896
  151.0423  133.5646  159.2681 H   0  0  0  0  0  0  0  0  0  0  0  0  # atno 6909 bound_to 6896
  145.9882  139.4311  143.0090 H   0  0  0  0  0  0  0  0  0  0  0  0  # atno 7974 bound_to 7965
  156.1180  140.3217  155.8167 H   0  0  0  0  0  0  0  0  0  0  0  0  # atno 8008 bound_to 7997
  155.4556  140.0535  157.3013 H   0  0  0  0  0  0  0  0  0  0  0  0  # atno 8009 bound_to 7997
  154.4806  140.2051  155.9786 H   0  0  0  0  0  0  0  0  0  0  0  0  # atno 8010 bound_to 7997
  140.4531  144.1019  150.6196 H   0  0  0  0  0  0  0  0  0  0  0  0  # atno 10167 bound_to 10162
  156.3803  130.4355  149.7474 H   0  0  0  0  0  0  0  0  0  0  0  0  # atno 10718 bound_to 10713
  153.5513  135.3539  155.2760 H   0  0  0  0  0  0  0  0  0  0  0  0  # atno 10763 bound_to 10752
  154.8706  135.4114  154.2934 H   0  0  0  0  0  0  0  0  0  0  0  0  # atno 10764 bound_to 10752
  153.3661  135.7062  153.6743 H   0  0  0  0  0  0  0  0  0  0  0  0  # atno 10765 bound_to 10752
  140.1155  134.8897  157.1998 H   0  0  0  0  0  0  0  0  0  0  0  0  # atno 11005 bound_to 11000
  145.7669  140.9912  143.1170 LP  0  0  0  0  0  0  0  0  0  0  0  0  # atno 17320 bound_to 7965
  144.6881  139.9399  143.7475 LP  0  0  0  0  0  0  0  0  0  0  0  0  # atno 17321 bound_to 7965
  140.4184  143.2623  151.9746 LP  0  0  0  0  0  0  0  0  0  0  0  0  # atno 17342 bound_to 10162
  139.4798  144.5853  151.7864 LP  0  0  0  0  0  0  0  0  0  0  0  0  # atno 17343 bound_to 10162
  156.4567  130.7932  151.2953 LP  0  0  0  0  0  0  0  0  0  0  0  0  # atno 17370 bound_to 10713
  157.7492  131.0078  150.3206 LP  0  0  0  0  0  0  0  0  0  0  0  0  # atno 17371 bound_to 10713
  140.3034  134.3106  155.7284 LP  0  0  0  0  0  0  0  0  0  0  0  0  # atno 17394 bound_to 11000
  141.2140  133.7605  156.9673 LP  0  0  0  0  0  0  0  0  0  0  0  0  # atno 17395 bound_to 11000

$$$$
