AV-unprocessed.smi:1038|AV-procd|sdf|4521|dock2
  -GOLD-   22720 2533D 1   1.00000     0.00000
 Structure written by MMmdl.
 57 58  0  0  0  0  0  0  0  0  2 V2000
  153.0201  140.0699  159.7024 C   0  0  0  0  0  0  0  0  0  0  0  0
  153.2267  139.6838  158.3553 O   0  0  0  0  0  0  0  0  0  0  0  0
  152.0456  139.1939  157.7422 C   0  0  0  0  0  0  0  0  0  0  0  0
  152.2768  139.0102  156.2336 C   0  0  0  0  0  0  0  0  0  0  0  0
  151.0879  138.4686  155.5594 N   0  0  0  0  0  0  0  0  0  0  0  0
  150.8300  137.0953  155.7364 C   0  0  0  0  0  0  0  0  0  0  0  0
  149.7729  136.4805  155.1711 C   0  0  0  0  0  0  0  0  0  0  0  0
  149.5625  135.0483  155.3943 C   0  0  0  0  0  0  0  0  0  0  0  0
  149.8657  134.4472  156.4259 O   0  0  0  0  0  0  0  0  0  0  0  0
  148.9968  134.4183  154.3525 N   0  0  0  0  0  0  0  0  0  0  0  0
  148.6792  132.9940  154.3068 C   0  0  0  0  0  0  0  0  0  0  0  0
  147.4366  132.6737  153.4158 C   0  0  0  0  0  0  0  0  0  0  0  0
  146.1825  133.1625  154.0976 N   0  3  0  0  0  0  0  0  0  0  0  0
  146.0109  134.6386  154.1585 C   0  0  0  0  0  0  0  0  0  0  0  0
  145.9120  132.5719  155.4354 C   0  0  0  0  0  0  0  0  0  0  0  0
  147.6607  133.3705  152.0327 C   0  0  0  0  0  0  0  0  0  0  0  0
  146.5142  133.3298  151.0053 C   0  0  0  0  0  0  0  0  0  0  0  0
  146.0917  131.9244  150.5592 C   0  0  0  0  0  0  0  0  0  0  0  0
  145.2624  131.2041  151.6271 C   0  0  0  0  0  0  0  0  0  0  0  0
  146.0802  130.4701  152.6999 C   0  0  0  0  0  0  0  0  0  0  0  0
  147.3924  131.1280  153.1876 C   0  0  0  0  0  0  0  0  0  0  0  0
  148.8838  137.2968  154.3573 C   0  0  0  0  0  0  0  0  0  0  0  0
  149.1234  138.6119  154.1894 C   0  0  0  0  0  0  0  0  0  0  0  0
  150.2761  139.2723  154.8086 C   0  0  0  0  0  0  0  0  0  0  0  0
  150.4946  140.4746  154.6591 O   0  0  0  0  0  0  0  0  0  0  0  0
  153.9526  140.4456  160.1233 H   0  0  0  0  0  0  0  0  0  0  0  0
  152.6931  139.2244  160.3091 H   0  0  0  0  0  0  0  0  0  0  0  0
  152.2742  140.8625  159.7753 H   0  0  0  0  0  0  0  0  0  0  0  0
  151.7812  138.2332  158.1867 H   0  0  0  0  0  0  0  0  0  0  0  0
  151.2108  139.8740  157.9206 H   0  0  0  0  0  0  0  0  0  0  0  0
  152.6026  139.9513  155.7874 H   0  0  0  0  0  0  0  0  0  0  0  0
  153.1137  138.3268  156.0827 H   0  0  0  0  0  0  0  0  0  0  0  0
  151.5500  136.5872  156.3631 H   0  0  0  0  0  0  0  0  0  0  0  0
  148.7727  134.9657  153.5342 H   0  0  0  0  0  0  0  0  0  0  0  0
  149.5668  132.4762  153.9419 H   0  0  0  0  0  0  0  0  0  0  0  0
  148.5187  132.6540  155.3304 H   0  0  0  0  0  0  0  0  0  0  0  0
  146.7629  135.1054  154.7945 H   0  0  0  0  0  0  0  0  0  0  0  0
  145.0347  134.8827  154.5790 H   0  0  0  0  0  0  0  0  0  0  0  0
  146.0480  135.1145  153.1811 H   0  0  0  0  0  0  0  0  0  0  0  0
  146.5828  132.9755  156.1941 H   0  0  0  0  0  0  0  0  0  0  0  0
  145.9999  131.4878  155.4525 H   0  0  0  0  0  0  0  0  0  0  0  0
  144.8940  132.8090  155.7463 H   0  0  0  0  0  0  0  0  0  0  0  0
  147.9339  134.4144  152.1899 H   0  0  0  0  0  0  0  0  0  0  0  0
  148.5362  132.9403  151.5452 H   0  0  0  0  0  0  0  0  0  0  0  0
  145.6453  133.8765  151.3702 H   0  0  0  0  0  0  0  0  0  0  0  0
  146.8443  133.8779  150.1219 H   0  0  0  0  0  0  0  0  0  0  0  0
  145.4732  132.0307  149.6671 H   0  0  0  0  0  0  0  0  0  0  0  0
  146.9527  131.3272  150.2562 H   0  0  0  0  0  0  0  0  0  0  0  0
  144.5800  131.9114  152.0995 H   0  0  0  0  0  0  0  0  0  0  0  0
  144.6176  130.4723  151.1391 H   0  0  0  0  0  0  0  0  0  0  0  0
  145.4246  130.2764  153.5483 H   0  0  0  0  0  0  0  0  0  0  0  0
  146.3367  129.4812  152.3176 H   0  0  0  0  0  0  0  0  0  0  0  0
  148.1776  130.8553  152.4812 H   0  0  0  0  0  0  0  0  0  0  0  0
  147.6797  130.6165  154.1071 H   0  0  0  0  0  0  0  0  0  0  0  0
  148.0157  136.8741  153.8736 H   0  0  0  0  0  0  0  0  0  0  0  0
  148.4490  139.1979  153.5821 H   0  0  0  0  0  0  0  0  0  0  0  0
  145.4316  132.8344  153.5068 H   0  0  0  0  0  0  0  0  0  0  0  0
  1  2  1  0  0  0  0
  1 26  1  0  0  0  0
  1 27  1  0  0  0  0
  1 28  1  0  0  0  0
  2  3  1  0  0  0  0
  3  4  1  0  0  0  0
  3 29  1  0  0  0  0
  3 30  1  0  0  0  0
  4  5  1  0  0  0  0
  4 31  1  0  0  0  0
  4 32  1  0  0  0  0
  5 24  1  0  0  0  0
  5  6  1  0  0  0  0
  6  7  2  0  0  0  0
  6 33  1  0  0  0  0
  7  8  1  0  0  0  0
  7 22  1  0  0  0  0
  8  9  2  0  0  0  0
  8 10  1  0  0  0  0
 10 11  1  0  0  0  0
 10 34  1  0  0  0  0
 11 12  1  0  0  0  0
 11 35  1  0  0  0  0
 11 36  1  0  0  0  0
 12 21  1  0  0  0  0
 12 13  1  0  0  0  0
 12 16  1  0  0  0  0
 13 14  1  0  0  0  0
 13 15  1  0  0  0  0
 13 57  1  0  0  0  0
 14 37  1  0  0  0  0
 14 38  1  0  0  0  0
 14 39  1  0  0  0  0
 15 40  1  0  0  0  0
 15 41  1  0  0  0  0
 15 42  1  0  0  0  0
 16 17  1  0  0  0  0
 16 43  1  0  0  0  0
 16 44  1  0  0  0  0
 17 18  1  0  0  0  0
 17 45  1  0  0  0  0
 17 46  1  0  0  0  0
 18 19  1  0  0  0  0
 18 47  1  0  0  0  0
 18 48  1  0  0  0  0
 19 20  1  0  0  0  0
 19 49  1  0  0  0  0
 19 50  1  0  0  0  0
 20 21  1  0  0  0  0
 20 51  1  0  0  0  0
 20 52  1  0  0  0  0
 21 53  1  0  0  0  0
 21 54  1  0  0  0  0
 22 23  2  0  0  0  0
 22 55  1  0  0  0  0
 23 24  1  0  0  0  0
 23 56  1  0  0  0  0
 24 25  2  0  0  0  0
M  CHG  1  13   1
M  END
> <s_m_source_file>
AV-unprocessed.smi

> <i_m_source_file_index>
1038

> <i_lp_mmshare_version>
43012

> <i_f3d_flags>
0

> <s_epik_input>
W0NIM11PW0NIMl1bQ0gyXW4xW2NIXWMoW2NIXVtjSF1jMT1PKUMoPU8pW05IXVtDSDJdQzIoTihbQ0gzXSlbQ0gzXSlbQ0gyXVtDSDJdW0NIMl1bQ0gyXVtDSDJdW0NIMl0y

> <s_epik_cmdline>
J2VwaWtfcHl0aG9uJywgJy1waCcsICc3LjAnLCAnLXRuJywgJzgnLCAnLW1hJywgJzIwMCcsICctbWV0YWxfYmluZGluZycsICctaW1hZScsICc8aW5maWxlLm1hZT4nLCAnLW9tYWUnLCAnPG91dGZpbGUubWFlPic=

> <r_lp_tautomer_probability>
1

> <r_epik_Ionization_Penalty>
0.00379096

> <r_epik_Ionization_Penalty_Charging>
0.0037899

> <r_epik_Ionization_Penalty_Neutral>
1.06849e-06

> <r_epik_State_Penalty>
0.00270348

> <r_epik_Charging_Adjusted_Penalty>
0.00649338

> <i_epik_Tot_Q>
1

> <i_epik_Tot_abs_Q>
1

> <r_epik_Metal_State_Penalty>
-0

> <b_epik_Metal_Only>
0

> <s_lp_Force_Field>
OPLS_2005

> <r_lp_Energy>
50.9414

> <b_lp_Chiralities_Consistent>
1

> <s_lp_Variant>
AV-unprocessed.smi:1038-1

> <Gold.Version>
5.8.1

> <Gold.Id.Protein>
6NUR|6NUR_protein|mol2

> <Gold.PLP.Fitness>
41.8488

> <Gold.PLP.PLP>
-34.6285

> <Gold.PLP.part.hbond>
-2.8387

> <Gold.PLP.part.metal>
0.0000

> <Gold.PLP.part.buried>
0.9212

> <Gold.PLP.part.nonpolar>
-31.8938

> <Gold.PLP.part.repulsive>
0.1024

> <Gold.PLP.ligand.clash>
0.0000

> <Gold.PLP.ligand.torsion>
1.0254

> <Gold.PLP.Chemscore.Hbond>
2.9913

> <Gold.PLP.Chemscore.CHOScore>
0.0000

> <Gold.PLP.Chemscore.Metal>
0.0000

> <Gold.Chemscore.Hbonds>
donor molecule, donor type, donor heavy atom, donor atom, acceptor molecule, acceptor atom, score
      L1  H    10    34       P1  7948  0.89
      P1  H  7989  7998       L1    25  1.00
      P1  H  7997  8010       L1     2  0.96

> <Gold.PLP.Chemscore.Internal.Correction>
0.2974

> <Gold.Rescore>
     Score         DG    S(hbond)    S(metal)    S(lipo)     H(rot)  DE(clash)    DE(int)     intcor
     16.92     -19.58       2.35        0.00      94.28       1.86       1.44       1.22       ----

> <Gold.Chemscore.Fitness>
16.9155

> <Gold.Chemscore.DG>
-19.5766

> <Gold.Chemscore.ZeroCoef>
-5.4800

> <Gold.Chemscore.Hbond>
2.3471

> <Gold.Chemscore.Metal>
0.0000

> <Gold.Chemscore.Lipo>
94.2839

> <Gold.Chemscore.Internal_Hbond>
0.0000

> <Gold.Chemscore.DEClash>
1.4389

> <Gold.Chemscore.DEInternal>
1.2222

> <Gold.Chemscore.Rot>
1.8649

> <Gold.Chemscore.Internal.Correction>
   9.000000E+99

> <Gold.Chemscore.Hbonds>
donor molecule, donor type, donor heavy atom, donor atom, acceptor molecule, acceptor atom, score
      L1  H    10    34       P1  7948  0.52
      P1  H  7989  7998       L1    25  0.88
      P1  H  7997  8010       L1     2  0.86

> <Gold.Chemscore.Hbond.Weighted>
-7.8394

> <Gold.Chemscore.Metal.Weighted>
-0.0000

> <Gold.Chemscore.Lipo.Weighted>
-11.0312

> <Gold.Chemscore.Internal_Hbond.Weighted>
0.0000

> <Gold.Chemscore.DEClash.Weighted>
1.4389

> <Gold.Chemscore.DEInternal.Weighted>
1.2222

> <Gold.Chemscore.Rot.Weighted>
4.7741

> <Gold.Chemscore.Internal.Correction.Weighted>
   9.000000E+99

> <Gold.Protein.RotatedTorsions>
[ 6907 6896 6895 6894 ] final  -70.18 input  -60.11 | X-H torsion
[ 7974 7965 7964 7962 ] final -133.03 input  175.53 | X-H torsion
[ 8008 7997 7996 7995 ] final   13.94 input   59.86 | X-H torsion
[ 10167 10162 10161 10158 ] final  -19.70 input  -65.29 | X-H torsion
[ 10718 10713 10712 10709 ] final   -6.67 input   66.30 | X-H torsion
[ 10763 10752 10751 10750 ] final  -72.32 input  -60.55 | X-H torsion
[ 11005 11000 10999 10996 ] final  -77.27 input  -57.11 | X-H torsion

> <Gold.Protein.ActiveResidues>
 VAL166  LYS551  ARG553  GLY616  TRP617  ASP618  TYR619  PRO620  LYS621  CYS622 
 ASP623  PHE694  ASN695  SER759  ASP760  ASP761  ALA762  ILE779  LEU786  VAL792 
 PHE793  MET794  SER795  GLU796  ALA797  LYS798  CYS799  TRP800  GLU811  SER814 

> <Gold.Protein.RotatedAtoms>
  150.7270  134.5490  159.5784 H   0  0  0  0  0  0  0  0  0  0  0  0  # atno 6907 bound_to 6896
  152.2982  134.7639  160.0372 H   0  0  0  0  0  0  0  0  0  0  0  0  # atno 6908 bound_to 6896
  151.8229  133.3361  159.3626 H   0  0  0  0  0  0  0  0  0  0  0  0  # atno 6909 bound_to 6896
  144.9231  140.7038  143.4953 H   0  0  0  0  0  0  0  0  0  0  0  0  # atno 7974 bound_to 7965
  154.8415  140.2915  155.5656 H   0  0  0  0  0  0  0  0  0  0  0  0  # atno 8008 bound_to 7997
  156.3012  140.2513  156.3290 H   0  0  0  0  0  0  0  0  0  0  0  0  # atno 8009 bound_to 7997
  154.9120  140.0388  157.1941 H   0  0  0  0  0  0  0  0  0  0  0  0  # atno 8010 bound_to 7997
  140.7270  143.4793  151.0139 H   0  0  0  0  0  0  0  0  0  0  0  0  # atno 10167 bound_to 10162
  156.7284  130.5172  149.5851 H   0  0  0  0  0  0  0  0  0  0  0  0  # atno 10718 bound_to 10713
  154.4441  135.5933  153.6148 H   0  0  0  0  0  0  0  0  0  0  0  0  # atno 10763 bound_to 10752
  152.9808  135.6005  154.3686 H   0  0  0  0  0  0  0  0  0  0  0  0  # atno 10764 bound_to 10752
  154.3540  135.2841  155.2335 H   0  0  0  0  0  0  0  0  0  0  0  0  # atno 10765 bound_to 10752
  141.1659  133.7016  156.7794 H   0  0  0  0  0  0  0  0  0  0  0  0  # atno 11005 bound_to 11000
  145.3264  139.1773  143.4560 LP  0  0  0  0  0  0  0  0  0  0  0  0  # atno 17320 bound_to 7965
  146.3214  140.3288  142.8639 LP  0  0  0  0  0  0  0  0  0  0  0  0  # atno 17321 bound_to 7965
  139.8490  143.7463  152.3178 LP  0  0  0  0  0  0  0  0  0  0  0  0  # atno 17342 bound_to 10162
  139.7638  144.7498  151.0324 LP  0  0  0  0  0  0  0  0  0  0  0  0  # atno 17343 bound_to 10162
  156.1546  130.6333  151.0640 LP  0  0  0  0  0  0  0  0  0  0  0  0  # atno 17370 bound_to 10713
  157.6869  131.0822  150.7218 LP  0  0  0  0  0  0  0  0  0  0  0  0  # atno 17371 bound_to 10713
  140.2405  134.8617  157.3569 LP  0  0  0  0  0  0  0  0  0  0  0  0  # atno 17394 bound_to 11000
  140.1800  134.4501  155.7778 LP  0  0  0  0  0  0  0  0  0  0  0  0  # atno 17395 bound_to 11000

$$$$
