AV-unprocessed.smi:1589|AV-procd|sdf|6393|dock7
  -GOLD-   22720 7 33D 1   1.00000     0.00000
 Structure written by MMmdl.
 44 45  0  0  0  0  0  0  0  0  2 V2000
  145.3317  132.2020  150.6524 C   0  0  0  0  0  0  0  0  0  0  0  0
  143.9086  132.6324  150.2379 C   0  0  0  0  0  0  0  0  0  0  0  0
  143.8216  132.6246  148.6976 C   0  0  0  0  0  0  0  0  0  0  0  0
  143.5108  133.9550  150.8211 N   0  3  0  0  0  0  0  0  0  0  0  0
  144.4643  135.0605  150.4967 C   0  0  0  0  0  0  0  0  0  0  0  0
  144.0695  136.3943  151.1564 C   0  0  0  0  0  0  0  0  0  0  0  0
  143.9422  136.1876  152.6027 N   0  0  0  0  0  0  0  0  0  0  0  0
  144.8436  136.5489  153.5510 C   0  0  0  0  0  0  0  0  0  0  0  0
  144.7433  136.1983  154.7269 O   0  0  0  0  0  0  0  0  0  0  0  0
  145.8204  137.3608  153.1041 N   0  0  0  0  0  0  0  0  0  0  0  0
  146.9254  137.8674  153.8331 C   0  0  0  0  0  0  0  0  0  0  0  0
  147.3548  137.5597  155.1550 C   0  0  0  0  0  0  0  0  0  0  0  0
  148.4409  138.2472  155.4738 N   0  0  0  0  0  0  0  0  0  0  0  0
  148.7238  138.9926  154.3762 N   0  0  0  0  0  0  0  0  0  0  0  0
  149.8782  139.8766  154.3836 C   0  0  0  0  0  0  0  0  0  0  0  0
  149.4831  141.3506  154.5342 C   0  0  0  0  0  0  0  0  0  0  0  0
  149.9991  142.0071  155.5763 N   0  0  0  0  0  0  0  0  0  0  0  0
  148.7307  141.8961  153.7284 O   0  0  0  0  0  0  0  0  0  0  0  0
  147.8121  138.7867  153.3589 C   0  0  0  0  0  0  0  0  0  0  0  0
  142.8500  135.2557  152.8801 C   0  0  0  0  0  0  0  0  0  0  0  0
  143.2011  133.8815  152.2821 C   0  0  0  0  0  0  0  0  0  0  0  0
  145.6344  131.2935  150.1308 H   0  0  0  0  0  0  0  0  0  0  0  0
  145.4012  131.9744  151.7160 H   0  0  0  0  0  0  0  0  0  0  0  0
  146.0661  132.9736  150.4182 H   0  0  0  0  0  0  0  0  0  0  0  0
  143.2154  131.8788  150.6151 H   0  0  0  0  0  0  0  0  0  0  0  0
  144.2154  131.6944  148.2867 H   0  0  0  0  0  0  0  0  0  0  0  0
  144.3961  133.4434  148.2628 H   0  0  0  0  0  0  0  0  0  0  0  0
  142.7952  132.7001  148.3394 H   0  0  0  0  0  0  0  0  0  0  0  0
  145.4688  134.7762  150.8150 H   0  0  0  0  0  0  0  0  0  0  0  0
  144.5026  135.2273  149.4212 H   0  0  0  0  0  0  0  0  0  0  0  0
  144.7868  137.1676  150.8815 H   0  0  0  0  0  0  0  0  0  0  0  0
  143.1131  136.7372  150.7586 H   0  0  0  0  0  0  0  0  0  0  0  0
  145.7854  137.6151  152.1279 H   0  0  0  0  0  0  0  0  0  0  0  0
  146.9349  136.8816  155.8828 H   0  0  0  0  0  0  0  0  0  0  0  0
  150.5328  139.5777  155.2036 H   0  0  0  0  0  0  0  0  0  0  0  0
  150.4415  139.7486  153.4580 H   0  0  0  0  0  0  0  0  0  0  0  0
  149.7704  142.9790  155.7264 H   0  0  0  0  0  0  0  0  0  0  0  0
  150.6159  141.5251  156.2143 H   0  0  0  0  0  0  0  0  0  0  0  0
  147.8784  139.2966  152.4091 H   0  0  0  0  0  0  0  0  0  0  0  0
  142.6419  135.1583  153.9467 H   0  0  0  0  0  0  0  0  0  0  0  0
  141.9275  135.6342  152.4372 H   0  0  0  0  0  0  0  0  0  0  0  0
  142.3556  133.2191  152.4613 H   0  0  0  0  0  0  0  0  0  0  0  0
  144.0569  133.4595  152.8118 H   0  0  0  0  0  0  0  0  0  0  0  0
  142.6427  134.2093  150.3722 H   0  0  0  0  0  0  0  0  0  0  0  0
  1  2  1  0  0  0  0
  1 22  1  0  0  0  0
  1 23  1  0  0  0  0
  1 24  1  0  0  0  0
  2  3  1  0  0  0  0
  2  4  1  0  0  0  0
  2 25  1  0  0  0  0
  3 26  1  0  0  0  0
  3 27  1  0  0  0  0
  3 28  1  0  0  0  0
  4 21  1  0  0  0  0
  4  5  1  0  0  0  0
  4 44  1  0  0  0  0
  5  6  1  0  0  0  0
  5 29  1  0  0  0  0
  5 30  1  0  0  0  0
  6  7  1  0  0  0  0
  6 31  1  0  0  0  0
  6 32  1  0  0  0  0
  7  8  1  0  0  0  0
  7 20  1  0  0  0  0
  8  9  2  0  0  0  0
  8 10  1  0  0  0  0
 10 11  1  0  0  0  0
 10 33  1  0  0  0  0
 11 19  2  0  0  0  0
 11 12  1  0  0  0  0
 12 13  2  0  0  0  0
 12 34  1  0  0  0  0
 13 14  1  0  0  0  0
 14 15  1  0  0  0  0
 14 19  1  0  0  0  0
 15 16  1  0  0  0  0
 15 35  1  0  0  0  0
 15 36  1  0  0  0  0
 16 17  1  0  0  0  0
 16 18  2  0  0  0  0
 17 37  1  0  0  0  0
 17 38  1  0  0  0  0
 19 39  1  0  0  0  0
 20 21  1  0  0  0  0
 20 40  1  0  0  0  0
 20 41  1  0  0  0  0
 21 42  1  0  0  0  0
 21 43  1  0  0  0  0
M  CHG  1   4   1
M  END
> <s_m_source_file>
AV-unprocessed.smi

> <i_m_source_file_index>
1589

> <i_lp_mmshare_version>
43012

> <i_f3d_flags>
0

> <s_epik_input>
W0NIM11bQ0hdKFtDSDNdKU4xW0NIMl1bQ0gyXU4oW0NIMl1bQ0gyXTEpQyg9TylbTkhdYzJbY0hdbm4oW2NIXTIpW0NIMl1DKD1PKVtOSDJd

> <s_epik_cmdline>
J2VwaWtfcHl0aG9uJywgJy1waCcsICc3LjAnLCAnLXRuJywgJzgnLCAnLW1hJywgJzIwMCcsICctbWV0YWxfYmluZGluZycsICctaW1hZScsICc8aW5maWxlLm1hZT4nLCAnLW9tYWUnLCAnPG91dGZpbGUubWFlPic=

> <r_lp_tautomer_probability>
1

> <r_epik_Ionization_Penalty>
0.241469

> <r_epik_Ionization_Penalty_Charging>
0.241445

> <r_epik_Ionization_Penalty_Neutral>
2.46507e-05

> <r_epik_State_Penalty>
0.232445

> <r_epik_Charging_Adjusted_Penalty>
0.47389

> <i_epik_Tot_Q>
1

> <i_epik_Tot_abs_Q>
1

> <r_epik_Metal_State_Penalty>
0.232446

> <b_epik_Metal_Only>
0

> <s_lp_Force_Field>
OPLS_2005

> <r_lp_Energy>
56.898

> <b_lp_Chiralities_Consistent>
1

> <s_lp_Variant>
AV-unprocessed.smi:1589-1

> <Gold.Version>
5.8.1

> <Gold.Id.Protein>
6NUR|6NUR_protein|mol2

> <Gold.PLP.Fitness>
43.9015

> <Gold.PLP.PLP>
-31.1197

> <Gold.PLP.part.hbond>
-3.0000

> <Gold.PLP.part.metal>
0.0000

> <Gold.PLP.part.buried>
-0.2904

> <Gold.PLP.part.nonpolar>
-28.2259

> <Gold.PLP.part.repulsive>
0.3811

> <Gold.PLP.ligand.clash>
0.0000

> <Gold.PLP.ligand.torsion>
0.3606

> <Gold.PLP.Chemscore.Hbond>
3.4599

> <Gold.PLP.Chemscore.CHOScore>
1.0000

> <Gold.PLP.Chemscore.Metal>
0.0000

> <Gold.Chemscore.Hbonds>
donor molecule, donor type, donor heavy atom, donor atom, acceptor molecule, acceptor atom, score
      L1  H     4    44       P1 10186  2.00
      L1  H    17    37       P1  8028  1.00
      P1  H  8011  8017       L1    18  0.51
      L1  C    19    39       P1  7957  1.00

> <Gold.PLP.Chemscore.Internal.Correction>
0.1231

> <Gold.Rescore>
     Score         DG    S(hbond)    S(metal)    S(lipo)     H(rot)  DE(clash)    DE(int)     intcor
     14.98     -17.80       2.60        0.00      71.37       1.84       1.43       1.39       ----

> <Gold.Chemscore.Fitness>
14.9775

> <Gold.Chemscore.DG>
-17.8021

> <Gold.Chemscore.ZeroCoef>
-5.4800

> <Gold.Chemscore.Hbond>
2.5989

> <Gold.Chemscore.Metal>
0.0000

> <Gold.Chemscore.Lipo>
71.3691

> <Gold.Chemscore.Internal_Hbond>
0.0000

> <Gold.Chemscore.DEClash>
1.4305

> <Gold.Chemscore.DEInternal>
1.3941

> <Gold.Chemscore.Rot>
1.8392

> <Gold.Chemscore.Internal.Correction>
   9.000000E+99

> <Gold.Chemscore.Hbonds>
donor molecule, donor type, donor heavy atom, donor atom, acceptor molecule, acceptor atom, score
      L1  H     4    44       P1 10186  0.82
      L1  H    17    37       P1  8028  0.99
      P1  H  8011  8017       L1    18  0.29

> <Gold.Chemscore.Hbond.Weighted>
-8.6802

> <Gold.Chemscore.Metal.Weighted>
-0.0000

> <Gold.Chemscore.Lipo.Weighted>
-8.3502

> <Gold.Chemscore.Internal_Hbond.Weighted>
0.0000

> <Gold.Chemscore.DEClash.Weighted>
1.4305

> <Gold.Chemscore.DEInternal.Weighted>
1.3941

> <Gold.Chemscore.Rot.Weighted>
4.7083

> <Gold.Chemscore.Internal.Correction.Weighted>
   9.000000E+99

> <Gold.Protein.RotatedTorsions>
[ 6907 6896 6895 6894 ] final  -55.66 input  -60.11 | X-H torsion
[ 7974 7965 7964 7962 ] final  142.54 input  175.53 | X-H torsion
[ 8008 7997 7996 7995 ] final -117.90 input   59.86 | X-H torsion
[ 10167 10162 10161 10158 ] final  -74.52 input  -65.29 | X-H torsion
[ 10718 10713 10712 10709 ] final  135.42 input   66.30 | X-H torsion
[ 10763 10752 10751 10750 ] final  -16.33 input  -60.55 | X-H torsion
[ 11005 11000 10999 10996 ] final   19.16 input  -57.11 | X-H torsion

> <Gold.Protein.ActiveResidues>
 VAL166  LYS551  ARG553  GLY616  TRP617  ASP618  TYR619  PRO620  LYS621  CYS622 
 ASP623  PHE694  ASN695  SER759  ASP760  ASP761  ALA762  ILE779  LEU786  VAL792 
 PHE793  MET794  SER795  GLU796  ALA797  LYS798  CYS799  TRP800  GLU811  SER814 

> <Gold.Protein.RotatedAtoms>
  150.8233  134.7451  159.6790 H   0  0  0  0  0  0  0  0  0  0  0  0  # atno 6907 bound_to 6896
  152.4346  134.5707  159.9930 H   0  0  0  0  0  0  0  0  0  0  0  0  # atno 6908 bound_to 6896
  151.5886  133.3331  159.3059 H   0  0  0  0  0  0  0  0  0  0  0  0  # atno 6909 bound_to 6896
  144.8999  139.5438  143.5758 H   0  0  0  0  0  0  0  0  0  0  0  0  # atno 7974 bound_to 7965
  155.0911  140.0395  157.2669 H   0  0  0  0  0  0  0  0  0  0  0  0  # atno 8008 bound_to 7997
  154.6831  140.2637  155.6863 H   0  0  0  0  0  0  0  0  0  0  0  0  # atno 8009 bound_to 7997
  156.2702  140.2774  156.1382 H   0  0  0  0  0  0  0  0  0  0  0  0  # atno 8010 bound_to 7997
  140.5020  143.2359  151.7736 H   0  0  0  0  0  0  0  0  0  0  0  0  # atno 10167 bound_to 10162
  157.4572  131.1070  150.9963 H   0  0  0  0  0  0  0  0  0  0  0  0  # atno 10718 bound_to 10713
  153.5570  135.7010  153.5565 H   0  0  0  0  0  0  0  0  0  0  0  0  # atno 10763 bound_to 10752
  153.3464  135.4007  155.1612 H   0  0  0  0  0  0  0  0  0  0  0  0  # atno 10764 bound_to 10752
  154.8653  135.3754  154.5084 H   0  0  0  0  0  0  0  0  0  0  0  0  # atno 10765 bound_to 10752
  140.4168  134.1560  155.7670 H   0  0  0  0  0  0  0  0  0  0  0  0  # atno 11005 bound_to 11000
  146.3102  139.7720  142.9025 LP  0  0  0  0  0  0  0  0  0  0  0  0  # atno 17320 bound_to 7965
  145.3635  141.0330  143.3271 LP  0  0  0  0  0  0  0  0  0  0  0  0  # atno 17321 bound_to 7965
  139.4874  144.4509  151.9655 LP  0  0  0  0  0  0  0  0  0  0  0  0  # atno 17342 bound_to 10162
  140.3598  144.2987  150.5935 LP  0  0  0  0  0  0  0  0  0  0  0  0  # atno 17343 bound_to 10162
  157.0773  130.5888  149.5413 LP  0  0  0  0  0  0  0  0  0  0  0  0  # atno 17370 bound_to 10713
  156.0012  130.5092  150.7671 LP  0  0  0  0  0  0  0  0  0  0  0  0  # atno 17371 bound_to 10713
  141.1800  133.8435  157.1292 LP  0  0  0  0  0  0  0  0  0  0  0  0  # atno 17394 bound_to 11000
  140.0228  134.9938  157.0626 LP  0  0  0  0  0  0  0  0  0  0  0  0  # atno 17395 bound_to 11000

$$$$
