AV-unprocessed.smi:2987|AV-procd|sdf|11386|dock2
  -GOLD-   2272016313D 1   1.00000     0.00000
 Structure written by MMmdl.
 26 27  0  0  0  0  0  0  0  0  2 V2000
  149.6843  141.0029  154.8983 C   0  0  0  0  0  0  0  0  0  0  0  0
  150.4545  141.5893  156.0333 C   0  0  0  0  0  0  0  0  0  0  0  0
  150.4639  142.9005  156.4054 N   0  3  0  0  0  0  0  0  0  0  0  0
  151.3016  143.0725  157.5086 C   0  0  0  0  0  0  0  0  0  0  0  0
  151.6299  144.2124  158.2360 C   0  0  0  0  0  0  0  0  0  0  0  0
  152.5250  144.0399  159.3124 C   0  0  0  0  0  0  0  0  0  0  0  0
  153.0577  142.7733  159.6294 C   0  0  0  0  0  0  0  0  0  0  0  0
  152.7176  141.6246  158.8847 C   0  0  0  0  0  0  0  0  0  0  0  0
  151.8305  141.8039  157.8237 C   0  0  0  0  0  0  0  0  0  0  0  0
  151.2791  140.9209  156.8890 N   0  0  0  0  0  0  0  0  0  0  0  0
  151.6391  139.4987  156.9447 C   0  0  0  0  0  0  0  0  0  0  0  0
  151.8354  138.9041  155.5433 C   0  0  0  0  0  0  0  0  0  0  0  0
  152.8115  139.6466  154.8471 O   0  0  0  0  0  0  0  0  0  0  0  0
  149.1699  141.7845  154.3387 H   0  0  0  0  0  0  0  0  0  0  0  0
  148.9416  140.2982  155.2727 H   0  0  0  0  0  0  0  0  0  0  0  0
  150.3557  140.4755  154.2203 H   0  0  0  0  0  0  0  0  0  0  0  0
  151.2244  145.1841  157.9946 H   0  0  0  0  0  0  0  0  0  0  0  0
  152.8094  144.8965  159.9062 H   0  0  0  0  0  0  0  0  0  0  0  0
  153.7416  142.6803  160.4607 H   0  0  0  0  0  0  0  0  0  0  0  0
  153.1316  140.6587  159.1344 H   0  0  0  0  0  0  0  0  0  0  0  0
  152.5374  139.3867  157.5533 H   0  0  0  0  0  0  0  0  0  0  0  0
  150.8410  138.9733  157.4709 H   0  0  0  0  0  0  0  0  0  0  0  0
  152.1570  137.8643  155.6078 H   0  0  0  0  0  0  0  0  0  0  0  0
  150.9041  138.9247  154.9767 H   0  0  0  0  0  0  0  0  0  0  0  0
  153.2415  139.0752  154.2289 H   0  0  0  0  0  0  0  0  0  0  0  0
  149.9348  143.6242  155.9359 H   0  0  0  0  0  0  0  0  0  0  0  0
  1  2  1  0  0  0  0
  1 14  1  0  0  0  0
  1 15  1  0  0  0  0
  1 16  1  0  0  0  0
  2 10  1  0  0  0  0
  2  3  2  0  0  0  0
  3  4  1  0  0  0  0
  3 26  1  0  0  0  0
  4  9  2  0  0  0  0
  4  5  1  0  0  0  0
  5  6  2  0  0  0  0
  5 17  1  0  0  0  0
  6  7  1  0  0  0  0
  6 18  1  0  0  0  0
  7  8  2  0  0  0  0
  7 19  1  0  0  0  0
  8  9  1  0  0  0  0
  8 20  1  0  0  0  0
  9 10  1  0  0  0  0
 10 11  1  0  0  0  0
 11 12  1  0  0  0  0
 11 21  1  0  0  0  0
 11 22  1  0  0  0  0
 12 13  1  0  0  0  0
 12 23  1  0  0  0  0
 12 24  1  0  0  0  0
 13 25  1  0  0  0  0
M  CHG  1   3   1
M  END
> <s_m_source_file>
AV-unprocessed.smi

> <i_m_source_file_index>
2987

> <i_lp_mmshare_version>
43012

> <i_f3d_flags>
0

> <s_epik_input>
W09IXVtDSDJdW0NIMl1uKGMobjEpW0NIM10pYyhjMTIpW2NIXVtjSF1bY0hdW2NIXTI=

> <s_epik_cmdline>
J2VwaWtfcHl0aG9uJywgJy1waCcsICc3LjAnLCAnLXRuJywgJzgnLCAnLW1hJywgJzIwMCcsICctbWV0YWxfYmluZGluZycsICctaW1hZScsICc8aW5maWxlLm1hZT4nLCAnLW9tYWUnLCAnPG91dGZpbGUubWFlPic=

> <r_epik_Ionization_Penalty>
0.963868

> <r_epik_Ionization_Penalty_Charging>
0.963868

> <r_epik_Ionization_Penalty_Neutral>
5.76694e-08

> <r_epik_State_Penalty>
1.00924

> <r_epik_Charging_Adjusted_Penalty>
1.9731

> <i_epik_Tot_Q>
1

> <i_epik_Tot_abs_Q>
1

> <r_epik_Metal_State_Penalty>
4.98304

> <b_epik_Metal_Only>
0

> <s_lp_Force_Field>
OPLS_2005

> <r_lp_Energy>
11.6112

> <b_lp_Chiralities_Consistent>
1

> <s_lp_Variant>
AV-unprocessed.smi:2987-2

> <Gold.Version>
5.8.1

> <Gold.Id.Protein>
6NUR|6NUR_protein|mol2

> <Gold.PLP.Fitness>
43.4571

> <Gold.PLP.PLP>
-33.9289

> <Gold.PLP.part.hbond>
-2.9562

> <Gold.PLP.part.metal>
0.0000

> <Gold.PLP.part.buried>
-3.8658

> <Gold.PLP.part.nonpolar>
-27.8199

> <Gold.PLP.part.repulsive>
0.0892

> <Gold.PLP.ligand.clash>
0.0000

> <Gold.PLP.ligand.torsion>
0.2921

> <Gold.PLP.Chemscore.Hbond>
3.3708

> <Gold.PLP.Chemscore.CHOScore>
0.0000

> <Gold.PLP.Chemscore.Metal>
0.0000

> <Gold.Chemscore.Hbonds>
donor molecule, donor type, donor heavy atom, donor atom, acceptor molecule, acceptor atom, score
      L1  H     3    26       P1  8028  2.00
      P1  H  7989  7998       L1    13  0.37
      P1  H  7997  8008       L1    13  1.00

> <Gold.PLP.Chemscore.Internal.Correction>
0.0002

> <Gold.Rescore>
     Score         DG    S(hbond)    S(metal)    S(lipo)     H(rot)  DE(clash)    DE(int)     intcor
     17.17     -17.50       1.95        0.00      85.16       1.74       0.13       0.20       ----

> <Gold.Chemscore.Fitness>
17.1733

> <Gold.Chemscore.DG>
-17.5042

> <Gold.Chemscore.ZeroCoef>
-5.4800

> <Gold.Chemscore.Hbond>
1.9528

> <Gold.Chemscore.Metal>
0.0000

> <Gold.Chemscore.Lipo>
85.1646

> <Gold.Chemscore.Internal_Hbond>
0.0000

> <Gold.Chemscore.DEClash>
0.1288

> <Gold.Chemscore.DEInternal>
0.2021

> <Gold.Chemscore.Rot>
1.7431

> <Gold.Chemscore.Internal.Correction>
   9.000000E+99

> <Gold.Chemscore.Hbonds>
donor molecule, donor type, donor heavy atom, donor atom, acceptor molecule, acceptor atom, score
      L1  H     3    26       P1  8028  0.93
      P1  H  7989  7998       L1    13  0.04
      P1  H  7997  8008       L1    13  0.21

> <Gold.Chemscore.Hbond.Weighted>
-6.5223

> <Gold.Chemscore.Metal.Weighted>
-0.0000

> <Gold.Chemscore.Lipo.Weighted>
-9.9643

> <Gold.Chemscore.Internal_Hbond.Weighted>
0.0000

> <Gold.Chemscore.DEClash.Weighted>
0.1288

> <Gold.Chemscore.DEInternal.Weighted>
0.2021

> <Gold.Chemscore.Rot.Weighted>
4.4624

> <Gold.Chemscore.Internal.Correction.Weighted>
   9.000000E+99

> <Gold.Protein.RotatedTorsions>
[ 6907 6896 6895 6894 ] final   58.45 input  -60.11 | X-H torsion
[ 7974 7965 7964 7962 ] final   85.12 input  175.53 | X-H torsion
[ 8008 7997 7996 7995 ] final  -22.76 input   59.86 | X-H torsion
[ 10167 10162 10161 10158 ] final  -75.04 input  -65.29 | X-H torsion
[ 10718 10713 10712 10709 ] final   60.01 input   66.30 | X-H torsion
[ 10763 10752 10751 10750 ] final -134.40 input  -60.55 | X-H torsion
[ 11005 11000 10999 10996 ] final  -88.38 input  -57.11 | X-H torsion

> <Gold.Protein.ActiveResidues>
 VAL166  LYS551  ARG553  GLY616  TRP617  ASP618  TYR619  PRO620  LYS621  CYS622 
 ASP623  PHE694  ASN695  SER759  ASP760  ASP761  ALA762  ILE779  LEU786  VAL792 
 PHE793  MET794  SER795  GLU796  ALA797  LYS798  CYS799  TRP800  GLU811  SER814 

> <Gold.Protein.RotatedAtoms>
  152.3826  134.6567  160.0137 H   0  0  0  0  0  0  0  0  0  0  0  0  # atno 6907 bound_to 6896
  151.6826  133.3306  159.3231 H   0  0  0  0  0  0  0  0  0  0  0  0  # atno 6908 bound_to 6896
  150.7759  134.6704  159.6433 H   0  0  0  0  0  0  0  0  0  0  0  0  # atno 6909 bound_to 6896
  145.5897  139.2336  143.2306 H   0  0  0  0  0  0  0  0  0  0  0  0  # atno 7974 bound_to 7965
  154.4625  140.1999  156.0207 H   0  0  0  0  0  0  0  0  0  0  0  0  # atno 8008 bound_to 7997
  156.0866  140.3264  155.7733 H   0  0  0  0  0  0  0  0  0  0  0  0  # atno 8009 bound_to 7997
  155.5025  140.0555  157.2927 H   0  0  0  0  0  0  0  0  0  0  0  0  # atno 8010 bound_to 7997
  140.4976  143.2367  151.7805 H   0  0  0  0  0  0  0  0  0  0  0  0  # atno 10167 bound_to 10162
  157.5720  130.8914  149.9282 H   0  0  0  0  0  0  0  0  0  0  0  0  # atno 10718 bound_to 10713
  154.8720  135.3736  154.4729 H   0  0  0  0  0  0  0  0  0  0  0  0  # atno 10763 bound_to 10752
  153.5388  135.7027  153.5652 H   0  0  0  0  0  0  0  0  0  0  0  0  # atno 10764 bound_to 10752
  153.3823  135.3993  155.1830 H   0  0  0  0  0  0  0  0  0  0  0  0  # atno 10765 bound_to 10752
  141.1602  133.7566  156.9442 H   0  0  0  0  0  0  0  0  0  0  0  0  # atno 11005 bound_to 11000
  146.1656  140.6724  142.9257 LP  0  0  0  0  0  0  0  0  0  0  0  0  # atno 17320 bound_to 7965
  144.7357  140.4800  143.6906 LP  0  0  0  0  0  0  0  0  0  0  0  0  # atno 17321 bound_to 7965
  139.4865  144.4566  151.9591 LP  0  0  0  0  0  0  0  0  0  0  0  0  # atno 17342 bound_to 10162
  140.3654  144.2922  150.5927 LP  0  0  0  0  0  0  0  0  0  0  0  0  # atno 17343 bound_to 10162
  156.0765  130.3678  150.0667 LP  0  0  0  0  0  0  0  0  0  0  0  0  # atno 17370 bound_to 10713
  156.8819  130.9559  151.3598 LP  0  0  0  0  0  0  0  0  0  0  0  0  # atno 17371 bound_to 10713
  140.1301  134.9361  157.2324 LP  0  0  0  0  0  0  0  0  0  0  0  0  # atno 17394 bound_to 11000
  140.2964  134.3181  155.7301 LP  0  0  0  0  0  0  0  0  0  0  0  0  # atno 17395 bound_to 11000

$$$$
