AV-unprocessed.smi:1280|AV-procd|sdf|5357|dock1
  -GOLD-   22720 4493D 1   1.00000     0.00000
 Structure written by MMmdl.
 45 46  0  0  0  0  0  0  0  0  1 V2000
  152.0525  139.0672  157.0207 C   0  0  0  0  0  0  0  0  0  0  0  0
  152.2224  138.8214  155.2075 S   0  0  0  0  0  0  0  0  0  0  0  0
  153.4128  139.5527  154.7475 O   0  0  0  0  0  0  0  0  0  0  0  0
  152.0680  137.3913  154.9010 O   0  0  0  0  0  0  0  0  0  0  0  0
  150.8347  139.6357  154.5897 N   0  0  0  0  0  0  0  0  0  0  0  0
  149.5208  139.1825  155.0408 C   0  0  0  0  0  0  0  0  0  0  0  0
  149.2408  137.7652  154.5262 C   0  0  0  0  0  0  0  0  0  0  0  0
  147.8545  137.2556  154.9501 C   0  0  0  0  0  0  0  0  0  0  0  0
  147.2981  136.3366  153.9658 N   0  0  0  0  0  0  0  0  0  0  0  0
  146.1043  136.4746  153.3662 C   0  0  0  0  0  0  0  0  0  0  0  0
  145.3593  137.4369  153.5519 O   0  0  0  0  0  0  0  0  0  0  0  0
  145.7371  135.4032  152.3728 C   0  0  0  0  0  0  0  0  0  0  0  0
  144.7697  135.7034  151.3875 C   0  0  0  0  0  0  0  0  0  0  0  0
  144.4127  134.7268  150.4415 C   0  0  0  0  0  0  0  0  0  0  0  0
  145.0360  133.4699  150.5172 C   0  0  0  0  0  0  0  0  0  0  0  0
  145.9466  133.1556  151.4601 N   0  0  0  0  0  0  0  0  0  0  0  0
  146.2929  134.0869  152.3832 C   0  0  0  0  0  0  0  0  0  0  0  0
  147.1994  133.6704  153.3792 N   0  0  0  0  0  0  0  0  0  0  0  0
  146.5924  132.8804  154.4434 C   0  0  0  0  0  0  0  0  0  0  0  0
  147.5792  132.7400  155.6150 C   0  0  0  0  0  0  0  0  0  0  0  0
  148.8046  132.1826  155.1466 O   0  0  0  0  0  0  0  0  0  0  0  0
  149.4249  133.0003  154.1576 C   0  0  0  0  0  0  0  0  0  0  0  0
  148.4889  133.1435  152.9452 C   0  0  0  0  0  0  0  0  0  0  0  0
  152.8879  138.5874  157.5301 H   0  0  0  0  0  0  0  0  0  0  0  0
  151.1177  138.6255  157.3644 H   0  0  0  0  0  0  0  0  0  0  0  0
  152.0564  140.1335  157.2457 H   0  0  0  0  0  0  0  0  0  0  0  0
  150.9273  140.6444  154.7079 H   0  0  0  0  0  0  0  0  0  0  0  0
  149.4874  139.2086  156.1305 H   0  0  0  0  0  0  0  0  0  0  0  0
  148.7612  139.8740  154.6746 H   0  0  0  0  0  0  0  0  0  0  0  0
  149.3180  137.7550  153.4380 H   0  0  0  0  0  0  0  0  0  0  0  0
  150.0075  137.0838  154.8977 H   0  0  0  0  0  0  0  0  0  0  0  0
  147.9271  136.7264  155.9006 H   0  0  0  0  0  0  0  0  0  0  0  0
  147.1709  138.0908  155.1120 H   0  0  0  0  0  0  0  0  0  0  0  0
  147.8520  135.5246  153.7344 H   0  0  0  0  0  0  0  0  0  0  0  0
  144.3085  136.6797  151.3446 H   0  0  0  0  0  0  0  0  0  0  0  0
  143.6821  134.9378  149.6748 H   0  0  0  0  0  0  0  0  0  0  0  0
  144.7922  132.6938  149.8069 H   0  0  0  0  0  0  0  0  0  0  0  0
  145.6668  133.3404  154.7900 H   0  0  0  0  0  0  0  0  0  0  0  0
  146.3320  131.8956  154.0527 H   0  0  0  0  0  0  0  0  0  0  0  0
  147.7639  133.7081  156.0839 H   0  0  0  0  0  0  0  0  0  0  0  0
  147.1617  132.0883  156.3826 H   0  0  0  0  0  0  0  0  0  0  0  0
  149.6673  133.9771  154.5792 H   0  0  0  0  0  0  0  0  0  0  0  0
  150.3655  132.5406  153.8545 H   0  0  0  0  0  0  0  0  0  0  0  0
  148.3495  132.1714  152.4699 H   0  0  0  0  0  0  0  0  0  0  0  0
  148.9331  133.8094  152.2043 H   0  0  0  0  0  0  0  0  0  0  0  0
  1  2  1  0  0  0  0
  1 24  1  0  0  0  0
  1 25  1  0  0  0  0
  1 26  1  0  0  0  0
  2  3  2  0  0  0  0
  2  4  2  0  0  0  0
  2  5  1  0  0  0  0
  5  6  1  0  0  0  0
  5 27  1  0  0  0  0
  6  7  1  0  0  0  0
  6 28  1  0  0  0  0
  6 29  1  0  0  0  0
  7  8  1  0  0  0  0
  7 30  1  0  0  0  0
  7 31  1  0  0  0  0
  8  9  1  0  0  0  0
  8 32  1  0  0  0  0
  8 33  1  0  0  0  0
  9 10  1  0  0  0  0
  9 34  1  0  0  0  0
 10 11  2  0  0  0  0
 10 12  1  0  0  0  0
 12 17  1  0  0  0  0
 12 13  2  0  0  0  0
 13 14  1  0  0  0  0
 13 35  1  0  0  0  0
 14 15  2  0  0  0  0
 14 36  1  0  0  0  0
 15 16  1  0  0  0  0
 15 37  1  0  0  0  0
 16 17  2  0  0  0  0
 17 18  1  0  0  0  0
 18 23  1  0  0  0  0
 18 19  1  0  0  0  0
 19 20  1  0  0  0  0
 19 38  1  0  0  0  0
 19 39  1  0  0  0  0
 20 21  1  0  0  0  0
 20 40  1  0  0  0  0
 20 41  1  0  0  0  0
 21 22  1  0  0  0  0
 22 23  1  0  0  0  0
 22 42  1  0  0  0  0
 22 43  1  0  0  0  0
 23 44  1  0  0  0  0
 23 45  1  0  0  0  0
M  END
> <s_m_source_file>
AV-unprocessed.smi

> <i_m_source_file_index>
1280

> <i_lp_mmshare_version>
43012

> <i_f3d_flags>
0

> <s_epik_input>
W0NIM11TKD1PKSg9TylbTkhdW0NIMl1bQ0gyXVtDSDJdW05IXUMoPU8pYzFbY0hdW2NIXVtjSF1uYzFOMltDSDJdW0NIMl1PW0NIMl1bQ0gyXTI=

> <s_epik_cmdline>
J2VwaWtfcHl0aG9uJywgJy1waCcsICc3LjAnLCAnLXRuJywgJzgnLCAnLW1hJywgJzIwMCcsICctbWV0YWxfYmluZGluZycsICctaW1hZScsICc8aW5maWxlLm1hZT4nLCAnLW9tYWUnLCAnPG91dGZpbGUubWFlPic=

> <r_lp_tautomer_probability>
1

> <r_epik_Ionization_Penalty>
2.29251e-05

> <r_epik_Ionization_Penalty_Charging>
0

> <r_epik_Ionization_Penalty_Neutral>
2.29251e-05

> <r_epik_State_Penalty>
-0

> <r_epik_Charging_Adjusted_Penalty>
0

> <i_epik_Tot_Q>
0

> <i_epik_Tot_abs_Q>
0

> <r_epik_Metal_State_Penalty>
0.00766126

> <b_epik_Metal_Only>
0

> <s_lp_Force_Field>
OPLS_2005

> <r_lp_Energy>
17.2463

> <b_lp_Chiralities_Consistent>
1

> <s_lp_Variant>
AV-unprocessed.smi:1280-1

> <Gold.Version>
5.8.1

> <Gold.Id.Protein>
6NUR|6NUR_protein|mol2

> <Gold.PLP.Fitness>
35.9754

> <Gold.PLP.PLP>
-31.1777

> <Gold.PLP.part.hbond>
-5.0000

> <Gold.PLP.part.metal>
0.0000

> <Gold.PLP.part.buried>
-3.5442

> <Gold.PLP.part.nonpolar>
-22.9323

> <Gold.PLP.part.repulsive>
0.5232

> <Gold.PLP.ligand.clash>
0.0000

> <Gold.PLP.ligand.torsion>
0.7333

> <Gold.PLP.Chemscore.Hbond>
1.8601

> <Gold.PLP.Chemscore.CHOScore>
0.0000

> <Gold.PLP.Chemscore.Metal>
0.0000

> <Gold.Chemscore.Hbonds>
donor molecule, donor type, donor heavy atom, donor atom, acceptor molecule, acceptor atom, score
      L1  H     9    34       P1  7948  0.02
      P1  H  7997  8008       L1     3  1.00
      P1  H 10752 10765       L1     4  0.83

> <Gold.PLP.Chemscore.Internal.Correction>
0.6840

> <Gold.Rescore>
     Score         DG    S(hbond)    S(metal)    S(lipo)     H(rot)  DE(clash)    DE(int)     intcor
      8.82     -12.27       1.99        0.00      57.85       2.58       0.07       3.38       ----

> <Gold.Chemscore.Fitness>
8.8215

> <Gold.Chemscore.DG>
-12.2717

> <Gold.Chemscore.ZeroCoef>
-5.4800

> <Gold.Chemscore.Hbond>
1.9871

> <Gold.Chemscore.Metal>
0.0000

> <Gold.Chemscore.Lipo>
57.8490

> <Gold.Chemscore.Internal_Hbond>
0.0000

> <Gold.Chemscore.DEClash>
0.0745

> <Gold.Chemscore.DEInternal>
3.3757

> <Gold.Chemscore.Rot>
2.5835

> <Gold.Chemscore.Internal.Correction>
   9.000000E+99

> <Gold.Chemscore.Hbonds>
donor molecule, donor type, donor heavy atom, donor atom, acceptor molecule, acceptor atom, score
      L1  H     9    34       P1  7948  0.04
      P1  H  7997  8008       L1     3  0.98
      P1  H 10752 10765       L1     4  0.80

> <Gold.Chemscore.Hbond.Weighted>
-6.6371

> <Gold.Chemscore.Metal.Weighted>
-0.0000

> <Gold.Chemscore.Lipo.Weighted>
-6.7683

> <Gold.Chemscore.Internal_Hbond.Weighted>
0.0000

> <Gold.Chemscore.DEClash.Weighted>
0.0745

> <Gold.Chemscore.DEInternal.Weighted>
3.3757

> <Gold.Chemscore.Rot.Weighted>
6.6137

> <Gold.Chemscore.Internal.Correction.Weighted>
   9.000000E+99

> <Gold.Protein.RotatedTorsions>
[ 6907 6896 6895 6894 ] final  -19.66 input  -60.11 | X-H torsion
[ 7974 7965 7964 7962 ] final -123.16 input  175.53 | X-H torsion
[ 8008 7997 7996 7995 ] final  -13.31 input   59.86 | X-H torsion
[ 10167 10162 10161 10158 ] final   97.76 input  -65.29 | X-H torsion
[ 10718 10713 10712 10709 ] final   -3.92 input   66.30 | X-H torsion
[ 10763 10752 10751 10750 ] final  169.39 input  -60.55 | X-H torsion
[ 11005 11000 10999 10996 ] final   25.57 input  -57.11 | X-H torsion

> <Gold.Protein.ActiveResidues>
 VAL166  LYS551  ARG553  GLY616  TRP617  ASP618  TYR619  PRO620  LYS621  CYS622 
 ASP623  PHE694  ASN695  SER759  ASP760  ASP761  ALA762  ILE779  LEU786  VAL792 
 PHE793  MET794  SER795  GLU796  ALA797  LYS798  CYS799  TRP800  GLU811  SER814 

> <Gold.Protein.RotatedAtoms>
  151.2598  135.0650  159.9093 H   0  0  0  0  0  0  0  0  0  0  0  0  # atno 6907 bound_to 6896
  152.5368  134.0243  159.8006 H   0  0  0  0  0  0  0  0  0  0  0  0  # atno 6908 bound_to 6896
  151.0465  133.5611  159.2677 H   0  0  0  0  0  0  0  0  0  0  0  0  # atno 6909 bound_to 6896
  145.0216  140.7993  143.4377 H   0  0  0  0  0  0  0  0  0  0  0  0  # atno 7974 bound_to 7965
  154.5303  140.2253  155.8816 H   0  0  0  0  0  0  0  0  0  0  0  0  # atno 8008 bound_to 7997
  156.1757  140.3112  155.9018 H   0  0  0  0  0  0  0  0  0  0  0  0  # atno 8009 bound_to 7997
  155.3465  140.0453  157.3036 H   0  0  0  0  0  0  0  0  0  0  0  0  # atno 8010 bound_to 7997
  139.7771  144.6902  151.0075 H   0  0  0  0  0  0  0  0  0  0  0  0  # atno 10167 bound_to 10162
  156.7690  130.5294  149.5771 H   0  0  0  0  0  0  0  0  0  0  0  0  # atno 10718 bound_to 10713
  154.3824  135.2753  155.2203 H   0  0  0  0  0  0  0  0  0  0  0  0  # atno 10763 bound_to 10752
  154.4304  135.5978  153.6069 H   0  0  0  0  0  0  0  0  0  0  0  0  # atno 10764 bound_to 10752
  152.9834  135.5994  154.4068 H   0  0  0  0  0  0  0  0  0  0  0  0  # atno 10765 bound_to 10752
  140.3464  134.2276  155.7684 H   0  0  0  0  0  0  0  0  0  0  0  0  # atno 11005 bound_to 11000
  145.1888  139.2312  143.5254 LP  0  0  0  0  0  0  0  0  0  0  0  0  # atno 17320 bound_to 7965
  146.3486  140.1679  142.8590 LP  0  0  0  0  0  0  0  0  0  0  0  0  # atno 17321 bound_to 7965
  140.7817  143.4524  151.0394 LP  0  0  0  0  0  0  0  0  0  0  0  0  # atno 17342 bound_to 10162
  139.8206  143.7825  152.3176 LP  0  0  0  0  0  0  0  0  0  0  0  0  # atno 17343 bound_to 10162
  156.1290  130.6164  151.0306 LP  0  0  0  0  0  0  0  0  0  0  0  0  # atno 17370 bound_to 10713
  157.6700  131.0863  150.7636 LP  0  0  0  0  0  0  0  0  0  0  0  0  # atno 17371 bound_to 10713
  141.2024  133.7938  157.0391 LP  0  0  0  0  0  0  0  0  0  0  0  0  # atno 17394 bound_to 11000
  140.0738  134.9687  157.1512 LP  0  0  0  0  0  0  0  0  0  0  0  0  # atno 17395 bound_to 11000

$$$$
