AV-unprocessed.smi:1740|AV-procd|sdf|7006|dock6
  -GOLD-   22720 8213D 1   1.00000     0.00000
 Structure written by MMmdl.
 51 53  0  0  0  0  0  0  0  0  1 V2000
  143.6417  132.8996  147.2693 N   0  0  0  0  0  0  0  0  0  0  0  0
  144.2626  132.4226  148.3507 C   0  0  0  0  0  0  0  0  0  0  0  0
  145.4035  131.9675  148.3051 O   0  0  0  0  0  0  0  0  0  0  0  0
  143.4946  132.4690  149.6774 C   0  0  0  0  0  0  0  0  0  0  0  0
  144.0937  133.3506  150.7053 N   0  0  0  0  0  0  0  0  0  0  0  0
  144.3698  134.6635  150.1121 C   0  0  0  0  0  0  0  0  0  0  0  0
  144.8763  135.6484  151.1802 C   0  0  0  0  0  0  0  0  0  0  0  0
  146.1442  135.1148  151.8656 C   0  0  0  0  0  0  0  0  0  0  0  0
  146.5527  135.9878  152.9616 N   0  0  0  0  0  0  0  0  0  0  0  0
  146.7593  137.3082  152.8614 C   0  0  0  0  0  0  0  0  0  0  0  0
  146.6244  137.9421  151.8147 O   0  0  0  0  0  0  0  0  0  0  0  0
  147.1459  137.8289  154.0378 N   0  0  0  0  0  0  0  0  0  0  0  0
  147.4992  139.1774  154.3256 C   0  0  0  0  0  0  0  0  0  0  0  0
  147.0485  140.2491  153.5167 C   0  0  0  0  0  0  0  0  0  0  0  0
  147.3662  141.5690  153.8804 C   0  0  0  0  0  0  0  0  0  0  0  0
  148.1119  141.7735  155.0529 C   0  0  0  0  0  0  0  0  0  0  0  0
  148.5358  140.7660  155.8415 N   0  0  0  0  0  0  0  0  0  0  0  0
  148.2502  139.4862  155.4960 C   0  0  0  0  0  0  0  0  0  0  0  0
  148.7374  138.4692  156.3486 N   0  0  0  0  0  0  0  0  0  0  0  0
  150.1764  138.2212  156.3594 C   0  0  0  0  0  0  0  0  0  0  0  0
  150.5492  137.8942  157.8093 C   0  0  0  0  0  0  0  0  0  0  0  0
  149.2291  137.4446  158.4273 C   0  0  0  0  0  0  0  0  0  0  0  0
  148.2152  138.3261  157.7037 C   0  0  0  0  0  0  0  0  0  0  0  0
  145.8648  133.7028  152.3973 C   0  0  0  0  0  0  0  0  0  0  0  0
  145.3204  132.7859  151.2876 C   0  0  0  0  0  0  0  0  0  0  0  0
  144.1129  132.8881  146.3764 H   0  0  0  0  0  0  0  0  0  0  0  0
  142.7059  133.2701  147.3469 H   0  0  0  0  0  0  0  0  0  0  0  0
  142.4609  132.7692  149.4946 H   0  0  0  0  0  0  0  0  0  0  0  0
  143.4564  131.4467  150.0561 H   0  0  0  0  0  0  0  0  0  0  0  0
  145.1018  134.5715  149.3076 H   0  0  0  0  0  0  0  0  0  0  0  0
  143.4592  135.0665  149.6669 H   0  0  0  0  0  0  0  0  0  0  0  0
  145.0768  136.6163  150.7195 H   0  0  0  0  0  0  0  0  0  0  0  0
  144.0922  135.8151  151.9209 H   0  0  0  0  0  0  0  0  0  0  0  0
  146.9502  135.0526  151.1315 H   0  0  0  0  0  0  0  0  0  0  0  0
  146.6894  135.5521  153.8619 H   0  0  0  0  0  0  0  0  0  0  0  0
  147.3066  137.1708  154.7863 H   0  0  0  0  0  0  0  0  0  0  0  0
  146.4458  140.0817  152.6372 H   0  0  0  0  0  0  0  0  0  0  0  0
  147.0347  142.4042  153.2815 H   0  0  0  0  0  0  0  0  0  0  0  0
  148.3702  142.7730  155.3703 H   0  0  0  0  0  0  0  0  0  0  0  0
  150.3900  137.3645  155.7194 H   0  0  0  0  0  0  0  0  0  0  0  0
  150.7449  139.0738  155.9847 H   0  0  0  0  0  0  0  0  0  0  0  0
  151.3352  137.1424  157.8856 H   0  0  0  0  0  0  0  0  0  0  0  0
  150.8981  138.7981  158.3109 H   0  0  0  0  0  0  0  0  0  0  0  0
  149.0465  136.3947  158.1943 H   0  0  0  0  0  0  0  0  0  0  0  0
  149.2002  137.5635  159.5107 H   0  0  0  0  0  0  0  0  0  0  0  0
  148.1570  139.2939  158.2036 H   0  0  0  0  0  0  0  0  0  0  0  0
  147.2200  137.8808  157.6998 H   0  0  0  0  0  0  0  0  0  0  0  0
  146.7770  133.2740  152.8137 H   0  0  0  0  0  0  0  0  0  0  0  0
  145.1429  133.7469  153.2146 H   0  0  0  0  0  0  0  0  0  0  0  0
  145.1289  131.8066  151.7262 H   0  0  0  0  0  0  0  0  0  0  0  0
  146.0740  132.6420  150.5113 H   0  0  0  0  0  0  0  0  0  0  0  0
  1  2  1  0  0  0  0
  1 26  1  0  0  0  0
  1 27  1  0  0  0  0
  2  3  2  0  0  0  0
  2  4  1  0  0  0  0
  4  5  1  0  0  0  0
  4 28  1  0  0  0  0
  4 29  1  0  0  0  0
  5 25  1  0  0  0  0
  5  6  1  0  0  0  0
  6  7  1  0  0  0  0
  6 30  1  0  0  0  0
  6 31  1  0  0  0  0
  7  8  1  0  0  0  0
  7 32  1  0  0  0  0
  7 33  1  0  0  0  0
  8  9  1  0  0  0  0
  8 24  1  0  0  0  0
  8 34  1  0  0  0  0
  9 10  1  0  0  0  0
  9 35  1  0  0  0  0
 10 11  2  0  0  0  0
 10 12  1  0  0  0  0
 12 13  1  0  0  0  0
 12 36  1  0  0  0  0
 13 18  1  0  0  0  0
 13 14  2  0  0  0  0
 14 15  1  0  0  0  0
 14 37  1  0  0  0  0
 15 16  2  0  0  0  0
 15 38  1  0  0  0  0
 16 17  1  0  0  0  0
 16 39  1  0  0  0  0
 17 18  2  0  0  0  0
 18 19  1  0  0  0  0
 19 23  1  0  0  0  0
 19 20  1  0  0  0  0
 20 21  1  0  0  0  0
 20 40  1  0  0  0  0
 20 41  1  0  0  0  0
 21 22  1  0  0  0  0
 21 42  1  0  0  0  0
 21 43  1  0  0  0  0
 22 23  1  0  0  0  0
 22 44  1  0  0  0  0
 22 45  1  0  0  0  0
 23 46  1  0  0  0  0
 23 47  1  0  0  0  0
 24 25  1  0  0  0  0
 24 48  1  0  0  0  0
 24 49  1  0  0  0  0
 25 50  1  0  0  0  0
 25 51  1  0  0  0  0
M  END
> <s_m_source_file>
AV-unprocessed.smi

> <i_m_source_file_index>
1740

> <i_lp_mmshare_version>
43012

> <i_f3d_flags>
0

> <s_epik_input>
W05IMl1DKD1PKVtDSDJdTjFbQ0gyXVtDSDJdW0NIXShbQ0gyXVtDSDJdMSlbTkhdQyg9TylbTkhdYzJbY0hdW2NIXVtjSF1uYzJOM1tDSDJdW0NIMl1bQ0gyXVtDSDJdMw==

> <s_epik_cmdline>
J2VwaWtfcHl0aG9uJywgJy1waCcsICc3LjAnLCAnLXRuJywgJzgnLCAnLW1hJywgJzIwMCcsICctbWV0YWxfYmluZGluZycsICctaW1hZScsICc8aW5maWxlLm1hZT4nLCAnLW9tYWUnLCAnPG91dGZpbGUubWFlPic=

> <r_lp_tautomer_probability>
1

> <r_epik_Ionization_Penalty>
0.268698

> <r_epik_Ionization_Penalty_Charging>
0

> <r_epik_Ionization_Penalty_Neutral>
0.268698

> <r_epik_State_Penalty>
0.247497

> <r_epik_Charging_Adjusted_Penalty>
0.247497

> <i_epik_Tot_Q>
0

> <i_epik_Tot_abs_Q>
0

> <r_epik_Metal_State_Penalty>
0.244805

> <b_epik_Metal_Only>
0

> <s_lp_Force_Field>
OPLS_2005

> <r_lp_Energy>
39.8984

> <b_lp_Chiralities_Consistent>
1

> <s_lp_Variant>
AV-unprocessed.smi:1740-1

> <Gold.Version>
5.8.1

> <Gold.Id.Protein>
6NUR|6NUR_protein|mol2

> <Gold.PLP.Fitness>
42.3457

> <Gold.PLP.PLP>
-34.8014

> <Gold.PLP.part.hbond>
-3.7023

> <Gold.PLP.part.metal>
0.0000

> <Gold.PLP.part.buried>
2.3921

> <Gold.PLP.part.nonpolar>
-35.5495

> <Gold.PLP.part.repulsive>
1.3382

> <Gold.PLP.ligand.clash>
0.0000

> <Gold.PLP.ligand.torsion>
0.3772

> <Gold.PLP.Chemscore.Hbond>
1.6560

> <Gold.PLP.Chemscore.CHOScore>
1.0000

> <Gold.PLP.Chemscore.Metal>
0.0000

> <Gold.Chemscore.Hbonds>
donor molecule, donor type, donor heavy atom, donor atom, acceptor molecule, acceptor atom, score
      L1  H     1    27       P1 10195  0.21
      L1  C    16    39       P1  8028  0.97

> <Gold.PLP.Chemscore.Internal.Correction>
0.3307

> <Gold.Rescore>
     Score         DG    S(hbond)    S(metal)    S(lipo)     H(rot)  DE(clash)    DE(int)     intcor
      9.27     -15.27       1.58        0.00      86.05       2.16       2.45       3.55       ----

> <Gold.Chemscore.Fitness>
9.2722

> <Gold.Chemscore.DG>
-15.2701

> <Gold.Chemscore.ZeroCoef>
-5.4800

> <Gold.Chemscore.Hbond>
1.5751

> <Gold.Chemscore.Metal>
0.0000

> <Gold.Chemscore.Lipo>
86.0498

> <Gold.Chemscore.Internal_Hbond>
0.0000

> <Gold.Chemscore.DEClash>
2.4479

> <Gold.Chemscore.DEInternal>
3.5500

> <Gold.Chemscore.Rot>
2.1635

> <Gold.Chemscore.Internal.Correction>
   9.000000E+99

> <Gold.Chemscore.Hbonds>
donor molecule, donor type, donor heavy atom, donor atom, acceptor molecule, acceptor atom, score
      L1  H     1    27       P1 10195  0.19
      P1  H  7954  7966       L1    11  0.04

> <Gold.Chemscore.Hbond.Weighted>
-5.2607

> <Gold.Chemscore.Metal.Weighted>
-0.0000

> <Gold.Chemscore.Lipo.Weighted>
-10.0678

> <Gold.Chemscore.Internal_Hbond.Weighted>
0.0000

> <Gold.Chemscore.DEClash.Weighted>
2.4479

> <Gold.Chemscore.DEInternal.Weighted>
3.5500

> <Gold.Chemscore.Rot.Weighted>
5.5385

> <Gold.Chemscore.Internal.Correction.Weighted>
   9.000000E+99

> <Gold.Protein.RotatedTorsions>
[ 6907 6896 6895 6894 ] final  177.97 input  -60.11 | X-H torsion
[ 7974 7965 7964 7962 ] final -172.74 input  175.53 | X-H torsion
[ 8008 7997 7996 7995 ] final -102.14 input   59.86 | X-H torsion
[ 10167 10162 10161 10158 ] final  -92.85 input  -65.29 | X-H torsion
[ 10718 10713 10712 10709 ] final  149.91 input   66.30 | X-H torsion
[ 10763 10752 10751 10750 ] final -141.54 input  -60.55 | X-H torsion
[ 11005 11000 10999 10996 ] final -168.35 input  -57.11 | X-H torsion

> <Gold.Protein.ActiveResidues>
 VAL166  LYS551  ARG553  GLY616  TRP617  ASP618  TYR619  PRO620  LYS621  CYS622 
 ASP623  PHE694  ASN695  SER759  ASP760  ASP761  ALA762  ILE779  LEU786  VAL792 
 PHE793  MET794  SER795  GLU796  ALA797  LYS798  CYS799  TRP800  GLU811  SER814 

> <Gold.Protein.RotatedAtoms>
  151.6954  133.3311  159.3253 H   0  0  0  0  0  0  0  0  0  0  0  0  # atno 6907 bound_to 6896
  150.7760  134.6662  159.6376 H   0  0  0  0  0  0  0  0  0  0  0  0  # atno 6908 bound_to 6896
  152.3802  134.6606  160.0197 H   0  0  0  0  0  0  0  0  0  0  0  0  # atno 6909 bound_to 6896
  144.7143  140.1727  143.6366 H   0  0  0  0  0  0  0  0  0  0  0  0  # atno 7974 bound_to 7965
  154.8525  140.0430  157.1613 H   0  0  0  0  0  0  0  0  0  0  0  0  # atno 8008 bound_to 7997
  154.8927  140.2989  155.5341 H   0  0  0  0  0  0  0  0  0  0  0  0  # atno 8009 bound_to 7997
  156.2996  140.2390  156.3945 H   0  0  0  0  0  0  0  0  0  0  0  0  # atno 8010 bound_to 7997
  140.3306  143.2997  151.9946 H   0  0  0  0  0  0  0  0  0  0  0  0  # atno 10167 bound_to 10162
  157.2902  131.0852  151.1468 H   0  0  0  0  0  0  0  0  0  0  0  0  # atno 10718 bound_to 10713
  154.8541  135.3521  154.5885 H   0  0  0  0  0  0  0  0  0  0  0  0  # atno 10763 bound_to 10752
  153.6495  135.6995  153.5218 H   0  0  0  0  0  0  0  0  0  0  0  0  # atno 10764 bound_to 10752
  153.2906  135.4236  155.1121 H   0  0  0  0  0  0  0  0  0  0  0  0  # atno 10765 bound_to 10752
  140.5430  134.5503  157.5104 H   0  0  0  0  0  0  0  0  0  0  0  0  # atno 11005 bound_to 11000
  145.8929  139.2386  143.1539 LP  0  0  0  0  0  0  0  0  0  0  0  0  # atno 17320 bound_to 7965
  145.9886  140.8622  143.0078 LP  0  0  0  0  0  0  0  0  0  0  0  0  # atno 17321 bound_to 7965
  139.4857  144.6238  151.7205 LP  0  0  0  0  0  0  0  0  0  0  0  0  # atno 17342 bound_to 10162
  140.5400  144.0594  150.6085 LP  0  0  0  0  0  0  0  0  0  0  0  0  # atno 17343 bound_to 10162
  157.2867  130.6776  149.6093 LP  0  0  0  0  0  0  0  0  0  0  0  0  # atno 17370 bound_to 10713
  155.9667  130.4433  150.5416 LP  0  0  0  0  0  0  0  0  0  0  0  0  # atno 17371 bound_to 10713
  139.9494  134.7644  156.0484 LP  0  0  0  0  0  0  0  0  0  0  0  0  # atno 17394 bound_to 11000
  141.1216  133.6611  156.3229 LP  0  0  0  0  0  0  0  0  0  0  0  0  # atno 17395 bound_to 11000

$$$$
