AV-unprocessed.smi:2509|AV-procd|sdf|9868|dock2
  -GOLD-   2272013493D 1   1.00000     0.00000
 Structure written by MMmdl.
 45 46  0  0  0  0  0  0  0  0  1 V2000
  149.8731  141.5671  158.3144 C   0  0  0  0  0  0  0  0  0  0  0  0
  150.6355  141.2801  156.9991 C   0  0  0  0  0  0  0  0  0  0  0  0
  150.9919  142.6099  156.3093 C   0  0  0  0  0  0  0  0  0  0  0  0
  151.9339  140.5457  157.4090 C   0  0  0  0  0  0  0  0  0  0  0  0
  149.7899  140.4181  156.0455 C   0  0  0  0  0  0  0  0  0  0  0  0
  150.3200  140.1349  154.8483 N   0  0  0  0  0  0  0  0  0  0  0  0
  149.6465  139.2789  154.0518 C   0  0  0  0  0  0  0  0  0  0  0  0
  148.4414  138.6722  154.4575 C   0  0  0  0  0  0  0  0  0  0  0  0
  147.7944  137.7686  153.5727 N   0  0  0  0  0  0  0  0  0  0  0  0
  146.4995  137.4114  153.5451 C   0  0  0  0  0  0  0  0  0  0  0  0
  145.6276  137.8383  154.3014 O   0  0  0  0  0  0  0  0  0  0  0  0
  146.2615  136.5338  152.5598 N   0  0  0  0  0  0  0  0  0  0  0  0
  144.9591  135.9603  152.2338 C   0  0  0  0  0  0  0  0  0  0  0  0
  145.0357  134.4293  152.0520 C   0  0  2  0  0  0  0  0  0  0  0  0
  146.3165  133.9011  151.3902 C   0  0  0  0  0  0  0  0  0  0  0  0
  145.9538  132.5235  150.8158 C   0  0  0  0  0  0  0  0  0  0  0  0
  144.4232  132.4062  150.8927 C   0  0  0  0  0  0  0  0  0  0  0  0
  143.9067  133.8128  151.2129 C   0  0  2  0  0  0  0  0  0  0  0  0
  143.7183  134.5207  150.0018 O   0  0  0  0  0  0  0  0  0  0  0  0
  147.9973  138.9995  155.7609 C   0  0  0  0  0  0  0  0  0  0  0  0
  148.6821  139.8566  156.5475 N   0  0  0  0  0  0  0  0  0  0  0  0
  150.4857  142.1400  159.0114 H   0  0  0  0  0  0  0  0  0  0  0  0
  149.5841  140.6427  158.8163 H   0  0  0  0  0  0  0  0  0  0  0  0
  148.9661  142.1483  158.1437 H   0  0  0  0  0  0  0  0  0  0  0  0
  150.0952  143.1681  156.0373 H   0  0  0  0  0  0  0  0  0  0  0  0
  151.5632  142.4415  155.3958 H   0  0  0  0  0  0  0  0  0  0  0  0
  151.5916  143.2474  156.9596 H   0  0  0  0  0  0  0  0  0  0  0  0
  152.5128  141.1322  158.1232 H   0  0  0  0  0  0  0  0  0  0  0  0
  152.5857  140.3593  156.5546 H   0  0  0  0  0  0  0  0  0  0  0  0
  151.7169  139.5837  157.8751 H   0  0  0  0  0  0  0  0  0  0  0  0
  150.0787  139.0750  153.0829 H   0  0  0  0  0  0  0  0  0  0  0  0
  148.3775  137.3847  152.8435 H   0  0  0  0  0  0  0  0  0  0  0  0
  147.0397  136.2437  151.9858 H   0  0  0  0  0  0  0  0  0  0  0  0
  144.2798  136.1941  153.0540 H   0  0  0  0  0  0  0  0  0  0  0  0
  144.5403  136.4403  151.3478 H   0  0  0  0  0  0  0  0  0  0  0  0
  144.9752  133.9749  153.0429 H   0  0  0  0  0  0  0  0  0  0  0  0
  146.6164  134.5633  150.5769 H   0  0  0  0  0  0  0  0  0  0  0  0
  147.1502  133.8479  152.0912 H   0  0  0  0  0  0  0  0  0  0  0  0
  146.3019  132.4400  149.7857 H   0  0  0  0  0  0  0  0  0  0  0  0
  146.4266  131.7220  151.3846 H   0  0  0  0  0  0  0  0  0  0  0  0
  143.9864  131.9869  149.9852 H   0  0  0  0  0  0  0  0  0  0  0  0
  144.1609  131.7361  151.7124 H   0  0  0  0  0  0  0  0  0  0  0  0
  142.9611  133.7845  151.7555 H   0  0  0  0  0  0  0  0  0  0  0  0
  142.7978  134.7143  149.9084 H   0  0  0  0  0  0  0  0  0  0  0  0
  147.1139  138.5682  156.2049 H   0  0  0  0  0  0  0  0  0  0  0  0
  1  2  1  0  0  0  0
  1 22  1  0  0  0  0
  1 23  1  0  0  0  0
  1 24  1  0  0  0  0
  2  3  1  0  0  0  0
  2  4  1  0  0  0  0
  2  5  1  0  0  0  0
  3 25  1  0  0  0  0
  3 26  1  0  0  0  0
  3 27  1  0  0  0  0
  4 28  1  0  0  0  0
  4 29  1  0  0  0  0
  4 30  1  0  0  0  0
  5 21  1  0  0  0  0
  5  6  2  0  0  0  0
  6  7  1  0  0  0  0
  7  8  2  0  0  0  0
  7 31  1  0  0  0  0
  8  9  1  0  0  0  0
  8 20  1  0  0  0  0
  9 10  1  0  0  0  0
  9 32  1  0  0  0  0
 10 11  2  0  0  0  0
 10 12  1  0  0  0  0
 12 13  1  0  0  0  0
 12 33  1  0  0  0  0
 13 14  1  0  0  0  0
 13 34  1  0  0  0  0
 13 35  1  0  0  0  0
 14 18  1  0  0  0  0
 14 15  1  0  0  0  0
 14 36  1  0  0  0  0
 15 16  1  0  0  0  0
 15 37  1  0  0  0  0
 15 38  1  0  0  0  0
 16 17  1  0  0  0  0
 16 39  1  0  0  0  0
 16 40  1  0  0  0  0
 17 18  1  0  0  0  0
 17 41  1  0  0  0  0
 17 42  1  0  0  0  0
 18 19  1  0  0  0  0
 18 43  1  0  0  0  0
 19 44  1  0  0  0  0
 20 21  2  0  0  0  0
 20 45  1  0  0  0  0
M  END
> <s_m_source_file>
AV-unprocessed.smi

> <i_m_source_file_index>
2509

> <i_lp_mmshare_version>
43012

> <i_f3d_flags>
0

> <s_epik_input>
W0NIM11DKFtDSDNdKShbQ0gzXSljMW5bY0hdYyhbY0hdbjEpW05IXUMoPU8pW05IXVtDSDJdW0NAQEhdMltDSDJdW0NIMl1bQ0gyXVtDQEhdMltPSF0=

> <s_epik_cmdline>
J2VwaWtfcHl0aG9uJywgJy1waCcsICc3LjAnLCAnLXRuJywgJzgnLCAnLW1hJywgJzIwMCcsICctbWV0YWxfYmluZGluZycsICctaW1hZScsICc8aW5maWxlLm1hZT4nLCAnLW9tYWUnLCAnPG91dGZpbGUubWFlPic=

> <r_lp_tautomer_probability>
1

> <r_epik_Ionization_Penalty>
2.77586e-05

> <r_epik_Ionization_Penalty_Charging>
0

> <r_epik_Ionization_Penalty_Neutral>
2.77586e-05

> <r_epik_State_Penalty>
-0

> <r_epik_Charging_Adjusted_Penalty>
0

> <i_epik_Tot_Q>
0

> <i_epik_Tot_abs_Q>
0

> <r_epik_Metal_State_Penalty>
-0

> <b_epik_Metal_Only>
0

> <s_lp_Force_Field>
OPLS_2005

> <r_lp_Energy>
21.5241

> <b_lp_Chiralities_Consistent>
1

> <s_lp_Variant>
AV-unprocessed.smi:2509-3

> <Gold.Version>
5.8.1

> <Gold.Id.Protein>
6NUR|6NUR_protein|mol2

> <Gold.PLP.Fitness>
42.0410

> <Gold.PLP.PLP>
-29.3686

> <Gold.PLP.part.hbond>
-4.7894

> <Gold.PLP.part.metal>
0.0000

> <Gold.PLP.part.buried>
-2.7434

> <Gold.PLP.part.nonpolar>
-22.5330

> <Gold.PLP.part.repulsive>
0.2643

> <Gold.PLP.ligand.clash>
0.0000

> <Gold.PLP.ligand.torsion>
0.6611

> <Gold.PLP.Chemscore.Hbond>
3.7140

> <Gold.PLP.Chemscore.CHOScore>
0.9006

> <Gold.PLP.Chemscore.Metal>
0.0000

> <Gold.Chemscore.Hbonds>
donor molecule, donor type, donor heavy atom, donor atom, acceptor molecule, acceptor atom, score
      L1  H     9    32       P1  7948  1.00
      L1  H    12    33       P1  7948  0.91
      L1  H    19    44       P1 10186  1.00
      P1  H  7989  7998       L1     6  0.95
      L1  C     7    31       P1  7957  0.98

> <Gold.PLP.Chemscore.Internal.Correction>
0.1509

> <Gold.Rescore>
     Score         DG    S(hbond)    S(metal)    S(lipo)     H(rot)  DE(clash)    DE(int)     intcor
     16.41     -18.14       2.77        0.00      71.07       1.91       0.13       1.60       ----

> <Gold.Chemscore.Fitness>
16.4076

> <Gold.Chemscore.DG>
-18.1395

> <Gold.Chemscore.ZeroCoef>
-5.4800

> <Gold.Chemscore.Hbond>
2.7658

> <Gold.Chemscore.Metal>
0.0000

> <Gold.Chemscore.Lipo>
71.0712

> <Gold.Chemscore.Internal_Hbond>
0.0000

> <Gold.Chemscore.DEClash>
0.1303

> <Gold.Chemscore.DEInternal>
1.6015

> <Gold.Chemscore.Rot>
1.9116

> <Gold.Chemscore.Internal.Correction>
   9.000000E+99

> <Gold.Chemscore.Hbonds>
donor molecule, donor type, donor heavy atom, donor atom, acceptor molecule, acceptor atom, score
      L1  H     9    32       P1  7948  0.98
      L1  H    12    33       P1  7948  0.88
      L1  H    19    44       P1 10186  0.70
      P1  H  7989  7998       L1     6  0.20

> <Gold.Chemscore.Hbond.Weighted>
-9.2377

> <Gold.Chemscore.Metal.Weighted>
-0.0000

> <Gold.Chemscore.Lipo.Weighted>
-8.3153

> <Gold.Chemscore.Internal_Hbond.Weighted>
0.0000

> <Gold.Chemscore.DEClash.Weighted>
0.1303

> <Gold.Chemscore.DEInternal.Weighted>
1.6015

> <Gold.Chemscore.Rot.Weighted>
4.8936

> <Gold.Chemscore.Internal.Correction.Weighted>
   9.000000E+99

> <Gold.Protein.RotatedTorsions>
[ 6907 6896 6895 6894 ] final  -51.46 input  -60.11 | X-H torsion
[ 7974 7965 7964 7962 ] final   96.66 input  175.53 | X-H torsion
[ 8008 7997 7996 7995 ] final -131.24 input   59.86 | X-H torsion
[ 10167 10162 10161 10158 ] final -122.40 input  -65.29 | X-H torsion
[ 10718 10713 10712 10709 ] final  -99.31 input   66.30 | X-H torsion
[ 10763 10752 10751 10750 ] final   83.45 input  -60.55 | X-H torsion
[ 11005 11000 10999 10996 ] final  175.86 input  -57.11 | X-H torsion

> <Gold.Protein.ActiveResidues>
 VAL166  LYS551  ARG553  GLY616  TRP617  ASP618  TYR619  PRO620  LYS621  CYS622 
 ASP623  PHE694  ASN695  SER759  ASP760  ASP761  ALA762  ILE779  LEU786  VAL792 
 PHE793  MET794  SER795  GLU796  ALA797  LYS798  CYS799  TRP800  GLU811  SER814 

> <Gold.Protein.RotatedAtoms>
  150.8609  134.7961  159.7081 H   0  0  0  0  0  0  0  0  0  0  0  0  # atno 6907 bound_to 6896
  152.4646  134.5101  159.9761 H   0  0  0  0  0  0  0  0  0  0  0  0  # atno 6908 bound_to 6896
  151.5206  133.3429  159.2936 H   0  0  0  0  0  0  0  0  0  0  0  0  # atno 6909 bound_to 6896
  145.4359  139.2306  143.3118 H   0  0  0  0  0  0  0  0  0  0  0  0  # atno 7974 bound_to 7965
  155.3090  140.0456  157.3034 H   0  0  0  0  0  0  0  0  0  0  0  0  # atno 8008 bound_to 7997
  154.5444  140.2298  155.8555 H   0  0  0  0  0  0  0  0  0  0  0  0  # atno 8009 bound_to 7997
  156.1910  140.3050  155.9339 H   0  0  0  0  0  0  0  0  0  0  0  0  # atno 8010 bound_to 7997
  140.0147  143.5406  152.2248 H   0  0  0  0  0  0  0  0  0  0  0  0  # atno 10167 bound_to 10162
  156.0130  130.5277  150.6651 H   0  0  0  0  0  0  0  0  0  0  0  0  # atno 10718 bound_to 10713
  153.1292  135.4691  154.9321 H   0  0  0  0  0  0  0  0  0  0  0  0  # atno 10763 bound_to 10752
  154.7648  135.3142  154.8309 H   0  0  0  0  0  0  0  0  0  0  0  0  # atno 10764 bound_to 10752
  153.8856  135.6890  153.4818 H   0  0  0  0  0  0  0  0  0  0  0  0  # atno 10765 bound_to 10752
  140.3669  134.7064  157.4367 H   0  0  0  0  0  0  0  0  0  0  0  0  # atno 11005 bound_to 11000
  146.2582  140.5101  142.8864 LP  0  0  0  0  0  0  0  0  0  0  0  0  # atno 17320 bound_to 7965
  144.8153  140.6456  143.6389 LP  0  0  0  0  0  0  0  0  0  0  0  0  # atno 17321 bound_to 7965
  139.6181  144.7623  151.2801 LP  0  0  0  0  0  0  0  0  0  0  0  0  # atno 17342 bound_to 10162
  140.7367  143.6699  150.8091 LP  0  0  0  0  0  0  0  0  0  0  0  0  # atno 17343 bound_to 10162
  157.4385  131.0858  151.0967 LP  0  0  0  0  0  0  0  0  0  0  0  0  # atno 17370 bound_to 10713
  157.1518  130.6187  149.5584 LP  0  0  0  0  0  0  0  0  0  0  0  0  # atno 17371 bound_to 10713
  140.0583  134.6032  155.8779 LP  0  0  0  0  0  0  0  0  0  0  0  0  # atno 17394 bound_to 11000
  141.1967  133.6593  156.5704 LP  0  0  0  0  0  0  0  0  0  0  0  0  # atno 17395 bound_to 11000

$$$$
