AV-unprocessed.smi:794|AV-procd|sdf|3757|dock8
  -GOLD-   22720 1193D 1   1.00000     0.00000
 Structure written by MMmdl.
 41 43  0  0  0  0  0  0  0  0  1 V2000
  147.8383  136.3494  163.3382 C   0  0  0  0  0  0  0  0  0  0  0  0
  147.8463  135.8409  161.9292 C   0  0  0  0  0  0  0  0  0  0  0  0
  148.5125  136.5663  160.9367 N   0  0  0  0  0  0  0  0  0  0  0  0
  148.4280  135.9797  159.7384 C   0  0  0  0  0  0  0  0  0  0  0  0
  149.0147  136.4916  158.5519 N   0  0  0  0  0  0  0  0  0  0  0  0
  148.4005  137.0421  157.4902 C   0  0  0  0  0  0  0  0  0  0  0  0
  147.1835  137.1773  157.3617 O   0  0  0  0  0  0  0  0  0  0  0  0
  149.2907  137.4291  156.5655 N   0  0  0  0  0  0  0  0  0  0  0  0
  148.9689  138.0879  155.2985 C   0  0  1  0  0  0  0  0  0  0  0  0
  148.3532  139.4938  155.5085 C   0  0  1  0  0  0  0  0  0  0  0  0
  149.2127  140.3485  156.4649 C   0  0  0  0  0  0  0  0  0  0  0  0
  150.4679  140.6347  155.6215 C   0  0  0  0  0  0  0  0  0  0  0  0
  150.1501  139.9391  154.2811 C   0  0  2  0  0  0  0  0  0  0  0  0
  148.6477  140.1727  154.1747 C   0  0  0  0  0  0  0  0  0  0  0  0
  150.2016  138.3958  154.3989 C   0  0  1  0  0  0  0  0  0  0  0  0
  151.5614  137.7939  154.8199 C   0  0  0  0  0  0  0  0  0  0  0  0
  152.3621  137.5474  153.6836 O   0  0  0  0  0  0  0  0  0  0  0  0
  147.5121  134.4830  159.7500 S   0  0  0  0  0  0  0  0  0  0  0  0
  147.2498  134.6917  161.4636 C   0  0  0  0  0  0  0  0  0  0  0  0
  146.4641  133.6920  162.2453 C   0  0  0  0  0  0  0  0  0  0  0  0
  148.1526  135.5744  164.0377 H   0  0  0  0  0  0  0  0  0  0  0  0
  146.8397  136.6740  163.6317 H   0  0  0  0  0  0  0  0  0  0  0  0
  148.5116  137.1981  163.4655 H   0  0  0  0  0  0  0  0  0  0  0  0
  150.0221  136.4431  158.5118 H   0  0  0  0  0  0  0  0  0  0  0  0
  150.2697  137.2731  156.7551 H   0  0  0  0  0  0  0  0  0  0  0  0
  148.2586  137.4779  154.7363 H   0  0  0  0  0  0  0  0  0  0  0  0
  147.2980  139.4682  155.7825 H   0  0  0  0  0  0  0  0  0  0  0  0
  148.7000  141.2811  156.7039 H   0  0  0  0  0  0  0  0  0  0  0  0
  149.4428  139.8582  157.4104 H   0  0  0  0  0  0  0  0  0  0  0  0
  150.5849  141.7093  155.4755 H   0  0  0  0  0  0  0  0  0  0  0  0
  151.3818  140.2725  156.0899 H   0  0  0  0  0  0  0  0  0  0  0  0
  150.7268  140.3295  153.4419 H   0  0  0  0  0  0  0  0  0  0  0  0
  148.1878  139.6699  153.3219 H   0  0  0  0  0  0  0  0  0  0  0  0
  148.3727  141.2288  154.1544 H   0  0  0  0  0  0  0  0  0  0  0  0
  149.9806  137.9910  153.4093 H   0  0  0  0  0  0  0  0  0  0  0  0
  152.1042  138.4401  155.5087 H   0  0  0  0  0  0  0  0  0  0  0  0
  151.4067  136.8446  155.3331 H   0  0  0  0  0  0  0  0  0  0  0  0
  151.7949  137.3810  152.9463 H   0  0  0  0  0  0  0  0  0  0  0  0
  145.6847  134.1823  162.8292 H   0  0  0  0  0  0  0  0  0  0  0  0
  147.1103  133.1476  162.9343 H   0  0  0  0  0  0  0  0  0  0  0  0
  145.9838  132.9656  161.5890 H   0  0  0  0  0  0  0  0  0  0  0  0
  1  2  1  0  0  0  0
  1 21  1  0  0  0  0
  1 22  1  0  0  0  0
  1 23  1  0  0  0  0
  2 19  2  0  0  0  0
  2  3  1  0  0  0  0
  3  4  2  0  0  0  0
  4  5  1  0  0  0  0
  4 18  1  0  0  0  0
  5  6  1  0  0  0  0
  5 24  1  0  0  0  0
  6  7  2  0  0  0  0
  6  8  1  0  0  0  0
  8  9  1  0  0  0  0
  8 25  1  0  0  0  0
  9 15  1  0  0  0  0
  9 10  1  0  0  0  0
  9 26  1  0  0  0  0
 10 14  1  0  0  0  0
 10 11  1  0  0  0  0
 10 27  1  0  0  0  0
 11 12  1  0  0  0  0
 11 28  1  0  0  0  0
 11 29  1  0  0  0  0
 12 13  1  0  0  0  0
 12 30  1  0  0  0  0
 12 31  1  0  0  0  0
 13 14  1  0  0  0  0
 13 15  1  0  0  0  0
 13 32  1  0  0  0  0
 14 33  1  0  0  0  0
 14 34  1  0  0  0  0
 15 16  1  0  0  0  0
 15 35  1  0  0  0  0
 16 17  1  0  0  0  0
 16 36  1  0  0  0  0
 16 37  1  0  0  0  0
 17 38  1  0  0  0  0
 18 19  1  0  0  0  0
 19 20  1  0  0  0  0
 20 39  1  0  0  0  0
 20 40  1  0  0  0  0
 20 41  1  0  0  0  0
M  END
> <s_m_source_file>
AV-unprocessed.smi

> <i_m_source_file_index>
794

> <i_lp_mmshare_version>
43012

> <i_f3d_flags>
0

> <s_epik_input>
W0NIM11jMW5jKHNjMVtDSDNdKVtOSF1DKD1PKVtOSF1bQ0BIXShbQ0BASF0yMylbQ0BIXShbQ0gyXVtPSF0pW0NAQEhdKFtDSDJdMylbQ0gyXVtDSDJdMg==

> <s_epik_cmdline>
J2VwaWtfcHl0aG9uJywgJy1waCcsICc3LjAnLCAnLXRuJywgJzgnLCAnLW1hJywgJzIwMCcsICctbWV0YWxfYmluZGluZycsICctaW1hZScsICc8aW5maWxlLm1hZT4nLCAnLW9tYWUnLCAnPG91dGZpbGUubWFlPic=

> <r_lp_tautomer_probability>
0.999

> <r_epik_Ionization_Penalty>
0.000713029

> <r_epik_Ionization_Penalty_Charging>
0

> <r_epik_Ionization_Penalty_Neutral>
0.000713029

> <r_epik_State_Penalty>
0.000177984

> <r_epik_Charging_Adjusted_Penalty>
0.000177984

> <i_epik_Tot_Q>
0

> <i_epik_Tot_abs_Q>
0

> <r_epik_Metal_State_Penalty>
-0

> <b_epik_Metal_Only>
0

> <s_lp_Force_Field>
OPLS_2005

> <r_lp_Energy>
49.1423

> <b_lp_Chiralities_Consistent>
1

> <s_lp_Variant>
AV-unprocessed.smi:794-2

> <Gold.Version>
5.8.1

> <Gold.Id.Protein>
6NUR|6NUR_protein|mol2

> <Gold.PLP.Fitness>
39.4926

> <Gold.PLP.PLP>
-32.8281

> <Gold.PLP.part.hbond>
-3.0000

> <Gold.PLP.part.metal>
0.0000

> <Gold.PLP.part.buried>
-3.2643

> <Gold.PLP.part.nonpolar>
-27.4119

> <Gold.PLP.part.repulsive>
0.1333

> <Gold.PLP.ligand.clash>
0.0000

> <Gold.PLP.ligand.torsion>
1.0520

> <Gold.PLP.Chemscore.Hbond>
2.9200

> <Gold.PLP.Chemscore.CHOScore>
0.0000

> <Gold.PLP.Chemscore.Metal>
0.0000

> <Gold.Chemscore.Hbonds>
donor molecule, donor type, donor heavy atom, donor atom, acceptor molecule, acceptor atom, score
      L1  H    17    38       P1  7949  0.75
      P1  H  6931  6943       L1     3  1.00
      P1  H 10752 10763       L1    17  0.81

> <Gold.PLP.Chemscore.Internal.Correction>
0.0086

> <Gold.Rescore>
     Score         DG    S(hbond)    S(metal)    S(lipo)     H(rot)  DE(clash)    DE(int)     intcor
     16.31     -17.71       2.15        0.00      82.16       1.78       0.50       0.90       ----

> <Gold.Chemscore.Fitness>
16.3140

> <Gold.Chemscore.DG>
-17.7068

> <Gold.Chemscore.ZeroCoef>
-5.4800

> <Gold.Chemscore.Hbond>
2.1468

> <Gold.Chemscore.Metal>
0.0000

> <Gold.Chemscore.Lipo>
82.1603

> <Gold.Chemscore.Internal_Hbond>
0.0000

> <Gold.Chemscore.DEClash>
0.4953

> <Gold.Chemscore.DEInternal>
0.8975

> <Gold.Chemscore.Rot>
1.7798

> <Gold.Chemscore.Internal.Correction>
   9.000000E+99

> <Gold.Chemscore.Hbonds>
donor molecule, donor type, donor heavy atom, donor atom, acceptor molecule, acceptor atom, score
      L1  H    17    38       P1  7949  0.71
      P1  H  6931  6943       L1     3  0.38
      P1  H 10752 10763       L1    17  0.11

> <Gold.Chemscore.Hbond.Weighted>
-7.1703

> <Gold.Chemscore.Metal.Weighted>
-0.0000

> <Gold.Chemscore.Lipo.Weighted>
-9.6128

> <Gold.Chemscore.Internal_Hbond.Weighted>
0.0000

> <Gold.Chemscore.DEClash.Weighted>
0.4953

> <Gold.Chemscore.DEInternal.Weighted>
0.8975

> <Gold.Chemscore.Rot.Weighted>
4.5562

> <Gold.Chemscore.Internal.Correction.Weighted>
   9.000000E+99

> <Gold.Protein.RotatedTorsions>
[ 6907 6896 6895 6894 ] final  -57.04 input  -60.11 | X-H torsion
[ 7974 7965 7964 7962 ] final  146.65 input  175.53 | X-H torsion
[ 8008 7997 7996 7995 ] final  -29.33 input   59.86 | X-H torsion
[ 10167 10162 10161 10158 ] final  -76.82 input  -65.29 | X-H torsion
[ 10718 10713 10712 10709 ] final  171.45 input   66.30 | X-H torsion
[ 10763 10752 10751 10750 ] final   17.00 input  -60.55 | X-H torsion
[ 11005 11000 10999 10996 ] final   99.84 input  -57.11 | X-H torsion

> <Gold.Protein.ActiveResidues>
 VAL166  LYS551  ARG553  GLY616  TRP617  ASP618  TYR619  PRO620  LYS621  CYS622 
 ASP623  PHE694  ASN695  SER759  ASP760  ASP761  ALA762  ILE779  LEU786  VAL792 
 PHE793  MET794  SER795  GLU796  ALA797  LYS798  CYS799  TRP800  GLU811  SER814 

> <Gold.Protein.RotatedAtoms>
  150.8118  134.7277  159.6694 H   0  0  0  0  0  0  0  0  0  0  0  0  # atno 6907 bound_to 6896
  152.4238  134.5903  159.9982 H   0  0  0  0  0  0  0  0  0  0  0  0  # atno 6908 bound_to 6896
  151.6111  133.3310  159.3103 H   0  0  0  0  0  0  0  0  0  0  0  0  # atno 6909 bound_to 6896
  144.8654  139.5932  143.5911 H   0  0  0  0  0  0  0  0  0  0  0  0  # atno 7974 bound_to 7965
  154.4294  140.1821  156.1231 H   0  0  0  0  0  0  0  0  0  0  0  0  # atno 8008 bound_to 7997
  156.0127  140.3349  155.6932 H   0  0  0  0  0  0  0  0  0  0  0  0  # atno 8009 bound_to 7997
  155.6087  140.0648  157.2703 H   0  0  0  0  0  0  0  0  0  0  0  0  # atno 8010 bound_to 7997
  140.4823  143.2399  151.8038 H   0  0  0  0  0  0  0  0  0  0  0  0  # atno 10167 bound_to 10162
  156.9933  131.0154  151.2850 H   0  0  0  0  0  0  0  0  0  0  0  0  # atno 10718 bound_to 10713
  153.1379  135.6754  153.9074 H   0  0  0  0  0  0  0  0  0  0  0  0  # atno 10763 bound_to 10752
  153.8540  135.3089  155.3435 H   0  0  0  0  0  0  0  0  0  0  0  0  # atno 10764 bound_to 10752
  154.7763  135.4913  153.9833 H   0  0  0  0  0  0  0  0  0  0  0  0  # atno 10765 bound_to 10752
  139.8770  134.9114  156.4666 H   0  0  0  0  0  0  0  0  0  0  0  0  # atno 11005 bound_to 11000
  146.2891  139.7089  142.9174 LP  0  0  0  0  0  0  0  0  0  0  0  0  # atno 17320 bound_to 7965
  145.4232  141.0408  143.2952 LP  0  0  0  0  0  0  0  0  0  0  0  0  # atno 17321 bound_to 7965
  139.4836  144.4756  151.9371 LP  0  0  0  0  0  0  0  0  0  0  0  0  # atno 17342 bound_to 10162
  140.3842  144.2698  150.5905 LP  0  0  0  0  0  0  0  0  0  0  0  0  # atno 17343 bound_to 10162
  157.5443  130.8140  149.8066 LP  0  0  0  0  0  0  0  0  0  0  0  0  # atno 17370 bound_to 10713
  156.0198  130.3799  150.1995 LP  0  0  0  0  0  0  0  0  0  0  0  0  # atno 17371 bound_to 10713
  140.8825  133.7907  155.9483 LP  0  0  0  0  0  0  0  0  0  0  0  0  # atno 17394 bound_to 11000
  140.8839  134.2578  157.5130 LP  0  0  0  0  0  0  0  0  0  0  0  0  # atno 17395 bound_to 11000

$$$$
