#       Name:                AV-unprocessed.smi:1514
#       Creating user name   scv26
#       Creation time:       Fri Mar 27 06:24:49 2020


#       File generated by GOLD software.
#

@<TRIPOS>MOLECULE
AV-unprocessed.smi:1514
    52    53     1
SMALL
NO_CHARGES


@<TRIPOS>ATOM
      1 ****        -6.6353  -0.4307   2.1514 C.3            1 S1                 0.0000
      2 ****        -5.2046  -0.6225   2.6758 C.3            1 S1                 0.0000
      3 ****        -4.1740  -0.1573   1.7141 N.4            1 S1                 1.0000
      4 ****        -4.0268  -1.0341   0.5250 C.3            1 S1                 0.0000
      5 ****        -2.9845  -0.4515  -0.4536 C.3            1 S1                 0.0000
      6 ****        -1.6763  -0.2651   0.1783 N.3            1 S1                 0.0000
      7 ****        -0.9980  -1.5386   0.4419 C.3            1 S1                 0.0000
      8 ****         0.4862  -1.3653   0.8127 C.3            1 S1                 0.0000
      9 ****         1.2217  -0.6884  -0.2479 N.am           1 S1                 0.0000
     10 ****         2.5324  -0.4159  -0.2030 C.2            1 S1                 0.0000
     11 ****         3.2519  -0.7165   0.7497 O.2            1 S1                 0.0000
     12 ****         2.9351   0.2177  -1.3183 N.am           1 S1                 0.0000
     13 ****         4.1812   0.6498  -1.6475 C.2            1 S1                 0.0000
     14 ****         5.3448   0.5468  -0.9353 C.2            1 S1                 0.0000
     15 ****         6.2937   1.1764  -1.7924 C.2            1 S1                 0.0000
     16 ****         7.7621   1.3739  -1.5566 C.3            1 S1                 0.0000
     17 ****         5.7507   1.6191  -2.9212 N.2            1 S1                 0.0000
     18 ****         4.4423   1.2944  -2.8361 N.pl3          1 S1                 0.0000
     19 ****         3.5369   1.6364  -3.9158 C.3            1 S1                 0.0000
     20 ****        -1.8356   0.6107   1.3444 C.3            1 S1                 0.0000
     21 ****        -2.8547   0.0509   2.3590 C.3            1 S1                 0.0000
     22 ****        -7.3624  -0.6904   2.9210 H              1 S1                 0.0000
     23 ****        -6.8435  -1.0616   1.2877 H              1 S1                 0.0000
     24 ****        -6.8160   0.6056   1.8650 H              1 S1                 0.0000
     25 ****        -5.1095  -0.0506   3.5999 H              1 S1                 0.0000
     26 ****        -5.0281  -1.6665   2.9382 H              1 S1                 0.0000
     27 ****        -3.7541  -2.0440   0.8342 H              1 S1                 0.0000
     28 ****        -4.9798  -1.1172   0.0039 H              1 S1                 0.0000
     29 ****        -2.8831  -1.0955  -1.3282 H              1 S1                 0.0000
     30 ****        -3.3327   0.5137  -0.8243 H              1 S1                 0.0000
     31 ****        -1.5075  -2.1007   1.2235 H              1 S1                 0.0000
     32 ****        -1.0528  -2.1526  -0.4582 H              1 S1                 0.0000
     33 ****         0.6012  -0.8241   1.7521 H              1 S1                 0.0000
     34 ****         0.9294  -2.3495   0.9712 H              1 S1                 0.0000
     35 ****         0.6962  -0.4049  -1.0620 H              1 S1                 0.0000
     36 ****         2.2223   0.3970  -2.0098 H              1 S1                 0.0000
     37 ****         5.5118   0.1015   0.0339 H              1 S1                 0.0000
     38 ****         8.0430   1.0720  -0.5475 H              1 S1                 0.0000
     39 ****         8.0438   2.4201  -1.6791 H              1 S1                 0.0000
     40 ****         8.3540   0.7838  -2.2566 H              1 S1                 0.0000
     41 ****         2.8195   2.3803  -3.5688 H              1 S1                 0.0000
     42 ****         2.9985   0.7454  -4.2397 H              1 S1                 0.0000
     43 ****         4.0874   2.0434  -4.7651 H              1 S1                 0.0000
     44 ****        -0.8752   0.7872   1.8271 H              1 S1                 0.0000
     45 ****        -2.1746   1.5873   0.9958 H              1 S1                 0.0000
     46 ****        -2.9624   0.7620   3.1789 H              1 S1                 0.0000
     47 ****        -2.5004  -0.8806   2.8022 H              1 S1                 0.0000
     48 ****        -4.4723   0.7480   1.3800 H              1 S1                 0.0000
     49 ****        -1.0514   0.1967  -0.4511 LP             1 S1                 0.0000
     50 ****         2.8626  -1.1878   1.5411 LP             1 S1                 0.0000
     51 ****         4.2256  -0.4893   0.7321 LP             1 S1                 0.0000
     52 ****         6.2116   2.0913  -3.6725 LP             1 S1                 0.0000
@<TRIPOS>BOND
    1    1    2 1     
    2    1   22 1     
    3    1   23 1     
    4    1   24 1     
    5    2    3 1     
    6    2   25 1     
    7    2   26 1     
    8    3   21 1     
    9    3    4 1     
   10    3   48 1     
   11    4    5 1     
   12    4   27 1     
   13    4   28 1     
   14    5    6 1     
   15    5   29 1     
   16    5   30 1     
   17    6    7 1     
   18    6   20 1     
   19    7    8 1     
   20    7   31 1     
   21    7   32 1     
   22    8    9 1     
   23    8   33 1     
   24    8   34 1     
   25    9   10 am    
   26    9   35 1     
   27   10   11 2     
   28   10   12 am    
   29   12   13 1     
   30   12   36 1     
   31   13   18 1     
   32   13   14 2     
   33   14   15 1     
   34   14   37 1     
   35   15   16 1     
   36   15   17 2     
   37   16   38 1     
   38   16   39 1     
   39   16   40 1     
   40   17   18 1     
   41   18   19 1     
   42   19   41 1     
   43   19   42 1     
   44   19   43 1     
   45   20   21 1     
   46   20   44 1     
   47   20   45 1     
   48   21   46 1     
   49   21   47 1     
   50    6   49 1     
   51   11   50 1     
   52   11   51 1     
   53   17   52 1     
@<TRIPOS>SUBSTRUCTURE
      1 S1             1
@<TRIPOS>SET
LONE_PAIRS      STATIC     ATOMS    <user>   **** ""
4 49 50 51 52
DONOR_HYDROGENS      STATIC     ATOMS    <user>   **** ""
3 48 35 36
ATOM$BLUE        STATIC     ATOMS    COLORGROUP SYSTEM
4 49 50 51 52
ATOM$RED        STATIC     ATOMS    COLORGROUP SYSTEM
3 48 35 36
