AV-unprocessed.smi:1506|AV-procd|sdf|6079|dock1
  -GOLD-   22720 6203D 1   1.00000     0.00000
 Structure written by MMmdl.
 40 42  0  0  0  0  0  0  0  0  2 V2000
  151.8853  145.8856  160.1673 C   0  0  0  0  0  0  0  0  0  0  0  0
  152.1500  144.3967  160.2555 C   0  0  0  0  0  0  0  0  0  0  0  0
  152.4670  143.8013  161.4924 C   0  0  0  0  0  0  0  0  0  0  0  0
  152.7099  142.4173  161.5634 C   0  0  0  0  0  0  0  0  0  0  0  0
  152.6367  141.6241  160.4020 C   0  0  0  0  0  0  0  0  0  0  0  0
  152.3167  142.2112  159.1516 C   0  0  0  0  0  0  0  0  0  0  0  0
  152.2223  141.5112  157.9677 O   0  0  0  0  0  0  0  0  0  0  0  0
  152.4601  140.1099  157.9942 C   0  0  0  0  0  0  0  0  0  0  0  0
  152.5657  139.5901  156.5529 C   0  0  1  0  0  0  0  0  0  0  0  0
  153.4554  138.4912  156.5394 O   0  0  0  0  0  0  0  0  0  0  0  0
  151.1983  139.1745  155.9740 C   0  0  0  0  0  0  0  0  0  0  0  0
  150.4160  140.3198  155.4868 N   0  0  0  0  0  0  0  0  0  0  0  0
  150.5606  141.6451  155.7594 C   0  0  0  0  0  0  0  0  0  0  0  0
  149.5986  142.3158  155.0673 N   0  3  0  0  0  0  0  0  0  0  0  0
  148.8270  141.4063  154.3411 C   0  0  0  0  0  0  0  0  0  0  0  0
  147.7418  141.6067  153.4934 C   0  0  0  0  0  0  0  0  0  0  0  0
  147.1793  140.4564  152.9024 C   0  0  0  0  0  0  0  0  0  0  0  0
  147.6960  139.1705  153.1614 C   0  0  0  0  0  0  0  0  0  0  0  0
  148.7962  138.9789  154.0230 C   0  0  0  0  0  0  0  0  0  0  0  0
  149.3464  140.1209  154.6051 C   0  0  0  0  0  0  0  0  0  0  0  0
  152.0757  143.5997  159.0950 C   0  0  0  0  0  0  0  0  0  0  0  0
  152.2181  146.4014  161.0686 H   0  0  0  0  0  0  0  0  0  0  0  0
  150.8184  146.0706  160.0406 H   0  0  0  0  0  0  0  0  0  0  0  0
  152.4130  146.3171  159.3164 H   0  0  0  0  0  0  0  0  0  0  0  0
  152.5249  144.4015  162.3887 H   0  0  0  0  0  0  0  0  0  0  0  0
  152.9536  141.9615  162.5118 H   0  0  0  0  0  0  0  0  0  0  0  0
  152.8312  140.5670  160.4980 H   0  0  0  0  0  0  0  0  0  0  0  0
  153.3943  139.9135  158.5237 H   0  0  0  0  0  0  0  0  0  0  0  0
  151.6566  139.5910  158.5199 H   0  0  0  0  0  0  0  0  0  0  0  0
  153.0023  140.3685  155.9258 H   0  0  0  0  0  0  0  0  0  0  0  0
  154.2913  138.7771  156.8741 H   0  0  0  0  0  0  0  0  0  0  0  0
  151.3106  138.4437  155.1731 H   0  0  0  0  0  0  0  0  0  0  0  0
  150.6010  138.6883  156.7462 H   0  0  0  0  0  0  0  0  0  0  0  0
  151.3058  142.0853  156.4064 H   0  0  0  0  0  0  0  0  0  0  0  0
  147.3449  142.5910  153.2923 H   0  0  0  0  0  0  0  0  0  0  0  0
  146.3353  140.5627  152.2361 H   0  0  0  0  0  0  0  0  0  0  0  0
  147.2396  138.3129  152.6887 H   0  0  0  0  0  0  0  0  0  0  0  0
  149.1845  137.9890  154.2098 H   0  0  0  0  0  0  0  0  0  0  0  0
  151.8306  144.0578  158.1477 H   0  0  0  0  0  0  0  0  0  0  0  0
  149.4812  143.3206  155.0892 H   0  0  0  0  0  0  0  0  0  0  0  0
  1  2  1  0  0  0  0
  1 22  1  0  0  0  0
  1 23  1  0  0  0  0
  1 24  1  0  0  0  0
  2 21  1  0  0  0  0
  2  3  2  0  0  0  0
  3  4  1  0  0  0  0
  3 25  1  0  0  0  0
  4  5  2  0  0  0  0
  4 26  1  0  0  0  0
  5  6  1  0  0  0  0
  5 27  1  0  0  0  0
  6  7  1  0  0  0  0
  6 21  2  0  0  0  0
  7  8  1  0  0  0  0
  8  9  1  0  0  0  0
  8 28  1  0  0  0  0
  8 29  1  0  0  0  0
  9 10  1  0  0  0  0
  9 11  1  0  0  0  0
  9 30  1  0  0  0  0
 10 31  1  0  0  0  0
 11 12  1  0  0  0  0
 11 32  1  0  0  0  0
 11 33  1  0  0  0  0
 12 20  1  0  0  0  0
 12 13  1  0  0  0  0
 13 14  2  0  0  0  0
 13 34  1  0  0  0  0
 14 15  1  0  0  0  0
 14 40  1  0  0  0  0
 15 20  2  0  0  0  0
 15 16  1  0  0  0  0
 16 17  2  0  0  0  0
 16 35  1  0  0  0  0
 17 18  1  0  0  0  0
 17 36  1  0  0  0  0
 18 19  2  0  0  0  0
 18 37  1  0  0  0  0
 19 20  1  0  0  0  0
 19 38  1  0  0  0  0
 21 39  1  0  0  0  0
M  CHG  1  14   1
M  END
> <s_m_source_file>
AV-unprocessed.smi

> <i_m_source_file_index>
1506

> <i_lp_mmshare_version>
43012

> <i_f3d_flags>
0

> <s_epik_input>
W0NIM11jMVtjSF1bY0hdW2NIXWMoW2NIXTEpT1tDSDJdW0NASF0oW09IXSlbQ0gyXW4oW2NIXW4yKWMoYzIzKVtjSF1bY0hdW2NIXVtjSF0z

> <s_epik_cmdline>
J2VwaWtfcHl0aG9uJywgJy1waCcsICc3LjAnLCAnLXRuJywgJzgnLCAnLW1hJywgJzIwMCcsICctbWV0YWxfYmluZGluZycsICctaW1hZScsICc8aW5maWxlLm1hZT4nLCAnLW9tYWUnLCAnPG91dGZpbGUubWFlPic=

> <r_lp_tautomer_probability>
1

> <r_epik_Ionization_Penalty>
1.37864

> <r_epik_Ionization_Penalty_Charging>
1.37864

> <r_epik_Ionization_Penalty_Neutral>
2.3993e-06

> <r_epik_State_Penalty>
1.45896

> <r_epik_Charging_Adjusted_Penalty>
2.8376

> <i_epik_Tot_Q>
1

> <i_epik_Tot_abs_Q>
1

> <r_epik_Metal_State_Penalty>
5.49899

> <b_epik_Metal_Only>
0

> <s_lp_Force_Field>
OPLS_2005

> <r_lp_Energy>
20.0977

> <b_lp_Chiralities_Consistent>
1

> <s_lp_Variant>
AV-unprocessed.smi:1506-4

> <Gold.Version>
5.8.1

> <Gold.Id.Protein>
6NUR|6NUR_protein|mol2

> <Gold.PLP.Fitness>
54.2516

> <Gold.PLP.PLP>
-49.7299

> <Gold.PLP.part.hbond>
-1.9733

> <Gold.PLP.part.metal>
0.0000

> <Gold.PLP.part.buried>
-1.3140

> <Gold.PLP.part.nonpolar>
-45.4655

> <Gold.PLP.part.repulsive>
0.2165

> <Gold.PLP.ligand.clash>
0.0000

> <Gold.PLP.ligand.torsion>
0.8570

> <Gold.PLP.Chemscore.Hbond>
2.0000

> <Gold.PLP.Chemscore.CHOScore>
0.0000

> <Gold.PLP.Chemscore.Metal>
0.0000

> <Gold.Chemscore.Hbonds>
donor molecule, donor type, donor heavy atom, donor atom, acceptor molecule, acceptor atom, score
      L1  H    14    40       P1  8028  2.00

> <Gold.PLP.Chemscore.Internal.Correction>
0.2357

> <Gold.Rescore>
     Score         DG    S(hbond)    S(metal)    S(lipo)     H(rot)  DE(clash)    DE(int)     intcor
     16.56     -19.08       1.00        0.00     137.44       2.27       0.10       2.42       ----

> <Gold.Chemscore.Fitness>
16.5598

> <Gold.Chemscore.DG>
-19.0791

> <Gold.Chemscore.ZeroCoef>
-5.4800

> <Gold.Chemscore.Hbond>
0.9986

> <Gold.Chemscore.Metal>
0.0000

> <Gold.Chemscore.Lipo>
137.4443

> <Gold.Chemscore.Internal_Hbond>
0.0000

> <Gold.Chemscore.DEClash>
0.1009

> <Gold.Chemscore.DEInternal>
2.4184

> <Gold.Chemscore.Rot>
2.2723

> <Gold.Chemscore.Internal.Correction>
   9.000000E+99

> <Gold.Chemscore.Hbonds>
donor molecule, donor type, donor heavy atom, donor atom, acceptor molecule, acceptor atom, score
      L1  H    14    40       P1  8028  0.97

> <Gold.Chemscore.Hbond.Weighted>
-3.3352

> <Gold.Chemscore.Metal.Weighted>
-0.0000

> <Gold.Chemscore.Lipo.Weighted>
-16.0810

> <Gold.Chemscore.Internal_Hbond.Weighted>
0.0000

> <Gold.Chemscore.DEClash.Weighted>
0.1009

> <Gold.Chemscore.DEInternal.Weighted>
2.4184

> <Gold.Chemscore.Rot.Weighted>
5.8170

> <Gold.Chemscore.Internal.Correction.Weighted>
   9.000000E+99

> <Gold.Protein.RotatedTorsions>
[ 6907 6896 6895 6894 ] final  -12.14 input  -60.11 | X-H torsion
[ 7974 7965 7964 7962 ] final -126.85 input  175.53 | X-H torsion
[ 8008 7997 7996 7995 ] final  -13.24 input   59.86 | X-H torsion
[ 10167 10162 10161 10158 ] final   11.72 input  -65.29 | X-H torsion
[ 10718 10713 10712 10709 ] final  166.67 input   66.30 | X-H torsion
[ 10763 10752 10751 10750 ] final  -56.23 input  -60.55 | X-H torsion
[ 11005 11000 10999 10996 ] final  129.19 input  -57.11 | X-H torsion

> <Gold.Protein.ActiveResidues>
 VAL166  LYS551  ARG553  GLY616  TRP617  ASP618  TYR619  PRO620  LYS621  CYS622 
 ASP623  PHE694  ASN695  SER759  ASP760  ASP761  ALA762  ILE779  LEU786  VAL792 
 PHE793  MET794  SER795  GLU796  ALA797  LYS798  CYS799  TRP800  GLU811  SER814 

> <Gold.Protein.RotatedAtoms>
  151.3752  135.0930  159.9478 H   0  0  0  0  0  0  0  0  0  0  0  0  # atno 6907 bound_to 6896
  152.5124  133.9125  159.7505 H   0  0  0  0  0  0  0  0  0  0  0  0  # atno 6908 bound_to 6896
  150.9547  133.6455  159.2794 H   0  0  0  0  0  0  0  0  0  0  0  0  # atno 6909 bound_to 6896
  144.9830  140.7659  143.4600 H   0  0  0  0  0  0  0  0  0  0  0  0  # atno 7974 bound_to 7965
  154.5309  140.2255  155.8807 H   0  0  0  0  0  0  0  0  0  0  0  0  # atno 8008 bound_to 7997
  156.1762  140.3110  155.9028 H   0  0  0  0  0  0  0  0  0  0  0  0  # atno 8009 bound_to 7997
  155.3454  140.0452  157.3036 H   0  0  0  0  0  0  0  0  0  0  0  0  # atno 8010 bound_to 7997
  140.6114  143.8400  150.7069 H   0  0  0  0  0  0  0  0  0  0  0  0  # atno 10167 bound_to 10162
  157.0626  131.0344  151.2641 H   0  0  0  0  0  0  0  0  0  0  0  0  # atno 10718 bound_to 10713
  154.2033  135.6407  153.5093 H   0  0  0  0  0  0  0  0  0  0  0  0  # atno 10763 bound_to 10752
  153.0007  135.5456  154.6292 H   0  0  0  0  0  0  0  0  0  0  0  0  # atno 10764 bound_to 10752
  154.5711  135.2917  155.0800 H   0  0  0  0  0  0  0  0  0  0  0  0  # atno 10765 bound_to 10752
  139.9602  134.9604  156.9112 H   0  0  0  0  0  0  0  0  0  0  0  0  # atno 11005 bound_to 11000
  145.2393  139.2079  143.5001 LP  0  0  0  0  0  0  0  0  0  0  0  0  # atno 17320 bound_to 7965
  146.3413  140.2286  142.8593 LP  0  0  0  0  0  0  0  0  0  0  0  0  # atno 17321 bound_to 7965
  140.1969  143.3991  152.1821 LP  0  0  0  0  0  0  0  0  0  0  0  0  # atno 17342 bound_to 10162
  139.5364  144.7214  151.4879 LP  0  0  0  0  0  0  0  0  0  0  0  0  # atno 17343 bound_to 10162
  157.4943  130.7841  149.7539 LP  0  0  0  0  0  0  0  0  0  0  0  0  # atno 17370 bound_to 10713
  155.9974  130.3900  150.2742 LP  0  0  0  0  0  0  0  0  0  0  0  0  # atno 17371 bound_to 10713
  140.5518  134.0619  155.7371 LP  0  0  0  0  0  0  0  0  0  0  0  0  # atno 17394 bound_to 11000
  141.1278  133.9354  157.2599 LP  0  0  0  0  0  0  0  0  0  0  0  0  # atno 17395 bound_to 11000

$$$$
