AV-unprocessed.smi:1762|AV-procd|sdf|7105|dock8
  -GOLD-   22720 8323D 1   1.00000     0.00000
 Structure written by MMmdl.
 53 54  0  0  0  0  0  0  0  0  2 V2000
  147.6532  136.3344  162.3755 C   0  0  0  0  0  0  0  0  0  0  0  0
  147.4400  136.3119  160.8577 C   0  0  2  0  0  0  0  0  0  0  0  0
  148.7351  136.6167  160.0824 C   0  0  0  0  0  0  0  0  0  0  0  0
  148.5261  136.6805  158.6316 N   0  0  0  0  0  0  0  0  0  0  0  0
  149.7873  136.9030  157.8696 C   0  0  2  0  0  0  0  0  0  0  0  0
  150.3830  138.3152  158.0805 C   0  0  0  0  0  0  0  0  0  0  0  0
  150.8300  138.6464  159.1794 O   0  0  0  0  0  0  0  0  0  0  0  0
  150.4076  139.1257  157.0102 N   0  0  0  0  0  0  0  0  0  0  0  0
  150.9504  140.4784  157.0021 C   0  0  0  0  0  0  0  0  0  0  0  0
  150.0613  141.4474  157.7999 C   0  0  0  0  0  0  0  0  0  0  0  0
  150.8367  142.6409  158.3216 C   0  0  0  0  0  0  0  0  0  0  0  0
  151.9108  142.4985  159.2267 C   0  0  0  0  0  0  0  0  0  0  0  0
  152.5886  143.6502  159.6783 C   0  0  0  0  0  0  0  0  0  0  0  0
  152.1778  144.9181  159.2165 C   0  0  0  0  0  0  0  0  0  0  0  0
  151.0974  145.0025  158.3146 C   0  0  0  0  0  0  0  0  0  0  0  0
  150.4733  143.8759  157.9053 N   0  3  0  0  0  0  0  0  0  0  0  0
  149.7104  136.5582  156.3438 C   0  0  0  0  0  0  0  0  0  0  0  0
  148.9271  135.2641  156.0432 C   0  0  0  0  0  0  0  0  0  0  0  0
  151.0818  136.5293  155.6406 C   0  0  0  0  0  0  0  0  0  0  0  0
  147.4679  137.6695  158.3567 C   0  0  0  0  0  0  0  0  0  0  0  0
  146.1691  137.4161  159.1481 C   0  0  1  0  0  0  0  0  0  0  0  0
  145.3523  136.2265  158.6136 C   0  0  0  0  0  0  0  0  0  0  0  0
  146.4522  137.2856  160.5391 O   0  0  0  0  0  0  0  0  0  0  0  0
  148.3873  135.5881  162.6801 H   0  0  0  0  0  0  0  0  0  0  0  0
  146.7232  136.1187  162.9021 H   0  0  0  0  0  0  0  0  0  0  0  0
  148.0072  137.3096  162.7107 H   0  0  0  0  0  0  0  0  0  0  0  0
  147.0762  135.3216  160.5818 H   0  0  0  0  0  0  0  0  0  0  0  0
  149.1659  137.5549  160.4368 H   0  0  0  0  0  0  0  0  0  0  0  0
  149.4427  135.8309  160.3377 H   0  0  0  0  0  0  0  0  0  0  0  0
  150.5242  136.2126  158.2860 H   0  0  0  0  0  0  0  0  0  0  0  0
  150.0244  138.7778  156.1429 H   0  0  0  0  0  0  0  0  0  0  0  0
  151.9506  140.4453  157.4351 H   0  0  0  0  0  0  0  0  0  0  0  0
  151.0681  140.8246  155.9736 H   0  0  0  0  0  0  0  0  0  0  0  0
  149.2405  141.8078  157.1780 H   0  0  0  0  0  0  0  0  0  0  0  0
  149.6011  140.9272  158.6412 H   0  0  0  0  0  0  0  0  0  0  0  0
  152.2124  141.5198  159.5720 H   0  0  0  0  0  0  0  0  0  0  0  0
  153.4137  143.5623  160.3701 H   0  0  0  0  0  0  0  0  0  0  0  0
  152.6846  145.8123  159.5494 H   0  0  0  0  0  0  0  0  0  0  0  0
  150.7173  145.9296  157.9107 H   0  0  0  0  0  0  0  0  0  0  0  0
  149.1227  137.3355  155.8581 H   0  0  0  0  0  0  0  0  0  0  0  0
  149.4613  134.3735  156.3753 H   0  0  0  0  0  0  0  0  0  0  0  0
  148.7558  135.1546  154.9719 H   0  0  0  0  0  0  0  0  0  0  0  0
  147.9513  135.2717  156.5298 H   0  0  0  0  0  0  0  0  0  0  0  0
  151.7083  135.7142  156.0017 H   0  0  0  0  0  0  0  0  0  0  0  0
  151.6286  137.4605  155.7885 H   0  0  0  0  0  0  0  0  0  0  0  0
  150.9626  136.3936  154.5654 H   0  0  0  0  0  0  0  0  0  0  0  0
  147.8375  138.6676  158.5981 H   0  0  0  0  0  0  0  0  0  0  0  0
  147.1973  137.6921  157.3017 H   0  0  0  0  0  0  0  0  0  0  0  0
  145.5394  138.3009  159.0497 H   0  0  0  0  0  0  0  0  0  0  0  0
  145.0257  136.4097  157.5896 H   0  0  0  0  0  0  0  0  0  0  0  0
  144.4613  136.0633  159.2200 H   0  0  0  0  0  0  0  0  0  0  0  0
  145.9287  135.3017  158.6088 H   0  0  0  0  0  0  0  0  0  0  0  0
  149.6939  143.9607  157.2522 H   0  0  0  0  0  0  0  0  0  0  0  0
  1  2  1  0  0  0  0
  1 24  1  0  0  0  0
  1 25  1  0  0  0  0
  1 26  1  0  0  0  0
  2 23  1  0  0  0  0
  2  3  1  0  0  0  0
  2 27  1  0  0  0  0
  3  4  1  0  0  0  0
  3 28  1  0  0  0  0
  3 29  1  0  0  0  0
  4  5  1  0  0  0  0
  4 20  1  0  0  0  0
  5  6  1  0  0  0  0
  5 17  1  0  0  0  0
  5 30  1  0  0  0  0
  6  7  2  0  0  0  0
  6  8  1  0  0  0  0
  8  9  1  0  0  0  0
  8 31  1  0  0  0  0
  9 10  1  0  0  0  0
  9 32  1  0  0  0  0
  9 33  1  0  0  0  0
 10 11  1  0  0  0  0
 10 34  1  0  0  0  0
 10 35  1  0  0  0  0
 11 16  1  0  0  0  0
 11 12  2  0  0  0  0
 12 13  1  0  0  0  0
 12 36  1  0  0  0  0
 13 14  2  0  0  0  0
 13 37  1  0  0  0  0
 14 15  1  0  0  0  0
 14 38  1  0  0  0  0
 15 16  2  0  0  0  0
 15 39  1  0  0  0  0
 16 53  1  0  0  0  0
 17 18  1  0  0  0  0
 17 19  1  0  0  0  0
 17 40  1  0  0  0  0
 18 41  1  0  0  0  0
 18 42  1  0  0  0  0
 18 43  1  0  0  0  0
 19 44  1  0  0  0  0
 19 45  1  0  0  0  0
 19 46  1  0  0  0  0
 20 21  1  0  0  0  0
 20 47  1  0  0  0  0
 20 48  1  0  0  0  0
 21 22  1  0  0  0  0
 21 23  1  0  0  0  0
 21 49  1  0  0  0  0
 22 50  1  0  0  0  0
 22 51  1  0  0  0  0
 22 52  1  0  0  0  0
M  CHG  1  16   1
M  END
> <s_m_source_file>
AV-unprocessed.smi

> <i_m_source_file_index>
1762

> <i_lp_mmshare_version>
43012

> <i_f3d_flags>
0

> <s_epik_input>
W0NIM11bQ0BASF0xW0NIMl1OKFtDSDJdW0NASF0oTzEpW0NIM10pW0NAQEhdKFtDSF0oW0NIM10pW0NIM10pQyg9TylbTkhdW0NIMl1bQ0gyXWMyW2NIXVtjSF1bY0hdW2NIXW4y

> <s_epik_cmdline>
J2VwaWtfcHl0aG9uJywgJy1waCcsICc3LjAnLCAnLXRuJywgJzgnLCAnLW1hJywgJzIwMCcsICctbWV0YWxfYmluZGluZycsICctaW1hZScsICc8aW5maWxlLm1hZT4nLCAnLW9tYWUnLCAnPG91dGZpbGUubWFlPic=

> <r_epik_Ionization_Penalty>
1.86475

> <r_epik_Ionization_Penalty_Charging>
1.85347

> <r_epik_Ionization_Penalty_Neutral>
0.0112771

> <r_epik_State_Penalty>
1.99714

> <r_epik_Charging_Adjusted_Penalty>
3.85061

> <i_epik_Tot_Q>
1

> <i_epik_Tot_abs_Q>
1

> <r_epik_Metal_State_Penalty>
2.02271

> <b_epik_Metal_Only>
0

> <s_lp_Force_Field>
OPLS_2005

> <r_lp_Energy>
35.8241

> <b_lp_Chiralities_Consistent>
1

> <s_lp_Variant>
AV-unprocessed.smi:1762-7

> <Gold.Version>
5.8.1

> <Gold.Id.Protein>
6NUR|6NUR_protein|mol2

> <Gold.PLP.Fitness>
44.5278

> <Gold.PLP.PLP>
-36.9795

> <Gold.PLP.part.hbond>
-2.4861

> <Gold.PLP.part.metal>
0.0000

> <Gold.PLP.part.buried>
-6.0308

> <Gold.PLP.part.nonpolar>
-28.3498

> <Gold.PLP.part.repulsive>
0.0284

> <Gold.PLP.ligand.clash>
0.2683

> <Gold.PLP.ligand.torsion>
0.7393

> <Gold.PLP.Chemscore.Hbond>
3.0000

> <Gold.PLP.Chemscore.CHOScore>
0.0000

> <Gold.PLP.Chemscore.Metal>
0.0000

> <Gold.Chemscore.Hbonds>
donor molecule, donor type, donor heavy atom, donor atom, acceptor molecule, acceptor atom, score
      L1  H    16    53       P1  8028  2.00
      P1  H  6934  6947       L1    23  1.00

> <Gold.PLP.Chemscore.Internal.Correction>
0.2952

> <Gold.Rescore>
     Score         DG    S(hbond)    S(metal)    S(lipo)     H(rot)  DE(clash)    DE(int)     intcor
     16.70     -17.94       1.46        0.00     102.48       1.72       0.20       1.04       ----

> <Gold.Chemscore.Fitness>
16.6957

> <Gold.Chemscore.DG>
-17.9404

> <Gold.Chemscore.ZeroCoef>
-5.4800

> <Gold.Chemscore.Hbond>
1.4571

> <Gold.Chemscore.Metal>
0.0000

> <Gold.Chemscore.Lipo>
102.4811

> <Gold.Chemscore.Internal_Hbond>
0.0000

> <Gold.Chemscore.DEClash>
0.2039

> <Gold.Chemscore.DEInternal>
1.0408

> <Gold.Chemscore.Rot>
1.7174

> <Gold.Chemscore.Internal.Correction>
   9.000000E+99

> <Gold.Chemscore.Hbonds>
donor molecule, donor type, donor heavy atom, donor atom, acceptor molecule, acceptor atom, score
      L1  H    16    53       P1  8028  0.62
      P1  H  6934  6947       L1    23  0.21

> <Gold.Chemscore.Hbond.Weighted>
-4.8666

> <Gold.Chemscore.Metal.Weighted>
-0.0000

> <Gold.Chemscore.Lipo.Weighted>
-11.9903

> <Gold.Chemscore.Internal_Hbond.Weighted>
0.0000

> <Gold.Chemscore.DEClash.Weighted>
0.2039

> <Gold.Chemscore.DEInternal.Weighted>
1.0408

> <Gold.Chemscore.Rot.Weighted>
4.3966

> <Gold.Chemscore.Internal.Correction.Weighted>
   9.000000E+99

> <Gold.Protein.RotatedTorsions>
[ 6907 6896 6895 6894 ] final -147.79 input  -60.11 | X-H torsion
[ 7974 7965 7964 7962 ] final  155.86 input  175.53 | X-H torsion
[ 8008 7997 7996 7995 ] final   24.29 input   59.86 | X-H torsion
[ 10167 10162 10161 10158 ] final   29.25 input  -65.29 | X-H torsion
[ 10718 10713 10712 10709 ] final -119.57 input   66.30 | X-H torsion
[ 10763 10752 10751 10750 ] final -167.88 input  -60.55 | X-H torsion
[ 11005 11000 10999 10996 ] final   59.61 input  -57.11 | X-H torsion

> <Gold.Protein.ActiveResidues>
 VAL166  LYS551  ARG553  GLY616  TRP617  ASP618  TYR619  PRO620  LYS621  CYS622 
 ASP623  PHE694  ASN695  SER759  ASP760  ASP761  ALA762  ILE779  LEU786  VAL792 
 PHE793  MET794  SER795  GLU796  ALA797  LYS798  CYS799  TRP800  GLU811  SER814 

> <Gold.Protein.RotatedAtoms>
  151.1606  133.4847  159.2594 H   0  0  0  0  0  0  0  0  0  0  0  0  # atno 6907 bound_to 6896
  151.1458  135.0202  159.8656 H   0  0  0  0  0  0  0  0  0  0  0  0  # atno 6908 bound_to 6896
  152.5463  134.1495  159.8566 H   0  0  0  0  0  0  0  0  0  0  0  0  # atno 6909 bound_to 6896
  144.7999  139.7125  143.6186 H   0  0  0  0  0  0  0  0  0  0  0  0  # atno 7974 bound_to 7965
  154.9940  140.3117  155.4894 H   0  0  0  0  0  0  0  0  0  0  0  0  # atno 8008 bound_to 7997
  156.2935  140.2244  156.4987 H   0  0  0  0  0  0  0  0  0  0  0  0  # atno 8009 bound_to 7997
  154.7678  140.0454  157.1014 H   0  0  0  0  0  0  0  0  0  0  0  0  # atno 8010 bound_to 7997
  140.4782  144.0658  150.6257 H   0  0  0  0  0  0  0  0  0  0  0  0  # atno 10167 bound_to 10162
  156.1191  130.6309  150.9433 H   0  0  0  0  0  0  0  0  0  0  0  0  # atno 10718 bound_to 10713
  154.6686  135.2936  154.9772 H   0  0  0  0  0  0  0  0  0  0  0  0  # atno 10763 bound_to 10752
  154.0807  135.6605  153.4841 H   0  0  0  0  0  0  0  0  0  0  0  0  # atno 10764 bound_to 10752
  153.0473  135.5196  154.7671 H   0  0  0  0  0  0  0  0  0  0  0  0  # atno 10765 bound_to 10752
  140.0291  134.6038  155.9531 H   0  0  0  0  0  0  0  0  0  0  0  0  # atno 11005 bound_to 11000
  146.2277  139.5754  142.9576 LP  0  0  0  0  0  0  0  0  0  0  0  0  # atno 17320 bound_to 7965
  145.5580  141.0407  143.2242 LP  0  0  0  0  0  0  0  0  0  0  0  0  # atno 17321 bound_to 7965
  140.3892  143.2761  152.0080 LP  0  0  0  0  0  0  0  0  0  0  0  0  # atno 17342 bound_to 10162
  139.4829  144.6091  151.7466 LP  0  0  0  0  0  0  0  0  0  0  0  0  # atno 17343 bound_to 10162
  157.6375  131.0914  150.8319 LP  0  0  0  0  0  0  0  0  0  0  0  0  # atno 17370 bound_to 10713
  156.8419  130.5051  149.5320 LP  0  0  0  0  0  0  0  0  0  0  0  0  # atno 17371 bound_to 10713
  141.1820  133.6548  156.5061 LP  0  0  0  0  0  0  0  0  0  0  0  0  # atno 17394 bound_to 11000
  140.4256  134.7148  157.4914 LP  0  0  0  0  0  0  0  0  0  0  0  0  # atno 17395 bound_to 11000

$$$$
