AV-unprocessed.smi:1377|AV-procd|sdf|5595|dock1
  -GOLD-   22720 5203D 1   1.00000     0.00000
 Structure written by MMmdl.
 28 29  0  0  0  0  0  0  0  0  2 V2000
  148.8024  142.3301  155.1909 N   0  0  0  0  0  0  0  0  0  0  0  0
  147.8969  141.5320  154.6197 C   0  0  0  0  0  0  0  0  0  0  0  0
  146.8263  141.9655  154.1958 O   0  0  0  0  0  0  0  0  0  0  0  0
  148.2636  140.0446  154.5251 C   0  0  0  0  0  0  0  0  0  0  0  0
  149.7467  139.8128  154.6140 C   0  0  0  0  0  0  0  0  0  0  0  0
  150.5457  139.2007  153.6822 C   0  0  0  0  0  0  0  0  0  0  0  0
  152.2086  139.1510  154.1922 S   0  0  0  0  0  0  0  0  0  0  0  0
  151.7676  140.0010  155.6746 C   0  0  0  0  0  0  0  0  0  0  0  0
  152.6245  140.3439  156.6490 N   0  5  0  0  0  0  0  0  0  0  0  0
  152.1628  140.5422  157.9067 C   0  0  0  0  0  0  0  0  0  0  0  0
  151.2403  139.9673  158.4877 O   0  0  0  0  0  0  0  0  0  0  0  0
  152.9675  141.6361  158.6263 C   0  0  0  0  0  0  0  0  0  0  0  0
  153.4809  141.2817  160.0356 C   0  0  0  0  0  0  0  0  0  0  0  0
  153.0538  142.6804  160.4919 C   0  0  0  0  0  0  0  0  0  0  0  0
  152.1099  142.7297  159.2868 C   0  0  0  0  0  0  0  0  0  0  0  0
  150.4566  140.2588  155.7328 N   0  0  0  0  0  0  0  0  0  0  0  0
  148.6113  143.3172  155.2824 H   0  0  0  0  0  0  0  0  0  0  0  0
  149.6710  141.9450  155.5317 H   0  0  0  0  0  0  0  0  0  0  0  0
  147.7549  139.5033  155.3235 H   0  0  0  0  0  0  0  0  0  0  0  0
  147.8685  139.6520  153.5874 H   0  0  0  0  0  0  0  0  0  0  0  0
  150.2575  138.7713  152.7348 H   0  0  0  0  0  0  0  0  0  0  0  0
  153.7582  142.0557  158.0013 H   0  0  0  0  0  0  0  0  0  0  0  0
  152.9182  140.4943  160.5397 H   0  0  0  0  0  0  0  0  0  0  0  0
  154.5549  141.1038  160.0924 H   0  0  0  0  0  0  0  0  0  0  0  0
  152.5565  142.7122  161.4615 H   0  0  0  0  0  0  0  0  0  0  0  0
  153.8616  143.4107  160.4250 H   0  0  0  0  0  0  0  0  0  0  0  0
  152.1097  143.6828  158.7578 H   0  0  0  0  0  0  0  0  0  0  0  0
  151.0957  142.4055  159.5282 H   0  0  0  0  0  0  0  0  0  0  0  0
  1  2  1  0  0  0  0
  1 17  1  0  0  0  0
  1 18  1  0  0  0  0
  2  3  2  0  0  0  0
  2  4  1  0  0  0  0
  4  5  1  0  0  0  0
  4 19  1  0  0  0  0
  4 20  1  0  0  0  0
  5 16  1  0  0  0  0
  5  6  2  0  0  0  0
  6  7  1  0  0  0  0
  6 21  1  0  0  0  0
  7  8  1  0  0  0  0
  8  9  1  0  0  0  0
  8 16  2  0  0  0  0
  9 10  1  0  0  0  0
 10 11  2  0  0  0  0
 10 12  1  0  0  0  0
 12 15  1  0  0  0  0
 12 13  1  0  0  0  0
 12 22  1  0  0  0  0
 13 14  1  0  0  0  0
 13 23  1  0  0  0  0
 13 24  1  0  0  0  0
 14 15  1  0  0  0  0
 14 25  1  0  0  0  0
 14 26  1  0  0  0  0
 15 27  1  0  0  0  0
 15 28  1  0  0  0  0
M  CHG  1   9  -1
M  END
> <s_m_source_file>
AV-unprocessed.smi

> <i_m_source_file_index>
1377

> <i_lp_mmshare_version>
43012

> <i_f3d_flags>
0

> <s_epik_input>
W05IMl1DKD1PKVtDSDJdYzFbY0hdc2MobjEpW05IXUMoPU8pW0NIXTJbQ0gyXVtDSDJdW0NIMl0y

> <s_epik_cmdline>
J2VwaWtfcHl0aG9uJywgJy1waCcsICc3LjAnLCAnLXRuJywgJzgnLCAnLW1hJywgJzIwMCcsICctbWV0YWxfYmluZGluZycsICctaW1hZScsICc8aW5maWxlLm1hZT4nLCAnLW9tYWUnLCAnPG91dGZpbGUubWFlPic=

> <r_lp_tautomer_probability>
1

> <r_epik_Ionization_Penalty>
5.13356

> <r_epik_Ionization_Penalty_Charging>
4.74096

> <r_epik_Ionization_Penalty_Neutral>
0.392596

> <r_epik_State_Penalty>
4.74076

> <r_epik_Charging_Adjusted_Penalty>
9.48173

> <i_epik_Tot_Q>
-1

> <i_epik_Tot_abs_Q>
1

> <r_epik_Metal_State_Penalty>
0.951691

> <b_epik_Metal_Only>
1

> <s_lp_Force_Field>
OPLS_2005

> <r_lp_Energy>
7.89776

> <b_lp_Chiralities_Consistent>
1

> <s_lp_Variant>
AV-unprocessed.smi:1377-2

> <Gold.Version>
5.8.1

> <Gold.Id.Protein>
6NUR|6NUR_protein|mol2

> <Gold.PLP.Fitness>
44.0086

> <Gold.PLP.PLP>
-32.0203

> <Gold.PLP.part.hbond>
-1.8881

> <Gold.PLP.part.metal>
0.0000

> <Gold.PLP.part.buried>
-4.8808

> <Gold.PLP.part.nonpolar>
-25.3117

> <Gold.PLP.part.repulsive>
0.3800

> <Gold.PLP.ligand.clash>
0.0098

> <Gold.PLP.ligand.torsion>
0.8437

> <Gold.PLP.Chemscore.Hbond>
3.0000

> <Gold.PLP.Chemscore.CHOScore>
1.4028

> <Gold.PLP.Chemscore.Metal>
0.0000

> <Gold.Chemscore.Hbonds>
donor molecule, donor type, donor heavy atom, donor atom, acceptor molecule, acceptor atom, score
      L1  H     1    17       P1  8028  0.83
      P1  H  7997  8008       L1     9  1.76
      L1  C     6    21       P1  7948  0.01
      L1  C     6    21       P1  7957  0.81

> <Gold.PLP.Chemscore.Internal.Correction>
0.4771

> <Gold.Rescore>
     Score         DG    S(hbond)    S(metal)    S(lipo)     H(rot)  DE(clash)    DE(int)     intcor
     12.64     -15.19       1.94        0.00      68.93       1.89       0.00       2.55       ----

> <Gold.Chemscore.Fitness>
12.6379

> <Gold.Chemscore.DG>
-15.1888

> <Gold.Chemscore.ZeroCoef>
-5.4800

> <Gold.Chemscore.Hbond>
1.9435

> <Gold.Chemscore.Metal>
0.0000

> <Gold.Chemscore.Lipo>
68.9323

> <Gold.Chemscore.Internal_Hbond>
0.0000

> <Gold.Chemscore.DEClash>
0.0038

> <Gold.Chemscore.DEInternal>
2.5471

> <Gold.Chemscore.Rot>
1.8935

> <Gold.Chemscore.Internal.Correction>
   9.000000E+99

> <Gold.Chemscore.Hbonds>
donor molecule, donor type, donor heavy atom, donor atom, acceptor molecule, acceptor atom, score
      L1  H     1    17       P1  8028  0.82
      P1  H  7997  8008       L1     9  0.68

> <Gold.Chemscore.Hbond.Weighted>
-6.4912

> <Gold.Chemscore.Metal.Weighted>
-0.0000

> <Gold.Chemscore.Lipo.Weighted>
-8.0651

> <Gold.Chemscore.Internal_Hbond.Weighted>
0.0000

> <Gold.Chemscore.DEClash.Weighted>
0.0038

> <Gold.Chemscore.DEInternal.Weighted>
2.5471

> <Gold.Chemscore.Rot.Weighted>
4.8475

> <Gold.Chemscore.Internal.Correction.Weighted>
   9.000000E+99

> <Gold.Protein.RotatedTorsions>
[ 6907 6896 6895 6894 ] final   66.53 input  -60.11 | X-H torsion
[ 7974 7965 7964 7962 ] final  155.40 input  175.53 | X-H torsion
[ 8008 7997 7996 7995 ] final  -62.27 input   59.86 | X-H torsion
[ 10167 10162 10161 10158 ] final  -75.24 input  -65.29 | X-H torsion
[ 10718 10713 10712 10709 ] final  146.82 input   66.30 | X-H torsion
[ 10763 10752 10751 10750 ] final  -20.59 input  -60.55 | X-H torsion
[ 11005 11000 10999 10996 ] final   42.71 input  -57.11 | X-H torsion

> <Gold.Protein.ActiveResidues>
 VAL166  LYS551  ARG553  GLY616  TRP617  ASP618  TYR619  PRO620  LYS621  CYS622 
 ASP623  PHE694  ASN695  SER759  ASP760  ASP761  ALA762  ILE779  LEU786  VAL792 
 PHE793  MET794  SER795  GLU796  ALA797  LYS798  CYS799  TRP800  GLU811  SER814 

> <Gold.Protein.RotatedAtoms>
  152.4488  134.5439  159.9846 H   0  0  0  0  0  0  0  0  0  0  0  0  # atno 6907 bound_to 6896
  151.5517  133.3410  159.2962 H   0  0  0  0  0  0  0  0  0  0  0  0  # atno 6908 bound_to 6896
  150.8411  134.7735  159.6996 H   0  0  0  0  0  0  0  0  0  0  0  0  # atno 6909 bound_to 6896
  144.8027  139.7063  143.6175 H   0  0  0  0  0  0  0  0  0  0  0  0  # atno 7974 bound_to 7965
  154.4491  140.0999  156.6561 H   0  0  0  0  0  0  0  0  0  0  0  0  # atno 8008 bound_to 7997
  155.5344  140.3482  155.4415 H   0  0  0  0  0  0  0  0  0  0  0  0  # atno 8009 bound_to 7997
  156.0641  140.1333  156.9895 H   0  0  0  0  0  0  0  0  0  0  0  0  # atno 8010 bound_to 7997
  140.4960  143.2370  151.7831 H   0  0  0  0  0  0  0  0  0  0  0  0  # atno 10167 bound_to 10162
  157.3286  131.0916  151.1182 H   0  0  0  0  0  0  0  0  0  0  0  0  # atno 10718 bound_to 10713
  153.6228  135.6992  153.5304 H   0  0  0  0  0  0  0  0  0  0  0  0  # atno 10763 bound_to 10752
  153.2924  135.4153  155.1178 H   0  0  0  0  0  0  0  0  0  0  0  0  # atno 10764 bound_to 10752
  154.8539  135.3628  154.5769 H   0  0  0  0  0  0  0  0  0  0  0  0  # atno 10765 bound_to 10752
  140.1713  134.4218  155.8255 H   0  0  0  0  0  0  0  0  0  0  0  0  # atno 11005 bound_to 11000
  146.2312  139.5817  142.9554 LP  0  0  0  0  0  0  0  0  0  0  0  0  # atno 17320 bound_to 7965
  145.5513  141.0413  143.2277 LP  0  0  0  0  0  0  0  0  0  0  0  0  # atno 17321 bound_to 7965
  139.4861  144.4586  151.9568 LP  0  0  0  0  0  0  0  0  0  0  0  0  # atno 17342 bound_to 10162
  140.3674  144.2897  150.5924 LP  0  0  0  0  0  0  0  0  0  0  0  0  # atno 17343 bound_to 10162
  157.2439  130.6582  149.5901 LP  0  0  0  0  0  0  0  0  0  0  0  0  # atno 17370 bound_to 10713
  155.9693  130.4560  150.5907 LP  0  0  0  0  0  0  0  0  0  0  0  0  # atno 17371 bound_to 10713
  141.2217  133.6957  156.7769 LP  0  0  0  0  0  0  0  0  0  0  0  0  # atno 17394 bound_to 11000
  140.2373  134.8640  157.3538 LP  0  0  0  0  0  0  0  0  0  0  0  0  # atno 17395 bound_to 11000

$$$$
