AV-unprocessed.smi:2990|AV-procd|sdf|11394|dock2
  -GOLD-   2272016313D 1   1.00000     0.00000
 Structure written by MMmdl.
 39 41  0  0  0  0  0  0  0  0  1 V2000
  151.2972  139.1556  157.1419 C   0  0  0  0  0  0  0  0  0  0  0  0
  151.4996  140.5456  157.6561 C   0  0  0  0  0  0  0  0  0  0  0  0
  151.0872  141.6191  156.9811 N   0  0  0  0  0  0  0  0  0  0  0  0
  151.4738  142.6604  157.8028 C   0  0  0  0  0  0  0  0  0  0  0  0
  151.3225  144.0571  157.6491 C   0  0  0  0  0  0  0  0  0  0  0  0
  151.8059  144.9405  158.6367 C   0  0  0  0  0  0  0  0  0  0  0  0
  152.4469  144.4414  159.7891 C   0  0  0  0  0  0  0  0  0  0  0  0
  152.6079  143.0532  159.9620 C   0  0  0  0  0  0  0  0  0  0  0  0
  152.1230  142.1759  158.9737 C   0  0  0  0  0  0  0  0  0  0  0  0
  152.1169  140.7916  158.8381 N   0  0  0  0  0  0  0  0  0  0  0  0
  152.6703  139.8336  159.7851 C   0  0  0  0  0  0  0  0  0  0  0  0
  153.6222  138.8233  159.1129 C   0  0  1  0  0  0  0  0  0  0  0  0
  154.8379  139.4312  158.7236 O   0  0  0  0  0  0  0  0  0  0  0  0
  153.9235  137.5898  159.9802 C   0  0  0  0  0  0  0  0  0  0  0  0
  153.8729  137.9410  161.3576 O   0  0  0  0  0  0  0  0  0  0  0  0
  154.2814  137.0090  162.2870 C   0  0  0  0  0  0  0  0  0  0  0  0
  154.0796  137.3310  163.6453 C   0  0  0  0  0  0  0  0  0  0  0  0
  154.4633  136.4370  164.6633 C   0  0  0  0  0  0  0  0  0  0  0  0
  155.0574  135.2058  164.3304 C   0  0  0  0  0  0  0  0  0  0  0  0
  155.2665  134.8721  162.9793 C   0  0  0  0  0  0  0  0  0  0  0  0
  154.8814  135.7661  161.9609 C   0  0  0  0  0  0  0  0  0  0  0  0
  150.7029  139.1684  156.2278 H   0  0  0  0  0  0  0  0  0  0  0  0
  150.7744  138.5479  157.8808 H   0  0  0  0  0  0  0  0  0  0  0  0
  152.2592  138.6934  156.9200 H   0  0  0  0  0  0  0  0  0  0  0  0
  150.8337  144.4493  156.7698 H   0  0  0  0  0  0  0  0  0  0  0  0
  151.6843  146.0061  158.5092 H   0  0  0  0  0  0  0  0  0  0  0  0
  152.8143  145.1251  160.5402 H   0  0  0  0  0  0  0  0  0  0  0  0
  153.0975  142.6667  160.8436 H   0  0  0  0  0  0  0  0  0  0  0  0
  153.1769  140.3690  160.5880 H   0  0  0  0  0  0  0  0  0  0  0  0
  151.8397  139.3038  160.2529 H   0  0  0  0  0  0  0  0  0  0  0  0
  153.1570  138.4700  158.1920 H   0  0  0  0  0  0  0  0  0  0  0  0
  155.1462  139.9700  159.4360 H   0  0  0  0  0  0  0  0  0  0  0  0
  153.1666  136.8300  159.7787 H   0  0  0  0  0  0  0  0  0  0  0  0
  154.8954  137.1680  159.7174 H   0  0  0  0  0  0  0  0  0  0  0  0
  153.6247  138.2745  163.9099 H   0  0  0  0  0  0  0  0  0  0  0  0
  154.3014  136.6966  165.6992 H   0  0  0  0  0  0  0  0  0  0  0  0
  155.3525  134.5190  165.1101 H   0  0  0  0  0  0  0  0  0  0  0  0
  155.7229  133.9275  162.7228 H   0  0  0  0  0  0  0  0  0  0  0  0
  155.0579  135.4746  160.9368 H   0  0  0  0  0  0  0  0  0  0  0  0
  1  2  1  0  0  0  0
  1 22  1  0  0  0  0
  1 23  1  0  0  0  0
  1 24  1  0  0  0  0
  2 10  1  0  0  0  0
  2  3  2  0  0  0  0
  3  4  1  0  0  0  0
  4  9  2  0  0  0  0
  4  5  1  0  0  0  0
  5  6  2  0  0  0  0
  5 25  1  0  0  0  0
  6  7  1  0  0  0  0
  6 26  1  0  0  0  0
  7  8  2  0  0  0  0
  7 27  1  0  0  0  0
  8  9  1  0  0  0  0
  8 28  1  0  0  0  0
  9 10  1  0  0  0  0
 10 11  1  0  0  0  0
 11 12  1  0  0  0  0
 11 29  1  0  0  0  0
 11 30  1  0  0  0  0
 12 13  1  0  0  0  0
 12 14  1  0  0  0  0
 12 31  1  0  0  0  0
 13 32  1  0  0  0  0
 14 15  1  0  0  0  0
 14 33  1  0  0  0  0
 14 34  1  0  0  0  0
 15 16  1  0  0  0  0
 16 21  1  0  0  0  0
 16 17  2  0  0  0  0
 17 18  1  0  0  0  0
 17 35  1  0  0  0  0
 18 19  2  0  0  0  0
 18 36  1  0  0  0  0
 19 20  1  0  0  0  0
 19 37  1  0  0  0  0
 20 21  2  0  0  0  0
 20 38  1  0  0  0  0
 21 39  1  0  0  0  0
M  END
> <s_m_source_file>
AV-unprocessed.smi

> <i_m_source_file_index>
2990

> <i_lp_mmshare_version>
43012

> <i_f3d_flags>
0

> <s_epik_input>
W2NIXTFbY0hdW2NIXVtjSF1jKGMxMiluKGMobjIpW0NIM10pW0NIMl1bQ0BIXShbT0hdKVtDSDJdT2MzW2NIXVtjSF1bY0hdW2NIXVtjSF0z

> <s_epik_cmdline>
J2VwaWtfcHl0aG9uJywgJy1waCcsICc3LjAnLCAnLXRuJywgJzgnLCAnLW1hJywgJzIwMCcsICctbWV0YWxfYmluZGluZycsICctaW1hZScsICc8aW5maWxlLm1hZT4nLCAnLW9tYWUnLCAnPG91dGZpbGUubWFlPic=

> <r_lp_tautomer_probability>
1

> <r_epik_Ionization_Penalty>
0.119634

> <r_epik_Ionization_Penalty_Charging>
0

> <r_epik_Ionization_Penalty_Neutral>
0.119634

> <r_epik_State_Penalty>
0.10919

> <r_epik_Charging_Adjusted_Penalty>
0.10919

> <i_epik_Tot_Q>
0

> <i_epik_Tot_abs_Q>
0

> <r_epik_Metal_State_Penalty>
0.000119887

> <b_epik_Metal_Only>
0

> <s_lp_Force_Field>
OPLS_2005

> <r_lp_Energy>
16.8637

> <b_lp_Chiralities_Consistent>
1

> <s_lp_Variant>
AV-unprocessed.smi:2990-2

> <Gold.Version>
5.8.1

> <Gold.Id.Protein>
6NUR|6NUR_protein|mol2

> <Gold.PLP.Fitness>
48.2370

> <Gold.PLP.PLP>
-46.4242

> <Gold.PLP.part.hbond>
-1.0000

> <Gold.PLP.part.metal>
0.0000

> <Gold.PLP.part.buried>
-4.4544

> <Gold.PLP.part.nonpolar>
-40.8295

> <Gold.PLP.part.repulsive>
0.0547

> <Gold.PLP.ligand.clash>
0.0000

> <Gold.PLP.ligand.torsion>
0.6451

> <Gold.PLP.Chemscore.Hbond>
1.0000

> <Gold.PLP.Chemscore.CHOScore>
0.0000

> <Gold.PLP.Chemscore.Metal>
0.0000

> <Gold.Chemscore.Hbonds>
donor molecule, donor type, donor heavy atom, donor atom, acceptor molecule, acceptor atom, score
      P1  H  7997  8010       L1    13  1.00

> <Gold.PLP.Chemscore.Internal.Correction>
0.1030

> <Gold.Rescore>
     Score         DG    S(hbond)    S(metal)    S(lipo)     H(rot)  DE(clash)    DE(int)     intcor
     19.21     -19.94       0.97        0.00     140.33       2.04       0.13       0.60       ----

> <Gold.Chemscore.Fitness>
19.2065

> <Gold.Chemscore.DG>
-19.9366

> <Gold.Chemscore.ZeroCoef>
-5.4800

> <Gold.Chemscore.Hbond>
0.9731

> <Gold.Chemscore.Metal>
0.0000

> <Gold.Chemscore.Lipo>
140.3315

> <Gold.Chemscore.Internal_Hbond>
0.0000

> <Gold.Chemscore.DEClash>
0.1348

> <Gold.Chemscore.DEInternal>
0.5953

> <Gold.Chemscore.Rot>
2.0361

> <Gold.Chemscore.Internal.Correction>
   9.000000E+99

> <Gold.Chemscore.Hbonds>
donor molecule, donor type, donor heavy atom, donor atom, acceptor molecule, acceptor atom, score
      P1  H  7997  8010       L1    13  0.77

> <Gold.Chemscore.Hbond.Weighted>
-3.2502

> <Gold.Chemscore.Metal.Weighted>
-0.0000

> <Gold.Chemscore.Lipo.Weighted>
-16.4188

> <Gold.Chemscore.Internal_Hbond.Weighted>
0.0000

> <Gold.Chemscore.DEClash.Weighted>
0.1348

> <Gold.Chemscore.DEInternal.Weighted>
0.5953

> <Gold.Chemscore.Rot.Weighted>
5.2124

> <Gold.Chemscore.Internal.Correction.Weighted>
   9.000000E+99

> <Gold.Protein.RotatedTorsions>
[ 6907 6896 6895 6894 ] final  -50.58 input  -60.11 | X-H torsion
[ 7974 7965 7964 7962 ] final  143.36 input  175.53 | X-H torsion
[ 8008 7997 7996 7995 ] final   -5.73 input   59.86 | X-H torsion
[ 10167 10162 10161 10158 ] final -136.83 input  -65.29 | X-H torsion
[ 10718 10713 10712 10709 ] final  -19.14 input   66.30 | X-H torsion
[ 10763 10752 10751 10750 ] final  -68.81 input  -60.55 | X-H torsion
[ 11005 11000 10999 10996 ] final -179.36 input  -57.11 | X-H torsion

> <Gold.Protein.ActiveResidues>
 VAL166  LYS551  ARG553  GLY616  TRP617  ASP618  TYR619  PRO620  LYS621  CYS622 
 ASP623  PHE694  ASN695  SER759  ASP760  ASP761  ALA762  ILE779  LEU786  VAL792 
 PHE793  MET794  SER795  GLU796  ALA797  LYS798  CYS799  TRP800  GLU811  SER814 

> <Gold.Protein.RotatedAtoms>
  150.8694  134.8064  159.7142 H   0  0  0  0  0  0  0  0  0  0  0  0  # atno 6907 bound_to 6896
  152.4704  134.4971  159.9723 H   0  0  0  0  0  0  0  0  0  0  0  0  # atno 6908 bound_to 6896
  151.5062  133.3455  159.2913 H   0  0  0  0  0  0  0  0  0  0  0  0  # atno 6909 bound_to 6896
  144.8927  139.5535  143.5791 H   0  0  0  0  0  0  0  0  0  0  0  0  # atno 7974 bound_to 7965
  154.6009  140.2451  155.7794 H   0  0  0  0  0  0  0  0  0  0  0  0  # atno 8008 bound_to 7997
  156.2310  140.2966  156.0141 H   0  0  0  0  0  0  0  0  0  0  0  0  # atno 8009 bound_to 7997
  155.2213  140.0400  157.2939 H   0  0  0  0  0  0  0  0  0  0  0  0  # atno 8010 bound_to 7997
  139.8638  143.7043  152.2647 H   0  0  0  0  0  0  0  0  0  0  0  0  # atno 10167 bound_to 10162
  156.5498  130.4699  149.6458 H   0  0  0  0  0  0  0  0  0  0  0  0  # atno 10718 bound_to 10713
  154.3944  135.6045  153.5861 H   0  0  0  0  0  0  0  0  0  0  0  0  # atno 10763 bound_to 10752
  152.9787  135.5891  154.4259 H   0  0  0  0  0  0  0  0  0  0  0  0  # atno 10764 bound_to 10752
  154.4048  135.2843  155.2052 H   0  0  0  0  0  0  0  0  0  0  0  0  # atno 10765 bound_to 10752
  140.4195  134.6618  157.4657 H   0  0  0  0  0  0  0  0  0  0  0  0  # atno 11005 bound_to 11000
  146.3063  139.7592  142.9053 LP  0  0  0  0  0  0  0  0  0  0  0  0  # atno 17320 bound_to 7965
  145.3754  141.0349  143.3207 LP  0  0  0  0  0  0  0  0  0  0  0  0  # atno 17321 bound_to 7965
  139.7348  144.7574  151.0744 LP  0  0  0  0  0  0  0  0  0  0  0  0  # atno 17342 bound_to 10162
  140.7771  143.5043  150.9731 LP  0  0  0  0  0  0  0  0  0  0  0  0  # atno 17343 bound_to 10162
  156.2895  130.7116  151.1961 LP  0  0  0  0  0  0  0  0  0  0  0  0  # atno 17370 bound_to 10713
  157.7390  131.0535  150.5261 LP  0  0  0  0  0  0  0  0  0  0  0  0  # atno 17371 bound_to 10713
  140.0210  134.6547  155.9240 LP  0  0  0  0  0  0  0  0  0  0  0  0  # atno 17394 bound_to 11000
  141.1789  133.6543  156.4941 LP  0  0  0  0  0  0  0  0  0  0  0  0  # atno 17395 bound_to 11000

$$$$
