AV-unprocessed.smi:2578|AV-procd|sdf|10122|dock9
  -GOLD-   2272014143D 1   1.00000     0.00000
 Structure written by MMmdl.
 41 42  0  0  0  0  0  0  0  0  1 V2000
  144.2274  134.8175  152.9899 C   0  0  0  0  0  0  0  0  0  0  0  0
  144.7467  133.9463  151.8580 C   0  0  0  0  0  0  0  0  0  0  0  0
  143.8730  133.2957  151.0577 C   0  0  0  0  0  0  0  0  0  0  0  0
  144.2996  132.4410  149.9489 C   0  0  0  0  0  0  0  0  0  0  0  0
  143.4959  131.8512  149.2263 O   0  0  0  0  0  0  0  0  0  0  0  0
  145.6451  132.3415  149.7692 N   0  0  0  0  0  0  0  0  0  0  0  0
  146.1753  131.5099  148.6850 C   0  0  0  0  0  0  0  0  0  0  0  0
  146.5644  133.0090  150.5960 C   0  0  0  0  0  0  0  0  0  0  0  0
  146.1780  133.8003  151.6219 C   0  0  0  0  0  0  0  0  0  0  0  0
  147.0580  134.4890  152.4759 N   0  0  0  0  0  0  0  0  0  0  0  0
  147.1139  134.5167  153.8213 C   0  0  0  0  0  0  0  0  0  0  0  0
  146.3648  133.9171  154.5916 O   0  0  0  0  0  0  0  0  0  0  0  0
  148.1212  135.2964  154.2402 N   0  0  0  0  0  0  0  0  0  0  0  0
  148.4748  135.5279  155.6360 C   0  0  0  0  0  0  0  0  0  0  0  0
  149.9190  136.0393  155.7723 C   0  0  0  0  0  0  0  0  0  0  0  0
  150.0179  137.5483  155.6686 C   0  0  0  0  0  0  0  0  0  0  0  0
  149.4855  138.4380  156.5052 C   0  0  0  0  0  0  0  0  0  0  0  0
  149.7554  139.8584  156.0905 C   0  0  0  0  0  0  0  0  0  0  0  0
  150.5715  139.7186  154.7858 C   0  0  0  0  0  0  0  0  0  0  0  0
  150.7444  138.2057  154.5232 C   0  0  0  0  0  0  0  0  0  0  0  0
  143.1377  134.8257  153.0276 H   0  0  0  0  0  0  0  0  0  0  0  0
  144.5657  135.8461  152.8620 H   0  0  0  0  0  0  0  0  0  0  0  0
  144.5931  134.4501  153.9489 H   0  0  0  0  0  0  0  0  0  0  0  0
  142.8125  133.4032  151.2338 H   0  0  0  0  0  0  0  0  0  0  0  0
  147.2624  131.5508  148.6109 H   0  0  0  0  0  0  0  0  0  0  0  0
  145.7749  131.8308  147.7222 H   0  0  0  0  0  0  0  0  0  0  0  0
  145.8982  130.4659  148.8371 H   0  0  0  0  0  0  0  0  0  0  0  0
  147.5899  132.8201  150.3256 H   0  0  0  0  0  0  0  0  0  0  0  0
  147.7554  135.0389  151.9963 H   0  0  0  0  0  0  0  0  0  0  0  0
  148.6895  135.7568  153.5445 H   0  0  0  0  0  0  0  0  0  0  0  0
  147.7809  136.2638  156.0434 H   0  0  0  0  0  0  0  0  0  0  0  0
  148.3294  134.6121  156.2107 H   0  0  0  0  0  0  0  0  0  0  0  0
  150.3433  135.7344  156.7295 H   0  0  0  0  0  0  0  0  0  0  0  0
  150.5421  135.5911  154.9972 H   0  0  0  0  0  0  0  0  0  0  0  0
  148.9133  138.1981  157.3894 H   0  0  0  0  0  0  0  0  0  0  0  0
  148.8167  140.3881  155.9254 H   0  0  0  0  0  0  0  0  0  0  0  0
  150.3180  140.3771  156.8672 H   0  0  0  0  0  0  0  0  0  0  0  0
  150.0512  140.1955  153.9543 H   0  0  0  0  0  0  0  0  0  0  0  0
  151.5417  140.2073  154.8829 H   0  0  0  0  0  0  0  0  0  0  0  0
  151.7965  137.9202  154.5194 H   0  0  0  0  0  0  0  0  0  0  0  0
  150.2997  137.9083  153.5728 H   0  0  0  0  0  0  0  0  0  0  0  0
  1  2  1  0  0  0  0
  1 21  1  0  0  0  0
  1 22  1  0  0  0  0
  1 23  1  0  0  0  0
  2  9  1  0  0  0  0
  2  3  2  0  0  0  0
  3  4  1  0  0  0  0
  3 24  1  0  0  0  0
  4  5  2  0  0  0  0
  4  6  1  0  0  0  0
  6  7  1  0  0  0  0
  6  8  1  0  0  0  0
  7 25  1  0  0  0  0
  7 26  1  0  0  0  0
  7 27  1  0  0  0  0
  8  9  2  0  0  0  0
  8 28  1  0  0  0  0
  9 10  1  0  0  0  0
 10 11  1  0  0  0  0
 10 29  1  0  0  0  0
 11 12  2  0  0  0  0
 11 13  1  0  0  0  0
 13 14  1  0  0  0  0
 13 30  1  0  0  0  0
 14 15  1  0  0  0  0
 14 31  1  0  0  0  0
 14 32  1  0  0  0  0
 15 16  1  0  0  0  0
 15 33  1  0  0  0  0
 15 34  1  0  0  0  0
 16 20  1  0  0  0  0
 16 17  2  0  0  0  0
 17 18  1  0  0  0  0
 17 35  1  0  0  0  0
 18 19  1  0  0  0  0
 18 36  1  0  0  0  0
 18 37  1  0  0  0  0
 19 20  1  0  0  0  0
 19 38  1  0  0  0  0
 19 39  1  0  0  0  0
 20 40  1  0  0  0  0
 20 41  1  0  0  0  0
M  END
> <s_m_source_file>
AV-unprocessed.smi

> <i_m_source_file_index>
2578

> <i_lp_mmshare_version>
43012

> <i_f3d_flags>
0

> <s_epik_input>
W0NIM11jMVtjSF1jKD1PKW4oW0NIM10pW2NIXWMxW05IXUMoPU8pW05IXVtDSDJdW0NIMl1DMj1bQ0hdW0NIMl1bQ0gyXVtDSDJdMg==

> <s_epik_cmdline>
J2VwaWtfcHl0aG9uJywgJy1waCcsICc3LjAnLCAnLXRuJywgJzgnLCAnLW1hJywgJzIwMCcsICctbWV0YWxfYmluZGluZycsICctaW1hZScsICc8aW5maWxlLm1hZT4nLCAnLW9tYWUnLCAnPG91dGZpbGUubWFlPic=

> <r_lp_tautomer_probability>
1

> <r_epik_Ionization_Penalty>
2.83926e-05

> <r_epik_Ionization_Penalty_Charging>
8.15285e-06

> <r_epik_Ionization_Penalty_Neutral>
2.02397e-05

> <r_epik_State_Penalty>
-0

> <r_epik_Charging_Adjusted_Penalty>
8.15285e-06

> <i_epik_Tot_Q>
0

> <i_epik_Tot_abs_Q>
0

> <r_epik_Metal_State_Penalty>
-0

> <b_epik_Metal_Only>
0

> <s_lp_Force_Field>
OPLS_2005

> <r_lp_Energy>
31.0137

> <b_lp_Chiralities_Consistent>
1

> <s_lp_Variant>
AV-unprocessed.smi:2578-1

> <Gold.Version>
5.8.1

> <Gold.Id.Protein>
6NUR|6NUR_protein|mol2

> <Gold.PLP.Fitness>
41.3166

> <Gold.PLP.PLP>
-30.9957

> <Gold.PLP.part.hbond>
-3.0000

> <Gold.PLP.part.metal>
0.0000

> <Gold.PLP.part.buried>
-2.0372

> <Gold.PLP.part.nonpolar>
-25.8972

> <Gold.PLP.part.repulsive>
0.5840

> <Gold.PLP.ligand.clash>
0.0000

> <Gold.PLP.ligand.torsion>
0.7857

> <Gold.PLP.Chemscore.Hbond>
2.9600

> <Gold.PLP.Chemscore.CHOScore>
1.0000

> <Gold.PLP.Chemscore.Metal>
0.0000

> <Gold.Chemscore.Hbonds>
donor molecule, donor type, donor heavy atom, donor atom, acceptor molecule, acceptor atom, score
      L1  H    10    29       P1  7948  1.00
      L1  H    13    30       P1  7948  1.00
      P1  H 10785 10796       L1     5  0.96
      L1  C     8    28       P1 10747  1.00

> <Gold.PLP.Chemscore.Internal.Correction>
0.0124

> <Gold.Rescore>
     Score         DG    S(hbond)    S(metal)    S(lipo)     H(rot)  DE(clash)    DE(int)     intcor
     16.39     -19.75       2.87        0.00      69.40       1.35       0.37       2.99       ----

> <Gold.Chemscore.Fitness>
16.3857

> <Gold.Chemscore.DG>
-19.7454

> <Gold.Chemscore.ZeroCoef>
-5.4800

> <Gold.Chemscore.Hbond>
2.8743

> <Gold.Chemscore.Metal>
0.0000

> <Gold.Chemscore.Lipo>
69.3976

> <Gold.Chemscore.Internal_Hbond>
0.0000

> <Gold.Chemscore.DEClash>
0.3710

> <Gold.Chemscore.DEInternal>
2.9887

> <Gold.Chemscore.Rot>
1.3493

> <Gold.Chemscore.Internal.Correction>
   9.000000E+99

> <Gold.Chemscore.Hbonds>
donor molecule, donor type, donor heavy atom, donor atom, acceptor molecule, acceptor atom, score
      L1  H    10    29       P1  7948  0.77
      L1  H    13    30       P1  7948  0.93
      P1  H 10785 10796       L1     5  0.92

> <Gold.Chemscore.Hbond.Weighted>
-9.6000

> <Gold.Chemscore.Metal.Weighted>
-0.0000

> <Gold.Chemscore.Lipo.Weighted>
-8.1195

> <Gold.Chemscore.Internal_Hbond.Weighted>
0.0000

> <Gold.Chemscore.DEClash.Weighted>
0.3710

> <Gold.Chemscore.DEInternal.Weighted>
2.9887

> <Gold.Chemscore.Rot.Weighted>
3.4541

> <Gold.Chemscore.Internal.Correction.Weighted>
   9.000000E+99

> <Gold.Protein.RotatedTorsions>
[ 6907 6896 6895 6894 ] final   56.03 input  -60.11 | X-H torsion
[ 7974 7965 7964 7962 ] final   -0.40 input  175.53 | X-H torsion
[ 8008 7997 7996 7995 ] final   80.08 input   59.86 | X-H torsion
[ 10167 10162 10161 10158 ] final  174.52 input  -65.29 | X-H torsion
[ 10718 10713 10712 10709 ] final  124.04 input   66.30 | X-H torsion
[ 10763 10752 10751 10750 ] final -126.00 input  -60.55 | X-H torsion
[ 11005 11000 10999 10996 ] final  162.00 input  -57.11 | X-H torsion

> <Gold.Protein.ActiveResidues>
 VAL166  LYS551  ARG553  GLY616  TRP617  ASP618  TYR619  PRO620  LYS621  CYS622 
 ASP623  PHE694  ASN695  SER759  ASP760  ASP761  ALA762  ILE779  LEU786  VAL792 
 PHE793  MET794  SER795  GLU796  ALA797  LYS798  CYS799  TRP800  GLU811  SER814 

> <Gold.Protein.RotatedAtoms>
  152.3596  134.6891  160.0211 H   0  0  0  0  0  0  0  0  0  0  0  0  # atno 6907 bound_to 6896
  151.7218  133.3309  159.3325 H   0  0  0  0  0  0  0  0  0  0  0  0  # atno 6908 bound_to 6896
  150.7595  134.6375  159.6264 H   0  0  0  0  0  0  0  0  0  0  0  0  # atno 6909 bound_to 6896
  146.2427  140.1264  142.8339 H   0  0  0  0  0  0  0  0  0  0  0  0  # atno 7974 bound_to 7965
  155.8786  140.3445  155.5871 H   0  0  0  0  0  0  0  0  0  0  0  0  # atno 8008 bound_to 7997
  155.7746  140.0850  157.2110 H   0  0  0  0  0  0  0  0  0  0  0  0  # atno 8009 bound_to 7997
  154.4022  140.1512  156.2969 H   0  0  0  0  0  0  0  0  0  0  0  0  # atno 8010 bound_to 7997
  139.5144  144.3137  152.0267 H   0  0  0  0  0  0  0  0  0  0  0  0  # atno 10167 bound_to 10162
  157.5617  131.1089  150.8526 H   0  0  0  0  0  0  0  0  0  0  0  0  # atno 10718 bound_to 10713
  154.8741  135.4010  154.3360 H   0  0  0  0  0  0  0  0  0  0  0  0  # atno 10763 bound_to 10752
  153.4166  135.7022  153.6328 H   0  0  0  0  0  0  0  0  0  0  0  0  # atno 10764 bound_to 10752
  153.5008  135.3728  155.2509 H   0  0  0  0  0  0  0  0  0  0  0  0  # atno 10765 bound_to 10752
  140.2214  134.8193  157.3224 H   0  0  0  0  0  0  0  0  0  0  0  0  # atno 11005 bound_to 11000
  145.0363  140.8910  143.5079 LP  0  0  0  0  0  0  0  0  0  0  0  0  # atno 17320 bound_to 7965
  145.1337  139.2616  143.5526 LP  0  0  0  0  0  0  0  0  0  0  0  0  # atno 17321 bound_to 7965
  140.2581  144.4097  150.6196 LP  0  0  0  0  0  0  0  0  0  0  0  0  # atno 17342 bound_to 10162
  140.6177  143.2173  151.6758 LP  0  0  0  0  0  0  0  0  0  0  0  0  # atno 17343 bound_to 10162
  156.9022  130.5251  149.5282 LP  0  0  0  0  0  0  0  0  0  0  0  0  # atno 17370 bound_to 10713
  156.0669  130.5710  150.9306 LP  0  0  0  0  0  0  0  0  0  0  0  0  # atno 17371 bound_to 10713
  140.1846  134.4447  155.7752 LP  0  0  0  0  0  0  0  0  0  0  0  0  # atno 17394 bound_to 11000
  141.2223  133.6999  156.7925 LP  0  0  0  0  0  0  0  0  0  0  0  0  # atno 17395 bound_to 11000

$$$$
