AV-unprocessed.smi:1280|AV-procd|sdf|5358|dock9
  -GOLD-   22720 4493D 1   1.00000     0.00000
 Structure written by MMmdl.
 44 45  0  0  0  0  0  0  0  0  2 V2000
  156.4685  135.1102  158.6544 C   0  0  0  0  0  0  0  0  0  0  0  0
  154.6598  135.2461  158.3640 S   0  0  0  0  0  0  0  0  0  0  0  0
  154.4978  136.2601  157.3095 O   0  0  0  0  0  0  0  0  0  0  0  0
  154.2000  133.8811  158.0609 O   0  0  0  0  0  0  0  0  0  0  0  0
  154.1628  135.7671  159.8158 N   0  5  0  0  0  0  0  0  0  0  0  0
  154.9159  136.8111  160.4905 C   0  0  0  0  0  0  0  0  0  0  0  0
  154.0866  138.1091  160.5681 C   0  0  0  0  0  0  0  0  0  0  0  0
  154.9115  139.4103  160.6928 C   0  0  0  0  0  0  0  0  0  0  0  0
  154.1000  140.5788  160.3698 N   0  0  0  0  0  0  0  0  0  0  0  0
  153.3740  140.7338  159.2504 C   0  0  0  0  0  0  0  0  0  0  0  0
  153.3345  139.9045  158.3417 O   0  0  0  0  0  0  0  0  0  0  0  0
  152.6439  142.0441  159.1213 C   0  0  0  0  0  0  0  0  0  0  0  0
  153.0613  143.1299  159.9228 C   0  0  0  0  0  0  0  0  0  0  0  0
  152.3869  144.3604  159.8323 C   0  0  0  0  0  0  0  0  0  0  0  0
  151.3149  144.4655  158.9300 C   0  0  0  0  0  0  0  0  0  0  0  0
  150.9152  143.4490  158.1397 N   0  0  0  0  0  0  0  0  0  0  0  0
  151.5626  142.2588  158.2142 C   0  0  0  0  0  0  0  0  0  0  0  0
  151.1516  141.2619  157.3064 N   0  0  0  0  0  0  0  0  0  0  0  0
  150.5790  140.0442  157.8716 C   0  0  0  0  0  0  0  0  0  0  0  0
  150.3773  138.9987  156.7622 C   0  0  0  0  0  0  0  0  0  0  0  0
  149.5574  139.5501  155.7357 O   0  0  0  0  0  0  0  0  0  0  0  0
  150.1522  140.6955  155.1323 C   0  0  0  0  0  0  0  0  0  0  0  0
  150.3740  141.7896  156.1912 C   0  0  0  0  0  0  0  0  0  0  0  0
  156.9541  134.7619  157.7435 H   0  0  0  0  0  0  0  0  0  0  0  0
  156.6548  134.4002  159.4597 H   0  0  0  0  0  0  0  0  0  0  0  0
  156.8677  136.0864  158.9283 H   0  0  0  0  0  0  0  0  0  0  0  0
  155.1818  136.5112  161.5044 H   0  0  0  0  0  0  0  0  0  0  0  0
  155.8604  137.0239  159.9885 H   0  0  0  0  0  0  0  0  0  0  0  0
  153.4220  138.1702  159.7050 H   0  0  0  0  0  0  0  0  0  0  0  0
  153.4365  138.0359  161.4398 H   0  0  0  0  0  0  0  0  0  0  0  0
  155.2745  139.5423  161.7137 H   0  0  0  0  0  0  0  0  0  0  0  0
  155.7954  139.3899  160.0512 H   0  0  0  0  0  0  0  0  0  0  0  0
  154.0853  141.3251  161.0496 H   0  0  0  0  0  0  0  0  0  0  0  0
  153.8843  143.0216  160.6143 H   0  0  0  0  0  0  0  0  0  0  0  0
  152.6826  145.2010  160.4423 H   0  0  0  0  0  0  0  0  0  0  0  0
  150.7694  145.3924  158.8329 H   0  0  0  0  0  0  0  0  0  0  0  0
  151.2392  139.6494  158.6451 H   0  0  0  0  0  0  0  0  0  0  0  0
  149.6205  140.2672  158.3425 H   0  0  0  0  0  0  0  0  0  0  0  0
  151.3351  138.6799  156.3474 H   0  0  0  0  0  0  0  0  0  0  0  0
  149.8920  138.1105  157.1663 H   0  0  0  0  0  0  0  0  0  0  0  0
  151.0934  140.4181  154.6570 H   0  0  0  0  0  0  0  0  0  0  0  0
  149.4959  141.0637  154.3438 H   0  0  0  0  0  0  0  0  0  0  0  0
  149.4139  142.1488  156.5641 H   0  0  0  0  0  0  0  0  0  0  0  0
  150.8810  142.6430  155.7398 H   0  0  0  0  0  0  0  0  0  0  0  0
  1  2  1  0  0  0  0
  1 24  1  0  0  0  0
  1 25  1  0  0  0  0
  1 26  1  0  0  0  0
  2  3  2  0  0  0  0
  2  4  2  0  0  0  0
  2  5  1  0  0  0  0
  5  6  1  0  0  0  0
  6  7  1  0  0  0  0
  6 27  1  0  0  0  0
  6 28  1  0  0  0  0
  7  8  1  0  0  0  0
  7 29  1  0  0  0  0
  7 30  1  0  0  0  0
  8  9  1  0  0  0  0
  8 31  1  0  0  0  0
  8 32  1  0  0  0  0
  9 10  1  0  0  0  0
  9 33  1  0  0  0  0
 10 11  2  0  0  0  0
 10 12  1  0  0  0  0
 12 17  1  0  0  0  0
 12 13  2  0  0  0  0
 13 14  1  0  0  0  0
 13 34  1  0  0  0  0
 14 15  2  0  0  0  0
 14 35  1  0  0  0  0
 15 16  1  0  0  0  0
 15 36  1  0  0  0  0
 16 17  2  0  0  0  0
 17 18  1  0  0  0  0
 18 23  1  0  0  0  0
 18 19  1  0  0  0  0
 19 20  1  0  0  0  0
 19 37  1  0  0  0  0
 19 38  1  0  0  0  0
 20 21  1  0  0  0  0
 20 39  1  0  0  0  0
 20 40  1  0  0  0  0
 21 22  1  0  0  0  0
 22 23  1  0  0  0  0
 22 41  1  0  0  0  0
 22 42  1  0  0  0  0
 23 43  1  0  0  0  0
 23 44  1  0  0  0  0
M  CHG  1   5  -1
M  END
> <s_m_source_file>
AV-unprocessed.smi

> <i_m_source_file_index>
1280

> <i_lp_mmshare_version>
43012

> <i_f3d_flags>
0

> <s_epik_input>
W0NIM11TKD1PKSg9TylbTkhdW0NIMl1bQ0gyXVtDSDJdW05IXUMoPU8pYzFbY0hdW2NIXVtjSF1uYzFOMltDSDJdW0NIMl1PW0NIMl1bQ0gyXTI=

> <s_epik_cmdline>
J2VwaWtfcHl0aG9uJywgJy1waCcsICc3LjAnLCAnLXRuJywgJzgnLCAnLW1hJywgJzIwMCcsICctbWV0YWxfYmluZGluZycsICctaW1hZScsICc8aW5maWxlLm1hZT4nLCAnLW9tYWUnLCAnPG91dGZpbGUubWFlPic=

> <r_lp_tautomer_probability>
1

> <r_epik_Ionization_Penalty>
6.65739

> <r_epik_Ionization_Penalty_Charging>
6.65737

> <r_epik_Ionization_Penalty_Neutral>
1.70916e-05

> <r_epik_State_Penalty>
6.65736

> <r_epik_Charging_Adjusted_Penalty>
13.3147

> <i_epik_Tot_Q>
-1

> <i_epik_Tot_abs_Q>
1

> <r_epik_Metal_State_Penalty>
2.58004

> <b_epik_Metal_Only>
1

> <s_lp_Force_Field>
OPLS_2005

> <r_lp_Energy>
24.7135

> <b_lp_Chiralities_Consistent>
1

> <s_lp_Variant>
AV-unprocessed.smi:1280-2

> <Gold.Version>
5.8.1

> <Gold.Id.Protein>
6NUR|6NUR_protein|mol2

> <Gold.PLP.Fitness>
44.9449

> <Gold.PLP.PLP>
-34.2469

> <Gold.PLP.part.hbond>
-3.5857

> <Gold.PLP.part.metal>
0.0000

> <Gold.PLP.part.buried>
-4.3616

> <Gold.PLP.part.nonpolar>
-26.1452

> <Gold.PLP.part.repulsive>
0.2284

> <Gold.PLP.ligand.clash>
0.0000

> <Gold.PLP.ligand.torsion>
1.2617

> <Gold.PLP.Chemscore.Hbond>
4.0000

> <Gold.PLP.Chemscore.CHOScore>
0.0000

> <Gold.PLP.Chemscore.Metal>
0.0000

> <Gold.Chemscore.Hbonds>
donor molecule, donor type, donor heavy atom, donor atom, acceptor molecule, acceptor atom, score
      P1  H  6896  6907       L1     5  1.76
      P1  H  7997  8010       L1    11  1.00
      P1  H 10752 10763       L1     3  0.63

> <Gold.PLP.Chemscore.Internal.Correction>
1.2215

> <Gold.Rescore>
     Score         DG    S(hbond)    S(metal)    S(lipo)     H(rot)  DE(clash)    DE(int)     intcor
     14.10     -19.14       2.88        0.00      81.62       2.16       0.01       5.03       ----

> <Gold.Chemscore.Fitness>
14.1004

> <Gold.Chemscore.DG>
-19.1416

> <Gold.Chemscore.ZeroCoef>
-5.4800

> <Gold.Chemscore.Hbond>
2.8832

> <Gold.Chemscore.Metal>
0.0000

> <Gold.Chemscore.Lipo>
81.6180

> <Gold.Chemscore.Internal_Hbond>
0.0000

> <Gold.Chemscore.DEClash>
0.0089

> <Gold.Chemscore.DEInternal>
5.0323

> <Gold.Chemscore.Rot>
2.1554

> <Gold.Chemscore.Internal.Correction>
   9.000000E+99

> <Gold.Chemscore.Hbonds>
donor molecule, donor type, donor heavy atom, donor atom, acceptor molecule, acceptor atom, score
      P1  H  6896  6907       L1     5  0.16
      P1  H  7997  8010       L1    11  0.92
      P1  H 10752 10763       L1     3  0.49

> <Gold.Chemscore.Hbond.Weighted>
-9.6300

> <Gold.Chemscore.Metal.Weighted>
-0.0000

> <Gold.Chemscore.Lipo.Weighted>
-9.5493

> <Gold.Chemscore.Internal_Hbond.Weighted>
0.0000

> <Gold.Chemscore.DEClash.Weighted>
0.0089

> <Gold.Chemscore.DEInternal.Weighted>
5.0323

> <Gold.Chemscore.Rot.Weighted>
5.5178

> <Gold.Chemscore.Internal.Correction.Weighted>
   9.000000E+99

> <Gold.Protein.RotatedTorsions>
[ 6907 6896 6895 6894 ] final   66.58 input  -60.11 | X-H torsion
[ 7974 7965 7964 7962 ] final  -73.81 input  175.53 | X-H torsion
[ 8008 7997 7996 7995 ] final   43.00 input   59.86 | X-H torsion
[ 10167 10162 10161 10158 ] final  -97.75 input  -65.29 | X-H torsion
[ 10718 10713 10712 10709 ] final  -36.20 input   66.30 | X-H torsion
[ 10763 10752 10751 10750 ] final  153.82 input  -60.55 | X-H torsion
[ 11005 11000 10999 10996 ] final -112.55 input  -57.11 | X-H torsion

> <Gold.Protein.ActiveResidues>
 VAL166  LYS551  ARG553  GLY616  TRP617  ASP618  TYR619  PRO620  LYS621  CYS622 
 ASP623  PHE694  ASN695  SER759  ASP760  ASP761  ALA762  ILE779  LEU786  VAL792 
 PHE793  MET794  SER795  GLU796  ALA797  LYS798  CYS799  TRP800  GLU811  SER814 

> <Gold.Protein.RotatedAtoms>
  152.4491  134.5432  159.9844 H   0  0  0  0  0  0  0  0  0  0  0  0  # atno 6907 bound_to 6896
  151.5509  133.3412  159.2961 H   0  0  0  0  0  0  0  0  0  0  0  0  # atno 6908 bound_to 6896
  150.8415  134.7740  159.6999 H   0  0  0  0  0  0  0  0  0  0  0  0  # atno 6909 bound_to 6896
  145.6472  140.9293  143.1004 H   0  0  0  0  0  0  0  0  0  0  0  0  # atno 7974 bound_to 7965
  155.2955  140.3381  155.4250 H   0  0  0  0  0  0  0  0  0  0  0  0  # atno 8008 bound_to 7997
  156.2026  140.1738  156.7907 H   0  0  0  0  0  0  0  0  0  0  0  0  # atno 8009 bound_to 7997
  154.5578  140.0693  156.8756 H   0  0  0  0  0  0  0  0  0  0  0  0  # atno 8010 bound_to 7997
  140.2801  143.3287  152.0450 H   0  0  0  0  0  0  0  0  0  0  0  0  # atno 10167 bound_to 10162
  156.3296  130.4277  149.7885 H   0  0  0  0  0  0  0  0  0  0  0  0  # atno 10718 bound_to 10713
  154.1424  135.2820  155.3157 H   0  0  0  0  0  0  0  0  0  0  0  0  # atno 10763 bound_to 10752
  154.6277  135.5446  153.7649 H   0  0  0  0  0  0  0  0  0  0  0  0  # atno 10764 bound_to 10752
  153.0246  135.6455  154.1570 H   0  0  0  0  0  0  0  0  0  0  0  0  # atno 10765 bound_to 10752
  141.0668  133.9446  157.2563 H   0  0  0  0  0  0  0  0  0  0  0  0  # atno 11005 bound_to 11000
  144.7135  139.8280  143.7406 LP  0  0  0  0  0  0  0  0  0  0  0  0  # atno 17320 bound_to 7965
  146.1233  139.4254  143.0215 LP  0  0  0  0  0  0  0  0  0  0  0  0  # atno 17321 bound_to 7965
  139.4965  144.6597  151.6492 LP  0  0  0  0  0  0  0  0  0  0  0  0  # atno 17342 bound_to 10162
  140.5819  143.9932  150.6273 LP  0  0  0  0  0  0  0  0  0  0  0  0  # atno 17343 bound_to 10162
  156.5162  130.8194  151.3187 LP  0  0  0  0  0  0  0  0  0  0  0  0  # atno 17370 bound_to 10713
  157.7428  130.9898  150.2542 LP  0  0  0  0  0  0  0  0  0  0  0  0  # atno 17371 bound_to 10713
  139.9484  135.0180  156.8921 LP  0  0  0  0  0  0  0  0  0  0  0  0  # atno 17394 bound_to 11000
  140.5757  134.0401  155.7446 LP  0  0  0  0  0  0  0  0  0  0  0  0  # atno 17395 bound_to 11000

$$$$
