AV-unprocessed.smi:2425|AV-procd|sdf|9575|dock5
  -GOLD-   2272013203D 1   1.00000     0.00000
 Structure written by MMmdl.
 35 36  0  0  0  0  0  0  0  0  3 V2000
  145.2559  132.0922  149.8165 C   0  0  0  0  0  0  0  0  0  0  0  0
  146.2535  132.4777  150.9188 C   0  0  0  0  0  0  0  0  0  0  0  0
  145.9857  133.8537  151.5473 C   0  0  0  0  0  0  0  0  0  0  0  0
  147.1307  134.2826  152.3653 N   0  0  0  0  0  0  0  0  0  0  0  0
  147.6029  133.6865  153.4720 C   0  0  0  0  0  0  0  0  0  0  0  0
  147.1085  132.6736  153.9666 O   0  0  0  0  0  0  0  0  0  0  0  0
  148.6625  134.3524  153.9621 N   0  0  0  0  0  0  0  0  0  0  0  0
  149.4278  134.0715  155.1306 C   0  0  0  0  0  0  0  0  0  0  0  0
  149.4372  132.7889  155.7320 C   0  0  0  0  0  0  0  0  0  0  0  0
  150.2565  132.5660  156.8544 C   0  0  0  0  0  0  0  0  0  0  0  0
  151.0537  133.5119  157.3882 N   0  0  0  0  0  0  0  0  0  0  0  0
  151.0585  134.7294  156.8075 C   0  0  0  0  0  0  0  0  0  0  0  0
  150.2729  135.0731  155.6834 C   0  0  0  0  0  0  0  0  0  0  0  0
  150.3617  136.4398  155.1349 N   0  3  0  0  0  0  0  0  0  0  0  0
  149.3244  137.0626  154.9317 O   0  0  0  0  0  0  0  0  0  0  0  0
  151.4815  136.8965  154.9309 O   0  5  0  0  0  0  0  0  0  0  0  0
  145.5788  135.0122  150.6137 C   0  0  0  0  0  0  0  0  0  0  0  0
  144.5981  135.5064  151.6800 C   0  0  0  0  0  0  0  0  0  0  0  0
  144.6464  134.0993  152.2802 C   0  0  0  0  0  0  0  0  0  0  0  0
  145.4716  131.0947  149.4337 H   0  0  0  0  0  0  0  0  0  0  0  0
  145.3014  132.7833  148.9747 H   0  0  0  0  0  0  0  0  0  0  0  0
  144.2328  132.0880  150.1933 H   0  0  0  0  0  0  0  0  0  0  0  0
  146.2175  131.7118  151.6942 H   0  0  0  0  0  0  0  0  0  0  0  0
  147.2655  132.4292  150.5168 H   0  0  0  0  0  0  0  0  0  0  0  0
  147.6077  135.1146  152.0506 H   0  0  0  0  0  0  0  0  0  0  0  0
  148.8900  135.2186  153.4958 H   0  0  0  0  0  0  0  0  0  0  0  0
  148.8500  131.9700  155.3458 H   0  0  0  0  0  0  0  0  0  0  0  0
  150.2807  131.5962  157.3287 H   0  0  0  0  0  0  0  0  0  0  0  0
  151.7113  135.4584  157.2648 H   0  0  0  0  0  0  0  0  0  0  0  0
  146.3744  135.7157  150.3650 H   0  0  0  0  0  0  0  0  0  0  0  0
  145.0677  134.6654  149.7139 H   0  0  0  0  0  0  0  0  0  0  0  0
  145.0298  136.2630  152.3370 H   0  0  0  0  0  0  0  0  0  0  0  0
  143.6217  135.8070  151.2991 H   0  0  0  0  0  0  0  0  0  0  0  0
  143.8418  133.4653  151.9042 H   0  0  0  0  0  0  0  0  0  0  0  0
  144.6805  134.0763  153.3697 H   0  0  0  0  0  0  0  0  0  0  0  0
  1  2  1  0  0  0  0
  1 20  1  0  0  0  0
  1 21  1  0  0  0  0
  1 22  1  0  0  0  0
  2  3  1  0  0  0  0
  2 23  1  0  0  0  0
  2 24  1  0  0  0  0
  3 19  1  0  0  0  0
  3  4  1  0  0  0  0
  3 17  1  0  0  0  0
  4  5  1  0  0  0  0
  4 25  1  0  0  0  0
  5  6  2  0  0  0  0
  5  7  1  0  0  0  0
  7  8  1  0  0  0  0
  7 26  1  0  0  0  0
  8 13  1  0  0  0  0
  8  9  2  0  0  0  0
  9 10  1  0  0  0  0
  9 27  1  0  0  0  0
 10 11  2  0  0  0  0
 10 28  1  0  0  0  0
 11 12  1  0  0  0  0
 12 13  2  0  0  0  0
 12 29  1  0  0  0  0
 13 14  1  0  0  0  0
 14 15  2  0  0  0  0
 14 16  1  0  0  0  0
 17 18  1  0  0  0  0
 17 30  1  0  0  0  0
 17 31  1  0  0  0  0
 18 19  1  0  0  0  0
 18 32  1  0  0  0  0
 18 33  1  0  0  0  0
 19 34  1  0  0  0  0
 19 35  1  0  0  0  0
M  CHG  1  14   1
M  CHG  1  16  -1
M  END
> <s_m_source_file>
AV-unprocessed.smi

> <i_m_source_file_index>
2425

> <i_lp_mmshare_version>
43012

> <i_f3d_flags>
0

> <s_epik_input>
W0NIMl0xW0NIMl1bQ0gyXUMxKFtDSDJdW0NIM10pW05IXUMoPU8pW05IXWMyW2NIXVtjSF1uW2NIXWMyW04rXSg9TylbTy1d

> <s_epik_cmdline>
J2VwaWtfcHl0aG9uJywgJy1waCcsICc3LjAnLCAnLXRuJywgJzgnLCAnLW1hJywgJzIwMCcsICctbWV0YWxfYmluZGluZycsICctaW1hZScsICc8aW5maWxlLm1hZT4nLCAnLW9tYWUnLCAnPG91dGZpbGUubWFlPic=

> <r_lp_tautomer_probability>
1

> <r_epik_Ionization_Penalty>
0.00016416

> <r_epik_Ionization_Penalty_Charging>
0

> <r_epik_Ionization_Penalty_Neutral>
0.00016416

> <r_epik_State_Penalty>
-0

> <r_epik_Charging_Adjusted_Penalty>
0

> <i_epik_Tot_Q>
0

> <i_epik_Tot_abs_Q>
2

> <r_epik_Metal_State_Penalty>
-0

> <b_epik_Metal_Only>
0

> <s_lp_Force_Field>
OPLS_2005

> <r_lp_Energy>
29.2252

> <b_lp_Chiralities_Consistent>
1

> <s_lp_Variant>
AV-unprocessed.smi:2425-1

> <Gold.Version>
5.8.1

> <Gold.Id.Protein>
6NUR|6NUR_protein|mol2

> <Gold.PLP.Fitness>
39.5554

> <Gold.PLP.PLP>
-31.3387

> <Gold.PLP.part.hbond>
-4.0000

> <Gold.PLP.part.metal>
0.0000

> <Gold.PLP.part.buried>
-4.9376

> <Gold.PLP.part.nonpolar>
-23.2783

> <Gold.PLP.part.repulsive>
0.3799

> <Gold.PLP.ligand.clash>
0.0000

> <Gold.PLP.ligand.torsion>
1.2267

> <Gold.PLP.Chemscore.Hbond>
3.4281

> <Gold.PLP.Chemscore.CHOScore>
0.0000

> <Gold.PLP.Chemscore.Metal>
0.0000

> <Gold.Chemscore.Hbonds>
donor molecule, donor type, donor heavy atom, donor atom, acceptor molecule, acceptor atom, score
      L1  H     4    25       P1  7948  1.00
      L1  H     7    26       P1  7948  0.96
      P1  H  6896  6907       L1    11  0.67
      P1  H 10752 10765       L1    16  1.00

> <Gold.PLP.Chemscore.Internal.Correction>
0.3857

> <Gold.Rescore>
     Score         DG    S(hbond)    S(metal)    S(lipo)     H(rot)  DE(clash)    DE(int)     intcor
     15.35     -19.77       3.13        0.00      59.63       1.23       0.66       3.77       ----

> <Gold.Chemscore.Fitness>
15.3511

> <Gold.Chemscore.DG>
-19.7738

> <Gold.Chemscore.ZeroCoef>
-5.4800

> <Gold.Chemscore.Hbond>
3.1320

> <Gold.Chemscore.Metal>
0.0000

> <Gold.Chemscore.Lipo>
59.6324

> <Gold.Chemscore.Internal_Hbond>
0.0000

> <Gold.Chemscore.DEClash>
0.6561

> <Gold.Chemscore.DEInternal>
3.7666

> <Gold.Chemscore.Rot>
1.2282

> <Gold.Chemscore.Internal.Correction>
   9.000000E+99

> <Gold.Chemscore.Hbonds>
donor molecule, donor type, donor heavy atom, donor atom, acceptor molecule, acceptor atom, score
      L1  H     4    25       P1  7948  0.93
      L1  H     7    26       P1  7948  0.60
      P1  H  6896  6907       L1    11  0.59
      P1  H 10752 10765       L1    16  0.89

> <Gold.Chemscore.Hbond.Weighted>
-10.4609

> <Gold.Chemscore.Metal.Weighted>
-0.0000

> <Gold.Chemscore.Lipo.Weighted>
-6.9770

> <Gold.Chemscore.Internal_Hbond.Weighted>
0.0000

> <Gold.Chemscore.DEClash.Weighted>
0.6561

> <Gold.Chemscore.DEInternal.Weighted>
3.7666

> <Gold.Chemscore.Rot.Weighted>
3.1441

> <Gold.Chemscore.Internal.Correction.Weighted>
   9.000000E+99

> <Gold.Protein.RotatedTorsions>
[ 6907 6896 6895 6894 ] final -155.65 input  -60.11 | X-H torsion
[ 7974 7965 7964 7962 ] final  -84.35 input  175.53 | X-H torsion
[ 8008 7997 7996 7995 ] final  -33.58 input   59.86 | X-H torsion
[ 10167 10162 10161 10158 ] final  169.99 input  -65.29 | X-H torsion
[ 10718 10713 10712 10709 ] final -125.54 input   66.30 | X-H torsion
[ 10763 10752 10751 10750 ] final  159.86 input  -60.55 | X-H torsion
[ 11005 11000 10999 10996 ] final   -5.17 input  -57.11 | X-H torsion

> <Gold.Protein.ActiveResidues>
 VAL166  LYS551  ARG553  GLY616  TRP617  ASP618  TYR619  PRO620  LYS621  CYS622 
 ASP623  PHE694  ASN695  SER759  ASP760  ASP761  ALA762  ILE779  LEU786  VAL792 
 PHE793  MET794  SER795  GLU796  ALA797  LYS798  CYS799  TRP800  GLU811  SER814 

> <Gold.Protein.RotatedAtoms>
  151.2757  133.4234  159.2623 H   0  0  0  0  0  0  0  0  0  0  0  0  # atno 6907 bound_to 6896
  151.0406  134.9604  159.8169 H   0  0  0  0  0  0  0  0  0  0  0  0  # atno 6908 bound_to 6896
  152.5364  134.2715  159.9026 H   0  0  0  0  0  0  0  0  0  0  0  0  # atno 6909 bound_to 6896
  145.5078  140.9542  143.1724 H   0  0  0  0  0  0  0  0  0  0  0  0  # atno 7974 bound_to 7965
  154.4145  140.1707  156.1911 H   0  0  0  0  0  0  0  0  0  0  0  0  # atno 8008 bound_to 7997
  155.9603  140.3394  155.6461 H   0  0  0  0  0  0  0  0  0  0  0  0  # atno 8009 bound_to 7997
  155.6757  140.0717  157.2494 H   0  0  0  0  0  0  0  0  0  0  0  0  # atno 8010 bound_to 7997
  139.5006  144.3646  151.9789 H   0  0  0  0  0  0  0  0  0  0  0  0  # atno 10167 bound_to 10162
  156.1685  130.6651  151.0147 H   0  0  0  0  0  0  0  0  0  0  0  0  # atno 10718 bound_to 10713
  154.2383  135.2775  155.2863 H   0  0  0  0  0  0  0  0  0  0  0  0  # atno 10763 bound_to 10752
  154.5566  135.5659  153.6973 H   0  0  0  0  0  0  0  0  0  0  0  0  # atno 10764 bound_to 10752
  153.0005  135.6287  154.2527 H   0  0  0  0  0  0  0  0  0  0  0  0  # atno 10765 bound_to 10752
  140.6883  133.9094  155.8600 H   0  0  0  0  0  0  0  0  0  0  0  0  # atno 11005 bound_to 11000
  144.7744  139.6662  143.7181 LP  0  0  0  0  0  0  0  0  0  0  0  0  # atno 17320 bound_to 7965
  146.2186  139.5594  142.9633 LP  0  0  0  0  0  0  0  0  0  0  0  0  # atno 17321 bound_to 7965
  140.3082  144.3568  150.6041 LP  0  0  0  0  0  0  0  0  0  0  0  0  # atno 17342 bound_to 10162
  140.5820  143.2172  151.7412 LP  0  0  0  0  0  0  0  0  0  0  0  0  # atno 17343 bound_to 10162
  157.6785  131.0844  150.7432 LP  0  0  0  0  0  0  0  0  0  0  0  0  # atno 17370 bound_to 10713
  156.7492  130.4763  149.5460 LP  0  0  0  0  0  0  0  0  0  0  0  0  # atno 17371 bound_to 10713
  141.0262  134.0820  157.4065 LP  0  0  0  0  0  0  0  0  0  0  0  0  # atno 17394 bound_to 11000
  139.8931  135.0128  156.6881 LP  0  0  0  0  0  0  0  0  0  0  0  0  # atno 17395 bound_to 11000

$$$$
