#       Name:                AV-unprocessed.smi:3222
#       Creating user name   scv26
#       Creation time:       Fri Mar 27 18:15:04 2020


#       File generated by GOLD software.
#

@<TRIPOS>MOLECULE
AV-unprocessed.smi:3222
    44    45     1
SMALL
NO_CHARGES


@<TRIPOS>ATOM
      1 ****        -2.2278  -1.3856   1.7309 C.3            1 S1                 0.0000
      2 ****        -1.7873  -0.7121   0.4211 C.3            1 S1                 0.0000
      3 ****        -0.3139  -0.5610   0.4149 N.4            1 S1                 1.0000
      4 ****         0.1726   0.8318   0.4013 C.3            1 S1                 0.0000
      5 ****         1.7073   0.8722   0.3428 C.3            1 S1                 0.0000
      6 ****         2.2127   2.2422   0.3328 N.am           1 S1                 0.0000
      7 ****         2.9070   2.7864   1.4876 C.3            1 S1                 0.0000
      8 ****         3.1170   4.2724   1.1630 C.3            1 S1                 0.0000
      9 ****         2.8254   4.4181  -0.3346 C.3            1 S1                 0.0000
     10 ****         2.1640   3.0986  -0.6942 C.2            1 S1                 0.0000
     11 ****         1.6611   2.8806  -1.7954 O.2            1 S1                 0.0000
     12 ****        -2.2830  -1.4689  -0.8389 C.3            1 S1                 0.0000
     13 ****        -1.9663  -0.7236  -2.1495 C.3            1 S1                 0.0000
     14 ****        -1.8394  -2.8593  -0.8831 N.pl3          1 S1                 0.0000
     15 ****        -2.5747  -3.9954  -0.6115 C.2            1 S1                 0.0000
     16 ****        -1.7431  -5.0680  -0.7595 C.2            1 S1                 0.0000
     17 ****        -0.4990  -4.4834  -1.1245 C.2            1 S1                 0.0000
     18 ****        -0.5576  -3.1634  -1.1918 N.2            1 S1                 0.0000
     19 ****        -3.3098  -1.5173   1.7595 H              1 S1                 0.0000
     20 ****        -1.9492  -0.7800   2.5938 H              1 S1                 0.0000
     21 ****        -1.7696  -2.3672   1.8564 H              1 S1                 0.0000
     22 ****        -2.2436   0.2794   0.4040 H              1 S1                 0.0000
     23 ****         0.0601  -1.0273   1.2288 H              1 S1                 0.0000
     24 ****        -0.2533   1.3466  -0.4609 H              1 S1                 0.0000
     25 ****        -0.1833   1.3451   1.2957 H              1 S1                 0.0000
     26 ****         2.1264   0.3394   1.1977 H              1 S1                 0.0000
     27 ****         2.0644   0.3530  -0.5483 H              1 S1                 0.0000
     28 ****         2.3272   2.6502   2.4014 H              1 S1                 0.0000
     29 ****         3.8626   2.2742   1.6084 H              1 S1                 0.0000
     30 ****         2.4199   4.8838   1.7375 H              1 S1                 0.0000
     31 ****         4.1258   4.6007   1.4158 H              1 S1                 0.0000
     32 ****         2.1706   5.2638  -0.5469 H              1 S1                 0.0000
     33 ****         3.7446   4.5325  -0.9100 H              1 S1                 0.0000
     34 ****        -3.3716  -1.5031  -0.7715 H              1 S1                 0.0000
     35 ****        -2.3810   0.2846  -2.1347 H              1 S1                 0.0000
     36 ****        -2.3973  -1.2419  -3.0068 H              1 S1                 0.0000
     37 ****        -0.8934  -0.6357  -2.3227 H              1 S1                 0.0000
     38 ****        -3.6182  -3.9471  -0.3366 H              1 S1                 0.0000
     39 ****        -1.9860  -6.1119  -0.6262 H              1 S1                 0.0000
     40 ****         0.4390  -4.9748  -1.3372 H              1 S1                 0.0000
     41 ****         0.0405  -1.0290  -0.4079 H              1 S1                 0.0000
     42 ****         1.2379   1.9947  -1.9853 LP             1 S1                 0.0000
     43 ****         1.6755   3.5893  -2.5008 LP             1 S1                 0.0000
     44 ****         0.1820  -2.5303  -1.4203 LP             1 S1                 0.0000
@<TRIPOS>BOND
    1    1    2 1     
    2    1   19 1     
    3    1   20 1     
    4    1   21 1     
    5    2    3 1     
    6    2   12 1     
    7    2   22 1     
    8    3    4 1     
    9    3   23 1     
   10    3   41 1     
   11    4    5 1     
   12    4   24 1     
   13    4   25 1     
   14    5    6 1     
   15    5   26 1     
   16    5   27 1     
   17    6   10 am    
   18    6    7 1     
   19    7    8 1     
   20    7   28 1     
   21    7   29 1     
   22    8    9 1     
   23    8   30 1     
   24    8   31 1     
   25    9   10 1     
   26    9   32 1     
   27    9   33 1     
   28   10   11 2     
   29   12   13 1     
   30   12   14 1     
   31   12   34 1     
   32   13   35 1     
   33   13   36 1     
   34   13   37 1     
   35   14   18 1     
   36   14   15 1     
   37   15   16 2     
   38   15   38 1     
   39   16   17 1     
   40   16   39 1     
   41   17   18 2     
   42   17   40 1     
   43   11   42 1     
   44   11   43 1     
   45   18   44 1     
@<TRIPOS>SUBSTRUCTURE
      1 S1             1
@<TRIPOS>SET
LONE_PAIRS      STATIC     ATOMS    <user>   **** ""
3 42 43 44
DONOR_HYDROGENS      STATIC     ATOMS    <user>   **** ""
2 23 41
ATOM$BLUE        STATIC     ATOMS    COLORGROUP SYSTEM
3 42 43 44
ATOM$RED        STATIC     ATOMS    COLORGROUP SYSTEM
2 23 41
