AV-unprocessed.smi:1892|AV-procd|sdf|7670|dock7
  -GOLD-   22720 9403D 1   1.00000     0.00000
 Structure written by MMmdl.
 43 44  0  0  0  0  0  0  0  0  2 V2000
  152.7813  138.0966  157.0980 C   0  0  0  0  0  0  0  0  0  0  0  0
  152.4915  138.8342  155.7889 C   0  0  0  0  0  0  0  0  0  0  0  0
  153.0986  139.8819  155.5687 O   0  0  0  0  0  0  0  0  0  0  0  0
  151.5846  138.3196  154.9244 N   0  0  0  0  0  0  0  0  0  0  0  0
  151.1993  138.9930  153.6815 C   0  0  0  0  0  0  0  0  0  0  0  0
  149.7325  139.4481  153.7903 C   0  0  0  0  0  0  0  0  0  0  0  0
  148.8281  138.3133  154.1209 N   0  3  0  0  0  0  0  0  0  0  0  0
  147.4114  138.7452  154.2229 C   0  0  0  0  0  0  0  0  0  0  0  0
  146.6513  138.6157  152.8885 C   0  0  0  0  0  0  0  0  0  0  0  0
  146.8056  137.2849  152.3119 N   0  0  0  0  0  0  0  0  0  0  0  0
  145.8789  136.3170  152.3633 C   0  0  0  0  0  0  0  0  0  0  0  0
  144.7896  136.4562  152.9204 O   0  0  0  0  0  0  0  0  0  0  0  0
  146.3005  135.2015  151.7417 N   0  0  0  0  0  0  0  0  0  0  0  0
  145.6059  133.9733  151.5774 C   0  0  0  0  0  0  0  0  0  0  0  0
  146.4199  132.8637  151.2559 C   0  0  0  0  0  0  0  0  0  0  0  0
  145.8264  131.6001  151.0699 C   0  0  0  0  0  0  0  0  0  0  0  0
  144.4325  131.4786  151.2102 C   0  0  0  0  0  0  0  0  0  0  0  0
  143.6955  132.6331  151.5318 C   0  0  0  0  0  0  0  0  0  0  0  0
  144.2620  133.8450  151.7109 N   0  0  0  0  0  0  0  0  0  0  0  0
  149.2971  137.5291  155.2977 C   0  0  0  0  0  0  0  0  0  0  0  0
  150.7744  137.1197  155.1527 C   0  0  0  0  0  0  0  0  0  0  0  0
  151.8766  138.0035  157.6992 H   0  0  0  0  0  0  0  0  0  0  0  0
  153.5184  138.6405  157.6900 H   0  0  0  0  0  0  0  0  0  0  0  0
  153.1822  137.1019  156.9013 H   0  0  0  0  0  0  0  0  0  0  0  0
  151.8334  139.8493  153.4481 H   0  0  0  0  0  0  0  0  0  0  0  0
  151.3175  138.3003  152.8469 H   0  0  0  0  0  0  0  0  0  0  0  0
  149.6413  140.2171  154.5592 H   0  0  0  0  0  0  0  0  0  0  0  0
  149.4225  139.9024  152.8485 H   0  0  0  0  0  0  0  0  0  0  0  0
  146.9090  138.1807  155.0099 H   0  0  0  0  0  0  0  0  0  0  0  0
  147.3891  139.7912  154.5326 H   0  0  0  0  0  0  0  0  0  0  0  0
  145.5924  138.8417  153.0264 H   0  0  0  0  0  0  0  0  0  0  0  0
  147.0284  139.3274  152.1551 H   0  0  0  0  0  0  0  0  0  0  0  0
  147.6734  137.0902  151.8337 H   0  0  0  0  0  0  0  0  0  0  0  0
  147.2240  135.2338  151.3363 H   0  0  0  0  0  0  0  0  0  0  0  0
  147.4894  132.9746  151.1514 H   0  0  0  0  0  0  0  0  0  0  0  0
  146.4311  130.7399  150.8232 H   0  0  0  0  0  0  0  0  0  0  0  0
  143.9408  130.5269  151.0744 H   0  0  0  0  0  0  0  0  0  0  0  0
  142.6230  132.5831  151.6475 H   0  0  0  0  0  0  0  0  0  0  0  0
  149.1673  138.1232  156.2039 H   0  0  0  0  0  0  0  0  0  0  0  0
  148.6937  136.6304  155.4186 H   0  0  0  0  0  0  0  0  0  0  0  0
  150.8916  136.4475  154.3014 H   0  0  0  0  0  0  0  0  0  0  0  0
  151.0824  136.5415  156.0226 H   0  0  0  0  0  0  0  0  0  0  0  0
  148.8774  137.6905  153.3271 H   0  0  0  0  0  0  0  0  0  0  0  0
  1  2  1  0  0  0  0
  1 22  1  0  0  0  0
  1 23  1  0  0  0  0
  1 24  1  0  0  0  0
  2  3  2  0  0  0  0
  2  4  1  0  0  0  0
  4 21  1  0  0  0  0
  4  5  1  0  0  0  0
  5  6  1  0  0  0  0
  5 25  1  0  0  0  0
  5 26  1  0  0  0  0
  6  7  1  0  0  0  0
  6 27  1  0  0  0  0
  6 28  1  0  0  0  0
  7  8  1  0  0  0  0
  7 20  1  0  0  0  0
  7 43  1  0  0  0  0
  8  9  1  0  0  0  0
  8 29  1  0  0  0  0
  8 30  1  0  0  0  0
  9 10  1  0  0  0  0
  9 31  1  0  0  0  0
  9 32  1  0  0  0  0
 10 11  1  0  0  0  0
 10 33  1  0  0  0  0
 11 12  2  0  0  0  0
 11 13  1  0  0  0  0
 13 14  1  0  0  0  0
 13 34  1  0  0  0  0
 14 19  1  0  0  0  0
 14 15  2  0  0  0  0
 15 16  1  0  0  0  0
 15 35  1  0  0  0  0
 16 17  2  0  0  0  0
 16 36  1  0  0  0  0
 17 18  1  0  0  0  0
 17 37  1  0  0  0  0
 18 19  2  0  0  0  0
 18 38  1  0  0  0  0
 20 21  1  0  0  0  0
 20 39  1  0  0  0  0
 20 40  1  0  0  0  0
 21 41  1  0  0  0  0
 21 42  1  0  0  0  0
M  CHG  1   7   1
M  END
> <s_m_source_file>
AV-unprocessed.smi

> <i_m_source_file_index>
1892

> <i_lp_mmshare_version>
43012

> <i_f3d_flags>
0

> <s_epik_input>
W0NIM11DKD1PKU4xW0NIMl1bQ0gyXU4oW0NIMl1bQ0gyXTEpW0NIMl1bQ0gyXVtOSF1DKD1PKVtOSF1jMltjSF1bY0hdW2NIXVtjSF1uMg==

> <s_epik_cmdline>
J2VwaWtfcHl0aG9uJywgJy1waCcsICc3LjAnLCAnLXRuJywgJzgnLCAnLW1hJywgJzIwMCcsICctbWV0YWxfYmluZGluZycsICctaW1hZScsICc8aW5maWxlLm1hZT4nLCAnLW9tYWUnLCAnPG91dGZpbGUubWFlPic=

> <r_epik_Ionization_Penalty>
0.630068

> <r_epik_Ionization_Penalty_Charging>
0.630034

> <r_epik_Ionization_Penalty_Neutral>
3.4348e-05

> <r_epik_State_Penalty>
0.646805

> <r_epik_Charging_Adjusted_Penalty>
1.27684

> <i_epik_Tot_Q>
1

> <i_epik_Tot_abs_Q>
1

> <r_epik_Metal_State_Penalty>
0.646808

> <b_epik_Metal_Only>
0

> <s_lp_Force_Field>
OPLS_2005

> <r_lp_Energy>
41.8075

> <b_lp_Chiralities_Consistent>
1

> <s_lp_Variant>
AV-unprocessed.smi:1892-2

> <Gold.Version>
5.8.1

> <Gold.Id.Protein>
6NUR|6NUR_protein|mol2

> <Gold.PLP.Fitness>
47.9127

> <Gold.PLP.PLP>
-32.6694

> <Gold.PLP.part.hbond>
-3.6577

> <Gold.PLP.part.metal>
0.0000

> <Gold.PLP.part.buried>
-3.7025

> <Gold.PLP.part.nonpolar>
-25.7209

> <Gold.PLP.part.repulsive>
0.4898

> <Gold.PLP.ligand.clash>
0.0000

> <Gold.PLP.ligand.torsion>
0.7166

> <Gold.PLP.Chemscore.Hbond>
4.5512

> <Gold.PLP.Chemscore.CHOScore>
0.9941

> <Gold.PLP.Chemscore.Metal>
0.0000

> <Gold.Chemscore.Hbonds>
donor molecule, donor type, donor heavy atom, donor atom, acceptor molecule, acceptor atom, score
      L1  H     7    43       P1  7948  1.92
      L1  H    10    33       P1  7948  0.89
      L1  H    13    34       P1  7948  0.69
      P1  H  7997  8008       L1     3  0.72

> <Gold.PLP.Chemscore.Internal.Correction>
0.0405

> <Gold.Rescore>
     Score         DG    S(hbond)    S(metal)    S(lipo)     H(rot)  DE(clash)    DE(int)     intcor
     17.70     -19.62       3.04        0.00      69.90       1.64       0.12       1.80       ----

> <Gold.Chemscore.Fitness>
17.6997

> <Gold.Chemscore.DG>
-19.6203

> <Gold.Chemscore.ZeroCoef>
-5.4800

> <Gold.Chemscore.Hbond>
3.0412

> <Gold.Chemscore.Metal>
0.0000

> <Gold.Chemscore.Lipo>
69.8983

> <Gold.Chemscore.Internal_Hbond>
0.0000

> <Gold.Chemscore.DEClash>
0.1228

> <Gold.Chemscore.DEInternal>
1.7978

> <Gold.Chemscore.Rot>
1.6388

> <Gold.Chemscore.Internal.Correction>
   9.000000E+99

> <Gold.Chemscore.Hbonds>
donor molecule, donor type, donor heavy atom, donor atom, acceptor molecule, acceptor atom, score
      L1  H     7    43       P1  7948  0.90
      L1  H    10    33       P1  7948  0.82
      L1  H    13    34       P1  7948  0.55
      P1  H  7997  8008       L1     3  0.62

> <Gold.Chemscore.Hbond.Weighted>
-10.1574

> <Gold.Chemscore.Metal.Weighted>
-0.0000

> <Gold.Chemscore.Lipo.Weighted>
-8.1781

> <Gold.Chemscore.Internal_Hbond.Weighted>
0.0000

> <Gold.Chemscore.DEClash.Weighted>
0.1228

> <Gold.Chemscore.DEInternal.Weighted>
1.7978

> <Gold.Chemscore.Rot.Weighted>
4.1952

> <Gold.Chemscore.Internal.Correction.Weighted>
   9.000000E+99

> <Gold.Protein.RotatedTorsions>
[ 6907 6896 6895 6894 ] final  166.25 input  -60.11 | X-H torsion
[ 7974 7965 7964 7962 ] final  -81.02 input  175.53 | X-H torsion
[ 8008 7997 7996 7995 ] final  -54.02 input   59.86 | X-H torsion
[ 10167 10162 10161 10158 ] final  157.75 input  -65.29 | X-H torsion
[ 10718 10713 10712 10709 ] final  -43.15 input   66.30 | X-H torsion
[ 10763 10752 10751 10750 ] final   74.74 input  -60.55 | X-H torsion
[ 11005 11000 10999 10996 ] final  -81.84 input  -57.11 | X-H torsion

> <Gold.Protein.ActiveResidues>
 VAL166  LYS551  ARG553  GLY616  TRP617  ASP618  TYR619  PRO620  LYS621  CYS622 
 ASP623  PHE694  ASN695  SER759  ASP760  ASP761  ALA762  ILE779  LEU786  VAL792 
 PHE793  MET794  SER795  GLU796  ALA797  LYS798  CYS799  TRP800  GLU811  SER814 

> <Gold.Protein.RotatedAtoms>
  151.8819  133.3497  159.3768 H   0  0  0  0  0  0  0  0  0  0  0  0  # atno 6907 bound_to 6896
  150.7125  134.5010  159.5571 H   0  0  0  0  0  0  0  0  0  0  0  0  # atno 6908 bound_to 6896
  152.2564  134.8080  160.0489 H   0  0  0  0  0  0  0  0  0  0  0  0  # atno 6909 bound_to 6896
  145.5523  140.9495  143.1492 H   0  0  0  0  0  0  0  0  0  0  0  0  # atno 7974 bound_to 7965
  154.4150  140.1186  156.5248 H   0  0  0  0  0  0  0  0  0  0  0  0  # atno 8008 bound_to 7997
  155.6666  140.3496  155.4783 H   0  0  0  0  0  0  0  0  0  0  0  0  # atno 8009 bound_to 7997
  155.9669  140.1133  157.0837 H   0  0  0  0  0  0  0  0  0  0  0  0  # atno 8010 bound_to 7997
  139.4824  144.4889  151.8338 H   0  0  0  0  0  0  0  0  0  0  0  0  # atno 10167 bound_to 10162
  156.2520  130.4189  149.8639 H   0  0  0  0  0  0  0  0  0  0  0  0  # atno 10718 bound_to 10713
  153.0607  135.5014  154.8087 H   0  0  0  0  0  0  0  0  0  0  0  0  # atno 10763 bound_to 10752
  154.6878  135.2979  154.9525 H   0  0  0  0  0  0  0  0  0  0  0  0  # atno 10764 bound_to 10752
  154.0290  135.6732  153.4832 H   0  0  0  0  0  0  0  0  0  0  0  0  # atno 10765 bound_to 10752
  141.1665  133.7215  156.8482 H   0  0  0  0  0  0  0  0  0  0  0  0  # atno 11005 bound_to 11000
  144.7523  139.7161  143.7268 LP  0  0  0  0  0  0  0  0  0  0  0  0  # atno 17320 bound_to 7965
  146.1908  139.5148  142.9806 LP  0  0  0  0  0  0  0  0  0  0  0  0  # atno 17321 bound_to 7965
  140.4371  144.2037  150.5890 LP  0  0  0  0  0  0  0  0  0  0  0  0  # atno 17342 bound_to 10162
  140.4721  143.2409  151.9074 LP  0  0  0  0  0  0  0  0  0  0  0  0  # atno 17343 bound_to 10162
  156.6184  130.8616  151.3470 LP  0  0  0  0  0  0  0  0  0  0  0  0  # atno 17370 bound_to 10713
  157.7218  130.9568  150.1469 LP  0  0  0  0  0  0  0  0  0  0  0  0  # atno 17371 bound_to 10713
  140.1935  134.8949  157.3087 LP  0  0  0  0  0  0  0  0  0  0  0  0  # atno 17394 bound_to 11000
  140.2265  134.3961  155.7541 LP  0  0  0  0  0  0  0  0  0  0  0  0  # atno 17395 bound_to 11000

$$$$
