AV-unprocessed.smi:1379|AV-procd|sdf|5599|dock8
  -GOLD-   22720 5203D 1   1.00000     0.00000
 Structure written by MMmdl.
 35 36  0  0  0  0  0  0  0  0  2 V2000
  154.7752  136.4344  164.2218 C   0  0  0  0  0  0  0  0  0  0  0  0
  154.6487  135.3755  163.2891 O   0  0  0  0  0  0  0  0  0  0  0  0
  155.2278  135.6905  162.0314 C   0  0  0  0  0  0  0  0  0  0  0  0
  154.5036  136.8898  161.4170 C   0  0  0  0  0  0  0  0  0  0  0  0
  153.5601  136.6913  160.6534 O   0  0  0  0  0  0  0  0  0  0  0  0
  154.9878  138.1047  161.7382 N   0  0  0  0  0  0  0  0  0  0  0  0
  154.5297  139.3884  161.3337 C   0  0  0  0  0  0  0  0  0  0  0  0
  153.7695  139.4666  160.1469 C   0  0  0  0  0  0  0  0  0  0  0  0
  153.3002  140.7170  159.6951 C   0  0  0  0  0  0  0  0  0  0  0  0
  153.6077  141.8815  160.4361 C   0  0  0  0  0  0  0  0  0  0  0  0
  153.1893  143.1704  160.0772 N   0  0  0  0  0  0  0  0  0  0  0  0
  152.4644  143.2588  158.8205 C   0  0  0  0  0  0  0  0  0  0  0  0
  151.7636  144.6196  158.8465 C   0  0  0  0  0  0  0  0  0  0  0  0
  151.6901  144.9974  160.3308 C   0  0  0  0  0  0  0  0  0  0  0  0
  152.3571  143.8328  161.0673 C   0  0  0  0  0  0  0  0  0  0  0  0
  154.3460  141.7675  161.5612 N   0  3  0  0  0  0  0  0  0  0  0  0
  154.8136  140.5898  162.0290 C   0  0  0  0  0  0  0  0  0  0  0  0
  154.3062  136.1514  165.1639 H   0  0  0  0  0  0  0  0  0  0  0  0
  154.2856  137.3395  163.8600 H   0  0  0  0  0  0  0  0  0  0  0  0
  155.8237  136.6593  164.4217 H   0  0  0  0  0  0  0  0  0  0  0  0
  156.2845  135.9359  162.1484 H   0  0  0  0  0  0  0  0  0  0  0  0
  155.1547  134.8354  161.3571 H   0  0  0  0  0  0  0  0  0  0  0  0
  155.8083  138.1024  162.3272 H   0  0  0  0  0  0  0  0  0  0  0  0
  153.5405  138.5729  159.5846 H   0  0  0  0  0  0  0  0  0  0  0  0
  152.7113  140.7739  158.7912 H   0  0  0  0  0  0  0  0  0  0  0  0
  153.1426  143.1747  157.9708 H   0  0  0  0  0  0  0  0  0  0  0  0
  151.7265  142.4596  158.7417 H   0  0  0  0  0  0  0  0  0  0  0  0
  152.3523  145.3605  158.3040 H   0  0  0  0  0  0  0  0  0  0  0  0
  150.7787  144.5727  158.3808 H   0  0  0  0  0  0  0  0  0  0  0  0
  152.2405  145.9227  160.5058 H   0  0  0  0  0  0  0  0  0  0  0  0
  150.6653  145.1518  160.6699 H   0  0  0  0  0  0  0  0  0  0  0  0
  151.5998  143.1479  161.4513 H   0  0  0  0  0  0  0  0  0  0  0  0
  152.9537  144.1819  161.9107 H   0  0  0  0  0  0  0  0  0  0  0  0
  155.4012  140.6663  162.9311 H   0  0  0  0  0  0  0  0  0  0  0  0
  154.5651  142.6161  162.0838 H   0  0  0  0  0  0  0  0  0  0  0  0
  1  2  1  0  0  0  0
  1 18  1  0  0  0  0
  1 19  1  0  0  0  0
  1 20  1  0  0  0  0
  2  3  1  0  0  0  0
  3  4  1  0  0  0  0
  3 21  1  0  0  0  0
  3 22  1  0  0  0  0
  4  5  2  0  0  0  0
  4  6  1  0  0  0  0
  6  7  1  0  0  0  0
  6 23  1  0  0  0  0
  7 17  1  0  0  0  0
  7  8  2  0  0  0  0
  8  9  1  0  0  0  0
  8 24  1  0  0  0  0
  9 10  2  0  0  0  0
  9 25  1  0  0  0  0
 10 11  1  0  0  0  0
 10 16  1  0  0  0  0
 11 15  1  0  0  0  0
 11 12  1  0  0  0  0
 12 13  1  0  0  0  0
 12 26  1  0  0  0  0
 12 27  1  0  0  0  0
 13 14  1  0  0  0  0
 13 28  1  0  0  0  0
 13 29  1  0  0  0  0
 14 15  1  0  0  0  0
 14 30  1  0  0  0  0
 14 31  1  0  0  0  0
 15 32  1  0  0  0  0
 15 33  1  0  0  0  0
 16 17  2  0  0  0  0
 16 35  1  0  0  0  0
 17 34  1  0  0  0  0
M  CHG  1  16   1
M  END
> <s_m_source_file>
AV-unprocessed.smi

> <i_m_source_file_index>
1379

> <i_lp_mmshare_version>
43012

> <i_f3d_flags>
0

> <s_epik_input>
W0NIM11PW0NIMl1DKD1PKVtOSF1jMVtjSF1bY0hdYyhuW2NIXTEpTjJbQ0gyXVtDSDJdW0NIMl1bQ0gyXTI=

> <s_epik_cmdline>
J2VwaWtfcHl0aG9uJywgJy1waCcsICc3LjAnLCAnLXRuJywgJzgnLCAnLW1hJywgJzIwMCcsICctbWV0YWxfYmluZGluZycsICctaW1hZScsICc8aW5maWxlLm1hZT4nLCAnLW9tYWUnLCAnPG91dGZpbGUubWFlPic=

> <r_lp_tautomer_probability>
0.999994

> <r_epik_Ionization_Penalty>
1.86748

> <r_epik_Ionization_Penalty_Charging>
1.86748

> <r_epik_Ionization_Penalty_Neutral>
2.87909e-06

> <r_epik_State_Penalty>
1.98622

> <r_epik_Charging_Adjusted_Penalty>
3.8537

> <i_epik_Tot_Q>
1

> <i_epik_Tot_abs_Q>
1

> <r_epik_Metal_State_Penalty>
2.01386

> <b_epik_Metal_Only>
0

> <s_lp_Force_Field>
OPLS_2005

> <r_lp_Energy>
42.4744

> <b_lp_Chiralities_Consistent>
1

> <s_lp_Variant>
AV-unprocessed.smi:1379-2

> <Gold.Version>
5.8.1

> <Gold.Id.Protein>
6NUR|6NUR_protein|mol2

> <Gold.PLP.Fitness>
40.5192

> <Gold.PLP.PLP>
-39.7685

> <Gold.PLP.part.hbond>
-1.4626

> <Gold.PLP.part.metal>
0.0000

> <Gold.PLP.part.buried>
-5.0865

> <Gold.PLP.part.nonpolar>
-33.6742

> <Gold.PLP.part.repulsive>
0.0313

> <Gold.PLP.ligand.clash>
0.0000

> <Gold.PLP.ligand.torsion>
0.4867

> <Gold.PLP.Chemscore.Hbond>
0.5688

> <Gold.PLP.Chemscore.CHOScore>
0.0000

> <Gold.PLP.Chemscore.Metal>
0.0000

> <Gold.Chemscore.Hbonds>
donor molecule, donor type, donor heavy atom, donor atom, acceptor molecule, acceptor atom, score
      P1  H  6896  6907       L1     5  0.31

> <Gold.PLP.Chemscore.Internal.Correction>
0.0179

> <Gold.Rescore>
     Score         DG    S(hbond)    S(metal)    S(lipo)     H(rot)  DE(clash)    DE(int)     intcor
     13.89     -15.82       0.94        0.00      93.12       1.44       0.16       1.77       ----

> <Gold.Chemscore.Fitness>
13.8883

> <Gold.Chemscore.DG>
-15.8168

> <Gold.Chemscore.ZeroCoef>
-5.4800

> <Gold.Chemscore.Hbond>
0.9388

> <Gold.Chemscore.Metal>
0.0000

> <Gold.Chemscore.Lipo>
93.1183

> <Gold.Chemscore.Internal_Hbond>
0.0000

> <Gold.Chemscore.DEClash>
0.1611

> <Gold.Chemscore.DEInternal>
1.7674

> <Gold.Chemscore.Rot>
1.4428

> <Gold.Chemscore.Internal.Correction>
   9.000000E+99

> <Gold.Chemscore.Hbonds>
donor molecule, donor type, donor heavy atom, donor atom, acceptor molecule, acceptor atom, score
      P1  H  6896  6907       L1     5  0.31

> <Gold.Chemscore.Hbond.Weighted>
-3.1356

> <Gold.Chemscore.Metal.Weighted>
-0.0000

> <Gold.Chemscore.Lipo.Weighted>
-10.8948

> <Gold.Chemscore.Internal_Hbond.Weighted>
0.0000

> <Gold.Chemscore.DEClash.Weighted>
0.1611

> <Gold.Chemscore.DEInternal.Weighted>
1.7674

> <Gold.Chemscore.Rot.Weighted>
3.6937

> <Gold.Chemscore.Internal.Correction.Weighted>
   9.000000E+99

> <Gold.Protein.RotatedTorsions>
[ 6907 6896 6895 6894 ] final   27.91 input  -60.11 | X-H torsion
[ 7974 7965 7964 7962 ] final  158.45 input  175.53 | X-H torsion
[ 8008 7997 7996 7995 ] final   22.70 input   59.86 | X-H torsion
[ 10167 10162 10161 10158 ] final  173.95 input  -65.29 | X-H torsion
[ 10718 10713 10712 10709 ] final   -7.71 input   66.30 | X-H torsion
[ 10763 10752 10751 10750 ] final  167.57 input  -60.55 | X-H torsion
[ 11005 11000 10999 10996 ] final   58.22 input  -57.11 | X-H torsion

> <Gold.Protein.ActiveResidues>
 VAL166  LYS551  ARG553  GLY616  TRP617  ASP618  TYR619  PRO620  LYS621  CYS622 
 ASP623  PHE694  ASN695  SER759  ASP760  ASP761  ALA762  ILE779  LEU786  VAL792 
 PHE793  MET794  SER795  GLU796  ALA797  LYS798  CYS799  TRP800  GLU811  SER814 

> <Gold.Protein.RotatedAtoms>
  152.0093  134.9885  160.0567 H   0  0  0  0  0  0  0  0  0  0  0  0  # atno 6907 bound_to 6896
  152.1444  133.4479  159.4791 H   0  0  0  0  0  0  0  0  0  0  0  0  # atno 6908 bound_to 6896
  150.6868  134.2183  159.4430 H   0  0  0  0  0  0  0  0  0  0  0  0  # atno 6909 bound_to 6896
  144.7845  139.7480  143.6246 H   0  0  0  0  0  0  0  0  0  0  0  0  # atno 7974 bound_to 7965
  154.9698  140.3088  155.4993 H   0  0  0  0  0  0  0  0  0  0  0  0  # atno 8008 bound_to 7997
  156.2967  140.2286  156.4728 H   0  0  0  0  0  0  0  0  0  0  0  0  # atno 8009 bound_to 7997
  154.7887  140.0441  157.1173 H   0  0  0  0  0  0  0  0  0  0  0  0  # atno 8010 bound_to 7997
  139.5125  144.3202  152.0210 H   0  0  0  0  0  0  0  0  0  0  0  0  # atno 10167 bound_to 10162
  156.7132  130.5128  149.5887 H   0  0  0  0  0  0  0  0  0  0  0  0  # atno 10718 bound_to 10713
  154.3558  135.2753  155.2347 H   0  0  0  0  0  0  0  0  0  0  0  0  # atno 10763 bound_to 10752
  154.4557  135.5920  153.6225 H   0  0  0  0  0  0  0  0  0  0  0  0  # atno 10764 bound_to 10752
  152.9847  135.6052  154.3773 H   0  0  0  0  0  0  0  0  0  0  0  0  # atno 10765 bound_to 10752
  140.0393  134.5896  155.9402 H   0  0  0  0  0  0  0  0  0  0  0  0  # atno 11005 bound_to 11000
  146.2070  139.5401  142.9706 LP  0  0  0  0  0  0  0  0  0  0  0  0  # atno 17320 bound_to 7965
  145.5959  141.0362  143.2044 LP  0  0  0  0  0  0  0  0  0  0  0  0  # atno 17321 bound_to 7965
  140.2644  144.4032  150.6174 LP  0  0  0  0  0  0  0  0  0  0  0  0  # atno 17342 bound_to 10162
  140.6134  143.2171  151.6841 LP  0  0  0  0  0  0  0  0  0  0  0  0  # atno 17343 bound_to 10162
  156.1646  130.6397  151.0762 LP  0  0  0  0  0  0  0  0  0  0  0  0  # atno 17370 bound_to 10713
  157.6928  131.0804  150.7058 LP  0  0  0  0  0  0  0  0  0  0  0  0  # atno 17371 bound_to 10713
  141.1874  133.6560  156.5282 LP  0  0  0  0  0  0  0  0  0  0  0  0  # atno 17394 bound_to 11000
  140.4095  134.7285  157.4827 LP  0  0  0  0  0  0  0  0  0  0  0  0  # atno 17395 bound_to 11000

$$$$
