#       Name:                AV-unprocessed.smi:2154
#       Creating user name   scv26
#       Creation time:       Fri Mar 27 11:55:29 2020


#       File generated by GOLD software.
#

@<TRIPOS>MOLECULE
AV-unprocessed.smi:2154
    38    39     1
SMALL
NO_CHARGES


@<TRIPOS>ATOM
      1 ****        -3.7910   0.2347   2.6603 C.3            1 S1                 0.0000
      2 ****        -3.6487  -0.6886   1.4697 C.3            1 S1                 0.0000
      3 ****        -4.3746  -0.3947   0.1769 C.3            1 S1                 0.0000
      4 ****        -2.8723  -0.2552   0.2463 C.3            1 S1                 0.0000
      5 ****        -1.9781  -1.2280  -0.4992 C.3            1 S1                 0.0000
      6 ****        -0.5923  -1.2562  -0.0501 N.am           1 S1                 0.0000
      7 ****         0.3302  -0.3256  -0.3379 C.2            1 S1                 0.0000
      8 ****         0.0899   0.6729  -1.0183 O.2            1 S1                 0.0000
      9 ****         1.7275  -0.5546   0.2560 C.3            1 S1                 0.0000
     10 ****         2.7841   0.1798  -0.4552 N.am           1 S1                 0.0000
     11 ****         3.2427   1.3951   0.0331 C.2            1 S1                 0.0000
     12 ****         4.2050   2.1280  -0.5755 C.2            1 S1                 0.0000
     13 ****         4.8211   1.6573  -1.8113 C.2            1 S1                 0.0000
     14 ****         5.7004   2.2476  -2.4349 O.2            1 S1                 0.0000
     15 ****         4.3308   0.4326  -2.2723 N.am           1 S1                 0.0000
     16 ****         3.3381  -0.3266  -1.6512 C.2            1 S1                 0.0000
     17 ****         2.9752  -1.3932  -2.1460 O.2            1 S1                 0.0000
     18 ****         4.7255   0.0679  -3.1271 H              1 S1                 0.0000
     19 ****        -3.8699   1.2736   2.3384 H              1 S1                 0.0000
     20 ****        -2.9238   0.1385   3.3134 H              1 S1                 0.0000
     21 ****        -4.6852  -0.0222   3.2284 H              1 S1                 0.0000
     22 ****        -3.5697  -1.7394   1.7419 H              1 S1                 0.0000
     23 ****        -4.7816  -1.2419  -0.3717 H              1 S1                 0.0000
     24 ****        -4.9599   0.5207   0.1195 H              1 S1                 0.0000
     25 ****        -2.5030   0.7688   0.2434 H              1 S1                 0.0000
     26 ****        -2.3849  -2.2352  -0.4020 H              1 S1                 0.0000
     27 ****        -2.0118  -0.9881  -1.5631 H              1 S1                 0.0000
     28 ****        -0.3126  -2.0417   0.5192 H              1 S1                 0.0000
     29 ****         1.7021  -0.2568   1.3053 H              1 S1                 0.0000
     30 ****         1.9541  -1.6229   0.2655 H              1 S1                 0.0000
     31 ****         2.8116   1.7852   0.9441 H              1 S1                 0.0000
     32 ****         4.5197   3.0681  -0.1461 H              1 S1                 0.0000
     33 ****        -0.8290   0.8189  -1.3848 LP             1 S1                 0.0000
     34 ****         0.8138   1.3374  -1.2041 LP             1 S1                 0.0000
     35 ****         6.0481   3.1237  -2.1008 LP             1 S1                 0.0000
     36 ****         6.0683   1.8518  -3.2763 LP             1 S1                 0.0000
     37 ****         2.2633  -1.9351  -1.6993 LP             1 S1                 0.0000
     38 ****         3.3922  -1.7181  -2.9948 LP             1 S1                 0.0000
@<TRIPOS>BOND
    1    1    2 1     
    2    1   19 1     
    3    1   20 1     
    4    1   21 1     
    5    2    4 1     
    6    2    3 1     
    7    2   22 1     
    8    3    4 1     
    9    3   23 1     
   10    3   24 1     
   11    4    5 1     
   12    4   25 1     
   13    5    6 1     
   14    5   26 1     
   15    5   27 1     
   16    6    7 am    
   17    6   28 1     
   18    7    8 2     
   19    7    9 1     
   20    9   10 1     
   21    9   29 1     
   22    9   30 1     
   23   10   16 1     
   24   10   11 1     
   25   11   12 2     
   26   11   31 1     
   27   12   13 1     
   28   12   32 1     
   29   13   14 2     
   30   13   15 1     
   31   15   18 1     
   32   15   16 1     
   33   16   17 2     
   34    8   33 1     
   35    8   34 1     
   36   14   35 1     
   37   14   36 1     
   38   17   37 1     
   39   17   38 1     
@<TRIPOS>SUBSTRUCTURE
      1 S1             1
@<TRIPOS>SET
LONE_PAIRS      STATIC     ATOMS    <user>   **** ""
6 33 34 35 36 37 38
DONOR_HYDROGENS      STATIC     ATOMS    <user>   **** ""
2 28 18
ATOM$BLUE        STATIC     ATOMS    COLORGROUP SYSTEM
6 33 34 35 36 37 38
ATOM$RED        STATIC     ATOMS    COLORGROUP SYSTEM
2 28 18
