AV-unprocessed.smi:1419|AV-procd|sdf|5782|dock7
  -GOLD-   22720 5423D 1   1.00000     0.00000
 Structure written by MMmdl.
 41 42  0  0  0  0  0  0  0  0  1 V2000
  145.5891  133.8873  153.3477 C   0  0  0  0  0  0  0  0  0  0  0  0
  146.7710  133.6417  152.4004 C   0  0  2  0  0  0  0  0  0  0  0  0
  146.6603  132.2721  151.6999 C   0  0  0  0  0  0  0  0  0  0  0  0
  145.6854  132.2737  150.6234 N   0  0  0  0  0  0  0  0  0  0  0  0
  144.3509  132.6505  150.6986 C   0  0  0  0  0  0  0  0  0  0  0  0
  143.8275  132.4968  149.4346 C   0  0  0  0  0  0  0  0  0  0  0  0
  144.8138  132.0227  148.5728 N   0  0  0  0  0  0  0  0  0  0  0  0
  145.8847  131.9134  149.3480 C   0  0  0  0  0  0  0  0  0  0  0  0
  148.0189  133.7213  153.1578 N   0  0  0  0  0  0  0  0  0  0  0  0
  148.4714  132.8080  154.0345 C   0  0  0  0  0  0  0  0  0  0  0  0
  147.9165  131.7212  154.2022 O   0  0  0  0  0  0  0  0  0  0  0  0
  149.5912  133.1778  154.7030 N   0  0  0  0  0  0  0  0  0  0  0  0
  150.0547  134.5512  154.9391 C   0  0  0  0  0  0  0  0  0  0  0  0
  149.7582  134.9092  156.4086 C   0  0  2  0  0  0  0  0  0  0  0  0
  150.2566  136.3117  156.7728 C   0  0  0  0  0  0  0  0  0  0  0  0
  150.4126  133.9707  157.2665 O   0  0  0  0  0  0  0  0  0  0  0  0
  150.1042  132.5926  157.0311 C   0  0  1  0  0  0  0  0  0  0  0  0
  148.6921  132.2403  157.5339 C   0  0  0  0  0  0  0  0  0  0  0  0
  150.3478  132.2482  155.5454 C   0  0  0  0  0  0  0  0  0  0  0  0
  144.6417  133.8474  152.8097 H   0  0  0  0  0  0  0  0  0  0  0  0
  145.6594  134.8693  153.8170 H   0  0  0  0  0  0  0  0  0  0  0  0
  145.5525  133.1399  154.1413 H   0  0  0  0  0  0  0  0  0  0  0  0
  146.7408  134.4209  151.6366 H   0  0  0  0  0  0  0  0  0  0  0  0
  147.6280  131.9700  151.2959 H   0  0  0  0  0  0  0  0  0  0  0  0
  146.3682  131.5047  152.4177 H   0  0  0  0  0  0  0  0  0  0  0  0
  143.8993  132.9938  151.6178 H   0  0  0  0  0  0  0  0  0  0  0  0
  142.8250  132.6896  149.0822 H   0  0  0  0  0  0  0  0  0  0  0  0
  146.8394  131.5710  148.9765 H   0  0  0  0  0  0  0  0  0  0  0  0
  148.5507  134.5738  153.0602 H   0  0  0  0  0  0  0  0  0  0  0  0
  151.1273  134.6067  154.7468 H   0  0  0  0  0  0  0  0  0  0  0  0
  149.6022  135.2898  154.2775 H   0  0  0  0  0  0  0  0  0  0  0  0
  148.6826  134.8756  156.5844 H   0  0  0  0  0  0  0  0  0  0  0  0
  149.7718  137.0717  156.1597 H   0  0  0  0  0  0  0  0  0  0  0  0
  151.3335  136.3984  156.6255 H   0  0  0  0  0  0  0  0  0  0  0  0
  150.0433  136.5416  157.8171 H   0  0  0  0  0  0  0  0  0  0  0  0
  150.8094  132.0142  157.6285 H   0  0  0  0  0  0  0  0  0  0  0  0
  148.5010  131.1719  157.4314 H   0  0  0  0  0  0  0  0  0  0  0  0
  147.9122  132.7623  156.9820 H   0  0  0  0  0  0  0  0  0  0  0  0
  148.5799  132.4965  158.5874 H   0  0  0  0  0  0  0  0  0  0  0  0
  150.0999  131.2034  155.3521 H   0  0  0  0  0  0  0  0  0  0  0  0
  151.4095  132.3448  155.3134 H   0  0  0  0  0  0  0  0  0  0  0  0
  1  2  1  0  0  0  0
  1 20  1  0  0  0  0
  1 21  1  0  0  0  0
  1 22  1  0  0  0  0
  2  3  1  0  0  0  0
  2  9  1  0  0  0  0
  2 23  1  0  0  0  0
  3  4  1  0  0  0  0
  3 24  1  0  0  0  0
  3 25  1  0  0  0  0
  4  8  1  0  0  0  0
  4  5  1  0  0  0  0
  5  6  2  0  0  0  0
  5 26  1  0  0  0  0
  6  7  1  0  0  0  0
  6 27  1  0  0  0  0
  7  8  2  0  0  0  0
  8 28  1  0  0  0  0
  9 10  1  0  0  0  0
  9 29  1  0  0  0  0
 10 11  2  0  0  0  0
 10 12  1  0  0  0  0
 12 19  1  0  0  0  0
 12 13  1  0  0  0  0
 13 14  1  0  0  0  0
 13 30  1  0  0  0  0
 13 31  1  0  0  0  0
 14 15  1  0  0  0  0
 14 16  1  0  0  0  0
 14 32  1  0  0  0  0
 15 33  1  0  0  0  0
 15 34  1  0  0  0  0
 15 35  1  0  0  0  0
 16 17  1  0  0  0  0
 17 18  1  0  0  0  0
 17 19  1  0  0  0  0
 17 36  1  0  0  0  0
 18 37  1  0  0  0  0
 18 38  1  0  0  0  0
 18 39  1  0  0  0  0
 19 40  1  0  0  0  0
 19 41  1  0  0  0  0
M  END
> <s_m_source_file>
AV-unprocessed.smi

> <i_m_source_file_index>
1419

> <i_lp_mmshare_version>
43012

> <i_f3d_flags>
0

> <s_epik_input>
W2NIXTFuW2NIXVtjSF1uMVtDSDJdW0NAQEhdKFtDSDNdKVtOSF1DKD1PKU4yW0NIMl1bQ0BASF0oW0NIM10pT1tDQEBIXShbQ0gzXSlbQ0gyXTI=

> <s_epik_cmdline>
J2VwaWtfcHl0aG9uJywgJy1waCcsICc3LjAnLCAnLXRuJywgJzgnLCAnLW1hJywgJzIwMCcsICctbWV0YWxfYmluZGluZycsICctaW1hZScsICc8aW5maWxlLm1hZT4nLCAnLW9tYWUnLCAnPG91dGZpbGUubWFlPic=

> <r_lp_tautomer_probability>
1

> <r_epik_Ionization_Penalty>
0.625124

> <r_epik_Ionization_Penalty_Charging>
0.625093

> <r_epik_Ionization_Penalty_Neutral>
3.17415e-05

> <r_epik_State_Penalty>
0.641455

> <r_epik_Charging_Adjusted_Penalty>
1.26655

> <i_epik_Tot_Q>
0

> <i_epik_Tot_abs_Q>
0

> <r_epik_Metal_State_Penalty>
0.307717

> <b_epik_Metal_Only>
0

> <s_lp_Force_Field>
OPLS_2005

> <r_lp_Energy>
29.9288

> <b_lp_Chiralities_Consistent>
1

> <s_lp_Variant>
AV-unprocessed.smi:1419-9

> <Gold.Version>
5.8.1

> <Gold.Id.Protein>
6NUR|6NUR_protein|mol2

> <Gold.PLP.Fitness>
43.7644

> <Gold.PLP.PLP>
-34.1364

> <Gold.PLP.part.hbond>
-3.8647

> <Gold.PLP.part.metal>
0.0000

> <Gold.PLP.part.buried>
-4.6093

> <Gold.PLP.part.nonpolar>
-27.3573

> <Gold.PLP.part.repulsive>
0.3982

> <Gold.PLP.ligand.clash>
0.0000

> <Gold.PLP.ligand.torsion>
0.4231

> <Gold.PLP.Chemscore.Hbond>
1.6590

> <Gold.PLP.Chemscore.CHOScore>
1.8126

> <Gold.PLP.Chemscore.Metal>
0.0000

> <Gold.Chemscore.Hbonds>
donor molecule, donor type, donor heavy atom, donor atom, acceptor molecule, acceptor atom, score
      L1  H     9    29       P1  7948  0.89
      P1  H  6896  6907       L1    16  0.61
      L1  C     6    27       P1 10186  0.96
      L1  C     8    28       P1 10747  0.91

> <Gold.PLP.Chemscore.Internal.Correction>
0.0591

> <Gold.Rescore>
     Score         DG    S(hbond)    S(metal)    S(lipo)     H(rot)  DE(clash)    DE(int)     intcor
      9.78     -11.57       1.04        0.00      56.86       1.58       0.01       1.78       ----

> <Gold.Chemscore.Fitness>
9.7785

> <Gold.Chemscore.DG>
-11.5667

> <Gold.Chemscore.ZeroCoef>
-5.4800

> <Gold.Chemscore.Hbond>
1.0391

> <Gold.Chemscore.Metal>
0.0000

> <Gold.Chemscore.Lipo>
56.8630

> <Gold.Chemscore.Internal_Hbond>
0.0000

> <Gold.Chemscore.DEClash>
0.0102

> <Gold.Chemscore.DEInternal>
1.7780

> <Gold.Chemscore.Rot>
1.5769

> <Gold.Chemscore.Internal.Correction>
   9.000000E+99

> <Gold.Chemscore.Hbonds>
donor molecule, donor type, donor heavy atom, donor atom, acceptor molecule, acceptor atom, score
      L1  H     9    29       P1  7948  0.25
      P1  H  6896  6907       L1    16  0.09

> <Gold.Chemscore.Hbond.Weighted>
-3.4707

> <Gold.Chemscore.Metal.Weighted>
-0.0000

> <Gold.Chemscore.Lipo.Weighted>
-6.6530

> <Gold.Chemscore.Internal_Hbond.Weighted>
0.0000

> <Gold.Chemscore.DEClash.Weighted>
0.0102

> <Gold.Chemscore.DEInternal.Weighted>
1.7780

> <Gold.Chemscore.Rot.Weighted>
4.0369

> <Gold.Chemscore.Internal.Correction.Weighted>
   9.000000E+99

> <Gold.Protein.RotatedTorsions>
[ 6907 6896 6895 6894 ] final -124.61 input  -60.11 | X-H torsion
[ 7974 7965 7964 7962 ] final -139.37 input  175.53 | X-H torsion
[ 8008 7997 7996 7995 ] final   25.72 input   59.86 | X-H torsion
[ 10167 10162 10161 10158 ] final   13.64 input  -65.29 | X-H torsion
[ 10718 10713 10712 10709 ] final -108.01 input   66.30 | X-H torsion
[ 10763 10752 10751 10750 ] final   40.11 input  -60.55 | X-H torsion
[ 11005 11000 10999 10996 ] final  139.31 input  -57.11 | X-H torsion

> <Gold.Protein.ActiveResidues>
 VAL166  LYS551  ARG553  GLY616  TRP617  ASP618  TYR619  PRO620  LYS621  CYS622 
 ASP623  PHE694  ASN695  SER759  ASP760  ASP761  ALA762  ILE779  LEU786  VAL792 
 PHE793  MET794  SER795  GLU796  ALA797  LYS798  CYS799  TRP800  GLU811  SER814 

> <Gold.Protein.RotatedAtoms>
  150.8785  133.7404  159.2938 H   0  0  0  0  0  0  0  0  0  0  0  0  # atno 6907 bound_to 6896
  151.4993  135.1059  159.9834 H   0  0  0  0  0  0  0  0  0  0  0  0  # atno 6908 bound_to 6896
  152.4744  133.8058  159.7033 H   0  0  0  0  0  0  0  0  0  0  0  0  # atno 6909 bound_to 6896
  144.8682  140.6327  143.5284 H   0  0  0  0  0  0  0  0  0  0  0  0  # atno 7974 bound_to 7965
  155.0161  140.3142  155.4811 H   0  0  0  0  0  0  0  0  0  0  0  0  # atno 8008 bound_to 7997
  156.2900  140.2206  156.5219 H   0  0  0  0  0  0  0  0  0  0  0  0  # atno 8009 bound_to 7997
  154.7492  140.0467  157.0867 H   0  0  0  0  0  0  0  0  0  0  0  0  # atno 8010 bound_to 7997
  140.5989  143.8645  150.6945 H   0  0  0  0  0  0  0  0  0  0  0  0  # atno 10167 bound_to 10162
  156.0464  130.5691  150.7902 H   0  0  0  0  0  0  0  0  0  0  0  0  # atno 10718 bound_to 10713
  152.9946  135.6201  154.2574 H   0  0  0  0  0  0  0  0  0  0  0  0  # atno 10763 bound_to 10752
  154.2311  135.2792  155.2891 H   0  0  0  0  0  0  0  0  0  0  0  0  # atno 10764 bound_to 10752
  154.5449  135.5750  153.6929 H   0  0  0  0  0  0  0  0  0  0  0  0  # atno 10765 bound_to 10752
  140.0245  134.9381  157.0541 H   0  0  0  0  0  0  0  0  0  0  0  0  # atno 11005 bound_to 11000
  145.4180  139.1568  143.4089 LP  0  0  0  0  0  0  0  0  0  0  0  0  # atno 17320 bound_to 7965
  146.2911  140.4288  142.8739 LP  0  0  0  0  0  0  0  0  0  0  0  0  # atno 17321 bound_to 7965
  140.2186  143.3827  152.1661 LP  0  0  0  0  0  0  0  0  0  0  0  0  # atno 17342 bound_to 10162
  139.5277  144.7122  151.5168 LP  0  0  0  0  0  0  0  0  0  0  0  0  # atno 17343 bound_to 10162
  157.5345  131.0938  150.9911 LP  0  0  0  0  0  0  0  0  0  0  0  0  # atno 17370 bound_to 10713
  157.0209  130.5673  149.5331 LP  0  0  0  0  0  0  0  0  0  0  0  0  # atno 17371 bound_to 10713
  140.4330  134.1761  155.7169 LP  0  0  0  0  0  0  0  0  0  0  0  0  # atno 17394 bound_to 11000
  141.1794  133.8445  157.1309 LP  0  0  0  0  0  0  0  0  0  0  0  0  # atno 17395 bound_to 11000

$$$$
