AV-unprocessed.smi:1144|AV-procd|sdf|4876|dock1
  -GOLD-   22720 3443D 1   1.00000     0.00000
 Structure written by MMmdl.
 35 36  0  0  0  0  0  0  0  0  2 V2000
  147.0825  138.5182  152.8926 C   0  0  0  0  0  0  0  0  0  0  0  0
  147.8803  139.7062  153.2635 N   0  3  1  0  0  0  0  0  0  0  0  0
  147.0479  140.8100  153.7929 C   0  0  0  0  0  0  0  0  0  0  0  0
  147.9270  142.0255  154.1286 C   0  0  0  0  0  0  0  0  0  0  0  0
  148.9421  141.6375  155.0464 O   0  0  0  0  0  0  0  0  0  0  0  0
  149.8133  140.6464  154.5086 C   0  0  1  0  0  0  0  0  0  0  0  0
  150.9102  140.3605  155.5430 C   0  0  0  0  0  0  0  0  0  0  0  0
  150.4670  140.6631  156.8956 N   0  0  0  0  0  0  0  0  0  0  0  0
  151.2866  141.1783  157.8814 C   0  0  0  0  0  0  0  0  0  0  0  0
  152.1961  140.3688  158.4357 N   0  0  0  0  0  0  0  0  0  0  0  0
  152.9805  140.8971  159.3997 C   0  0  0  0  0  0  0  0  0  0  0  0
  152.8532  142.2399  159.8071 C   0  0  0  0  0  0  0  0  0  0  0  0
  151.8597  143.0018  159.1521 C   0  0  0  0  0  0  0  0  0  0  0  0
  151.6088  144.4642  159.4881 C   0  0  0  0  0  0  0  0  0  0  0  0
  152.2105  144.8157  160.6252 F   0  0  0  0  0  0  0  0  0  0  0  0
  152.0741  145.2372  158.5066 F   0  0  0  0  0  0  0  0  0  0  0  0
  150.2993  144.6770  159.6198 F   0  0  0  0  0  0  0  0  0  0  0  0
  151.0794  142.4605  158.1872 N   0  0  0  0  0  0  0  0  0  0  0  0
  148.9847  139.3848  154.1963 C   0  0  0  0  0  0  0  0  0  0  0  0
  146.5829  138.0933  153.7644 H   0  0  0  0  0  0  0  0  0  0  0  0
  147.7196  137.7492  152.4545 H   0  0  0  0  0  0  0  0  0  0  0  0
  146.3223  138.7800  152.1558 H   0  0  0  0  0  0  0  0  0  0  0  0
  146.2912  141.0888  153.0584 H   0  0  0  0  0  0  0  0  0  0  0  0
  146.5199  140.4746  154.6871 H   0  0  0  0  0  0  0  0  0  0  0  0
  148.3749  142.4460  153.2268 H   0  0  0  0  0  0  0  0  0  0  0  0
  147.3232  142.8125  154.5808 H   0  0  0  0  0  0  0  0  0  0  0  0
  150.2723  141.0163  153.5894 H   0  0  0  0  0  0  0  0  0  0  0  0
  151.2236  139.3175  155.4818 H   0  0  0  0  0  0  0  0  0  0  0  0
  151.7874  140.9720  155.3290 H   0  0  0  0  0  0  0  0  0  0  0  0
  149.5134  140.4513  157.1509 H   0  0  0  0  0  0  0  0  0  0  0  0
  153.7141  140.2443  159.8492 H   0  0  0  0  0  0  0  0  0  0  0  0
  153.4851  142.6539  160.5787 H   0  0  0  0  0  0  0  0  0  0  0  0
  148.5742  138.9656  155.1167 H   0  0  0  0  0  0  0  0  0  0  0  0
  149.6245  138.6200  153.7538 H   0  0  0  0  0  0  0  0  0  0  0  0
  148.3074  140.0460  152.4134 H   0  0  0  0  0  0  0  0  0  0  0  0
  1  2  1  0  0  0  0
  1 20  1  0  0  0  0
  1 21  1  0  0  0  0
  1 22  1  0  0  0  0
  2 19  1  0  0  0  0
  2  3  1  0  0  0  0
  2 35  1  0  0  0  0
  3  4  1  0  0  0  0
  3 23  1  0  0  0  0
  3 24  1  0  0  0  0
  4  5  1  0  0  0  0
  4 25  1  0  0  0  0
  4 26  1  0  0  0  0
  5  6  1  0  0  0  0
  6  7  1  0  0  0  0
  6 19  1  0  0  0  0
  6 27  1  0  0  0  0
  7  8  1  0  0  0  0
  7 28  1  0  0  0  0
  7 29  1  0  0  0  0
  8  9  1  0  0  0  0
  8 30  1  0  0  0  0
  9 18  1  0  0  0  0
  9 10  2  0  0  0  0
 10 11  1  0  0  0  0
 11 12  2  0  0  0  0
 11 31  1  0  0  0  0
 12 13  1  0  0  0  0
 12 32  1  0  0  0  0
 13 14  1  0  0  0  0
 13 18  2  0  0  0  0
 14 15  1  0  0  0  0
 14 16  1  0  0  0  0
 14 17  1  0  0  0  0
 19 33  1  0  0  0  0
 19 34  1  0  0  0  0
M  CHG  1   2   1
M  END
> <s_m_source_file>
AV-unprocessed.smi

> <i_m_source_file_index>
1144

> <i_lp_mmshare_version>
43012

> <i_f3d_flags>
0

> <s_epik_input>
W0NIM11OMVtDSDJdW0NIMl1PW0NASF0oW0NIMl0xKVtDSDJdW05IXWMybltjSF1bY0hdYyhuMilDKEYpKEYpRg==

> <s_epik_cmdline>
J2VwaWtfcHl0aG9uJywgJy1waCcsICc3LjAnLCAnLXRuJywgJzgnLCAnLW1hJywgJzIwMCcsICctbWV0YWxfYmluZGluZycsICctaW1hZScsICc8aW5maWxlLm1hZT4nLCAnLW9tYWUnLCAnPG91dGZpbGUubWFlPic=

> <r_lp_tautomer_probability>
1

> <r_epik_Ionization_Penalty>
0.178506

> <r_epik_Ionization_Penalty_Charging>
0.178504

> <r_epik_Ionization_Penalty_Neutral>
2.47225e-06

> <r_epik_State_Penalty>
0.167974

> <r_epik_Charging_Adjusted_Penalty>
0.346478

> <i_epik_Tot_Q>
1

> <i_epik_Tot_abs_Q>
1

> <r_epik_Metal_State_Penalty>
0.167974

> <b_epik_Metal_Only>
0

> <s_lp_Force_Field>
OPLS_2005

> <r_lp_Energy>
9.30015

> <b_lp_Chiralities_Consistent>
1

> <s_lp_Variant>
AV-unprocessed.smi:1144-1

> <Gold.Version>
5.8.1

> <Gold.Id.Protein>
6NUR|6NUR_protein|mol2

> <Gold.PLP.Fitness>
40.8114

> <Gold.PLP.PLP>
-41.3681

> <Gold.PLP.part.hbond>
-1.0000

> <Gold.PLP.part.metal>
0.0000

> <Gold.PLP.part.buried>
-2.7401

> <Gold.PLP.part.nonpolar>
-36.7157

> <Gold.PLP.part.repulsive>
0.2794

> <Gold.PLP.ligand.clash>
0.0000

> <Gold.PLP.ligand.torsion>
1.7991

> <Gold.PLP.Chemscore.Hbond>
1.0000

> <Gold.PLP.Chemscore.CHOScore>
0.0000

> <Gold.PLP.Chemscore.Metal>
0.0000

> <Gold.Chemscore.Hbonds>
donor molecule, donor type, donor heavy atom, donor atom, acceptor molecule, acceptor atom, score
      L1  H     2    35       P1  7957  1.00

> <Gold.PLP.Chemscore.Internal.Correction>
0.0416

> <Gold.Rescore>
     Score         DG    S(hbond)    S(metal)    S(lipo)     H(rot)  DE(clash)    DE(int)     intcor
     12.89     -14.72       1.00        0.00      79.77       1.34       0.56       1.27       ----

> <Gold.Chemscore.Fitness>
12.8910

> <Gold.Chemscore.DG>
-14.7196

> <Gold.Chemscore.ZeroCoef>
-5.4800

> <Gold.Chemscore.Hbond>
0.9975

> <Gold.Chemscore.Metal>
0.0000

> <Gold.Chemscore.Lipo>
79.7677

> <Gold.Chemscore.Internal_Hbond>
0.0000

> <Gold.Chemscore.DEClash>
0.5574

> <Gold.Chemscore.DEInternal>
1.2712

> <Gold.Chemscore.Rot>
1.3379

> <Gold.Chemscore.Internal.Correction>
   9.000000E+99

> <Gold.Chemscore.Hbonds>
donor molecule, donor type, donor heavy atom, donor atom, acceptor molecule, acceptor atom, score
      L1  H     2    35       P1  7957  0.97

> <Gold.Chemscore.Hbond.Weighted>
-3.3318

> <Gold.Chemscore.Metal.Weighted>
-0.0000

> <Gold.Chemscore.Lipo.Weighted>
-9.3328

> <Gold.Chemscore.Internal_Hbond.Weighted>
0.0000

> <Gold.Chemscore.DEClash.Weighted>
0.5574

> <Gold.Chemscore.DEInternal.Weighted>
1.2712

> <Gold.Chemscore.Rot.Weighted>
3.4250

> <Gold.Chemscore.Internal.Correction.Weighted>
   9.000000E+99

> <Gold.Protein.RotatedTorsions>
[ 6907 6896 6895 6894 ] final   55.55 input  -60.11 | X-H torsion
[ 7974 7965 7964 7962 ] final -174.72 input  175.53 | X-H torsion
[ 8008 7997 7996 7995 ] final  165.48 input   59.86 | X-H torsion
[ 10167 10162 10161 10158 ] final  -86.51 input  -65.29 | X-H torsion
[ 10718 10713 10712 10709 ] final   29.79 input   66.30 | X-H torsion
[ 10763 10752 10751 10750 ] final   23.06 input  -60.55 | X-H torsion
[ 11005 11000 10999 10996 ] final -159.35 input  -57.11 | X-H torsion

> <Gold.Protein.ActiveResidues>
 VAL166  LYS551  ARG553  GLY616  TRP617  ASP618  TYR619  PRO620  LYS621  CYS622 
 ASP623  PHE694  ASN695  SER759  ASP760  ASP761  ALA762  ILE779  LEU786  VAL792 
 PHE793  MET794  SER795  GLU796  ALA797  LYS798  CYS799  TRP800  GLU811  SER814 

> <Gold.Protein.RotatedAtoms>
  152.3549  134.6953  160.0224 H   0  0  0  0  0  0  0  0  0  0  0  0  # atno 6907 bound_to 6896
  151.7295  133.3312  159.3344 H   0  0  0  0  0  0  0  0  0  0  0  0  # atno 6908 bound_to 6896
  150.7565  134.6309  159.6230 H   0  0  0  0  0  0  0  0  0  0  0  0  # atno 6909 bound_to 6896
  144.7130  140.1429  143.6390 H   0  0  0  0  0  0  0  0  0  0  0  0  # atno 7974 bound_to 7965
  156.1797  140.1669  156.8297 H   0  0  0  0  0  0  0  0  0  0  0  0  # atno 8008 bound_to 7997
  154.5346  140.0749  156.8438 H   0  0  0  0  0  0  0  0  0  0  0  0  # atno 8009 bound_to 7997
  155.3337  140.3380  155.4241 H   0  0  0  0  0  0  0  0  0  0  0  0  # atno 8010 bound_to 7997
  140.3934  143.2694  151.9235 H   0  0  0  0  0  0  0  0  0  0  0  0  # atno 10167 bound_to 10162
  157.2511  130.7115  149.6406 H   0  0  0  0  0  0  0  0  0  0  0  0  # atno 10718 bound_to 10713
  153.0867  135.6635  153.9935 H   0  0  0  0  0  0  0  0  0  0  0  0  # atno 10763 bound_to 10752
  153.9543  135.2980  155.3438 H   0  0  0  0  0  0  0  0  0  0  0  0  # atno 10764 bound_to 10752
  154.7276  135.5137  153.8984 H   0  0  0  0  0  0  0  0  0  0  0  0  # atno 10765 bound_to 10752
  140.6435  134.4526  157.5234 H   0  0  0  0  0  0  0  0  0  0  0  0  # atno 11005 bound_to 11000
  145.9185  139.2531  143.1395 LP  0  0  0  0  0  0  0  0  0  0  0  0  # atno 17320 bound_to 7965
  145.9644  140.8810  143.0194 LP  0  0  0  0  0  0  0  0  0  0  0  0  # atno 17321 bound_to 7965
  139.4788  144.5705  151.8096 LP  0  0  0  0  0  0  0  0  0  0  0  0  # atno 17342 bound_to 10162
  140.4815  144.1442  150.5933 LP  0  0  0  0  0  0  0  0  0  0  0  0  # atno 17343 bound_to 10162
  155.9666  130.4427  150.5392 LP  0  0  0  0  0  0  0  0  0  0  0  0  # atno 17370 bound_to 10713
  157.3276  131.0693  151.1885 LP  0  0  0  0  0  0  0  0  0  0  0  0  # atno 17371 bound_to 10713
  139.9071  134.8425  156.1664 LP  0  0  0  0  0  0  0  0  0  0  0  0  # atno 17394 bound_to 11000
  141.0589  133.6851  156.1914 LP  0  0  0  0  0  0  0  0  0  0  0  0  # atno 17395 bound_to 11000

$$$$
