AV-unprocessed.smi:893|AV-procd|sdf|4069|dock2
  -GOLD-   22720 1553D 1   1.00000     0.00000
 Structure written by MMmdl.
 26 27  0  0  0  0  0  0  0  0  2 V2000
  150.4954  137.6820  158.3260 C   0  0  0  0  0  0  0  0  0  0  0  0
  150.7497  139.0730  158.9286 C   0  0  0  0  0  0  0  0  0  0  0  0
  151.5243  140.0367  157.9963 C   0  0  2  0  0  0  0  0  0  0  0  0
  151.8686  141.3508  158.6758 C   0  0  0  0  0  0  0  0  0  0  0  0
  152.6471  141.5656  159.8520 C   0  0  0  0  0  0  0  0  0  0  0  0
  152.7566  142.8432  160.1779 N   0  0  0  0  0  0  0  0  0  0  0  0
  152.0522  143.4909  159.2290 N   0  0  0  0  0  0  0  0  0  0  0  0
  151.9494  144.9336  159.2769 C   0  0  0  0  0  0  0  0  0  0  0  0
  151.5089  142.6197  158.3108 C   0  0  0  0  0  0  0  0  0  0  0  0
  150.8046  140.2323  156.7533 N   0  0  0  0  0  0  0  0  0  0  0  0
  151.5133  139.8141  155.7062 C   0  0  0  0  0  0  0  0  0  0  0  0
  151.0834  139.9028  154.5585 O   0  0  0  0  0  0  0  0  0  0  0  0
  152.6952  139.3135  156.1156 N   0  5  0  0  0  0  0  0  0  0  0  0
  152.8065  139.3854  157.4602 C   0  0  0  0  0  0  0  0  0  0  0  0
  153.7192  139.0174  158.1997 O   0  0  0  0  0  0  0  0  0  0  0  0
  149.9434  137.0550  159.0263 H   0  0  0  0  0  0  0  0  0  0  0  0
  151.4301  137.1713  158.0937 H   0  0  0  0  0  0  0  0  0  0  0  0
  149.9099  137.7444  157.4087 H   0  0  0  0  0  0  0  0  0  0  0  0
  149.7908  139.5170  159.2001 H   0  0  0  0  0  0  0  0  0  0  0  0
  151.2947  138.9496  159.8661 H   0  0  0  0  0  0  0  0  0  0  0  0
  153.1351  140.8319  160.4767 H   0  0  0  0  0  0  0  0  0  0  0  0
  151.3343  145.2924  158.4511 H   0  0  0  0  0  0  0  0  0  0  0  0
  152.9423  145.3771  159.1993 H   0  0  0  0  0  0  0  0  0  0  0  0
  151.4919  145.2397  160.2183 H   0  0  0  0  0  0  0  0  0  0  0  0
  150.9117  142.9672  157.4805 H   0  0  0  0  0  0  0  0  0  0  0  0
  149.8844  140.6434  156.7015 H   0  0  0  0  0  0  0  0  0  0  0  0
  1  2  1  0  0  0  0
  1 16  1  0  0  0  0
  1 17  1  0  0  0  0
  1 18  1  0  0  0  0
  2  3  1  0  0  0  0
  2 19  1  0  0  0  0
  2 20  1  0  0  0  0
  3 14  1  0  0  0  0
  3  4  1  0  0  0  0
  3 10  1  0  0  0  0
  4  9  2  0  0  0  0
  4  5  1  0  0  0  0
  5  6  2  0  0  0  0
  5 21  1  0  0  0  0
  6  7  1  0  0  0  0
  7  8  1  0  0  0  0
  7  9  1  0  0  0  0
  8 22  1  0  0  0  0
  8 23  1  0  0  0  0
  8 24  1  0  0  0  0
  9 25  1  0  0  0  0
 10 11  1  0  0  0  0
 10 26  1  0  0  0  0
 11 12  2  0  0  0  0
 11 13  1  0  0  0  0
 13 14  1  0  0  0  0
 14 15  2  0  0  0  0
M  CHG  1  13  -1
M  END
> <s_m_source_file>
AV-unprocessed.smi

> <i_m_source_file_index>
893

> <i_lp_mmshare_version>
43012

> <i_f3d_flags>
0

> <s_epik_input>
Tz1DMVtOSF1DKD1PKVtOSF1bQ0BAXTEoW0NIMl1bQ0gzXSljMltjSF1ubihbQ0gzXSlbY0hdMg==

> <s_epik_cmdline>
J2VwaWtfcHl0aG9uJywgJy1waCcsICc3LjAnLCAnLXRuJywgJzgnLCAnLW1hJywgJzIwMCcsICctbWV0YWxfYmluZGluZycsICctaW1hZScsICc8aW5maWxlLm1hZT4nLCAnLW9tYWUnLCAnPG91dGZpbGUubWFlPic=

> <r_lp_tautomer_probability>
1

> <r_epik_Ionization_Penalty>
1.92579

> <r_epik_Ionization_Penalty_Charging>
1.92573

> <r_epik_Ionization_Penalty_Neutral>
5.85665e-05

> <r_epik_State_Penalty>
2.04887

> <r_epik_Charging_Adjusted_Penalty>
3.97461

> <i_epik_Tot_Q>
-1

> <i_epik_Tot_abs_Q>
1

> <r_epik_Metal_State_Penalty>
0.530533

> <b_epik_Metal_Only>
0

> <s_lp_Force_Field>
OPLS_2005

> <r_lp_Energy>
5.94643

> <b_lp_Chiralities_Consistent>
1

> <s_lp_Variant>
AV-unprocessed.smi:893-4

> <Gold.Version>
5.8.1

> <Gold.Id.Protein>
6NUR|6NUR_protein|mol2

> <Gold.PLP.Fitness>
33.8924

> <Gold.PLP.PLP>
-26.4362

> <Gold.PLP.part.hbond>
-3.0000

> <Gold.PLP.part.metal>
0.0000

> <Gold.PLP.part.buried>
-2.6291

> <Gold.PLP.part.nonpolar>
-21.4825

> <Gold.PLP.part.repulsive>
0.1510

> <Gold.PLP.ligand.clash>
0.0000

> <Gold.PLP.ligand.torsion>
0.0774

> <Gold.PLP.Chemscore.Hbond>
2.4953

> <Gold.PLP.Chemscore.CHOScore>
0.0000

> <Gold.PLP.Chemscore.Metal>
0.0000

> <Gold.Chemscore.Hbonds>
donor molecule, donor type, donor heavy atom, donor atom, acceptor molecule, acceptor atom, score
      P1  H  7989  7998       L1    12  1.00
      P1  H  7997  8008       L1    13  0.72
      P1  H  7997  8010       L1    15  0.63

> <Gold.PLP.Chemscore.Internal.Correction>
0.1253

> <Gold.Rescore>
     Score         DG    S(hbond)    S(metal)    S(lipo)     H(rot)  DE(clash)    DE(int)     intcor
     11.84     -12.32       1.19        0.00      52.56       1.28       0.40       0.08       ----

> <Gold.Chemscore.Fitness>
11.8441

> <Gold.Chemscore.DG>
-12.3223

> <Gold.Chemscore.ZeroCoef>
-5.4800

> <Gold.Chemscore.Hbond>
1.1890

> <Gold.Chemscore.Metal>
0.0000

> <Gold.Chemscore.Lipo>
52.5570

> <Gold.Chemscore.Internal_Hbond>
0.0000

> <Gold.Chemscore.DEClash>
0.3991

> <Gold.Chemscore.DEInternal>
0.0790

> <Gold.Chemscore.Rot>
1.2805

> <Gold.Chemscore.Internal.Correction>
   9.000000E+99

> <Gold.Chemscore.Hbonds>
donor molecule, donor type, donor heavy atom, donor atom, acceptor molecule, acceptor atom, score
      P1  H  7989  7998       L1    12  0.93
      P1  H  7997  8008       L1    13  0.04
      P1  H  7997  8010       L1    15  0.11

> <Gold.Chemscore.Hbond.Weighted>
-3.9713

> <Gold.Chemscore.Metal.Weighted>
-0.0000

> <Gold.Chemscore.Lipo.Weighted>
-6.1492

> <Gold.Chemscore.Internal_Hbond.Weighted>
0.0000

> <Gold.Chemscore.DEClash.Weighted>
0.3991

> <Gold.Chemscore.DEInternal.Weighted>
0.0790

> <Gold.Chemscore.Rot.Weighted>
3.2782

> <Gold.Chemscore.Internal.Correction.Weighted>
   9.000000E+99

> <Gold.Protein.RotatedTorsions>
[ 6907 6896 6895 6894 ] final   23.23 input  -60.11 | X-H torsion
[ 7974 7965 7964 7962 ] final  175.18 input  175.53 | X-H torsion
[ 8008 7997 7996 7995 ] final   -4.72 input   59.86 | X-H torsion
[ 10167 10162 10161 10158 ] final  103.03 input  -65.29 | X-H torsion
[ 10718 10713 10712 10709 ] final   19.23 input   66.30 | X-H torsion
[ 10763 10752 10751 10750 ] final  125.51 input  -60.55 | X-H torsion
[ 11005 11000 10999 10996 ] final   14.66 input  -57.11 | X-H torsion

> <Gold.Protein.ActiveResidues>
 VAL166  LYS551  ARG553  GLY616  TRP617  ASP618  TYR619  PRO620  LYS621  CYS622 
 ASP623  PHE694  ASN695  SER759  ASP760  ASP761  ALA762  ILE779  LEU786  VAL792 
 PHE793  MET794  SER795  GLU796  ALA797  LYS798  CYS799  TRP800  GLU811  SER814 

> <Gold.Protein.RotatedAtoms>
  151.9393  135.0221  160.0534 H   0  0  0  0  0  0  0  0  0  0  0  0  # atno 6907 bound_to 6896
  152.2050  133.4864  159.5087 H   0  0  0  0  0  0  0  0  0  0  0  0  # atno 6908 bound_to 6896
  150.6963  134.1457  159.4164 H   0  0  0  0  0  0  0  0  0  0  0  0  # atno 6909 bound_to 6896
  144.7207  139.9908  143.6440 H   0  0  0  0  0  0  0  0  0  0  0  0  # atno 7974 bound_to 7965
  154.6114  140.2477  155.7664 H   0  0  0  0  0  0  0  0  0  0  0  0  # atno 8008 bound_to 7997
  156.2373  140.2945  156.0296 H   0  0  0  0  0  0  0  0  0  0  0  0  # atno 8009 bound_to 7997
  155.2046  140.0395  157.2913 H   0  0  0  0  0  0  0  0  0  0  0  0  # atno 8010 bound_to 7997
  139.7298  144.7039  151.0740 H   0  0  0  0  0  0  0  0  0  0  0  0  # atno 10167 bound_to 10162
  157.1076  130.6495  149.5889 H   0  0  0  0  0  0  0  0  0  0  0  0  # atno 10718 bound_to 10713
  153.6785  135.3318  155.3172 H   0  0  0  0  0  0  0  0  0  0  0  0  # atno 10763 bound_to 10752
  154.8472  135.4403  154.1631 H   0  0  0  0  0  0  0  0  0  0  0  0  # atno 10764 bound_to 10752
  153.2641  135.6994  153.7624 H   0  0  0  0  0  0  0  0  0  0  0  0  # atno 10765 bound_to 10752
  140.4671  134.1069  155.7726 H   0  0  0  0  0  0  0  0  0  0  0  0  # atno 11005 bound_to 11000
  146.0413  139.3424  143.0695 LP  0  0  0  0  0  0  0  0  0  0  0  0  # atno 17320 bound_to 7965
  145.8331  140.9620  143.0838 LP  0  0  0  0  0  0  0  0  0  0  0  0  # atno 17321 bound_to 7965
  140.7769  143.5058  150.9714 LP  0  0  0  0  0  0  0  0  0  0  0  0  # atno 17342 bound_to 10162
  139.8746  143.7149  152.3163 LP  0  0  0  0  0  0  0  0  0  0  0  0  # atno 17343 bound_to 10162
  155.9858  130.4890  150.7050 LP  0  0  0  0  0  0  0  0  0  0  0  0  # atno 17370 bound_to 10713
  157.4587  131.0881  151.0769 LP  0  0  0  0  0  0  0  0  0  0  0  0  # atno 17371 bound_to 10713
  141.1594  133.8821  157.1888 LP  0  0  0  0  0  0  0  0  0  0  0  0  # atno 17394 bound_to 11000
  139.9909  135.0065  156.9972 LP  0  0  0  0  0  0  0  0  0  0  0  0  # atno 17395 bound_to 11000

$$$$
