AV-unprocessed.smi:1088|AV-procd|sdf|4729|dock5
  -GOLD-   22720 3263D 1   1.00000     0.00000
 Structure written by MMmdl.
 48 49  0  0  0  0  0  0  0  0  2 V2000
  152.0036  143.9631  159.7559 C   0  0  0  0  0  0  0  0  0  0  0  0
  151.0612  142.9365  159.4997 O   0  0  0  0  0  0  0  0  0  0  0  0
  150.7954  142.7758  158.1164 C   0  0  0  0  0  0  0  0  0  0  0  0
  149.4426  142.0660  157.9462 C   0  0  0  0  0  0  0  0  0  0  0  0
  148.8660  142.2526  156.5869 N   0  3  1  0  0  0  0  0  0  0  0  0
  149.6470  141.6115  155.5014 C   0  0  0  0  0  0  0  0  0  0  0  0
  148.6467  141.2833  154.3991 C   0  0  0  0  0  0  0  0  0  0  0  0
  147.4046  140.9160  155.1937 C   0  0  0  0  0  0  0  0  0  0  0  0
  147.4286  141.8924  156.3809 C   0  0  1  0  0  0  0  0  0  0  0  0
  146.6562  141.3868  157.6260 C   0  0  0  0  0  0  0  0  0  0  0  0
  145.5795  142.3014  157.9955 N   0  0  0  0  0  0  0  0  0  0  0  0
  145.4982  142.9804  159.1500 C   0  0  0  0  0  0  0  0  0  0  0  0
  146.3728  142.9481  160.0164 O   0  0  0  0  0  0  0  0  0  0  0  0
  144.2334  143.8246  159.3532 C   0  0  0  0  0  0  0  0  0  0  0  0
  144.0626  144.8436  158.3091 N   0  0  0  0  0  0  0  0  0  0  0  0
  144.2137  146.1815  158.6252 C   0  0  0  0  0  0  0  0  0  0  0  0
  144.0508  147.1808  157.7311 C   0  0  0  0  0  0  0  0  0  0  0  0
  143.6996  146.8955  156.3455 C   0  0  0  0  0  0  0  0  0  0  0  0
  143.5157  147.7742  155.5023 O   0  0  0  0  0  0  0  0  0  0  0  0
  143.5696  145.5194  156.0435 N   0  0  0  0  0  0  0  0  0  0  0  0
  143.1956  145.1612  154.6907 C   0  0  0  0  0  0  0  0  0  0  0  0
  143.7249  144.4785  156.9872 C   0  0  0  0  0  0  0  0  0  0  0  0
  143.5643  143.2923  156.6884 O   0  0  0  0  0  0  0  0  0  0  0  0
  152.1682  144.0501  160.8296 H   0  0  0  0  0  0  0  0  0  0  0  0
  151.6460  144.9271  159.3916 H   0  0  0  0  0  0  0  0  0  0  0  0
  152.9630  143.7446  159.2850 H   0  0  0  0  0  0  0  0  0  0  0  0
  150.8080  143.7392  157.6048 H   0  0  0  0  0  0  0  0  0  0  0  0
  151.5802  142.1668  157.6652 H   0  0  0  0  0  0  0  0  0  0  0  0
  149.5593  141.0011  158.1517 H   0  0  0  0  0  0  0  0  0  0  0  0
  148.7633  142.4670  158.6978 H   0  0  0  0  0  0  0  0  0  0  0  0
  150.4515  142.2578  155.1487 H   0  0  0  0  0  0  0  0  0  0  0  0
  150.0945  140.6849  155.8653 H   0  0  0  0  0  0  0  0  0  0  0  0
  148.4539  142.1661  153.7877 H   0  0  0  0  0  0  0  0  0  0  0  0
  148.9845  140.4808  153.7428 H   0  0  0  0  0  0  0  0  0  0  0  0
  146.4905  140.9878  154.6035 H   0  0  0  0  0  0  0  0  0  0  0  0
  147.4956  139.8876  155.5467 H   0  0  0  0  0  0  0  0  0  0  0  0
  146.9516  142.8164  156.0505 H   0  0  0  0  0  0  0  0  0  0  0  0
  146.2644  140.3816  157.4619 H   0  0  0  0  0  0  0  0  0  0  0  0
  147.3222  141.3268  158.4864 H   0  0  0  0  0  0  0  0  0  0  0  0
  144.8187  142.3980  157.3384 H   0  0  0  0  0  0  0  0  0  0  0  0
  143.3745  143.1525  159.3693 H   0  0  0  0  0  0  0  0  0  0  0  0
  144.2539  144.3029  160.3343 H   0  0  0  0  0  0  0  0  0  0  0  0
  144.4681  146.4460  159.6413 H   0  0  0  0  0  0  0  0  0  0  0  0
  144.1769  148.2062  158.0464 H   0  0  0  0  0  0  0  0  0  0  0  0
  143.5829  144.1707  154.4492 H   0  0  0  0  0  0  0  0  0  0  0  0
  143.6388  145.8731  153.9928 H   0  0  0  0  0  0  0  0  0  0  0  0
  142.1061  145.1847  154.6477 H   0  0  0  0  0  0  0  0  0  0  0  0
  148.9097  143.2460  156.4085 H   0  0  0  0  0  0  0  0  0  0  0  0
  1  2  1  0  0  0  0
  1 24  1  0  0  0  0
  1 25  1  0  0  0  0
  1 26  1  0  0  0  0
  2  3  1  0  0  0  0
  3  4  1  0  0  0  0
  3 27  1  0  0  0  0
  3 28  1  0  0  0  0
  4  5  1  0  0  0  0
  4 29  1  0  0  0  0
  4 30  1  0  0  0  0
  5  9  1  0  0  0  0
  5  6  1  0  0  0  0
  5 48  1  0  0  0  0
  6  7  1  0  0  0  0
  6 31  1  0  0  0  0
  6 32  1  0  0  0  0
  7  8  1  0  0  0  0
  7 33  1  0  0  0  0
  7 34  1  0  0  0  0
  8  9  1  0  0  0  0
  8 35  1  0  0  0  0
  8 36  1  0  0  0  0
  9 10  1  0  0  0  0
  9 37  1  0  0  0  0
 10 11  1  0  0  0  0
 10 38  1  0  0  0  0
 10 39  1  0  0  0  0
 11 12  1  0  0  0  0
 11 40  1  0  0  0  0
 12 13  2  0  0  0  0
 12 14  1  0  0  0  0
 14 15  1  0  0  0  0
 14 41  1  0  0  0  0
 14 42  1  0  0  0  0
 15 22  1  0  0  0  0
 15 16  1  0  0  0  0
 16 17  2  0  0  0  0
 16 43  1  0  0  0  0
 17 18  1  0  0  0  0
 17 44  1  0  0  0  0
 18 19  2  0  0  0  0
 18 20  1  0  0  0  0
 20 21  1  0  0  0  0
 20 22  1  0  0  0  0
 21 45  1  0  0  0  0
 21 46  1  0  0  0  0
 21 47  1  0  0  0  0
 22 23  2  0  0  0  0
M  CHG  1   5   1
M  END
> <s_m_source_file>
AV-unprocessed.smi

> <i_m_source_file_index>
1088

> <i_lp_mmshare_version>
43012

> <i_f3d_flags>
0

> <s_epik_input>
W0NIM11PW0NIMl1bQ0gyXU4xW0NIMl1bQ0gyXVtDSDJdW0NASF0xW0NIMl1bTkhdQyg9TylbQ0gyXW4yW2NIXVtjSF1jKD1PKW4oW0NIM10pYzI9Tw==

> <s_epik_cmdline>
J2VwaWtfcHl0aG9uJywgJy1waCcsICc3LjAnLCAnLXRuJywgJzgnLCAnLW1hJywgJzIwMCcsICctbWV0YWxfYmluZGluZycsICctaW1hZScsICc8aW5maWxlLm1hZT4nLCAnLW9tYWUnLCAnPG91dGZpbGUubWFlPic=

> <r_lp_tautomer_probability>
1

> <r_epik_Ionization_Penalty>
0.0127388

> <r_epik_Ionization_Penalty_Charging>
0.0127387

> <r_epik_Ionization_Penalty_Neutral>
8.26414e-08

> <r_epik_State_Penalty>
0.00987716

> <r_epik_Charging_Adjusted_Penalty>
0.0226159

> <i_epik_Tot_Q>
1

> <i_epik_Tot_abs_Q>
1

> <r_epik_Metal_State_Penalty>
0.00987836

> <b_epik_Metal_Only>
0

> <s_lp_Force_Field>
OPLS_2005

> <r_lp_Energy>
40.5069

> <b_lp_Chiralities_Consistent>
1

> <s_lp_Variant>
AV-unprocessed.smi:1088-2

> <Gold.Version>
5.8.1

> <Gold.Id.Protein>
6NUR|6NUR_protein|mol2

> <Gold.PLP.Fitness>
45.6403

> <Gold.PLP.PLP>
-36.2671

> <Gold.PLP.part.hbond>
-4.0000

> <Gold.PLP.part.metal>
0.0000

> <Gold.PLP.part.buried>
-7.6071

> <Gold.PLP.part.nonpolar>
-26.3155

> <Gold.PLP.part.repulsive>
0.2637

> <Gold.PLP.ligand.clash>
0.0000

> <Gold.PLP.ligand.torsion>
1.0881

> <Gold.PLP.Chemscore.Hbond>
3.7776

> <Gold.PLP.Chemscore.CHOScore>
0.0000

> <Gold.PLP.Chemscore.Metal>
0.0000

> <Gold.Chemscore.Hbonds>
donor molecule, donor type, donor heavy atom, donor atom, acceptor molecule, acceptor atom, score
      L1  H     5    48       P1  8028  2.00
      P1  H  6934  6946       L1    13  0.42

> <Gold.PLP.Chemscore.Internal.Correction>
0.2166

> <Gold.Rescore>
     Score         DG    S(hbond)    S(metal)    S(lipo)     H(rot)  DE(clash)    DE(int)     intcor
     12.95     -15.62       2.62        0.00      68.02       2.57       0.02       2.64       ----

> <Gold.Chemscore.Fitness>
12.9527

> <Gold.Chemscore.DG>
-15.6188

> <Gold.Chemscore.ZeroCoef>
-5.4800

> <Gold.Chemscore.Hbond>
2.6220

> <Gold.Chemscore.Metal>
0.0000

> <Gold.Chemscore.Lipo>
68.0205

> <Gold.Chemscore.Internal_Hbond>
0.0000

> <Gold.Chemscore.DEClash>
0.0212

> <Gold.Chemscore.DEInternal>
2.6449

> <Gold.Chemscore.Rot>
2.5692

> <Gold.Chemscore.Internal.Correction>
   9.000000E+99

> <Gold.Chemscore.Hbonds>
donor molecule, donor type, donor heavy atom, donor atom, acceptor molecule, acceptor atom, score
      L1  H     5    48       P1  8028  0.97
      P1  H  6934  6946       L1    13  0.37

> <Gold.Chemscore.Hbond.Weighted>
-8.7575

> <Gold.Chemscore.Metal.Weighted>
-0.0000

> <Gold.Chemscore.Lipo.Weighted>
-7.9584

> <Gold.Chemscore.Internal_Hbond.Weighted>
0.0000

> <Gold.Chemscore.DEClash.Weighted>
0.0212

> <Gold.Chemscore.DEInternal.Weighted>
2.6449

> <Gold.Chemscore.Rot.Weighted>
6.5772

> <Gold.Chemscore.Internal.Correction.Weighted>
   9.000000E+99

> <Gold.Protein.RotatedTorsions>
[ 6907 6896 6895 6894 ] final   -5.59 input  -60.11 | X-H torsion
[ 7974 7965 7964 7962 ] final   88.76 input  175.53 | X-H torsion
[ 8008 7997 7996 7995 ] final  -67.21 input   59.86 | X-H torsion
[ 10167 10162 10161 10158 ] final -160.63 input  -65.29 | X-H torsion
[ 10718 10713 10712 10709 ] final -131.41 input   66.30 | X-H torsion
[ 10763 10752 10751 10750 ] final -140.45 input  -60.55 | X-H torsion
[ 11005 11000 10999 10996 ] final   40.96 input  -57.11 | X-H torsion

> <Gold.Protein.ActiveResidues>
 VAL166  LYS551  ARG553  GLY616  TRP617  ASP618  TYR619  PRO620  LYS621  CYS622 
 ASP623  PHE694  ASN695  SER759  ASP760  ASP761  ALA762  ILE779  LEU786  VAL792 
 PHE793  MET794  SER795  GLU796  ALA797  LYS798  CYS799  TRP800  GLU811  SER814 

> <Gold.Protein.RotatedAtoms>
  151.4792  135.1051  159.9772 H   0  0  0  0  0  0  0  0  0  0  0  0  # atno 6907 bound_to 6896
  152.4786  133.8195  159.7056 H   0  0  0  0  0  0  0  0  0  0  0  0  # atno 6908 bound_to 6896
  150.8841  133.7270  159.2950 H   0  0  0  0  0  0  0  0  0  0  0  0  # atno 6909 bound_to 6896
  145.5414  139.2289  143.2563 H   0  0  0  0  0  0  0  0  0  0  0  0  # atno 7974 bound_to 7965
  154.4785  140.0897  156.7320 H   0  0  0  0  0  0  0  0  0  0  0  0  # atno 8008 bound_to 7997
  155.4533  140.3458  155.4285 H   0  0  0  0  0  0  0  0  0  0  0  0  # atno 8009 bound_to 7997
  156.1154  140.1459  156.9268 H   0  0  0  0  0  0  0  0  0  0  0  0  # atno 8010 bound_to 7997
  139.6525  144.0058  152.2171 H   0  0  0  0  0  0  0  0  0  0  0  0  # atno 10167 bound_to 10162
  156.2241  130.6997  151.0788 H   0  0  0  0  0  0  0  0  0  0  0  0  # atno 10718 bound_to 10713
  154.8578  135.3553  154.5709 H   0  0  0  0  0  0  0  0  0  0  0  0  # atno 10763 bound_to 10752
  153.6322  135.7002  153.5276 H   0  0  0  0  0  0  0  0  0  0  0  0  # atno 10764 bound_to 10752
  153.3040  135.4198  155.1237 H   0  0  0  0  0  0  0  0  0  0  0  0  # atno 10765 bound_to 10752
  140.1880  134.4021  155.8162 H   0  0  0  0  0  0  0  0  0  0  0  0  # atno 11005 bound_to 11000
  146.1978  140.6234  142.9116 LP  0  0  0  0  0  0  0  0  0  0  0  0  # atno 17320 bound_to 7965
  144.7575  140.5342  143.6759 LP  0  0  0  0  0  0  0  0  0  0  0  0  # atno 17321 bound_to 7965
  139.9776  144.6450  150.7930 LP  0  0  0  0  0  0  0  0  0  0  0  0  # atno 17342 bound_to 10162
  140.7544  143.3026  151.3041 LP  0  0  0  0  0  0  0  0  0  0  0  0  # atno 17343 bound_to 10162
  157.7102  131.0738  150.6527 LP  0  0  0  0  0  0  0  0  0  0  0  0  # atno 17370 bound_to 10713
  156.6592  130.4507  149.5693 LP  0  0  0  0  0  0  0  0  0  0  0  0  # atno 17371 bound_to 10713
  141.2225  133.7032  156.8047 LP  0  0  0  0  0  0  0  0  0  0  0  0  # atno 17394 bound_to 11000
  140.2191  134.8770  157.3358 LP  0  0  0  0  0  0  0  0  0  0  0  0  # atno 17395 bound_to 11000

$$$$
