AV-unprocessed.smi:557|AV-procd|sdf|2921|dock3
  -GOLD-   2262023413D 1   1.00000     0.00000
 Structure written by MMmdl.
 47 49  0  0  0  0  0  0  0  0  2 V2000
  152.4098  142.6709  160.4062 C   0  0  0  0  0  0  0  0  0  0  0  0
  151.7213  142.5364  159.1402 N   0  0  0  0  0  0  0  0  0  0  0  0
  151.2566  141.3907  158.5316 C   0  0  0  0  0  0  0  0  0  0  0  0
  150.6756  141.7598  157.3512 C   0  0  0  0  0  0  0  0  0  0  0  0
  150.0221  140.8891  156.3151 C   0  0  0  0  0  0  0  0  0  0  0  0
  149.4986  141.7176  155.1347 C   0  0  0  0  0  0  0  0  0  0  0  0
  148.9667  140.8457  154.0911 N   0  0  0  0  0  0  0  0  0  0  0  0
  147.8167  140.1520  154.1225 C   0  0  0  0  0  0  0  0  0  0  0  0
  147.0569  140.1947  155.0878 O   0  0  0  0  0  0  0  0  0  0  0  0
  147.5729  139.4260  153.0176 N   0  0  0  0  0  0  0  0  0  0  0  0
  146.4109  138.5638  152.8109 C   0  0  1  0  0  0  0  0  0  0  0  0
  146.2712  138.0713  151.3579 C   0  0  0  0  0  0  0  0  0  0  0  0
  145.8229  136.6120  151.4883 C   0  0  0  0  0  0  0  0  0  0  0  0
  146.5102  136.1697  152.7069 N   0  3  2  0  0  0  0  0  0  0  0  0
  146.1398  134.8692  153.3001 C   0  0  0  0  0  0  0  0  0  0  0  0
  147.1349  134.5550  154.4383 C   0  0  0  0  0  0  0  0  0  0  0  0
  147.2519  135.7149  155.4542 C   0  0  0  0  0  0  0  0  0  0  0  0
  147.5031  137.0700  154.7569 C   0  0  0  0  0  0  0  0  0  0  0  0
  146.4313  137.2794  153.6724 C   0  0  1  0  0  0  0  0  0  0  0  0
  150.8364  143.1748  157.3321 C   0  0  0  0  0  0  0  0  0  0  0  0
  151.4639  143.6356  158.4022 N   0  0  0  0  0  0  0  0  0  0  0  0
  152.5675  141.6887  160.8525 H   0  0  0  0  0  0  0  0  0  0  0  0
  151.8135  143.2784  161.0876 H   0  0  0  0  0  0  0  0  0  0  0  0
  153.3776  143.1491  160.2521 H   0  0  0  0  0  0  0  0  0  0  0  0
  151.3770  140.4168  158.9827 H   0  0  0  0  0  0  0  0  0  0  0  0
  150.7282  140.1429  155.9485 H   0  0  0  0  0  0  0  0  0  0  0  0
  149.1975  140.3259  156.7544 H   0  0  0  0  0  0  0  0  0  0  0  0
  148.7195  142.4016  155.4751 H   0  0  0  0  0  0  0  0  0  0  0  0
  150.3073  142.3223  154.7205 H   0  0  0  0  0  0  0  0  0  0  0  0
  149.4893  140.8203  153.2271 H   0  0  0  0  0  0  0  0  0  0  0  0
  148.2505  139.4672  152.2702 H   0  0  0  0  0  0  0  0  0  0  0  0
  145.5043  139.1213  153.0560 H   0  0  0  0  0  0  0  0  0  0  0  0
  145.5727  138.6723  150.7746 H   0  0  0  0  0  0  0  0  0  0  0  0
  147.2377  138.1057  150.8522 H   0  0  0  0  0  0  0  0  0  0  0  0
  144.7426  136.5516  151.6305 H   0  0  0  0  0  0  0  0  0  0  0  0
  146.0950  136.0080  150.6223 H   0  0  0  0  0  0  0  0  0  0  0  0
  145.1154  134.9036  153.6746 H   0  0  0  0  0  0  0  0  0  0  0  0
  146.1811  134.0905  152.5379 H   0  0  0  0  0  0  0  0  0  0  0  0
  146.8408  133.6381  154.9499 H   0  0  0  0  0  0  0  0  0  0  0  0
  148.1182  134.3615  154.0075 H   0  0  0  0  0  0  0  0  0  0  0  0
  146.3304  135.7753  156.0348 H   0  0  0  0  0  0  0  0  0  0  0  0
  148.0497  135.5076  156.1681 H   0  0  0  0  0  0  0  0  0  0  0  0
  147.4679  137.8754  155.4912 H   0  0  0  0  0  0  0  0  0  0  0  0
  148.5004  137.0846  154.3146 H   0  0  0  0  0  0  0  0  0  0  0  0
  145.4539  137.2237  154.1571 H   0  0  0  0  0  0  0  0  0  0  0  0
  150.5183  143.8765  156.5750 H   0  0  0  0  0  0  0  0  0  0  0  0
  147.4838  136.0965  152.4491 H   0  0  0  0  0  0  0  0  0  0  0  0
  1  2  1  0  0  0  0
  1 22  1  0  0  0  0
  1 23  1  0  0  0  0
  1 24  1  0  0  0  0
  2 21  1  0  0  0  0
  2  3  1  0  0  0  0
  3  4  2  0  0  0  0
  3 25  1  0  0  0  0
  4  5  1  0  0  0  0
  4 20  1  0  0  0  0
  5  6  1  0  0  0  0
  5 26  1  0  0  0  0
  5 27  1  0  0  0  0
  6  7  1  0  0  0  0
  6 28  1  0  0  0  0
  6 29  1  0  0  0  0
  7  8  1  0  0  0  0
  7 30  1  0  0  0  0
  8  9  2  0  0  0  0
  8 10  1  0  0  0  0
 10 11  1  0  0  0  0
 10 31  1  0  0  0  0
 11 19  1  0  0  0  0
 11 12  1  0  0  0  0
 11 32  1  0  0  0  0
 12 13  1  0  0  0  0
 12 33  1  0  0  0  0
 12 34  1  0  0  0  0
 13 14  1  0  0  0  0
 13 35  1  0  0  0  0
 13 36  1  0  0  0  0
 14 19  1  0  0  0  0
 14 15  1  0  0  0  0
 14 47  1  0  0  0  0
 15 16  1  0  0  0  0
 15 37  1  0  0  0  0
 15 38  1  0  0  0  0
 16 17  1  0  0  0  0
 16 39  1  0  0  0  0
 16 40  1  0  0  0  0
 17 18  1  0  0  0  0
 17 41  1  0  0  0  0
 17 42  1  0  0  0  0
 18 19  1  0  0  0  0
 18 43  1  0  0  0  0
 18 44  1  0  0  0  0
 19 45  1  0  0  0  0
 20 21  2  0  0  0  0
 20 46  1  0  0  0  0
M  CHG  1  14   1
M  END
> <s_m_source_file>
AV-unprocessed.smi

> <i_m_source_file_index>
557

> <i_lp_mmshare_version>
43012

> <i_f3d_flags>
0

> <s_epik_input>
W0NIM11uMVtjSF1jKFtjSF1uMSlbQ0gyXVtDSDJdW05IXUMoPU8pW05IXVtDQEhdKFtDSDJdW0NIMl0yKVtDQEhdKE4yMylbQ0gyXVtDSDJdW0NIMl1bQ0gyXTM=

> <s_epik_cmdline>
J2VwaWtfcHl0aG9uJywgJy1waCcsICc3LjAnLCAnLXRuJywgJzgnLCAnLW1hJywgJzIwMCcsICctbWV0YWxfYmluZGluZycsICctaW1hZScsICc8aW5maWxlLm1hZT4nLCAnLW9tYWUnLCAnPG91dGZpbGUubWFlPic=

> <r_lp_tautomer_probability>
1

> <r_epik_Ionization_Penalty>
0.000956547

> <r_epik_Ionization_Penalty_Charging>
0.000435796

> <r_epik_Ionization_Penalty_Neutral>
0.000520752

> <r_epik_State_Penalty>
-0

> <r_epik_Charging_Adjusted_Penalty>
0.000435796

> <i_epik_Tot_Q>
1

> <i_epik_Tot_abs_Q>
1

> <r_epik_Metal_State_Penalty>
-0

> <b_epik_Metal_Only>
0

> <s_lp_Force_Field>
OPLS_2005

> <r_lp_Energy>
46.7552

> <b_lp_Chiralities_Consistent>
1

> <s_lp_Variant>
AV-unprocessed.smi:557-8

> <Gold.Version>
5.8.1

> <Gold.Id.Protein>
6NUR|6NUR_protein|mol2

> <Gold.PLP.Fitness>
46.1323

> <Gold.PLP.PLP>
-31.8316

> <Gold.PLP.part.hbond>
-3.0000

> <Gold.PLP.part.metal>
0.0000

> <Gold.PLP.part.buried>
0.1747

> <Gold.PLP.part.nonpolar>
-29.2359

> <Gold.PLP.part.repulsive>
0.3819

> <Gold.PLP.ligand.clash>
0.0000

> <Gold.PLP.ligand.torsion>
0.1913

> <Gold.PLP.Chemscore.Hbond>
3.8897

> <Gold.PLP.Chemscore.CHOScore>
1.0000

> <Gold.PLP.Chemscore.Metal>
0.0000

> <Gold.Chemscore.Hbonds>
donor molecule, donor type, donor heavy atom, donor atom, acceptor molecule, acceptor atom, score
      L1  H     7    30       P1  7957  0.52
      L1  H    10    31       P1  7957  1.00
      L1  H    14    47       P1  7948  2.00
      L1  C    20    46       P1  8028  1.00

> <Gold.PLP.Chemscore.Internal.Correction>
0.0141

> <Gold.Rescore>
     Score         DG    S(hbond)    S(metal)    S(lipo)     H(rot)  DE(clash)    DE(int)     intcor
     19.34     -20.56       2.81        0.00      83.79       1.60       1.04       0.17       ----

> <Gold.Chemscore.Fitness>
19.3446

> <Gold.Chemscore.DG>
-20.5580

> <Gold.Chemscore.ZeroCoef>
-5.4800

> <Gold.Chemscore.Hbond>
2.8071

> <Gold.Chemscore.Metal>
0.0000

> <Gold.Chemscore.Lipo>
83.7857

> <Gold.Chemscore.Internal_Hbond>
0.0000

> <Gold.Chemscore.DEClash>
1.0421

> <Gold.Chemscore.DEInternal>
0.1714

> <Gold.Chemscore.Rot>
1.6018

> <Gold.Chemscore.Internal.Correction>
   9.000000E+99

> <Gold.Chemscore.Hbonds>
donor molecule, donor type, donor heavy atom, donor atom, acceptor molecule, acceptor atom, score
      L1  H     7    30       P1  7957  0.51
      L1  H    10    31       P1  7957  1.00
      L1  H    14    47       P1  7948  0.97

> <Gold.Chemscore.Hbond.Weighted>
-9.3757

> <Gold.Chemscore.Metal.Weighted>
-0.0000

> <Gold.Chemscore.Lipo.Weighted>
-9.8029

> <Gold.Chemscore.Internal_Hbond.Weighted>
0.0000

> <Gold.Chemscore.DEClash.Weighted>
1.0421

> <Gold.Chemscore.DEInternal.Weighted>
0.1714

> <Gold.Chemscore.Rot.Weighted>
4.1006

> <Gold.Chemscore.Internal.Correction.Weighted>
   9.000000E+99

> <Gold.Protein.RotatedTorsions>
[ 6907 6896 6895 6894 ] final  150.61 input  -60.11 | X-H torsion
[ 7974 7965 7964 7962 ] final   57.31 input  175.53 | X-H torsion
[ 8008 7997 7996 7995 ] final   30.99 input   59.86 | X-H torsion
[ 10167 10162 10161 10158 ] final -136.31 input  -65.29 | X-H torsion
[ 10718 10713 10712 10709 ] final   38.28 input   66.30 | X-H torsion
[ 10763 10752 10751 10750 ] final   70.88 input  -60.55 | X-H torsion
[ 11005 11000 10999 10996 ] final  123.04 input  -57.11 | X-H torsion

> <Gold.Protein.ActiveResidues>
 VAL166  LYS551  ARG553  GLY616  TRP617  ASP618  TYR619  PRO620  LYS621  CYS622 
 ASP623  PHE694  ASN695  SER759  ASP760  ASP761  ALA762  ILE779  LEU786  VAL792 
 PHE793  MET794  SER795  GLU796  ALA797  LYS798  CYS799  TRP800  GLU811  SER814 

> <Gold.Protein.RotatedAtoms>
  152.1121  133.4306  159.4635 H   0  0  0  0  0  0  0  0  0  0  0  0  # atno 6907 bound_to 6896
  150.6868  134.2636  159.4568 H   0  0  0  0  0  0  0  0  0  0  0  0  # atno 6908 bound_to 6896
  152.0505  134.9656  160.0625 H   0  0  0  0  0  0  0  0  0  0  0  0  # atno 6909 bound_to 6896
  145.9304  139.3803  143.0424 H   0  0  0  0  0  0  0  0  0  0  0  0  # atno 7974 bound_to 7965
  155.0992  140.3228  155.4552 H   0  0  0  0  0  0  0  0  0  0  0  0  # atno 8008 bound_to 7997
  156.2722  140.2064  156.6065 H   0  0  0  0  0  0  0  0  0  0  0  0  # atno 8009 bound_to 7997
  154.6842  140.0523  157.0285 H   0  0  0  0  0  0  0  0  0  0  0  0  # atno 8010 bound_to 7997
  139.8690  143.6980  152.2642 H   0  0  0  0  0  0  0  0  0  0  0  0  # atno 10167 bound_to 10162
  157.3569  130.7628  149.7019 H   0  0  0  0  0  0  0  0  0  0  0  0  # atno 10718 bound_to 10713
  153.0367  135.5157  154.7509 H   0  0  0  0  0  0  0  0  0  0  0  0  # atno 10763 bound_to 10752
  154.6479  135.2921  155.0025 H   0  0  0  0  0  0  0  0  0  0  0  0  # atno 10764 bound_to 10752
  154.0919  135.6649  153.4906 H   0  0  0  0  0  0  0  0  0  0  0  0  # atno 10765 bound_to 10752
  139.9295  134.9641  156.8199 H   0  0  0  0  0  0  0  0  0  0  0  0  # atno 11005 bound_to 11000
  145.8433  140.9569  143.0788 LP  0  0  0  0  0  0  0  0  0  0  0  0  # atno 17320 bound_to 7965
  144.6764  140.0312  143.7482 LP  0  0  0  0  0  0  0  0  0  0  0  0  # atno 17321 bound_to 7965
  139.7301  144.7584  151.0815 LP  0  0  0  0  0  0  0  0  0  0  0  0  # atno 17342 bound_to 10162
  140.7763  143.5099  150.9666 LP  0  0  0  0  0  0  0  0  0  0  0  0  # atno 17343 bound_to 10162
  155.9731  130.4125  150.4033 LP  0  0  0  0  0  0  0  0  0  0  0  0  # atno 17370 bound_to 10713
  157.2105  131.0459  151.2602 LP  0  0  0  0  0  0  0  0  0  0  0  0  # atno 17371 bound_to 10713
  140.6242  133.9965  155.7632 LP  0  0  0  0  0  0  0  0  0  0  0  0  # atno 17394 bound_to 11000
  141.0874  133.9969  157.3291 LP  0  0  0  0  0  0  0  0  0  0  0  0  # atno 17395 bound_to 11000

$$$$
