AV-unprocessed.smi:1914|AV-procd|sdf|7756|dock2
  -GOLD-   22720 9493D 1   1.00000     0.00000
 Structure written by MMmdl.
 44 45  0  0  0  0  0  0  0  0  2 V2000
  153.0842  142.3410  161.9131 C   0  0  0  0  0  0  0  0  0  0  0  0
  152.8098  143.2975  160.7441 C   0  0  2  0  0  0  0  0  0  0  0  0
  152.1292  144.5901  161.2244 C   0  0  0  0  0  0  0  0  0  0  0  0
  151.8431  145.5137  160.0338 C   0  0  0  0  0  0  0  0  0  0  0  0
  151.0204  144.7859  158.9589 C   0  0  0  0  0  0  0  0  0  0  0  0
  151.7035  143.5450  158.5101 N   0  3  2  0  0  0  0  0  0  0  0  0
  150.9968  142.8972  157.3763 C   0  0  0  0  0  0  0  0  0  0  0  0
  149.7676  142.0867  157.8322 C   0  0  0  0  0  0  0  0  0  0  0  0
  148.5983  142.9415  158.0001 N   0  0  0  0  0  0  0  0  0  0  0  0
  147.3791  142.5125  158.3601 C   0  0  0  0  0  0  0  0  0  0  0  0
  147.1286  141.3324  158.6092 O   0  0  0  0  0  0  0  0  0  0  0  0
  146.2871  143.5864  158.4649 C   0  0  0  0  0  0  0  0  0  0  0  0
  145.6122  143.5999  159.7737 N   0  0  0  0  0  0  0  0  0  0  0  0
  144.2218  143.3713  159.7831 C   0  0  0  0  0  0  0  0  0  0  0  0
  143.5117  143.3619  160.9225 C   0  0  0  0  0  0  0  0  0  0  0  0
  144.2102  143.5942  162.1643 C   0  0  0  0  0  0  0  0  0  0  0  0
  145.5394  143.8179  162.1663 C   0  0  0  0  0  0  0  0  0  0  0  0
  146.3191  143.8323  160.9231 C   0  0  0  0  0  0  0  0  0  0  0  0
  147.5327  144.0416  160.9144 O   0  0  0  0  0  0  0  0  0  0  0  0
  151.9606  142.6217  159.6484 C   0  0  0  0  0  0  0  0  0  0  0  0
  152.1577  142.0291  162.3964 H   0  0  0  0  0  0  0  0  0  0  0  0
  153.7107  142.8152  162.6692 H   0  0  0  0  0  0  0  0  0  0  0  0
  153.6016  141.4431  161.5739 H   0  0  0  0  0  0  0  0  0  0  0  0
  153.7731  143.5651  160.3068 H   0  0  0  0  0  0  0  0  0  0  0  0
  151.1957  144.3529  161.7370 H   0  0  0  0  0  0  0  0  0  0  0  0
  152.7610  145.1046  161.9496 H   0  0  0  0  0  0  0  0  0  0  0  0
  151.3104  146.4030  160.3721 H   0  0  0  0  0  0  0  0  0  0  0  0
  152.7835  145.8613  159.6040 H   0  0  0  0  0  0  0  0  0  0  0  0
  150.0297  144.5385  159.3445 H   0  0  0  0  0  0  0  0  0  0  0  0
  150.8728  145.4558  158.1107 H   0  0  0  0  0  0  0  0  0  0  0  0
  150.7152  143.6480  156.6366 H   0  0  0  0  0  0  0  0  0  0  0  0
  151.6869  142.2176  156.8743 H   0  0  0  0  0  0  0  0  0  0  0  0
  149.5476  141.2902  157.1194 H   0  0  0  0  0  0  0  0  0  0  0  0
  149.9524  141.6036  158.7905 H   0  0  0  0  0  0  0  0  0  0  0  0
  148.7213  143.9283  157.8231 H   0  0  0  0  0  0  0  0  0  0  0  0
  146.7436  144.5546  158.2561 H   0  0  0  0  0  0  0  0  0  0  0  0
  145.5514  143.4401  157.6716 H   0  0  0  0  0  0  0  0  0  0  0  0
  143.7732  143.2124  158.8132 H   0  0  0  0  0  0  0  0  0  0  0  0
  142.4456  143.1882  160.9100 H   0  0  0  0  0  0  0  0  0  0  0  0
  143.6644  143.5897  163.0961 H   0  0  0  0  0  0  0  0  0  0  0  0
  146.0448  143.9908  163.1051 H   0  0  0  0  0  0  0  0  0  0  0  0
  152.4827  141.7320  159.2984 H   0  0  0  0  0  0  0  0  0  0  0  0
  151.0093  142.2839  160.0634 H   0  0  0  0  0  0  0  0  0  0  0  0
  152.6037  143.8350  158.1551 H   0  0  0  0  0  0  0  0  0  0  0  0
  1  2  1  0  0  0  0
  1 21  1  0  0  0  0
  1 22  1  0  0  0  0
  1 23  1  0  0  0  0
  2 20  1  0  0  0  0
  2  3  1  0  0  0  0
  2 24  1  0  0  0  0
  3  4  1  0  0  0  0
  3 25  1  0  0  0  0
  3 26  1  0  0  0  0
  4  5  1  0  0  0  0
  4 27  1  0  0  0  0
  4 28  1  0  0  0  0
  5  6  1  0  0  0  0
  5 29  1  0  0  0  0
  5 30  1  0  0  0  0
  6  7  1  0  0  0  0
  6 20  1  0  0  0  0
  6 44  1  0  0  0  0
  7  8  1  0  0  0  0
  7 31  1  0  0  0  0
  7 32  1  0  0  0  0
  8  9  1  0  0  0  0
  8 33  1  0  0  0  0
  8 34  1  0  0  0  0
  9 10  1  0  0  0  0
  9 35  1  0  0  0  0
 10 11  2  0  0  0  0
 10 12  1  0  0  0  0
 12 13  1  0  0  0  0
 12 36  1  0  0  0  0
 12 37  1  0  0  0  0
 13 18  1  0  0  0  0
 13 14  1  0  0  0  0
 14 15  2  0  0  0  0
 14 38  1  0  0  0  0
 15 16  1  0  0  0  0
 15 39  1  0  0  0  0
 16 17  2  0  0  0  0
 16 40  1  0  0  0  0
 17 18  1  0  0  0  0
 17 41  1  0  0  0  0
 18 19  2  0  0  0  0
 20 42  1  0  0  0  0
 20 43  1  0  0  0  0
M  CHG  1   6   1
M  END
> <s_m_source_file>
AV-unprocessed.smi

> <i_m_source_file_index>
1914

> <i_lp_mmshare_version>
43012

> <i_f3d_flags>
0

> <s_epik_input>
W0NIM11bQ0BASF0xW0NIMl1bQ0gyXVtDSDJdTihbQ0gyXTEpW0NIMl1bQ0gyXVtOSF1DKD1PKVtDSDJdbjJbY0hdW2NIXVtjSF1bY0hdYzI9Tw==

> <s_epik_cmdline>
J2VwaWtfcHl0aG9uJywgJy1waCcsICc3LjAnLCAnLXRuJywgJzgnLCAnLW1hJywgJzIwMCcsICctbWV0YWxfYmluZGluZycsICctaW1hZScsICc8aW5maWxlLm1hZT4nLCAnLW9tYWUnLCAnPG91dGZpbGUubWFlPic=

> <r_lp_tautomer_probability>
1

> <r_epik_Ionization_Penalty>
0.00192477

> <r_epik_Ionization_Penalty_Charging>
0.00192469

> <r_epik_Ionization_Penalty_Neutral>
8.16761e-08

> <r_epik_State_Penalty>
0.00131115

> <r_epik_Charging_Adjusted_Penalty>
0.00323584

> <i_epik_Tot_Q>
1

> <i_epik_Tot_abs_Q>
1

> <r_epik_Metal_State_Penalty>
-0

> <b_epik_Metal_Only>
0

> <s_lp_Force_Field>
OPLS_2005

> <r_lp_Energy>
24.8324

> <b_lp_Chiralities_Consistent>
1

> <s_lp_Variant>
AV-unprocessed.smi:1914-1

> <Gold.Version>
5.8.1

> <Gold.Id.Protein>
6NUR|6NUR_protein|mol2

> <Gold.PLP.Fitness>
47.8250

> <Gold.PLP.PLP>
-43.9688

> <Gold.PLP.part.hbond>
-3.6548

> <Gold.PLP.part.metal>
0.0000

> <Gold.PLP.part.buried>
-5.9732

> <Gold.PLP.part.nonpolar>
-34.4366

> <Gold.PLP.part.repulsive>
0.2256

> <Gold.PLP.ligand.clash>
0.0000

> <Gold.PLP.ligand.torsion>
0.2785

> <Gold.PLP.Chemscore.Hbond>
1.4466

> <Gold.PLP.Chemscore.CHOScore>
0.0000

> <Gold.PLP.Chemscore.Metal>
0.0000

> <Gold.Chemscore.Hbonds>
donor molecule, donor type, donor heavy atom, donor atom, acceptor molecule, acceptor atom, score
      L1  H     9    35       P1  8029  0.20
      P1  H  6933  6944       L1    19  1.00
      P1  H  6934  6946       L1    11  0.25

> <Gold.PLP.Chemscore.Internal.Correction>
0.0735

> <Gold.Rescore>
     Score         DG    S(hbond)    S(metal)    S(lipo)     H(rot)  DE(clash)    DE(int)     intcor
     16.73     -18.43       1.47        0.00     109.40       1.86       0.07       1.63       ----

> <Gold.Chemscore.Fitness>
16.7252

> <Gold.Chemscore.DG>
-18.4315

> <Gold.Chemscore.ZeroCoef>
-5.4800

> <Gold.Chemscore.Hbond>
1.4699

> <Gold.Chemscore.Metal>
0.0000

> <Gold.Chemscore.Lipo>
109.4020

> <Gold.Chemscore.Internal_Hbond>
0.0000

> <Gold.Chemscore.DEClash>
0.0729

> <Gold.Chemscore.DEInternal>
1.6333

> <Gold.Chemscore.Rot>
1.8586

> <Gold.Chemscore.Internal.Correction>
   9.000000E+99

> <Gold.Chemscore.Hbonds>
donor molecule, donor type, donor heavy atom, donor atom, acceptor molecule, acceptor atom, score
      P1  H  6933  6944       L1    19  0.67
      P1  H  6934  6946       L1    11  0.22

> <Gold.Chemscore.Hbond.Weighted>
-4.9095

> <Gold.Chemscore.Metal.Weighted>
-0.0000

> <Gold.Chemscore.Lipo.Weighted>
-12.8000

> <Gold.Chemscore.Internal_Hbond.Weighted>
0.0000

> <Gold.Chemscore.DEClash.Weighted>
0.0729

> <Gold.Chemscore.DEInternal.Weighted>
1.6333

> <Gold.Chemscore.Rot.Weighted>
4.7581

> <Gold.Chemscore.Internal.Correction.Weighted>
   9.000000E+99

> <Gold.Protein.RotatedTorsions>
[ 6907 6896 6895 6894 ] final -161.79 input  -60.11 | X-H torsion
[ 7974 7965 7964 7962 ] final  123.64 input  175.53 | X-H torsion
[ 8008 7997 7996 7995 ] final   80.33 input   59.86 | X-H torsion
[ 10167 10162 10161 10158 ] final -102.76 input  -65.29 | X-H torsion
[ 10718 10713 10712 10709 ] final   56.14 input   66.30 | X-H torsion
[ 10763 10752 10751 10750 ] final   34.53 input  -60.55 | X-H torsion
[ 11005 11000 10999 10996 ] final -124.23 input  -57.11 | X-H torsion

> <Gold.Protein.ActiveResidues>
 VAL166  LYS551  ARG553  GLY616  TRP617  ASP618  TYR619  PRO620  LYS621  CYS622 
 ASP623  PHE694  ASN695  SER759  ASP760  ASP761  ALA762  ILE779  LEU786  VAL792 
 PHE793  MET794  SER795  GLU796  ALA797  LYS798  CYS799  TRP800  GLU811  SER814 

> <Gold.Protein.RotatedAtoms>
  151.3702  133.3857  159.2698 H   0  0  0  0  0  0  0  0  0  0  0  0  # atno 6907 bound_to 6896
  150.9657  134.9039  159.7768 H   0  0  0  0  0  0  0  0  0  0  0  0  # atno 6908 bound_to 6896
  152.5166  134.3662  159.9354 H   0  0  0  0  0  0  0  0  0  0  0  0  # atno 6909 bound_to 6896
  145.0935  139.3569  143.4848 H   0  0  0  0  0  0  0  0  0  0  0  0  # atno 7974 bound_to 7965
  155.8819  140.3443  155.5894 H   0  0  0  0  0  0  0  0  0  0  0  0  # atno 8008 bound_to 7997
  155.7710  140.0845  157.2127 H   0  0  0  0  0  0  0  0  0  0  0  0  # atno 8009 bound_to 7997
  154.4025  140.1518  156.2929 H   0  0  0  0  0  0  0  0  0  0  0  0  # atno 8010 bound_to 7997
  140.2273  143.3632  152.0918 H   0  0  0  0  0  0  0  0  0  0  0  0  # atno 10167 bound_to 10162
  157.5405  130.8694  149.8815 H   0  0  0  0  0  0  0  0  0  0  0  0  # atno 10718 bound_to 10713
  153.0160  135.6358  154.1683 H   0  0  0  0  0  0  0  0  0  0  0  0  # atno 10763 bound_to 10752
  154.1422  135.2834  155.3159 H   0  0  0  0  0  0  0  0  0  0  0  0  # atno 10764 bound_to 10752
  154.6116  135.5554  153.7540 H   0  0  0  0  0  0  0  0  0  0  0  0  # atno 10765 bound_to 10752
  140.9857  134.0610  157.3714 H   0  0  0  0  0  0  0  0  0  0  0  0  # atno 11005 bound_to 11000
  146.3531  140.0781  142.8619 LP  0  0  0  0  0  0  0  0  0  0  0  0  # atno 17320 bound_to 7965
  145.1038  140.9362  143.4697 LP  0  0  0  0  0  0  0  0  0  0  0  0  # atno 17321 bound_to 7965
  139.5123  144.6914  151.5750 LP  0  0  0  0  0  0  0  0  0  0  0  0  # atno 17342 bound_to 10162
  140.6211  143.9256  150.6527 LP  0  0  0  0  0  0  0  0  0  0  0  0  # atno 17343 bound_to 10162
  156.0493  130.3721  150.1240 LP  0  0  0  0  0  0  0  0  0  0  0  0  # atno 17370 bound_to 10713
  156.9420  130.9747  151.3514 LP  0  0  0  0  0  0  0  0  0  0  0  0  # atno 17371 bound_to 10713
  139.8969  135.0148  156.7076 LP  0  0  0  0  0  0  0  0  0  0  0  0  # atno 17394 bound_to 11000
  140.7118  133.9216  155.8089 LP  0  0  0  0  0  0  0  0  0  0  0  0  # atno 17395 bound_to 11000

$$$$
