AV-unprocessed.smi:1298|AV-procd|sdf|5417|dock9
  -GOLD-   22720 4573D 1   1.00000     0.00000
 Structure written by MMmdl.
 30 31  0  0  0  0  0  0  0  0  1 V2000
  152.7161  142.5137  159.6239 C   0  0  0  0  0  0  0  0  0  0  0  0
  151.9738  143.3136  158.8438 C   0  0  0  0  0  0  0  0  0  0  0  0
  152.1326  145.0332  158.8708 Cl  0  0  0  0  0  0  0  0  0  0  0  0
  150.9385  142.8441  157.8433 C   0  0  0  0  0  0  0  0  0  0  0  0
  151.5450  141.4533  156.8439 S   0  0  0  0  0  0  0  0  0  0  0  0
  150.0676  141.0252  155.9693 C   0  0  0  0  0  0  0  0  0  0  0  0
  148.9003  141.6653  156.0936 N   0  0  0  0  0  0  0  0  0  0  0  0
  148.0305  141.0289  155.2381 N   0  0  0  0  0  0  0  0  0  0  0  0
  148.7396  140.0453  154.6822 C   0  0  0  0  0  0  0  0  0  0  0  0
  148.1889  139.1155  153.6476 C   0  0  0  0  0  0  0  0  0  0  0  0
  146.8315  139.3543  153.0229 C   0  0  0  0  0  0  0  0  0  0  0  0
  147.0308  138.1939  153.9619 C   0  0  0  0  0  0  0  0  0  0  0  0
  150.0244  139.9996  155.0917 N   0  0  0  0  0  0  0  0  0  0  0  0
  151.0886  139.0942  154.6758 C   0  0  0  0  0  0  0  0  0  0  0  0
  151.8853  138.5894  155.8808 C   0  0  0  0  0  0  0  0  0  0  0  0
  151.2174  137.8936  156.8044 N   0  0  0  0  0  0  0  0  0  0  0  0
  153.0891  138.8191  155.9747 O   0  0  0  0  0  0  0  0  0  0  0  0
  153.4429  142.9224  160.3106 H   0  0  0  0  0  0  0  0  0  0  0  0
  152.6060  141.4398  159.5866 H   0  0  0  0  0  0  0  0  0  0  0  0
  150.0303  142.5468  158.3692 H   0  0  0  0  0  0  0  0  0  0  0  0
  150.6756  143.6742  157.1863 H   0  0  0  0  0  0  0  0  0  0  0  0
  148.9840  138.7380  153.0073 H   0  0  0  0  0  0  0  0  0  0  0  0
  146.2440  140.1956  153.3858 H   0  0  0  0  0  0  0  0  0  0  0  0
  146.7211  139.1313  151.9638 H   0  0  0  0  0  0  0  0  0  0  0  0
  147.0542  137.1950  153.5313 H   0  0  0  0  0  0  0  0  0  0  0  0
  146.5786  138.2663  154.9493 H   0  0  0  0  0  0  0  0  0  0  0  0
  150.6626  138.2456  154.1407 H   0  0  0  0  0  0  0  0  0  0  0  0
  151.7403  139.6050  153.9669 H   0  0  0  0  0  0  0  0  0  0  0  0
  151.6997  137.5367  157.6163 H   0  0  0  0  0  0  0  0  0  0  0  0
  150.2289  137.7243  156.6846 H   0  0  0  0  0  0  0  0  0  0  0  0
  1  2  2  0  0  0  0
  1 18  1  0  0  0  0
  1 19  1  0  0  0  0
  2  3  1  0  0  0  0
  2  4  1  0  0  0  0
  4  5  1  0  0  0  0
  4 20  1  0  0  0  0
  4 21  1  0  0  0  0
  5  6  1  0  0  0  0
  6 13  1  0  0  0  0
  6  7  2  0  0  0  0
  7  8  1  0  0  0  0
  8  9  2  0  0  0  0
  9 10  1  0  0  0  0
  9 13  1  0  0  0  0
 10 12  1  0  0  0  0
 10 11  1  0  0  0  0
 10 22  1  0  0  0  0
 11 12  1  0  0  0  0
 11 23  1  0  0  0  0
 11 24  1  0  0  0  0
 12 25  1  0  0  0  0
 12 26  1  0  0  0  0
 13 14  1  0  0  0  0
 14 15  1  0  0  0  0
 14 27  1  0  0  0  0
 14 28  1  0  0  0  0
 15 16  1  0  0  0  0
 15 17  2  0  0  0  0
 16 29  1  0  0  0  0
 16 30  1  0  0  0  0
M  END
> <s_m_source_file>
AV-unprocessed.smi

> <i_m_source_file_index>
1298

> <i_lp_mmshare_version>
43012

> <i_f3d_flags>
0

> <s_epik_input>
W0NIMl09QyhDbClbQ0gyXVNjMW5uYyhbQ0hdMltDSDJdW0NIMl0yKW4xW0NIMl1DKD1PKVtOSDJd

> <s_epik_cmdline>
J2VwaWtfcHl0aG9uJywgJy1waCcsICc3LjAnLCAnLXRuJywgJzgnLCAnLW1hJywgJzIwMCcsICctbWV0YWxfYmluZGluZycsICctaW1hZScsICc8aW5maWxlLm1hZT4nLCAnLW9tYWUnLCAnPG91dGZpbGUubWFlPic=

> <r_lp_tautomer_probability>
1

> <r_epik_Ionization_Penalty>
2.01117e-07

> <r_epik_Ionization_Penalty_Charging>
0

> <r_epik_Ionization_Penalty_Neutral>
2.01117e-07

> <r_epik_State_Penalty>
-0

> <r_epik_Charging_Adjusted_Penalty>
0

> <i_epik_Tot_Q>
0

> <i_epik_Tot_abs_Q>
0

> <r_epik_Metal_State_Penalty>
-0

> <b_epik_Metal_Only>
0

> <s_lp_Force_Field>
OPLS_2005

> <r_lp_Energy>
3.32617

> <b_lp_Chiralities_Consistent>
1

> <s_lp_Variant>
AV-unprocessed.smi:1298-1

> <Gold.Version>
5.8.1

> <Gold.Id.Protein>
6NUR|6NUR_protein|mol2

> <Gold.PLP.Fitness>
34.1400

> <Gold.PLP.PLP>
-31.8886

> <Gold.PLP.part.hbond>
-1.0000

> <Gold.PLP.part.metal>
0.0000

> <Gold.PLP.part.buried>
-2.1679

> <Gold.PLP.part.nonpolar>
-29.4654

> <Gold.PLP.part.repulsive>
0.8030

> <Gold.PLP.ligand.clash>
0.0000

> <Gold.PLP.ligand.torsion>
0.4862

> <Gold.PLP.Chemscore.Hbond>
1.0000

> <Gold.PLP.Chemscore.CHOScore>
0.0000

> <Gold.PLP.Chemscore.Metal>
0.0000

> <Gold.Chemscore.Hbonds>
donor molecule, donor type, donor heavy atom, donor atom, acceptor molecule, acceptor atom, score
      P1  H  7997  8009       L1    17  0.98

> <Gold.PLP.Chemscore.Internal.Correction>
0.2237

> <Gold.Rescore>
     Score         DG    S(hbond)    S(metal)    S(lipo)     H(rot)  DE(clash)    DE(int)     intcor
      9.31     -11.12       0.98        0.00      77.14       2.60       1.44       0.37       ----

> <Gold.Chemscore.Fitness>
9.3092

> <Gold.Chemscore.DG>
-11.1198

> <Gold.Chemscore.ZeroCoef>
-5.4800

> <Gold.Chemscore.Hbond>
0.9783

> <Gold.Chemscore.Metal>
0.0000

> <Gold.Chemscore.Lipo>
77.1433

> <Gold.Chemscore.Internal_Hbond>
0.0000

> <Gold.Chemscore.DEClash>
1.4430

> <Gold.Chemscore.DEInternal>
0.3676

> <Gold.Chemscore.Rot>
2.5990

> <Gold.Chemscore.Internal.Correction>
   9.000000E+99

> <Gold.Chemscore.Hbonds>
donor molecule, donor type, donor heavy atom, donor atom, acceptor molecule, acceptor atom, score
      P1  H  7997  8009       L1    17  0.93

> <Gold.Chemscore.Hbond.Weighted>
-3.2674

> <Gold.Chemscore.Metal.Weighted>
-0.0000

> <Gold.Chemscore.Lipo.Weighted>
-9.0258

> <Gold.Chemscore.Internal_Hbond.Weighted>
0.0000

> <Gold.Chemscore.DEClash.Weighted>
1.4430

> <Gold.Chemscore.DEInternal.Weighted>
0.3676

> <Gold.Chemscore.Rot.Weighted>
6.6534

> <Gold.Chemscore.Internal.Correction.Weighted>
   9.000000E+99

> <Gold.Protein.RotatedTorsions>
[ 6907 6896 6895 6894 ] final   80.42 input  -60.11 | X-H torsion
[ 7974 7965 7964 7962 ] final   79.39 input  175.53 | X-H torsion
[ 8008 7997 7996 7995 ] final -143.59 input   59.86 | X-H torsion
[ 10167 10162 10161 10158 ] final -123.65 input  -65.29 | X-H torsion
[ 10718 10713 10712 10709 ] final -157.83 input   66.30 | X-H torsion
[ 10763 10752 10751 10750 ] final    3.61 input  -60.55 | X-H torsion
[ 11005 11000 10999 10996 ] final  -56.26 input  -57.11 | X-H torsion

> <Gold.Protein.ActiveResidues>
 VAL166  LYS551  ARG553  GLY616  TRP617  ASP618  TYR619  PRO620  LYS621  CYS622 
 ASP623  PHE694  ASN695  SER759  ASP760  ASP761  ALA762  ILE779  LEU786  VAL792 
 PHE793  MET794  SER795  GLU796  ALA797  LYS798  CYS799  TRP800  GLU811  SER814 

> <Gold.Protein.RotatedAtoms>
  152.5234  134.3361  159.9200 H   0  0  0  0  0  0  0  0  0  0  0  0  # atno 6907 bound_to 6896
  151.3310  133.3994  159.2670 H   0  0  0  0  0  0  0  0  0  0  0  0  # atno 6908 bound_to 6896
  150.9880  134.9239  159.7941 H   0  0  0  0  0  0  0  0  0  0  0  0  # atno 6909 bound_to 6896
  145.6648  139.2481  143.1902 H   0  0  0  0  0  0  0  0  0  0  0  0  # atno 7974 bound_to 7965
  155.5131  140.0585  157.2920 H   0  0  0  0  0  0  0  0  0  0  0  0  # atno 8008 bound_to 7997
  154.4544  140.1965  156.0370 H   0  0  0  0  0  0  0  0  0  0  0  0  # atno 8009 bound_to 7997
  156.0770  140.3252  155.7650 H   0  0  0  0  0  0  0  0  0  0  0  0  # atno 8010 bound_to 7997
  140.0013  143.5538  152.2302 H   0  0  0  0  0  0  0  0  0  0  0  0  # atno 10167 bound_to 10162
  156.5456  130.8583  151.2763 H   0  0  0  0  0  0  0  0  0  0  0  0  # atno 10718 bound_to 10713
  153.2812  135.6941  153.7383 H   0  0  0  0  0  0  0  0  0  0  0  0  # atno 10763 bound_to 10752
  153.6370  135.3400  155.3060 H   0  0  0  0  0  0  0  0  0  0  0  0  # atno 10764 bound_to 10752
  154.8496  135.4422  154.1866 H   0  0  0  0  0  0  0  0  0  0  0  0  # atno 10765 bound_to 10752
  141.1112  133.6610  156.4593 H   0  0  0  0  0  0  0  0  0  0  0  0  # atno 11005 bound_to 11000
  146.1095  140.7445  142.9510 LP  0  0  0  0  0  0  0  0  0  0  0  0  # atno 17320 bound_to 7965
  144.7077  140.3916  143.7105 LP  0  0  0  0  0  0  0  0  0  0  0  0  # atno 17321 bound_to 7965
  139.6270  144.7638  151.2617 LP  0  0  0  0  0  0  0  0  0  0  0  0  # atno 17342 bound_to 10162
  140.7418  143.6546  150.8218 LP  0  0  0  0  0  0  0  0  0  0  0  0  # atno 17343 bound_to 10162
  157.7397  130.9836  150.2331 LP  0  0  0  0  0  0  0  0  0  0  0  0  # atno 17370 bound_to 10713
  156.2931  130.3748  149.7822 LP  0  0  0  0  0  0  0  0  0  0  0  0  # atno 17371 bound_to 10713
  140.4770  134.6700  157.5154 LP  0  0  0  0  0  0  0  0  0  0  0  0  # atno 17394 bound_to 11000
  140.0007  134.6841  155.9535 LP  0  0  0  0  0  0  0  0  0  0  0  0  # atno 17395 bound_to 11000

$$$$
