#       Name:                AV-unprocessed.smi:811
#       Creating user name   scv26
#       Creation time:       Fri Mar 27 01:25:18 2020


#       File generated by GOLD software.
#

@<TRIPOS>MOLECULE
AV-unprocessed.smi:811
    52    54     1
SMALL
NO_CHARGES


@<TRIPOS>ATOM
      1 ****        -6.1327  -2.5448  -3.2401 C.3            1 S1                 0.0000
      2 ****        -5.2387  -3.0146  -2.1597 N.4            1 S1                 1.0000
      3 ****        -5.5538  -2.4397  -0.8276 C.3            1 S1                 0.0000
      4 ****        -4.2235  -1.9787  -0.2223 C.3            1 S1                 0.0000
      5 ****        -3.3889  -1.6619  -1.4597 C.3            1 S1                 0.0000
      6 ****        -1.9482  -1.6413  -1.2307 N.am           1 S1                 0.0000
      7 ****        -1.2885  -0.6398  -0.6322 C.2            1 S1                 0.0000
      8 ****        -1.8415   0.3746  -0.2083 O.2            1 S1                 0.0000
      9 ****         0.0261  -0.9049  -0.5434 N.am           1 S1                 0.0000
     10 ****         1.0573  -0.0870  -0.0068 C.ar           1 S1                 0.0000
     11 ****         2.2658  -0.7043   0.3692 C.ar           1 S1                 0.0000
     12 ****         3.3116   0.0842   0.8846 C.ar           1 S1                 0.0000
     13 ****         3.1272   1.4818   1.0055 C.ar           1 S1                 0.0000
     14 ****         4.1613   2.2938   1.5202 N.3            1 S1                 0.0000
     15 ****         4.7157   1.8773   2.8062 C.3            1 S1                 0.0000
     16 ****         6.0200   2.6393   3.0989 C.3            1 S1                 0.0000
     17 ****         5.7879   4.0420   3.0242 O.3            1 S1                 0.0000
     18 ****         5.3554   4.4386   1.7271 C.3            1 S1                 0.0000
     19 ****         4.0254   3.7436   1.3902 C.3            1 S1                 0.0000
     20 ****         1.9711   2.0780   0.6239 N.ar           1 S1                 0.0000
     21 ****         0.9693   1.3184   0.1332 C.ar           1 S1                 0.0000
     22 ****        -3.8016  -2.7753  -2.4218 C.3            1 S1                 0.0000
     23 ****        -6.0300  -1.4697  -3.3948 H              1 S1                 0.0000
     24 ****        -7.1735  -2.7596  -2.9949 H              1 S1                 0.0000
     25 ****        -5.8983  -3.0502  -4.1773 H              1 S1                 0.0000
     26 ****        -6.2184  -1.5803  -0.9337 H              1 S1                 0.0000
     27 ****        -6.0601  -3.1691  -0.1948 H              1 S1                 0.0000
     28 ****        -4.3375  -1.1244   0.4462 H              1 S1                 0.0000
     29 ****        -3.7691  -2.7935   0.3439 H              1 S1                 0.0000
     30 ****        -3.7077  -0.7034  -1.8753 H              1 S1                 0.0000
     31 ****        -1.4189  -2.4411  -1.5468 H              1 S1                 0.0000
     32 ****         0.3193  -1.8190  -0.8558 H              1 S1                 0.0000
     33 ****         2.3947  -1.7718   0.2656 H              1 S1                 0.0000
     34 ****         4.2419  -0.3872   1.1636 H              1 S1                 0.0000
     35 ****         3.9819   2.0811   3.5873 H              1 S1                 0.0000
     36 ****         4.9170   0.8075   2.8329 H              1 S1                 0.0000
     37 ****         6.3824   2.3927   4.0970 H              1 S1                 0.0000
     38 ****         6.8035   2.3519   2.3959 H              1 S1                 0.0000
     39 ****         5.2280   5.5210   1.7100 H              1 S1                 0.0000
     40 ****         6.1197   4.1962   0.9867 H              1 S1                 0.0000
     41 ****         3.7285   4.0067   0.3740 H              1 S1                 0.0000
     42 ****         3.2405   4.0946   2.0614 H              1 S1                 0.0000
     43 ****         0.0935   1.8707  -0.1693 H              1 S1                 0.0000
     44 ****        -3.2619  -3.6957  -2.1931 H              1 S1                 0.0000
     45 ****        -3.5934  -2.5229  -3.4628 H              1 S1                 0.0000
     46 ****        -5.3597  -4.0155  -2.0949 H              1 S1                 0.0000
     47 ****        -2.8313   0.4812  -0.3029 LP             1 S1                 0.0000
     48 ****        -1.3010   1.0924   0.2307 LP             1 S1                 0.0000
     49 ****         4.8679   2.0854   0.8439 LP             1 S1                 0.0000
     50 ****         6.6371   4.5226   3.2431 LP             1 S1                 0.0000
     51 ****         5.0838   4.2894   3.6897 LP             1 S1                 0.0000
     52 ****         1.8619   3.0687   0.7050 LP             1 S1                 0.0000
@<TRIPOS>BOND
    1    1    2 1     
    2    1   23 1     
    3    1   24 1     
    4    1   25 1     
    5    2   22 1     
    6    2    3 1     
    7    2   46 1     
    8    3    4 1     
    9    3   26 1     
   10    3   27 1     
   11    4    5 1     
   12    4   28 1     
   13    4   29 1     
   14    5    6 1     
   15    5   22 1     
   16    5   30 1     
   17    6    7 am    
   18    6   31 1     
   19    7    8 2     
   20    7    9 am    
   21    9   10 1     
   22    9   32 1     
   23   10   21 ar    
   24   10   11 ar    
   25   11   12 ar    
   26   11   33 1     
   27   12   13 ar    
   28   12   34 1     
   29   13   14 1     
   30   13   20 ar    
   31   14   19 1     
   32   14   15 1     
   33   15   16 1     
   34   15   35 1     
   35   15   36 1     
   36   16   17 1     
   37   16   37 1     
   38   16   38 1     
   39   17   18 1     
   40   18   19 1     
   41   18   39 1     
   42   18   40 1     
   43   19   41 1     
   44   19   42 1     
   45   20   21 ar    
   46   21   43 1     
   47   22   44 1     
   48   22   45 1     
   49    8   47 1     
   50    8   48 1     
   51   14   49 1     
   52   17   50 1     
   53   17   51 1     
   54   20   52 1     
@<TRIPOS>SUBSTRUCTURE
      1 S1             1
@<TRIPOS>SET
LONE_PAIRS      STATIC     ATOMS    <user>   **** ""
6 47 48 49 50 51 52
DONOR_HYDROGENS      STATIC     ATOMS    <user>   **** ""
3 46 31 32
ATOM$BLUE        STATIC     ATOMS    COLORGROUP SYSTEM
6 47 48 49 50 51 52
ATOM$RED        STATIC     ATOMS    COLORGROUP SYSTEM
3 46 31 32
