AV-unprocessed.smi:1006|AV-procd|sdf|4396|dock9
  -GOLD-   22720 2333D 1   1.00000     0.00000
 Structure written by MMmdl.
 47 49  0  0  0  0  0  0  0  0  3 V2000
  150.6985  131.0149  156.1142 C   0  0  0  0  0  0  0  0  0  0  0  0
  149.9756  132.0888  155.3292 C   0  0  0  0  0  0  0  0  0  0  0  0
  149.3779  131.8269  154.0797 C   0  0  0  0  0  0  0  0  0  0  0  0
  148.7339  132.9040  153.4462 C   0  0  0  0  0  0  0  0  0  0  0  0
  148.1142  132.7391  152.2102 N   0  0  0  0  0  0  0  0  0  0  0  0
  148.6916  134.1284  154.0084 N   0  0  0  0  0  0  0  0  0  0  0  0
  149.2793  134.3089  155.1988 C   0  0  0  0  0  0  0  0  0  0  0  0
  149.2240  135.9145  155.9757 S   0  0  0  0  0  0  0  0  0  0  0  0
  150.6229  136.7837  155.2001 C   0  0  0  0  0  0  0  0  0  0  0  0
  150.2962  138.2598  154.9197 C   0  0  2  0  0  0  0  0  0  0  0  0
  150.0064  138.4151  153.5439 O   0  0  0  0  0  0  0  0  0  0  0  0
  151.4540  139.1951  155.3194 C   0  0  0  0  0  0  0  0  0  0  0  0
  150.9889  140.5038  155.8028 N   0  0  0  0  0  0  0  0  0  0  0  0
  150.1076  141.3734  155.2381 C   0  0  0  0  0  0  0  0  0  0  0  0
  150.0022  142.4487  156.0665 N   0  3  0  0  0  0  0  0  0  0  0  0
  150.8282  142.2641  157.1773 C   0  0  0  0  0  0  0  0  0  0  0  0
  151.0590  143.0737  158.2830 C   0  0  0  0  0  0  0  0  0  0  0  0
  151.9708  142.5977  159.2518 C   0  0  0  0  0  0  0  0  0  0  0  0
  152.2456  143.4580  160.4735 C   0  0  0  0  0  0  0  0  0  0  0  0
  152.6185  141.3454  159.0914 C   0  0  0  0  0  0  0  0  0  0  0  0
  153.6003  140.8449  160.1373 C   0  0  0  0  0  0  0  0  0  0  0  0
  152.3692  140.5365  157.9597 C   0  0  0  0  0  0  0  0  0  0  0  0
  151.4661  141.0186  157.0149 C   0  0  0  0  0  0  0  0  0  0  0  0
  149.9103  133.3326  155.8670 N   0  3  0  0  0  0  0  0  0  0  0  0
  150.9126  130.1488  155.4871 H   0  0  0  0  0  0  0  0  0  0  0  0
  150.0871  130.6856  156.9547 H   0  0  0  0  0  0  0  0  0  0  0  0
  151.6447  131.3932  156.5025 H   0  0  0  0  0  0  0  0  0  0  0  0
  149.4127  130.8444  153.6312 H   0  0  0  0  0  0  0  0  0  0  0  0
  148.1083  131.8482  151.7347 H   0  0  0  0  0  0  0  0  0  0  0  0
  147.6239  133.4994  151.7611 H   0  0  0  0  0  0  0  0  0  0  0  0
  151.4775  136.7169  155.8741 H   0  0  0  0  0  0  0  0  0  0  0  0
  150.9023  136.2786  154.2744 H   0  0  0  0  0  0  0  0  0  0  0  0
  149.4063  138.5418  155.4843 H   0  0  0  0  0  0  0  0  0  0  0  0
  149.6284  137.6100  153.2234 H   0  0  0  0  0  0  0  0  0  0  0  0
  152.0301  138.7447  156.1287 H   0  0  0  0  0  0  0  0  0  0  0  0
  152.1518  139.3396  154.4945 H   0  0  0  0  0  0  0  0  0  0  0  0
  149.5859  141.2363  154.3018 H   0  0  0  0  0  0  0  0  0  0  0  0
  150.5639  144.0271  158.3972 H   0  0  0  0  0  0  0  0  0  0  0  0
  151.9502  142.9350  161.3832 H   0  0  0  0  0  0  0  0  0  0  0  0
  151.6912  144.3962  160.4334 H   0  0  0  0  0  0  0  0  0  0  0  0
  153.3061  143.7012  160.5416 H   0  0  0  0  0  0  0  0  0  0  0  0
  153.9966  139.8635  159.8753 H   0  0  0  0  0  0  0  0  0  0  0  0
  153.1145  140.7589  161.1098 H   0  0  0  0  0  0  0  0  0  0  0  0
  154.4431  141.5300  160.2298 H   0  0  0  0  0  0  0  0  0  0  0  0
  152.8680  139.5869  157.8364 H   0  0  0  0  0  0  0  0  0  0  0  0
  150.3413  133.5160  156.7733 H   0  0  0  0  0  0  0  0  0  0  0  0
  149.4100  143.2489  155.8844 H   0  0  0  0  0  0  0  0  0  0  0  0
  1  2  1  0  0  0  0
  1 25  1  0  0  0  0
  1 26  1  0  0  0  0
  1 27  1  0  0  0  0
  2 24  1  0  0  0  0
  2  3  2  0  0  0  0
  3  4  1  0  0  0  0
  3 28  1  0  0  0  0
  4  5  1  0  0  0  0
  4  6  2  0  0  0  0
  5 29  1  0  0  0  0
  5 30  1  0  0  0  0
  6  7  1  0  0  0  0
  7  8  1  0  0  0  0
  7 24  2  0  0  0  0
  8  9  1  0  0  0  0
  9 10  1  0  0  0  0
  9 31  1  0  0  0  0
  9 32  1  0  0  0  0
 10 11  1  0  0  0  0
 10 12  1  0  0  0  0
 10 33  1  0  0  0  0
 11 34  1  0  0  0  0
 12 13  1  0  0  0  0
 12 35  1  0  0  0  0
 12 36  1  0  0  0  0
 13 23  1  0  0  0  0
 13 14  1  0  0  0  0
 14 15  2  0  0  0  0
 14 37  1  0  0  0  0
 15 16  1  0  0  0  0
 15 47  1  0  0  0  0
 16 23  2  0  0  0  0
 16 17  1  0  0  0  0
 17 18  2  0  0  0  0
 17 38  1  0  0  0  0
 18 19  1  0  0  0  0
 18 20  1  0  0  0  0
 19 39  1  0  0  0  0
 19 40  1  0  0  0  0
 19 41  1  0  0  0  0
 20 21  1  0  0  0  0
 20 22  2  0  0  0  0
 21 42  1  0  0  0  0
 21 43  1  0  0  0  0
 21 44  1  0  0  0  0
 22 23  1  0  0  0  0
 22 45  1  0  0  0  0
 24 46  1  0  0  0  0
M  CHG  1  15   1
M  CHG  1  24   1
M  END
> <s_m_source_file>
AV-unprocessed.smi

> <i_m_source_file_index>
1006

> <i_lp_mmshare_version>
43012

> <i_f3d_flags>
0

> <s_epik_input>
W0NIM11jMVtjSF1jKFtOSDJdKW5jKG4xKVNbQ0gyXVtDQEhdKFtPSF0pW0NIMl1uKFtjSF1uMiljKGMyMylbY0hdYyhbQ0gzXSljKFtjSF0zKVtDSDNd

> <s_epik_cmdline>
J2VwaWtfcHl0aG9uJywgJy1waCcsICc3LjAnLCAnLXRuJywgJzgnLCAnLW1hJywgJzIwMCcsICctbWV0YWxfYmluZGluZycsICctaW1hZScsICc8aW5maWxlLm1hZT4nLCAnLW9tYWUnLCAnPG91dGZpbGUubWFlPic=

> <r_lp_tautomer_probability>
0.999762

> <r_epik_Ionization_Penalty>
1.50932

> <r_epik_Ionization_Penalty_Charging>
1.50929

> <r_epik_Ionization_Penalty_Neutral>
3.48853e-05

> <r_epik_State_Penalty>
1.56619

> <r_epik_Charging_Adjusted_Penalty>
3.07548

> <i_epik_Tot_Q>
2

> <i_epik_Tot_abs_Q>
2

> <r_epik_Metal_State_Penalty>
1.82892

> <b_epik_Metal_Only>
0

> <s_lp_Force_Field>
OPLS_2005

> <r_lp_Energy>
18.0663

> <b_lp_Chiralities_Consistent>
1

> <s_lp_Variant>
AV-unprocessed.smi:1006-7

> <Gold.Version>
5.8.1

> <Gold.Id.Protein>
6NUR|6NUR_protein|mol2

> <Gold.PLP.Fitness>
56.9843

> <Gold.PLP.PLP>
-48.7225

> <Gold.PLP.part.hbond>
-4.0000

> <Gold.PLP.part.metal>
0.0000

> <Gold.PLP.part.buried>
-6.4098

> <Gold.PLP.part.nonpolar>
-39.0558

> <Gold.PLP.part.repulsive>
1.4313

> <Gold.PLP.ligand.clash>
0.0000

> <Gold.PLP.ligand.torsion>
1.7241

> <Gold.PLP.Chemscore.Hbond>
3.8960

> <Gold.PLP.Chemscore.CHOScore>
0.0000

> <Gold.PLP.Chemscore.Metal>
0.0000

> <Gold.Chemscore.Hbonds>
donor molecule, donor type, donor heavy atom, donor atom, acceptor molecule, acceptor atom, score
      L1  H     5    29       P1 10747  0.83
      L1  H    11    34       P1  7948  1.00
      L1  H    15    47       P1  8028  2.00

> <Gold.PLP.Chemscore.Internal.Correction>
0.0220

> <Gold.Rescore>
     Score         DG    S(hbond)    S(metal)    S(lipo)     H(rot)  DE(clash)    DE(int)     intcor
     17.45     -19.52       2.74        0.00     106.48       2.96       0.37       1.70       ----

> <Gold.Chemscore.Fitness>
17.4468

> <Gold.Chemscore.DG>
-19.5226

> <Gold.Chemscore.ZeroCoef>
-5.4800

> <Gold.Chemscore.Hbond>
2.7429

> <Gold.Chemscore.Metal>
0.0000

> <Gold.Chemscore.Lipo>
106.4844

> <Gold.Chemscore.Internal_Hbond>
0.0000

> <Gold.Chemscore.DEClash>
0.3733

> <Gold.Chemscore.DEInternal>
1.7024

> <Gold.Chemscore.Rot>
2.9599

> <Gold.Chemscore.Internal.Correction>
   9.000000E+99

> <Gold.Chemscore.Hbonds>
donor molecule, donor type, donor heavy atom, donor atom, acceptor molecule, acceptor atom, score
      L1  H     5    29       P1 10747  0.82
      L1  H    11    34       P1  7948  0.73
      L1  H    15    47       P1  8028  0.97

> <Gold.Chemscore.Hbond.Weighted>
-9.1612

> <Gold.Chemscore.Metal.Weighted>
-0.0000

> <Gold.Chemscore.Lipo.Weighted>
-12.4587

> <Gold.Chemscore.Internal_Hbond.Weighted>
0.0000

> <Gold.Chemscore.DEClash.Weighted>
0.3733

> <Gold.Chemscore.DEInternal.Weighted>
1.7024

> <Gold.Chemscore.Rot.Weighted>
7.5772

> <Gold.Chemscore.Internal.Correction.Weighted>
   9.000000E+99

> <Gold.Protein.RotatedTorsions>
[ 6907 6896 6895 6894 ] final  -99.96 input  -60.11 | X-H torsion
[ 7974 7965 7964 7962 ] final -167.55 input  175.53 | X-H torsion
[ 8008 7997 7996 7995 ] final  -65.11 input   59.86 | X-H torsion
[ 10167 10162 10161 10158 ] final   15.57 input  -65.29 | X-H torsion
[ 10718 10713 10712 10709 ] final  104.41 input   66.30 | X-H torsion
[ 10763 10752 10751 10750 ] final  -43.88 input  -60.55 | X-H torsion
[ 11005 11000 10999 10996 ] final   62.09 input  -57.11 | X-H torsion

> <Gold.Protein.ActiveResidues>
 VAL166  LYS551  ARG553  GLY616  TRP617  ASP618  TYR619  PRO620  LYS621  CYS622 
 ASP623  PHE694  ASN695  SER759  ASP760  ASP761  ALA762  ILE779  LEU786  VAL792 
 PHE793  MET794  SER795  GLU796  ALA797  LYS798  CYS799  TRP800  GLU811  SER814 

> <Gold.Protein.RotatedAtoms>
  150.7098  134.0960  159.3948 H   0  0  0  0  0  0  0  0  0  0  0  0  # atno 6907 bound_to 6896
  151.8946  135.0401  160.0510 H   0  0  0  0  0  0  0  0  0  0  0  0  # atno 6908 bound_to 6896
  152.2464  133.5142  159.5336 H   0  0  0  0  0  0  0  0  0  0  0  0  # atno 6909 bound_to 6896
  144.7221  140.2501  143.6279 H   0  0  0  0  0  0  0  0  0  0  0  0  # atno 7974 bound_to 7965
  154.4652  140.0940  156.7000 H   0  0  0  0  0  0  0  0  0  0  0  0  # atno 8008 bound_to 7997
  155.4880  140.3470  155.4332 H   0  0  0  0  0  0  0  0  0  0  0  0  # atno 8009 bound_to 7997
  156.0942  140.1405  156.9541 H   0  0  0  0  0  0  0  0  0  0  0  0  # atno 8010 bound_to 7997
  140.5858  143.8893  150.6829 H   0  0  0  0  0  0  0  0  0  0  0  0  # atno 10167 bound_to 10162
  157.6741  131.0803  150.5702 H   0  0  0  0  0  0  0  0  0  0  0  0  # atno 10718 bound_to 10713
  154.0029  135.6691  153.4760 H   0  0  0  0  0  0  0  0  0  0  0  0  # atno 10763 bound_to 10752
  153.0654  135.5004  154.8184 H   0  0  0  0  0  0  0  0  0  0  0  0  # atno 10764 bound_to 10752
  154.7042  135.3084  154.9259 H   0  0  0  0  0  0  0  0  0  0  0  0  # atno 10765 bound_to 10752
  140.0116  134.6288  155.9772 H   0  0  0  0  0  0  0  0  0  0  0  0  # atno 11005 bound_to 11000
  145.8236  139.2054  143.1923 LP  0  0  0  0  0  0  0  0  0  0  0  0  # atno 17320 bound_to 7965
  146.0492  140.8086  142.9790 LP  0  0  0  0  0  0  0  0  0  0  0  0  # atno 17321 bound_to 7965
  140.2403  143.3668  152.1492 LP  0  0  0  0  0  0  0  0  0  0  0  0  # atno 17342 bound_to 10162
  139.5197  144.7022  151.5459 LP  0  0  0  0  0  0  0  0  0  0  0  0  # atno 17343 bound_to 10162
  156.6004  130.4353  149.5899 LP  0  0  0  0  0  0  0  0  0  0  0  0  # atno 17370 bound_to 10713
  156.2511  130.6907  151.1645 LP  0  0  0  0  0  0  0  0  0  0  0  0  # atno 17371 bound_to 10713
  141.1714  133.6537  156.4667 LP  0  0  0  0  0  0  0  0  0  0  0  0  # atno 17394 bound_to 11000
  140.4545  134.6898  157.5056 LP  0  0  0  0  0  0  0  0  0  0  0  0  # atno 17395 bound_to 11000

$$$$
