#       Name:                AV-unprocessed.smi:3330
#       Creating user name   scv26
#       Creation time:       Fri Mar 27 19:18:36 2020


#       File generated by GOLD software.
#

@<TRIPOS>MOLECULE
AV-unprocessed.smi:3330
    44    45     1
SMALL
NO_CHARGES


@<TRIPOS>ATOM
      1 ****        -1.4945  -0.5587  -2.3394 C.3            1 S1                 0.0000
      2 ****        -0.9154  -0.4020  -0.9213 C.3            1 S1                 0.0000
      3 ****         0.5323  -0.5377  -1.0389 N.3            1 S1                 0.0000
      4 ****         1.2227   0.5881  -0.4297 C.3            1 S1                 0.0000
      5 ****         2.7392   0.3541  -0.4827 C.3            1 S1                 0.0000
      6 ****         3.4593   1.4563   0.1605 N.am           1 S1                 0.0000
      7 ****         3.7719   1.4917   1.4594 C.2            1 S1                 0.0000
      8 ****         3.5397   0.6394   2.3173 O.2            1 S1                 0.0000
      9 ****         4.4726   2.8041   1.7232 C.3            1 S1                 0.0000
     10 ****         4.4667   3.4249   0.4179 N.pl3          1 S1                -1.0000
     11 ****         3.8551   2.5881  -0.4528 C.2            1 S1                 0.0000
     12 ****         3.6566   2.7899  -1.6505 O.2            1 S1                 0.0000
     13 ****        -1.4591  -1.4491   0.0882 C.3            1 S1                 0.0000
     14 ****        -0.9821  -1.2044   1.5316 C.3            1 S1                 0.0000
     15 ****        -2.9149  -1.5129   0.0619 N.pl3          1 S1                 0.0000
     16 ****        -3.8272  -0.5231   0.3700 C.2            1 S1                 0.0000
     17 ****        -5.0753  -1.0503   0.2013 C.2            1 S1                 0.0000
     18 ****        -4.8231  -2.3870  -0.2149 C.2            1 S1                 0.0000
     19 ****        -3.5314  -2.6613  -0.2955 N.2            1 S1                 0.0000
     20 ****        -2.5702  -0.3843  -2.3583 H              1 S1                 0.0000
     21 ****        -1.3134  -1.5590  -2.7343 H              1 S1                 0.0000
     22 ****        -1.0444   0.1573  -3.0282 H              1 S1                 0.0000
     23 ****        -1.1744   0.5993  -0.5727 H              1 S1                 0.0000
     24 ****         0.8290  -1.3991  -0.6027 H              1 S1                 0.0000
     25 ****         0.9617   1.5057  -0.9585 H              1 S1                 0.0000
     26 ****         0.9022   0.7058   0.6058 H              1 S1                 0.0000
     27 ****         2.9906  -0.5877   0.0086 H              1 S1                 0.0000
     28 ****         3.0679   0.2446  -1.5178 H              1 S1                 0.0000
     29 ****         3.9229   3.3731   2.4736 H              1 S1                 0.0000
     30 ****         5.4758   2.6191   2.1082 H              1 S1                 0.0000
     31 ****        -1.0879  -2.4307  -0.2144 H              1 S1                 0.0000
     32 ****         0.1011  -1.2928   1.6150 H              1 S1                 0.0000
     33 ****        -1.4161  -1.9343   2.2155 H              1 S1                 0.0000
     34 ****        -1.2630  -0.2110   1.8826 H              1 S1                 0.0000
     35 ****        -3.5144   0.4637   0.6785 H              1 S1                 0.0000
     36 ****        -6.0240  -0.5572   0.3524 H              1 S1                 0.0000
     37 ****        -5.5353  -3.1614  -0.4586 H              1 S1                 0.0000
     38 ****         0.7660  -0.5527  -2.0111 LP             1 S1                 0.0000
     39 ****         3.0613  -0.2029   2.0687 LP             1 S1                 0.0000
     40 ****         3.8295   0.7895   3.2625 LP             1 S1                 0.0000
     41 ****         4.8498   4.3214   0.1955 LP             1 S1                 0.0000
     42 ****         3.1869   2.1009  -2.2025 LP             1 S1                 0.0000
     43 ****         3.9650   3.6428  -2.0717 LP             1 S1                 0.0000
     44 ****        -3.1058  -3.5262  -0.5617 LP             1 S1                 0.0000
@<TRIPOS>BOND
    1    1    2 1     
    2    1   20 1     
    3    1   21 1     
    4    1   22 1     
    5    2    3 1     
    6    2   13 1     
    7    2   23 1     
    8    3    4 1     
    9    3   24 1     
   10    4    5 1     
   11    4   25 1     
   12    4   26 1     
   13    5    6 1     
   14    5   27 1     
   15    5   28 1     
   16    6   11 am    
   17    6    7 am    
   18    7    8 2     
   19    7    9 1     
   20    9   10 1     
   21    9   29 1     
   22    9   30 1     
   23   10   11 1     
   24   11   12 2     
   25   13   14 1     
   26   13   15 1     
   27   13   31 1     
   28   14   32 1     
   29   14   33 1     
   30   14   34 1     
   31   15   19 1     
   32   15   16 1     
   33   16   17 2     
   34   16   35 1     
   35   17   18 1     
   36   17   36 1     
   37   18   19 2     
   38   18   37 1     
   39    3   38 1     
   40    8   39 1     
   41    8   40 1     
   42   10   41 1     
   43   12   42 1     
   44   12   43 1     
   45   19   44 1     
@<TRIPOS>SUBSTRUCTURE
      1 S1             1
@<TRIPOS>SET
LONE_PAIRS      STATIC     ATOMS    <user>   **** ""
7 38 39 40 41 42 43 44
DONOR_HYDROGENS      STATIC     ATOMS    <user>   **** ""
1 24
ATOM$BLUE        STATIC     ATOMS    COLORGROUP SYSTEM
7 38 39 40 41 42 43 44
ATOM$RED        STATIC     ATOMS    COLORGROUP SYSTEM
1 24
