AV-unprocessed.smi:1744|AV-procd|sdf|7028|dock1
  -GOLD-   22720 8243D 1   1.00000     0.00000
 Structure written by MMmdl.
 43 44  0  0  0  0  0  0  0  0  3 V2000
  151.4927  145.6047  159.6566 C   0  0  0  0  0  0  0  0  0  0  0  0
  152.5070  144.4629  159.7962 C   0  0  0  0  0  0  0  0  0  0  0  0
  152.0268  143.2393  159.1844 N   0  0  0  0  0  0  0  0  0  0  0  0
  150.9862  143.0815  158.2907 C   0  0  0  0  0  0  0  0  0  0  0  0
  150.9365  141.7490  158.0100 C   0  0  0  0  0  0  0  0  0  0  0  0
  150.0129  141.1419  157.1227 N   0  0  0  0  0  0  0  0  0  0  0  0
  150.2866  140.5469  155.9503 C   0  0  0  0  0  0  0  0  0  0  0  0
  151.4121  140.4106  155.4715 O   0  0  0  0  0  0  0  0  0  0  0  0
  149.1691  140.1107  155.3510 N   0  0  0  0  0  0  0  0  0  0  0  0
  149.1173  139.4216  154.0615 C   0  0  2  0  0  0  0  0  0  0  0  0
  147.7310  138.8012  153.7979 C   0  0  0  0  0  0  0  0  0  0  0  0
  147.4564  137.5949  154.7127 C   0  0  0  0  0  0  0  0  0  0  0  0
  148.5236  136.5666  154.5804 N   0  3  2  0  0  0  0  0  0  0  0  0
  148.2382  135.3266  155.3444 C   0  0  0  0  0  0  0  0  0  0  0  0
  149.0576  134.1580  154.7866 C   0  0  0  0  0  0  0  0  0  0  0  0
  148.7521  133.8810  153.5048 N   0  5  0  0  0  0  0  0  0  0  0  0
  149.8910  133.6046  155.5011 O   0  0  0  0  0  0  0  0  0  0  0  0
  149.8635  137.1249  154.8939 C   0  0  0  0  0  0  0  0  0  0  0  0
  150.1957  138.3268  153.9901 C   0  0  0  0  0  0  0  0  0  0  0  0
  151.9796  141.1520  158.7733 C   0  0  0  0  0  0  0  0  0  0  0  0
  152.6318  142.0625  159.4803 N   0  0  0  0  0  0  0  0  0  0  0  0
  151.8677  146.5157  160.1232 H   0  0  0  0  0  0  0  0  0  0  0  0
  150.5459  145.3510  160.1343 H   0  0  0  0  0  0  0  0  0  0  0  0
  151.2902  145.8277  158.6085 H   0  0  0  0  0  0  0  0  0  0  0  0
  153.4550  144.7387  159.3325 H   0  0  0  0  0  0  0  0  0  0  0  0
  152.7136  144.2695  160.8493 H   0  0  0  0  0  0  0  0  0  0  0  0
  150.3904  143.9113  157.9403 H   0  0  0  0  0  0  0  0  0  0  0  0
  149.0446  141.1734  157.4058 H   0  0  0  0  0  0  0  0  0  0  0  0
  148.2897  140.2628  155.8227 H   0  0  0  0  0  0  0  0  0  0  0  0
  149.3285  140.1549  153.2808 H   0  0  0  0  0  0  0  0  0  0  0  0
  146.9450  139.5476  153.9170 H   0  0  0  0  0  0  0  0  0  0  0  0
  147.6781  138.4751  152.7582 H   0  0  0  0  0  0  0  0  0  0  0  0
  147.3849  137.9172  155.7525 H   0  0  0  0  0  0  0  0  0  0  0  0
  146.4874  137.1688  154.4515 H   0  0  0  0  0  0  0  0  0  0  0  0
  148.5407  135.4526  156.3850 H   0  0  0  0  0  0  0  0  0  0  0  0
  147.1649  135.1244  155.3561 H   0  0  0  0  0  0  0  0  0  0  0  0
  148.5445  134.6599  152.8684 H   0  0  0  0  0  0  0  0  0  0  0  0
  149.8995  137.4157  155.9447 H   0  0  0  0  0  0  0  0  0  0  0  0
  150.6237  136.3553  154.7539 H   0  0  0  0  0  0  0  0  0  0  0  0
  150.2837  137.9804  152.9593 H   0  0  0  0  0  0  0  0  0  0  0  0
  151.1707  138.7378  154.2546 H   0  0  0  0  0  0  0  0  0  0  0  0
  152.2881  140.1196  158.8416 H   0  0  0  0  0  0  0  0  0  0  0  0
  148.5484  136.2904  153.6089 H   0  0  0  0  0  0  0  0  0  0  0  0
  1  2  1  0  0  0  0
  1 22  1  0  0  0  0
  1 23  1  0  0  0  0
  1 24  1  0  0  0  0
  2  3  1  0  0  0  0
  2 25  1  0  0  0  0
  2 26  1  0  0  0  0
  3 21  1  0  0  0  0
  3  4  1  0  0  0  0
  4  5  2  0  0  0  0
  4 27  1  0  0  0  0
  5  6  1  0  0  0  0
  5 20  1  0  0  0  0
  6  7  1  0  0  0  0
  6 28  1  0  0  0  0
  7  8  2  0  0  0  0
  7  9  1  0  0  0  0
  9 10  1  0  0  0  0
  9 29  1  0  0  0  0
 10 19  1  0  0  0  0
 10 11  1  0  0  0  0
 10 30  1  0  0  0  0
 11 12  1  0  0  0  0
 11 31  1  0  0  0  0
 11 32  1  0  0  0  0
 12 13  1  0  0  0  0
 12 33  1  0  0  0  0
 12 34  1  0  0  0  0
 13 14  1  0  0  0  0
 13 18  1  0  0  0  0
 13 43  1  0  0  0  0
 14 15  1  0  0  0  0
 14 35  1  0  0  0  0
 14 36  1  0  0  0  0
 15 16  1  0  0  0  0
 15 17  2  0  0  0  0
 16 37  1  0  0  0  0
 18 19  1  0  0  0  0
 18 38  1  0  0  0  0
 18 39  1  0  0  0  0
 19 40  1  0  0  0  0
 19 41  1  0  0  0  0
 20 21  2  0  0  0  0
 20 42  1  0  0  0  0
M  CHG  1  13   1
M  CHG  1  16  -1
M  END
> <s_m_source_file>
AV-unprocessed.smi

> <i_m_source_file_index>
1744

> <i_lp_mmshare_version>
43012

> <i_f3d_flags>
0

> <s_epik_input>
W0NIM11bQ0gyXW4xW2NIXWMoW2NIXW4xKVtOSF1DKD1PKVtOSF1bQ0hdMltDSDJdW0NIMl1OKFtDSDJdW0NIMl0yKVtDSDJdQyg9TylbTkgyXQ==

> <s_epik_cmdline>
J2VwaWtfcHl0aG9uJywgJy1waCcsICc3LjAnLCAnLXRuJywgJzgnLCAnLW1hJywgJzIwMCcsICctbWV0YWxfYmluZGluZycsICctaW1hZScsICc8aW5maWxlLm1hZT4nLCAnLW9tYWUnLCAnPG91dGZpbGUubWFlPic=

> <r_lp_tautomer_probability>
1

> <r_epik_Ionization_Penalty>
5.72895

> <r_epik_Ionization_Penalty_Charging>
5.7288

> <r_epik_Ionization_Penalty_Neutral>
0.000148676

> <r_epik_State_Penalty>
6.54882

> <r_epik_Charging_Adjusted_Penalty>
12.2776

> <i_epik_Tot_Q>
0

> <i_epik_Tot_abs_Q>
2

> <r_epik_Metal_State_Penalty>
2.51309

> <b_epik_Metal_Only>
1

> <s_lp_Force_Field>
OPLS_2005

> <r_lp_Energy>
11.9421

> <b_lp_Chiralities_Consistent>
1

> <s_lp_Variant>
AV-unprocessed.smi:1744-5

> <Gold.Version>
5.8.1

> <Gold.Id.Protein>
6NUR|6NUR_protein|mol2

> <Gold.PLP.Fitness>
42.5047

> <Gold.PLP.PLP>
-32.2380

> <Gold.PLP.part.hbond>
-3.0000

> <Gold.PLP.part.metal>
0.0000

> <Gold.PLP.part.buried>
-2.8021

> <Gold.PLP.part.nonpolar>
-26.7787

> <Gold.PLP.part.repulsive>
0.1404

> <Gold.PLP.ligand.clash>
0.0000

> <Gold.PLP.ligand.torsion>
1.1299

> <Gold.PLP.Chemscore.Hbond>
3.8960

> <Gold.PLP.Chemscore.CHOScore>
0.2668

> <Gold.PLP.Chemscore.Metal>
0.0000

> <Gold.Chemscore.Hbonds>
donor molecule, donor type, donor heavy atom, donor atom, acceptor molecule, acceptor atom, score
      L1  H    13    43       P1  7948  2.00
      L1  H    16    37       P1  7948  1.00
      P1  H  7989  7998       L1     8  0.90
      L1  C     4    27       P1  8028  0.27

> <Gold.PLP.Chemscore.Internal.Correction>
0.0381

> <Gold.Rescore>
     Score         DG    S(hbond)    S(metal)    S(lipo)     H(rot)  DE(clash)    DE(int)     intcor
     14.88     -17.32       2.57        0.00      75.71       2.18       0.13       2.31       ----

> <Gold.Chemscore.Fitness>
14.8802

> <Gold.Chemscore.DG>
-17.3168

> <Gold.Chemscore.ZeroCoef>
-5.4800

> <Gold.Chemscore.Hbond>
2.5653

> <Gold.Chemscore.Metal>
0.0000

> <Gold.Chemscore.Lipo>
75.7091

> <Gold.Chemscore.Internal_Hbond>
0.0000

> <Gold.Chemscore.DEClash>
0.1254

> <Gold.Chemscore.DEInternal>
2.3113

> <Gold.Chemscore.Rot>
2.1833

> <Gold.Chemscore.Internal.Correction>
   9.000000E+99

> <Gold.Chemscore.Hbonds>
donor molecule, donor type, donor heavy atom, donor atom, acceptor molecule, acceptor atom, score
      L1  H    13    43       P1  7948  1.00
      L1  H    16    37       P1  7948  0.25
      P1  H  7989  7998       L1     8  0.76

> <Gold.Chemscore.Hbond.Weighted>
-8.5680

> <Gold.Chemscore.Metal.Weighted>
-0.0000

> <Gold.Chemscore.Lipo.Weighted>
-8.8580

> <Gold.Chemscore.Internal_Hbond.Weighted>
0.0000

> <Gold.Chemscore.DEClash.Weighted>
0.1254

> <Gold.Chemscore.DEInternal.Weighted>
2.3113

> <Gold.Chemscore.Rot.Weighted>
5.5892

> <Gold.Chemscore.Internal.Correction.Weighted>
   9.000000E+99

> <Gold.Protein.RotatedTorsions>
[ 6907 6896 6895 6894 ] final  -97.52 input  -60.11 | X-H torsion
[ 7974 7965 7964 7962 ] final  158.97 input  175.53 | X-H torsion
[ 8008 7997 7996 7995 ] final   17.88 input   59.86 | X-H torsion
[ 10167 10162 10161 10158 ] final  114.78 input  -65.29 | X-H torsion
[ 10718 10713 10712 10709 ] final -115.20 input   66.30 | X-H torsion
[ 10763 10752 10751 10750 ] final   10.44 input  -60.55 | X-H torsion
[ 11005 11000 10999 10996 ] final   50.83 input  -57.11 | X-H torsion

> <Gold.Protein.ActiveResidues>
 VAL166  LYS551  ARG553  GLY616  TRP617  ASP618  TYR619  PRO620  LYS621  CYS622 
 ASP623  PHE694  ASN695  SER759  ASP760  ASP761  ALA762  ILE779  LEU786  VAL792 
 PHE793  MET794  SER795  GLU796  ALA797  LYS798  CYS799  TRP800  GLU811  SER814 

> <Gold.Protein.RotatedAtoms>
  150.7019  134.1336  159.4078 H   0  0  0  0  0  0  0  0  0  0  0  0  # atno 6907 bound_to 6896
  151.9322  135.0249  160.0539 H   0  0  0  0  0  0  0  0  0  0  0  0  # atno 6908 bound_to 6896
  152.2166  133.4916  159.5176 H   0  0  0  0  0  0  0  0  0  0  0  0  # atno 6909 bound_to 6896
  144.7816  139.7553  143.6257 H   0  0  0  0  0  0  0  0  0  0  0  0  # atno 7974 bound_to 7965
  154.8979  140.2996  155.5334 H   0  0  0  0  0  0  0  0  0  0  0  0  # atno 8008 bound_to 7997
  156.3019  140.2412  156.3938 H   0  0  0  0  0  0  0  0  0  0  0  0  # atno 8009 bound_to 7997
  154.8551  140.0407  157.1618 H   0  0  0  0  0  0  0  0  0  0  0  0  # atno 8010 bound_to 7997
  139.6364  144.7120  151.2326 H   0  0  0  0  0  0  0  0  0  0  0  0  # atno 10167 bound_to 10162
  156.0880  130.6068  150.8875 H   0  0  0  0  0  0  0  0  0  0  0  0  # atno 10718 bound_to 10713
  153.2032  135.6859  153.8205 H   0  0  0  0  0  0  0  0  0  0  0  0  # atno 10763 bound_to 10752
  153.7463  135.3230  155.3314 H   0  0  0  0  0  0  0  0  0  0  0  0  # atno 10764 bound_to 10752
  154.8183  135.4670  154.0808 H   0  0  0  0  0  0  0  0  0  0  0  0  # atno 10765 bound_to 10752
  140.0984  134.5115  155.8786 H   0  0  0  0  0  0  0  0  0  0  0  0  # atno 11005 bound_to 11000
  146.2026  139.5331  142.9733 LP  0  0  0  0  0  0  0  0  0  0  0  0  # atno 17320 bound_to 7965
  145.6035  141.0351  143.2005 LP  0  0  0  0  0  0  0  0  0  0  0  0  # atno 17321 bound_to 7965
  140.7467  143.6389  150.8353 LP  0  0  0  0  0  0  0  0  0  0  0  0  # atno 17342 bound_to 10162
  140.0021  143.5733  152.2871 LP  0  0  0  0  0  0  0  0  0  0  0  0  # atno 17343 bound_to 10162
  157.6020  131.0941  150.8943 LP  0  0  0  0  0  0  0  0  0  0  0  0  # atno 17370 bound_to 10713
  156.9099  130.5277  149.5280 LP  0  0  0  0  0  0  0  0  0  0  0  0  # atno 17371 bound_to 10713
  141.2098  133.6688  156.6468 LP  0  0  0  0  0  0  0  0  0  0  0  0  # atno 17394 bound_to 11000
  140.3254  134.7973  157.4285 LP  0  0  0  0  0  0  0  0  0  0  0  0  # atno 17395 bound_to 11000

$$$$
