AV-unprocessed.smi:72|AV-procd|sdf|753|dock5
  -GOLD-   2262017 93D 1   1.00000     0.00000
 Structure written by MMmdl.
 29 30  0  0  0  0  0  0  0  0  1 V2000
  154.1146  138.1804  154.7709 N   0  0  0  0  0  0  0  0  0  0  0  0
  152.7733  138.4988  154.8137 C   0  0  0  0  0  0  0  0  0  0  0  0
  151.9240  137.7284  154.0078 N   0  0  0  0  0  0  0  0  0  0  0  0
  150.6627  138.0213  154.0469 C   0  0  0  0  0  0  0  0  0  0  0  0
  150.1634  139.0979  154.8858 N   0  0  0  0  0  0  0  0  0  0  0  0
  148.6900  139.4631  154.9560 C   0  0  2  0  0  0  0  0  0  0  0  0
  147.9387  138.5824  154.1705 O   0  0  0  0  0  0  0  0  0  0  0  0
  147.4647  139.2464  153.0025 C   0  0  1  0  0  0  0  0  0  0  0  0
  146.2323  138.5349  152.4175 C   0  0  0  0  0  0  0  0  0  0  0  0
  146.4214  138.2912  151.0399 O   0  0  0  0  0  0  0  0  0  0  0  0
  147.2306  140.6798  153.4950 C   0  0  1  0  0  0  0  0  0  0  0  0
  145.9921  140.7924  154.1730 O   0  0  0  0  0  0  0  0  0  0  0  0
  148.3878  140.8992  154.4605 C   0  0  2  0  0  0  0  0  0  0  0  0
  149.4677  141.5110  153.7762 O   0  0  0  0  0  0  0  0  0  0  0  0
  151.0840  139.8413  155.6746 C   0  0  0  0  0  0  0  0  0  0  0  0
  150.6839  140.7657  156.3822 O   0  0  0  0  0  0  0  0  0  0  0  0
  152.4347  139.4816  155.5978 N   0  0  0  0  0  0  0  0  0  0  0  0
  148.3983  139.2977  155.9945 H   0  0  0  0  0  0  0  0  0  0  0  0
  148.2640  139.2758  152.2599 H   0  0  0  0  0  0  0  0  0  0  0  0
  147.2279  141.3958  152.6719 H   0  0  0  0  0  0  0  0  0  0  0  0
  148.1138  141.5319  155.3059 H   0  0  0  0  0  0  0  0  0  0  0  0
  154.8172  138.6671  155.3083 H   0  0  0  0  0  0  0  0  0  0  0  0
  154.4934  137.4400  154.1984 H   0  0  0  0  0  0  0  0  0  0  0  0
  149.9149  137.4858  153.4624 H   0  0  0  0  0  0  0  0  0  0  0  0
  146.0252  137.6011  152.9411 H   0  0  0  0  0  0  0  0  0  0  0  0
  145.3506  139.1686  152.5174 H   0  0  0  0  0  0  0  0  0  0  0  0
  145.6527  138.5830  150.5741 H   0  0  0  0  0  0  0  0  0  0  0  0
  145.3367  141.0781  153.5552 H   0  0  0  0  0  0  0  0  0  0  0  0
  149.6920  140.9738  153.0317 H   0  0  0  0  0  0  0  0  0  0  0  0
  1  2  1  0  0  0  0
  1 22  1  0  0  0  0
  1 23  1  0  0  0  0
  2 17  2  0  0  0  0
  2  3  1  0  0  0  0
  3  4  2  0  0  0  0
  4  5  1  0  0  0  0
  4 24  1  0  0  0  0
  5  6  1  0  0  0  0
  5 15  1  0  0  0  0
  6 18  1  0  0  0  0
  6 13  1  0  0  0  0
  6  7  1  0  0  0  0
  7  8  1  0  0  0  0
  8 19  1  0  0  0  0
  8  9  1  0  0  0  0
  8 11  1  0  0  0  0
  9 10  1  0  0  0  0
  9 25  1  0  0  0  0
  9 26  1  0  0  0  0
 10 27  1  0  0  0  0
 11 20  1  0  0  0  0
 11 12  1  0  0  0  0
 11 13  1  0  0  0  0
 12 28  1  0  0  0  0
 13 21  1  0  0  0  0
 13 14  1  0  0  0  0
 14 29  1  0  0  0  0
 15 16  2  0  0  0  0
 15 17  1  0  0  0  0
M  END
> <s_m_source_file>
AV-unprocessed.smi

> <i_m_source_file_index>
72

> <i_lp_mmshare_version>
43012

> <i_f3d_flags>
0

> <s_epik_input>
W05IMl1jMW5bY0hdbihjKD1PKW4xKVtDQEBIXTJPW0NASF0oW0NIMl1bT0hdKVtDQEBIXShbT0hdKVtDQEhdMltPSF0=

> <s_epik_cmdline>
J2VwaWtfcHl0aG9uJywgJy1waCcsICc3LjAnLCAnLXRuJywgJzgnLCAnLW1hJywgJzIwMCcsICctbWV0YWxfYmluZGluZycsICctaW1hZScsICc8aW5maWxlLm1hZT4nLCAnLW9tYWUnLCAnPG91dGZpbGUubWFlPic=

> <r_lp_tautomer_probability>
4.77166e-05

> <r_epik_Ionization_Penalty>
1.3546

> <r_epik_Ionization_Penalty_Charging>
1.46833e-10

> <r_epik_Ionization_Penalty_Neutral>
1.3546

> <r_epik_State_Penalty>
3.51908

> <r_epik_Charging_Adjusted_Penalty>
3.51908

> <i_epik_Tot_Q>
0

> <i_epik_Tot_abs_Q>
0

> <r_epik_Metal_State_Penalty>
3.44088

> <b_epik_Metal_Only>
1

> <s_epik_Chemistry_Notes>
This compound contains an acetal/aminal-like group ( X-CH(R)-Y where X, Y are N, S, or O) that may be acid/base labile, releasing an aldehyde.

> <s_lp_Force_Field>
OPLS_2005

> <r_lp_Energy>
33.7938

> <b_lp_Chiralities_Consistent>
1

> <s_lp_Variant>
AV-unprocessed.smi:72-91

> <Gold.Version>
5.8.1

> <Gold.Id.Protein>
6NUR|6NUR_protein|mol2

> <Gold.PLP.Fitness>
46.2113

> <Gold.PLP.PLP>
-29.6127

> <Gold.PLP.part.hbond>
-8.3740

> <Gold.PLP.part.metal>
0.0000

> <Gold.PLP.part.buried>
-1.8825

> <Gold.PLP.part.nonpolar>
-22.4065

> <Gold.PLP.part.repulsive>
2.3393

> <Gold.PLP.ligand.clash>
0.0000

> <Gold.PLP.ligand.torsion>
0.7386

> <Gold.PLP.Chemscore.Hbond>
4.9796

> <Gold.PLP.Chemscore.CHOScore>
1.0297

> <Gold.PLP.Chemscore.Metal>
0.0000

> <Gold.Chemscore.Hbonds>
donor molecule, donor type, donor heavy atom, donor atom, acceptor molecule, acceptor atom, score
      L1  H    10    27       P1 10171  1.00
      L1  H    12    28       P1 10175  0.84
      L1  H    14    29       P1  7957  0.86
      P1  H  7954  7966       L1    10  0.76
      P1  H  7997  8008       L1    17  0.75
      P1  H 10752 10765       L1     3  0.13
      L1  C     4    24       P1  7948  1.00

> <Gold.PLP.Chemscore.Internal.Correction>
0.0477

> <Gold.Rescore>
     Score         DG    S(hbond)    S(metal)    S(lipo)     H(rot)  DE(clash)    DE(int)     intcor
      8.51     -11.45       3.85        0.00      30.03       4.06       2.25       0.69       ----

> <Gold.Chemscore.Fitness>
8.5131

> <Gold.Chemscore.DG>
-11.4539

> <Gold.Chemscore.ZeroCoef>
-5.4800

> <Gold.Chemscore.Hbond>
3.8484

> <Gold.Chemscore.Metal>
0.0000

> <Gold.Chemscore.Lipo>
30.0323

> <Gold.Chemscore.Internal_Hbond>
0.0000

> <Gold.Chemscore.DEClash>
2.2507

> <Gold.Chemscore.DEInternal>
0.6900

> <Gold.Chemscore.Rot>
4.0600

> <Gold.Chemscore.Internal.Correction>
   9.000000E+99

> <Gold.Chemscore.Hbonds>
donor molecule, donor type, donor heavy atom, donor atom, acceptor molecule, acceptor atom, score
      L1  H    10    27       P1 10171  0.99
      L1  H    12    28       P1 10175  0.48
      L1  H    14    29       P1  7957  0.84
      P1  H  7954  7966       L1    10  0.69
      P1  H  7997  8008       L1    17  0.22
      P1  H 10752 10765       L1     3  0.02

> <Gold.Chemscore.Hbond.Weighted>
-12.8537

> <Gold.Chemscore.Metal.Weighted>
-0.0000

> <Gold.Chemscore.Lipo.Weighted>
-3.5138

> <Gold.Chemscore.Internal_Hbond.Weighted>
0.0000

> <Gold.Chemscore.DEClash.Weighted>
2.2507

> <Gold.Chemscore.DEInternal.Weighted>
0.6900

> <Gold.Chemscore.Rot.Weighted>
10.3936

> <Gold.Chemscore.Internal.Correction.Weighted>
   9.000000E+99

> <Gold.Protein.RotatedTorsions>
[ 6907 6896 6895 6894 ] final   39.41 input  -60.11 | X-H torsion
[ 7974 7965 7964 7962 ] final -105.17 input  175.53 | X-H torsion
[ 8008 7997 7996 7995 ] final  -41.80 input   59.86 | X-H torsion
[ 10167 10162 10161 10158 ] final -139.14 input  -65.29 | X-H torsion
[ 10718 10713 10712 10709 ] final   35.72 input   66.30 | X-H torsion
[ 10763 10752 10751 10750 ] final  171.79 input  -60.55 | X-H torsion
[ 11005 11000 10999 10996 ] final  178.35 input  -57.11 | X-H torsion

> <Gold.Protein.ActiveResidues>
 VAL166  LYS551  ARG553  GLY616  TRP617  ASP618  TYR619  PRO620  LYS621  CYS622 
 ASP623  PHE694  ASN695  SER759  ASP760  ASP761  ALA762  ILE779  LEU786  VAL792 
 PHE793  MET794  SER795  GLU796  ALA797  LYS798  CYS799  TRP800  GLU811  SER814 

> <Gold.Protein.RotatedAtoms>
  152.1692  134.8848  160.0535 H   0  0  0  0  0  0  0  0  0  0  0  0  # atno 6907 bound_to 6896
  151.9815  133.3754  159.4117 H   0  0  0  0  0  0  0  0  0  0  0  0  # atno 6908 bound_to 6896
  150.6899  134.3957  159.5140 H   0  0  0  0  0  0  0  0  0  0  0  0  # atno 6909 bound_to 6896
  145.2338  140.9180  143.3189 H   0  0  0  0  0  0  0  0  0  0  0  0  # atno 7974 bound_to 7965
  154.4002  140.1490  156.3251 H   0  0  0  0  0  0  0  0  0  0  0  0  # atno 8008 bound_to 7997
  155.8494  140.3458  155.5662 H   0  0  0  0  0  0  0  0  0  0  0  0  # atno 8009 bound_to 7997
  155.8000  140.0869  157.1953 H   0  0  0  0  0  0  0  0  0  0  0  0  # atno 8010 bound_to 7997
  139.8409  143.7323  152.2663 H   0  0  0  0  0  0  0  0  0  0  0  0  # atno 10167 bound_to 10162
  157.3261  130.7473  149.6816 H   0  0  0  0  0  0  0  0  0  0  0  0  # atno 10718 bound_to 10713
  154.4169  135.2757  155.2000 H   0  0  0  0  0  0  0  0  0  0  0  0  # atno 10763 bound_to 10752
  154.3962  135.6055  153.5875 H   0  0  0  0  0  0  0  0  0  0  0  0  # atno 10764 bound_to 10752
  152.9832  135.5915  154.4459 H   0  0  0  0  0  0  0  0  0  0  0  0  # atno 10765 bound_to 10752
  140.3941  134.6835  157.4525 H   0  0  0  0  0  0  0  0  0  0  0  0  # atno 11005 bound_to 11000
  144.9651  139.3938  143.6336 LP  0  0  0  0  0  0  0  0  0  0  0  0  # atno 17320 bound_to 7965
  146.3346  139.8723  142.8838 LP  0  0  0  0  0  0  0  0  0  0  0  0  # atno 17321 bound_to 7965
  139.7560  144.7520  151.0435 LP  0  0  0  0  0  0  0  0  0  0  0  0  # atno 17342 bound_to 10162
  140.7798  143.4805  151.0024 LP  0  0  0  0  0  0  0  0  0  0  0  0  # atno 17343 bound_to 10162
  155.9691  130.4209  150.4443 LP  0  0  0  0  0  0  0  0  0  0  0  0  # atno 17370 bound_to 10713
  157.2467  131.0537  151.2404 LP  0  0  0  0  0  0  0  0  0  0  0  0  # atno 17371 bound_to 10713
  140.0384  134.6303  155.9012 LP  0  0  0  0  0  0  0  0  0  0  0  0  # atno 17394 bound_to 11000
  141.1880  133.6561  156.5306 LP  0  0  0  0  0  0  0  0  0  0  0  0  # atno 17395 bound_to 11000

$$$$
