AV-unprocessed.smi:1211|AV-procd|sdf|5079|dock4
  -GOLD-   22720 4133D 1   1.00000     0.00000
 Structure written by MMmdl.
 47 49  0  0  0  0  0  0  0  0  1 V2000
  147.7521  133.1064  152.2419 C   0  0  0  0  0  0  0  0  0  0  0  0
  146.3302  133.3105  151.7448 C   0  0  0  0  0  0  0  0  0  0  0  0
  145.6361  132.2235  151.1723 C   0  0  0  0  0  0  0  0  0  0  0  0
  144.3223  132.4144  150.7116 C   0  0  0  0  0  0  0  0  0  0  0  0
  143.7544  133.6928  150.8450 C   0  0  0  0  0  0  0  0  0  0  0  0
  144.4100  134.7370  151.3914 N   0  0  0  0  0  0  0  0  0  0  0  0
  145.6796  134.5700  151.8399 C   0  0  0  0  0  0  0  0  0  0  0  0
  146.4311  135.6258  152.4284 N   0  0  0  0  0  0  0  0  0  0  0  0
  146.0270  136.5420  153.3258 C   0  0  0  0  0  0  0  0  0  0  0  0
  144.8942  136.6227  153.8020 O   0  0  0  0  0  0  0  0  0  0  0  0
  147.0273  137.3743  153.6479 N   0  0  0  0  0  0  0  0  0  0  0  0
  146.9433  138.4876  154.5929 C   0  0  0  0  0  0  0  0  0  0  0  0
  148.3267  139.1737  154.8494 C   0  0  2  0  0  0  0  0  0  0  0  0
  149.4321  138.1712  154.7454 N   0  0  0  0  0  0  0  0  0  0  0  0
  149.2934  136.9671  155.5777 C   0  0  0  0  0  0  0  0  0  0  0  0
  150.4324  135.9591  155.3467 C   0  0  0  0  0  0  0  0  0  0  0  0
  151.6861  136.5849  155.5826 O   0  0  0  0  0  0  0  0  0  0  0  0
  151.8908  137.7085  154.7374 C   0  0  0  0  0  0  0  0  0  0  0  0
  150.7703  138.7369  154.9644 C   0  0  0  0  0  0  0  0  0  0  0  0
  148.2641  139.8831  156.2334 C   0  0  0  0  0  0  0  0  0  0  0  0
  147.3317  141.0955  156.1384 C   0  0  0  0  0  0  0  0  0  0  0  0
  147.4816  141.7577  154.4623 S   0  0  0  0  0  0  0  0  0  0  0  0
  148.4676  140.3586  153.8596 C   0  0  0  0  0  0  0  0  0  0  0  0
  148.0873  132.0821  152.0766 H   0  0  0  0  0  0  0  0  0  0  0  0
  147.8158  133.3122  153.3110 H   0  0  0  0  0  0  0  0  0  0  0  0
  148.4387  133.7722  151.7186 H   0  0  0  0  0  0  0  0  0  0  0  0
  146.1023  131.2530  151.0853 H   0  0  0  0  0  0  0  0  0  0  0  0
  143.7651  131.6028  150.2679 H   0  0  0  0  0  0  0  0  0  0  0  0
  142.7474  133.8832  150.5045 H   0  0  0  0  0  0  0  0  0  0  0  0
  147.3909  135.6927  152.1242 H   0  0  0  0  0  0  0  0  0  0  0  0
  147.9260  137.2230  153.2141 H   0  0  0  0  0  0  0  0  0  0  0  0
  146.2234  139.2002  154.1934 H   0  0  0  0  0  0  0  0  0  0  0  0
  146.4763  138.1574  155.5204 H   0  0  0  0  0  0  0  0  0  0  0  0
  149.2695  137.2304  156.6345 H   0  0  0  0  0  0  0  0  0  0  0  0
  148.3680  136.4413  155.3554 H   0  0  0  0  0  0  0  0  0  0  0  0
  150.3274  135.1094  156.0214 H   0  0  0  0  0  0  0  0  0  0  0  0
  150.3989  135.5655  154.3297 H   0  0  0  0  0  0  0  0  0  0  0  0
  152.8612  138.1506  154.9632 H   0  0  0  0  0  0  0  0  0  0  0  0
  151.9183  137.3902  153.6940 H   0  0  0  0  0  0  0  0  0  0  0  0
  150.9591  139.5710  154.2924 H   0  0  0  0  0  0  0  0  0  0  0  0
  150.8480  139.1267  155.9799 H   0  0  0  0  0  0  0  0  0  0  0  0
  147.9754  139.2134  157.0432 H   0  0  0  0  0  0  0  0  0  0  0  0
  149.2326  140.2938  156.5094 H   0  0  0  0  0  0  0  0  0  0  0  0
  146.2958  140.8042  156.3117 H   0  0  0  0  0  0  0  0  0  0  0  0
  147.5809  141.8570  156.8776 H   0  0  0  0  0  0  0  0  0  0  0  0
  149.4954  140.7129  153.8038 H   0  0  0  0  0  0  0  0  0  0  0  0
  148.1686  140.0956  152.8445 H   0  0  0  0  0  0  0  0  0  0  0  0
  1  2  1  0  0  0  0
  1 24  1  0  0  0  0
  1 25  1  0  0  0  0
  1 26  1  0  0  0  0
  2  7  1  0  0  0  0
  2  3  2  0  0  0  0
  3  4  1  0  0  0  0
  3 27  1  0  0  0  0
  4  5  2  0  0  0  0
  4 28  1  0  0  0  0
  5  6  1  0  0  0  0
  5 29  1  0  0  0  0
  6  7  2  0  0  0  0
  7  8  1  0  0  0  0
  8  9  1  0  0  0  0
  8 30  1  0  0  0  0
  9 10  2  0  0  0  0
  9 11  1  0  0  0  0
 11 12  1  0  0  0  0
 11 31  1  0  0  0  0
 12 13  1  0  0  0  0
 12 32  1  0  0  0  0
 12 33  1  0  0  0  0
 13 23  1  0  0  0  0
 13 14  1  0  0  0  0
 13 20  1  0  0  0  0
 14 19  1  0  0  0  0
 14 15  1  0  0  0  0
 15 16  1  0  0  0  0
 15 34  1  0  0  0  0
 15 35  1  0  0  0  0
 16 17  1  0  0  0  0
 16 36  1  0  0  0  0
 16 37  1  0  0  0  0
 17 18  1  0  0  0  0
 18 19  1  0  0  0  0
 18 38  1  0  0  0  0
 18 39  1  0  0  0  0
 19 40  1  0  0  0  0
 19 41  1  0  0  0  0
 20 21  1  0  0  0  0
 20 42  1  0  0  0  0
 20 43  1  0  0  0  0
 21 22  1  0  0  0  0
 21 44  1  0  0  0  0
 21 45  1  0  0  0  0
 22 23  1  0  0  0  0
 23 46  1  0  0  0  0
 23 47  1  0  0  0  0
M  END
> <s_m_source_file>
AV-unprocessed.smi

> <i_m_source_file_index>
1211

> <i_lp_mmshare_version>
43012

> <i_f3d_flags>
0

> <s_epik_input>
W0NIM11jMVtjSF1bY0hdW2NIXW5jMVtOSF1DKD1PKVtOSF1bQ0gyXVtDQF0yKFtDSDJdW0NIMl1TW0NIMl0yKU4zW0NIMl1bQ0gyXU9bQ0gyXVtDSDJdMw==

> <s_epik_cmdline>
J2VwaWtfcHl0aG9uJywgJy1waCcsICc3LjAnLCAnLXRuJywgJzgnLCAnLW1hJywgJzIwMCcsICctbWV0YWxfYmluZGluZycsICctaW1hZScsICc8aW5maWxlLm1hZT4nLCAnLW9tYWUnLCAnPG91dGZpbGUubWFlPic=

> <r_epik_Ionization_Penalty>
0.0195636

> <r_epik_Ionization_Penalty_Charging>
0

> <r_epik_Ionization_Penalty_Neutral>
0.0195636

> <r_epik_State_Penalty>
0.0155843

> <r_epik_Charging_Adjusted_Penalty>
0.0155843

> <i_epik_Tot_Q>
0

> <i_epik_Tot_abs_Q>
0

> <r_epik_Metal_State_Penalty>
0.0155842

> <b_epik_Metal_Only>
0

> <s_lp_Force_Field>
OPLS_2005

> <r_lp_Energy>
55.6776

> <b_lp_Chiralities_Consistent>
1

> <s_lp_Variant>
AV-unprocessed.smi:1211-2

> <Gold.Version>
5.8.1

> <Gold.Id.Protein>
6NUR|6NUR_protein|mol2

> <Gold.PLP.Fitness>
43.7374

> <Gold.PLP.PLP>
-33.6006

> <Gold.PLP.part.hbond>
-3.0000

> <Gold.PLP.part.metal>
0.0000

> <Gold.PLP.part.buried>
-3.4173

> <Gold.PLP.part.nonpolar>
-28.5607

> <Gold.PLP.part.repulsive>
0.5135

> <Gold.PLP.ligand.clash>
0.0000

> <Gold.PLP.ligand.torsion>
0.9117

> <Gold.PLP.Chemscore.Hbond>
2.9600

> <Gold.PLP.Chemscore.CHOScore>
1.0000

> <Gold.PLP.Chemscore.Metal>
0.0000

> <Gold.Chemscore.Hbonds>
donor molecule, donor type, donor heavy atom, donor atom, acceptor molecule, acceptor atom, score
      L1  H     8    30       P1  7948  1.00
      L1  H    11    31       P1  7948  0.94
      P1  H 10752 10765       L1    17  0.80
      L1  C     5    29       P1 10186  1.00

> <Gold.PLP.Chemscore.Internal.Correction>
0.0800

> <Gold.Rescore>
     Score         DG    S(hbond)    S(metal)    S(lipo)     H(rot)  DE(clash)    DE(int)     intcor
     16.32     -19.92       2.41        0.00      86.16       1.44       0.88       2.71       ----

> <Gold.Chemscore.Fitness>
16.3167

> <Gold.Chemscore.DG>
-19.9154

> <Gold.Chemscore.ZeroCoef>
-5.4800

> <Gold.Chemscore.Hbond>
2.4077

> <Gold.Chemscore.Metal>
0.0000

> <Gold.Chemscore.Lipo>
86.1645

> <Gold.Chemscore.Internal_Hbond>
0.0000

> <Gold.Chemscore.DEClash>
0.8844

> <Gold.Chemscore.DEInternal>
2.7143

> <Gold.Chemscore.Rot>
1.4405

> <Gold.Chemscore.Internal.Correction>
   9.000000E+99

> <Gold.Chemscore.Hbonds>
donor molecule, donor type, donor heavy atom, donor atom, acceptor molecule, acceptor atom, score
      L1  H     8    30       P1  7948  1.00
      L1  H    11    31       P1  7948  0.89
      P1  H 10752 10765       L1    17  0.08

> <Gold.Chemscore.Hbond.Weighted>
-8.0418

> <Gold.Chemscore.Metal.Weighted>
-0.0000

> <Gold.Chemscore.Lipo.Weighted>
-10.0812

> <Gold.Chemscore.Internal_Hbond.Weighted>
0.0000

> <Gold.Chemscore.DEClash.Weighted>
0.8844

> <Gold.Chemscore.DEInternal.Weighted>
2.7143

> <Gold.Chemscore.Rot.Weighted>
3.6876

> <Gold.Chemscore.Internal.Correction.Weighted>
   9.000000E+99

> <Gold.Protein.RotatedTorsions>
[ 6907 6896 6895 6894 ] final   67.75 input  -60.11 | X-H torsion
[ 7974 7965 7964 7962 ] final   37.66 input  175.53 | X-H torsion
[ 8008 7997 7996 7995 ] final -147.07 input   59.86 | X-H torsion
[ 10167 10162 10161 10158 ] final  131.48 input  -65.29 | X-H torsion
[ 10718 10713 10712 10709 ] final   94.48 input   66.30 | X-H torsion
[ 10763 10752 10751 10750 ] final -163.29 input  -60.55 | X-H torsion
[ 11005 11000 10999 10996 ] final  139.97 input  -57.11 | X-H torsion

> <Gold.Protein.ActiveResidues>
 VAL166  LYS551  ARG553  GLY616  TRP617  ASP618  TYR619  PRO620  LYS621  CYS622 
 ASP623  PHE694  ASN695  SER759  ASP760  ASP761  ALA762  ILE779  LEU786  VAL792 
 PHE793  MET794  SER795  GLU796  ALA797  LYS798  CYS799  TRP800  GLU811  SER814 

> <Gold.Protein.RotatedAtoms>
  152.4573  134.5262  159.9797 H   0  0  0  0  0  0  0  0  0  0  0  0  # atno 6907 bound_to 6896
  151.5320  133.3441  159.2928 H   0  0  0  0  0  0  0  0  0  0  0  0  # atno 6908 bound_to 6896
  150.8523  134.7881  159.7081 H   0  0  0  0  0  0  0  0  0  0  0  0  # atno 6909 bound_to 6896
  146.1121  139.5867  142.9345 H   0  0  0  0  0  0  0  0  0  0  0  0  # atno 7974 bound_to 7965
  155.5696  140.0633  157.2809 H   0  0  0  0  0  0  0  0  0  0  0  0  # atno 8008 bound_to 7997
  154.4365  140.1871  156.0912 H   0  0  0  0  0  0  0  0  0  0  0  0  # atno 8009 bound_to 7997
  156.0386  140.3298  155.7222 H   0  0  0  0  0  0  0  0  0  0  0  0  # atno 8010 bound_to 7997
  139.5382  144.6704  151.4714 H   0  0  0  0  0  0  0  0  0  0  0  0  # atno 10167 bound_to 10162
  157.6947  131.0514  150.4192 H   0  0  0  0  0  0  0  0  0  0  0  0  # atno 10718 bound_to 10713
  154.7136  135.3011  154.9159 H   0  0  0  0  0  0  0  0  0  0  0  0  # atno 10763 bound_to 10752
  154.0053  135.6701  153.4766 H   0  0  0  0  0  0  0  0  0  0  0  0  # atno 10764 bound_to 10752
  153.0775  135.5027  154.8348 H   0  0  0  0  0  0  0  0  0  0  0  0  # atno 10765 bound_to 10752
  140.0293  134.9359  157.0632 H   0  0  0  0  0  0  0  0  0  0  0  0  # atno 11005 bound_to 11000
  145.5643  141.0401  143.2209 LP  0  0  0  0  0  0  0  0  0  0  0  0  # atno 17320 bound_to 7965
  144.7520  139.7169  143.7269 LP  0  0  0  0  0  0  0  0  0  0  0  0  # atno 17321 bound_to 7965
  140.6599  143.8520  150.6876 LP  0  0  0  0  0  0  0  0  0  0  0  0  # atno 17342 bound_to 10162
  140.1911  143.4035  152.1862 LP  0  0  0  0  0  0  0  0  0  0  0  0  # atno 17343 bound_to 10162
  156.4569  130.4023  149.6600 LP  0  0  0  0  0  0  0  0  0  0  0  0  # atno 17370 bound_to 10713
  156.3730  130.7540  151.2525 LP  0  0  0  0  0  0  0  0  0  0  0  0  # atno 17371 bound_to 10713
  140.4252  134.1838  155.7166 LP  0  0  0  0  0  0  0  0  0  0  0  0  # atno 17394 bound_to 11000
  141.1822  133.8390  157.1218 LP  0  0  0  0  0  0  0  0  0  0  0  0  # atno 17395 bound_to 11000

$$$$
