#       Name:                AV-unprocessed.smi:556
#       Creating user name   scv26
#       Creation time:       Thu Mar 26 23:40:34 2020


#       File generated by GOLD software.
#

@<TRIPOS>MOLECULE
AV-unprocessed.smi:556
    43    44     1
SMALL
NO_CHARGES


@<TRIPOS>ATOM
      1 ****        -2.8852   0.2622   2.9380 C.3            1 S1                 0.0000
      2 ****        -2.8252  -0.2521   1.4894 C.3            1 S1                 0.0000
      3 ****        -4.1775  -0.7907   0.9766 C.3            1 S1                 0.0000
      4 ****        -5.0810   0.2675   0.6975 O.3            1 S1                 0.0000
      5 ****        -4.5785   1.1296  -0.3107 C.3            1 S1                 0.0000
      6 ****        -3.2902   1.7955   0.1916 C.3            1 S1                 0.0000
      7 ****        -2.2894   0.7867   0.5792 N.am           1 S1                 0.0000
      8 ****        -0.9995   0.8856   0.1608 C.2            1 S1                 0.0000
      9 ****        -0.6068   1.7499  -0.6246 O.2            1 S1                 0.0000
     10 ****        -0.1597  -0.0217   0.6896 N.am           1 S1                 0.0000
     11 ****         1.2689  -0.1119   0.4126 C.3            1 S1                 0.0000
     12 ****         1.5452  -0.8237  -0.9217 C.3            1 S1                 0.0000
     13 ****         3.0201  -0.9402  -1.1856 C.2            1 S1                 0.0000
     14 ****         3.8624  -2.0668  -0.9636 C.2            1 S1                 0.0000
     15 ****         5.1232  -1.8400  -1.2947 N.2            1 S1                 0.0000
     16 ****         5.1294  -0.5670  -1.7408 N.pl3          1 S1                 0.0000
     17 ****         6.3707   0.0257  -2.1909 C.3            1 S1                 0.0000
     18 ****         3.8747   0.0007  -1.6874 C.2            1 S1                 0.0000
     19 ****        -3.2108  -0.5253   3.6179 H              1 S1                 0.0000
     20 ****        -3.5827   1.0934   3.0421 H              1 S1                 0.0000
     21 ****        -1.9061   0.6031   3.2756 H              1 S1                 0.0000
     22 ****        -2.1777  -1.1289   1.5044 H              1 S1                 0.0000
     23 ****        -4.0294  -1.3864   0.0742 H              1 S1                 0.0000
     24 ****        -4.6270  -1.4555   1.7143 H              1 S1                 0.0000
     25 ****        -4.4017   0.5764  -1.2348 H              1 S1                 0.0000
     26 ****        -5.3301   1.8875  -0.5317 H              1 S1                 0.0000
     27 ****        -2.9325   2.4735  -0.5844 H              1 S1                 0.0000
     28 ****        -3.5098   2.4224   1.0561 H              1 S1                 0.0000
     29 ****        -0.5412  -0.6966   1.3364 H              1 S1                 0.0000
     30 ****         1.7134   0.8849   0.4161 H              1 S1                 0.0000
     31 ****         1.7352  -0.6627   1.2301 H              1 S1                 0.0000
     32 ****         1.0810  -1.8105  -0.9060 H              1 S1                 0.0000
     33 ****         1.0591  -0.2813  -1.7335 H              1 S1                 0.0000
     34 ****         3.5962  -3.0369  -0.5707 H              1 S1                 0.0000
     35 ****         6.1711   0.9681  -2.7017 H              1 S1                 0.0000
     36 ****         6.8772  -0.6497  -2.8813 H              1 S1                 0.0000
     37 ****         7.0185   0.2160  -1.3347 H              1 S1                 0.0000
     38 ****         3.6943   1.0176  -2.0039 H              1 S1                 0.0000
     39 ****        -5.2293   0.7967   1.5329 LP             1 S1                 0.0000
     40 ****        -5.9499  -0.1201   0.3898 LP             1 S1                 0.0000
     41 ****        -1.2492   2.4249  -0.9875 LP             1 S1                 0.0000
     42 ****         0.3544   1.7765  -0.8992 LP             1 S1                 0.0000
     43 ****         5.8969  -2.4701  -1.2290 LP             1 S1                 0.0000
@<TRIPOS>BOND
    1    1    2 1     
    2    1   19 1     
    3    1   20 1     
    4    1   21 1     
    5    2    7 1     
    6    2    3 1     
    7    2   22 1     
    8    3    4 1     
    9    3   23 1     
   10    3   24 1     
   11    4    5 1     
   12    5    6 1     
   13    5   25 1     
   14    5   26 1     
   15    6    7 1     
   16    6   27 1     
   17    6   28 1     
   18    7    8 am    
   19    8    9 2     
   20    8   10 am    
   21   10   11 1     
   22   10   29 1     
   23   11   12 1     
   24   11   30 1     
   25   11   31 1     
   26   12   13 1     
   27   12   32 1     
   28   12   33 1     
   29   13   18 2     
   30   13   14 1     
   31   14   15 2     
   32   14   34 1     
   33   15   16 1     
   34   16   17 1     
   35   16   18 1     
   36   17   35 1     
   37   17   36 1     
   38   17   37 1     
   39   18   38 1     
   40    4   39 1     
   41    4   40 1     
   42    9   41 1     
   43    9   42 1     
   44   15   43 1     
@<TRIPOS>SUBSTRUCTURE
      1 S1             1
@<TRIPOS>SET
LONE_PAIRS      STATIC     ATOMS    <user>   **** ""
5 39 40 41 42 43
DONOR_HYDROGENS      STATIC     ATOMS    <user>   **** ""
1 29
ATOM$BLUE        STATIC     ATOMS    COLORGROUP SYSTEM
5 39 40 41 42 43
ATOM$RED        STATIC     ATOMS    COLORGROUP SYSTEM
1 29
