AV-unprocessed.smi:3303|AV-procd|sdf|12695|dock2
  -GOLD-   2272019 33D 1   1.00000     0.00000
 Structure written by MMmdl.
 44 45  0  0  0  0  0  0  0  0  2 V2000
  150.6414  137.8058  154.6312 C   0  0  0  0  0  0  0  0  0  0  0  0
  149.4734  138.5036  155.3592 C   0  0  2  0  0  0  0  0  0  0  0  0
  148.1645  137.7045  155.2157 C   0  0  0  0  0  0  0  0  0  0  0  0
  147.6206  137.7560  153.8320 N   0  3  1  0  0  0  0  0  0  0  0  0
  146.4502  136.8559  153.6929 C   0  0  0  0  0  0  0  0  0  0  0  0
  147.3684  139.1565  153.3740 C   0  0  2  0  0  0  0  0  0  0  0  0
  146.8467  139.2220  151.9254 C   0  0  0  0  0  0  0  0  0  0  0  0
  148.6505  140.0070  153.4975 C   0  0  0  0  0  0  0  0  0  0  0  0
  149.2261  139.9677  154.9214 C   0  0  2  0  0  0  0  0  0  0  0  0
  150.4275  140.7945  154.9721 N   0  0  0  0  0  0  0  0  0  0  0  0
  151.2586  140.4789  156.1252 C   0  0  0  0  0  0  0  0  0  0  0  0
  150.5294  140.8814  157.4140 C   0  0  0  0  0  0  0  0  0  0  0  0
  151.2035  142.0517  158.1049 C   0  0  0  0  0  0  0  0  0  0  0  0
  151.3419  143.2940  157.4501 C   0  0  0  0  0  0  0  0  0  0  0  0
  151.9847  144.3445  158.1334 C   0  0  0  0  0  0  0  0  0  0  0  0
  152.4630  144.1132  159.4374 C   0  0  0  0  0  0  0  0  0  0  0  0
  152.2763  142.8361  160.0028 C   0  0  0  0  0  0  0  0  0  0  0  0
  151.6614  141.8220  159.3564 N   0  0  0  0  0  0  0  0  0  0  0  0
  150.4745  137.7383  153.5563 H   0  0  0  0  0  0  0  0  0  0  0  0
  150.7787  136.7905  155.0037 H   0  0  0  0  0  0  0  0  0  0  0  0
  151.5829  138.3328  154.7880 H   0  0  0  0  0  0  0  0  0  0  0  0
  149.7209  138.5007  156.4209 H   0  0  0  0  0  0  0  0  0  0  0  0
  148.3397  136.6677  155.5072 H   0  0  0  0  0  0  0  0  0  0  0  0
  147.4159  138.0966  155.9063 H   0  0  0  0  0  0  0  0  0  0  0  0
  145.5854  137.2534  154.2257 H   0  0  0  0  0  0  0  0  0  0  0  0
  146.6716  135.8678  154.0977 H   0  0  0  0  0  0  0  0  0  0  0  0
  146.1781  136.7091  152.6480 H   0  0  0  0  0  0  0  0  0  0  0  0
  146.6079  139.5901  154.0258 H   0  0  0  0  0  0  0  0  0  0  0  0
  146.7611  140.2561  151.5899 H   0  0  0  0  0  0  0  0  0  0  0  0
  145.8546  138.7822  151.8253 H   0  0  0  0  0  0  0  0  0  0  0  0
  147.5177  138.7075  151.2366 H   0  0  0  0  0  0  0  0  0  0  0  0
  149.3946  139.6607  152.7787 H   0  0  0  0  0  0  0  0  0  0  0  0
  148.4278  141.0400  153.2255 H   0  0  0  0  0  0  0  0  0  0  0  0
  148.4829  140.4124  155.5854 H   0  0  0  0  0  0  0  0  0  0  0  0
  150.1588  141.7670  155.0264 H   0  0  0  0  0  0  0  0  0  0  0  0
  151.4756  139.4101  156.1408 H   0  0  0  0  0  0  0  0  0  0  0  0
  152.2093  141.0080  156.0637 H   0  0  0  0  0  0  0  0  0  0  0  0
  149.4938  141.1438  157.1928 H   0  0  0  0  0  0  0  0  0  0  0  0
  150.4923  140.0383  158.1059 H   0  0  0  0  0  0  0  0  0  0  0  0
  150.9674  143.4404  156.4475 H   0  0  0  0  0  0  0  0  0  0  0  0
  152.1102  145.3095  157.6653 H   0  0  0  0  0  0  0  0  0  0  0  0
  152.9621  144.8947  159.9912 H   0  0  0  0  0  0  0  0  0  0  0  0
  152.6311  142.6231  161.0002 H   0  0  0  0  0  0  0  0  0  0  0  0
  148.3414  137.3815  153.2317 H   0  0  0  0  0  0  0  0  0  0  0  0
  1  2  1  0  0  0  0
  1 19  1  0  0  0  0
  1 20  1  0  0  0  0
  1 21  1  0  0  0  0
  2  9  1  0  0  0  0
  2  3  1  0  0  0  0
  2 22  1  0  0  0  0
  3  4  1  0  0  0  0
  3 23  1  0  0  0  0
  3 24  1  0  0  0  0
  4  5  1  0  0  0  0
  4  6  1  0  0  0  0
  4 44  1  0  0  0  0
  5 25  1  0  0  0  0
  5 26  1  0  0  0  0
  5 27  1  0  0  0  0
  6  7  1  0  0  0  0
  6  8  1  0  0  0  0
  6 28  1  0  0  0  0
  7 29  1  0  0  0  0
  7 30  1  0  0  0  0
  7 31  1  0  0  0  0
  8  9  1  0  0  0  0
  8 32  1  0  0  0  0
  8 33  1  0  0  0  0
  9 10  1  0  0  0  0
  9 34  1  0  0  0  0
 10 11  1  0  0  0  0
 10 35  1  0  0  0  0
 11 12  1  0  0  0  0
 11 36  1  0  0  0  0
 11 37  1  0  0  0  0
 12 13  1  0  0  0  0
 12 38  1  0  0  0  0
 12 39  1  0  0  0  0
 13 18  1  0  0  0  0
 13 14  2  0  0  0  0
 14 15  1  0  0  0  0
 14 40  1  0  0  0  0
 15 16  2  0  0  0  0
 15 41  1  0  0  0  0
 16 17  1  0  0  0  0
 16 42  1  0  0  0  0
 17 18  2  0  0  0  0
 17 43  1  0  0  0  0
M  CHG  1   4   1
M  END
> <s_m_source_file>
AV-unprocessed.smi

> <i_m_source_file_index>
3303

> <i_lp_mmshare_version>
43012

> <i_f3d_flags>
0

> <s_epik_input>
W0NIM11bQ0BASF0xW0NIMl1OKFtDSDNdKVtDQEBIXShbQ0gzXSlbQ0gyXVtDQEhdMVtOSF1bQ0gyXVtDSDJdYzJbY0hdW2NIXVtjSF1bY0hdbjI=

> <s_epik_cmdline>
J2VwaWtfcHl0aG9uJywgJy1waCcsICc3LjAnLCAnLXRuJywgJzgnLCAnLW1hJywgJzIwMCcsICctbWV0YWxfYmluZGluZycsICctaW1hZScsICc8aW5maWxlLm1hZT4nLCAnLW9tYWUnLCAnPG91dGZpbGUubWFlPic=

> <r_epik_Ionization_Penalty>
2.31085

> <r_epik_Ionization_Penalty_Charging>
0.000313057

> <r_epik_Ionization_Penalty_Neutral>
2.31054

> <r_epik_State_Penalty>
2.4087

> <r_epik_Charging_Adjusted_Penalty>
2.40902

> <i_epik_Tot_Q>
1

> <i_epik_Tot_abs_Q>
1

> <r_epik_Metal_State_Penalty>
2.30979

> <b_epik_Metal_Only>
0

> <s_lp_Force_Field>
OPLS_2005

> <r_lp_Energy>
24.7509

> <b_lp_Chiralities_Consistent>
1

> <s_lp_Variant>
AV-unprocessed.smi:3303-39

> <Gold.Version>
5.8.1

> <Gold.Id.Protein>
6NUR|6NUR_protein|mol2

> <Gold.PLP.Fitness>
42.9581

> <Gold.PLP.PLP>
-35.6174

> <Gold.PLP.part.hbond>
-2.0000

> <Gold.PLP.part.metal>
0.0000

> <Gold.PLP.part.buried>
2.3620

> <Gold.PLP.part.nonpolar>
-35.8900

> <Gold.PLP.part.repulsive>
0.0007

> <Gold.PLP.ligand.clash>
0.0000

> <Gold.PLP.ligand.torsion>
0.5580

> <Gold.PLP.Chemscore.Hbond>
2.8160

> <Gold.PLP.Chemscore.CHOScore>
0.0000

> <Gold.PLP.Chemscore.Metal>
0.0000

> <Gold.Chemscore.Hbonds>
donor molecule, donor type, donor heavy atom, donor atom, acceptor molecule, acceptor atom, score
      L1  H     4    44       P1  7948  2.00
      P1  H  7989  7998       L1    10  0.79

> <Gold.PLP.Chemscore.Internal.Correction>
0.0087

> <Gold.Rescore>
     Score         DG    S(hbond)    S(metal)    S(lipo)     H(rot)  DE(clash)    DE(int)     intcor
     16.83     -18.15       1.00        0.00     108.69       1.33       0.75       0.56       ----

> <Gold.Chemscore.Fitness>
16.8342

> <Gold.Chemscore.DG>
-18.1473

> <Gold.Chemscore.ZeroCoef>
-5.4800

> <Gold.Chemscore.Hbond>
1.0026

> <Gold.Chemscore.Metal>
0.0000

> <Gold.Chemscore.Lipo>
108.6859

> <Gold.Chemscore.Internal_Hbond>
0.0000

> <Gold.Chemscore.DEClash>
0.7544

> <Gold.Chemscore.DEInternal>
0.5587

> <Gold.Chemscore.Rot>
1.3272

> <Gold.Chemscore.Internal.Correction>
   9.000000E+99

> <Gold.Chemscore.Hbonds>
donor molecule, donor type, donor heavy atom, donor atom, acceptor molecule, acceptor atom, score
      L1  H     4    44       P1  7948  0.97
      P1  H  7989  7998       L1    10  0.10

> <Gold.Chemscore.Hbond.Weighted>
-3.3487

> <Gold.Chemscore.Metal.Weighted>
-0.0000

> <Gold.Chemscore.Lipo.Weighted>
-12.7163

> <Gold.Chemscore.Internal_Hbond.Weighted>
0.0000

> <Gold.Chemscore.DEClash.Weighted>
0.7544

> <Gold.Chemscore.DEInternal.Weighted>
0.5587

> <Gold.Chemscore.Rot.Weighted>
3.3976

> <Gold.Chemscore.Internal.Correction.Weighted>
   9.000000E+99

> <Gold.Protein.RotatedTorsions>
[ 6907 6896 6895 6894 ] final   41.63 input  -60.11 | X-H torsion
[ 7974 7965 7964 7962 ] final  -96.81 input  175.53 | X-H torsion
[ 8008 7997 7996 7995 ] final   51.39 input   59.86 | X-H torsion
[ 10167 10162 10161 10158 ] final  -93.38 input  -65.29 | X-H torsion
[ 10718 10713 10712 10709 ] final -155.58 input   66.30 | X-H torsion
[ 10763 10752 10751 10750 ] final  176.36 input  -60.55 | X-H torsion
[ 11005 11000 10999 10996 ] final  149.02 input  -57.11 | X-H torsion

> <Gold.Protein.ActiveResidues>
 VAL166  LYS551  ARG553  GLY616  TRP617  ASP618  TYR619  PRO620  LYS621  CYS622 
 ASP623  PHE694  ASN695  SER759  ASP760  ASP761  ALA762  ILE779  LEU786  VAL792 
 PHE793  MET794  SER795  GLU796  ALA797  LYS798  CYS799  TRP800  GLU811  SER814 

> <Gold.Protein.RotatedAtoms>
  152.1977  134.8616  160.0510 H   0  0  0  0  0  0  0  0  0  0  0  0  # atno 6907 bound_to 6896
  151.9481  133.3653  159.3998 H   0  0  0  0  0  0  0  0  0  0  0  0  # atno 6908 bound_to 6896
  150.6948  134.4293  159.5285 H   0  0  0  0  0  0  0  0  0  0  0  0  # atno 6909 bound_to 6896
  145.3420  140.9461  143.2603 H   0  0  0  0  0  0  0  0  0  0  0  0  # atno 7974 bound_to 7965
  155.4346  140.3452  155.4283 H   0  0  0  0  0  0  0  0  0  0  0  0  # atno 8008 bound_to 7997
  156.1316  140.1516  156.9088 H   0  0  0  0  0  0  0  0  0  0  0  0  # atno 8009 bound_to 7997
  154.4899  140.0844  156.7550 H   0  0  0  0  0  0  0  0  0  0  0  0  # atno 8010 bound_to 7997
  140.3252  143.3026  152.0002 H   0  0  0  0  0  0  0  0  0  0  0  0  # atno 10167 bound_to 10162
  156.5147  130.8451  151.2660 H   0  0  0  0  0  0  0  0  0  0  0  0  # atno 10718 bound_to 10713
  154.4801  135.2774  155.1577 H   0  0  0  0  0  0  0  0  0  0  0  0  # atno 10763 bound_to 10752
  154.3291  135.6194  153.5546 H   0  0  0  0  0  0  0  0  0  0  0  0  # atno 10764 bound_to 10752
  152.9874  135.5761  154.5200 H   0  0  0  0  0  0  0  0  0  0  0  0  # atno 10765 bound_to 10752
  140.1009  134.8984  157.1794 H   0  0  0  0  0  0  0  0  0  0  0  0  # atno 11005 bound_to 11000
  144.8783  139.4940  143.6735 LP  0  0  0  0  0  0  0  0  0  0  0  0  # atno 17320 bound_to 7965
  146.3003  139.7407  142.9096 LP  0  0  0  0  0  0  0  0  0  0  0  0  # atno 17321 bound_to 7965
  139.4866  144.6279  151.7128 LP  0  0  0  0  0  0  0  0  0  0  0  0  # atno 17342 bound_to 10162
  140.5447  144.0522  150.6102 LP  0  0  0  0  0  0  0  0  0  0  0  0  # atno 17343 bound_to 10162
  157.7445  130.9937  150.2683 LP  0  0  0  0  0  0  0  0  0  0  0  0  # atno 17370 bound_to 10713
  156.3206  130.3785  149.7578 LP  0  0  0  0  0  0  0  0  0  0  0  0  # atno 17371 bound_to 10713
  140.3221  134.2904  155.7244 LP  0  0  0  0  0  0  0  0  0  0  0  0  # atno 17394 bound_to 11000
  141.2105  133.7717  156.9926 LP  0  0  0  0  0  0  0  0  0  0  0  0  # atno 17395 bound_to 11000

$$$$
