AV-unprocessed.smi:1815|AV-procd|sdf|7360|dock4
  -GOLD-   22720 9 23D 1   1.00000     0.00000
 Structure written by MMmdl.
 39 40  0  0  0  0  0  0  0  0  3 V2000
  144.8509  134.5454  150.8047 C   0  0  0  0  0  0  0  0  0  0  0  0
  145.6761  135.5066  151.6675 C   0  0  2  0  0  0  0  0  0  0  0  0
  146.2001  134.8291  152.9461 C   0  0  0  0  0  0  0  0  0  0  0  0
  146.9201  135.8083  153.7922 N   0  3  2  0  0  0  0  0  0  0  0  0
  147.5407  135.1812  154.9849 C   0  0  0  0  0  0  0  0  0  0  0  0
  148.4287  136.1646  155.7622 C   0  0  0  0  0  0  0  0  0  0  0  0
  148.7396  135.6331  157.0813 N   0  0  0  0  0  0  0  0  0  0  0  0
  148.6761  136.3272  158.2248 C   0  0  0  0  0  0  0  0  0  0  0  0
  148.3243  137.5090  158.2063 O   0  0  0  0  0  0  0  0  0  0  0  0
  149.0242  135.6084  159.3155 N   0  5  0  0  0  0  0  0  0  0  0  0
  148.2722  135.6665  160.4268 C   0  0  0  0  0  0  0  0  0  0  0  0
  147.9966  136.8113  161.0619 N   0  0  0  0  0  0  0  0  0  0  0  0
  147.2052  136.6389  162.1987 C   0  0  0  0  0  0  0  0  0  0  0  0
  146.8779  135.3310  162.4398 C   0  0  0  0  0  0  0  0  0  0  0  0
  147.5563  134.2709  161.2378 S   0  0  0  0  0  0  0  0  0  0  0  0
  146.0359  136.9547  154.1165 C   0  0  0  0  0  0  0  0  0  0  0  0
  145.4671  137.5974  152.8362 C   0  0  1  0  0  0  0  0  0  0  0  0
  146.4998  138.4295  152.0548 C   0  0  0  0  0  0  0  0  0  0  0  0
  144.8412  136.6063  152.0210 O   0  0  0  0  0  0  0  0  0  0  0  0
  145.4470  133.6874  150.4925 H   0  0  0  0  0  0  0  0  0  0  0  0
  144.4891  135.0429  149.9046 H   0  0  0  0  0  0  0  0  0  0  0  0
  143.9835  134.1705  151.3487 H   0  0  0  0  0  0  0  0  0  0  0  0
  146.5161  135.8592  151.0686 H   0  0  0  0  0  0  0  0  0  0  0  0
  145.3750  134.3944  153.5132 H   0  0  0  0  0  0  0  0  0  0  0  0
  146.8699  134.0114  152.6761 H   0  0  0  0  0  0  0  0  0  0  0  0
  146.7669  134.7615  155.6299 H   0  0  0  0  0  0  0  0  0  0  0  0
  148.1634  134.3442  154.6646 H   0  0  0  0  0  0  0  0  0  0  0  0
  149.3562  136.3435  155.2157 H   0  0  0  0  0  0  0  0  0  0  0  0
  147.9334  137.1275  155.8865 H   0  0  0  0  0  0  0  0  0  0  0  0
  149.0301  134.6677  157.1376 H   0  0  0  0  0  0  0  0  0  0  0  0
  146.9236  137.5043  162.7797 H   0  0  0  0  0  0  0  0  0  0  0  0
  146.2842  134.9279  163.2461 H   0  0  0  0  0  0  0  0  0  0  0  0
  145.2146  136.6029  154.7427 H   0  0  0  0  0  0  0  0  0  0  0  0
  146.5698  137.7074  154.6953 H   0  0  0  0  0  0  0  0  0  0  0  0
  144.6746  138.2839  153.1358 H   0  0  0  0  0  0  0  0  0  0  0  0
  146.8682  139.2559  152.6631 H   0  0  0  0  0  0  0  0  0  0  0  0
  146.0551  138.8566  151.1558 H   0  0  0  0  0  0  0  0  0  0  0  0
  147.3655  137.8407  151.7531 H   0  0  0  0  0  0  0  0  0  0  0  0
  147.6794  136.1665  153.2301 H   0  0  0  0  0  0  0  0  0  0  0  0
  1  2  1  0  0  0  0
  1 20  1  0  0  0  0
  1 21  1  0  0  0  0
  1 22  1  0  0  0  0
  2 19  1  0  0  0  0
  2  3  1  0  0  0  0
  2 23  1  0  0  0  0
  3  4  1  0  0  0  0
  3 24  1  0  0  0  0
  3 25  1  0  0  0  0
  4  5  1  0  0  0  0
  4 16  1  0  0  0  0
  4 39  1  0  0  0  0
  5  6  1  0  0  0  0
  5 26  1  0  0  0  0
  5 27  1  0  0  0  0
  6  7  1  0  0  0  0
  6 28  1  0  0  0  0
  6 29  1  0  0  0  0
  7  8  1  0  0  0  0
  7 30  1  0  0  0  0
  8  9  2  0  0  0  0
  8 10  1  0  0  0  0
 10 11  1  0  0  0  0
 11 15  1  0  0  0  0
 11 12  2  0  0  0  0
 12 13  1  0  0  0  0
 13 14  2  0  0  0  0
 13 31  1  0  0  0  0
 14 15  1  0  0  0  0
 14 32  1  0  0  0  0
 16 17  1  0  0  0  0
 16 33  1  0  0  0  0
 16 34  1  0  0  0  0
 17 18  1  0  0  0  0
 17 19  1  0  0  0  0
 17 35  1  0  0  0  0
 18 36  1  0  0  0  0
 18 37  1  0  0  0  0
 18 38  1  0  0  0  0
M  CHG  1   4   1
M  CHG  1  10  -1
M  END
> <s_m_source_file>
AV-unprocessed.smi

> <i_m_source_file_index>
1815

> <i_lp_mmshare_version>
43012

> <i_f3d_flags>
0

> <s_epik_input>
W0NIM11bQ0BASF0xW0NIMl1OKFtDSDJdW0NASF0oTzEpW0NIM10pW0NIMl1bQ0gyXVtOSF1DKD1PKVtOSF1jMm5bY0hdW2NIXXMy

> <s_epik_cmdline>
J2VwaWtfcHl0aG9uJywgJy1waCcsICc3LjAnLCAnLXRuJywgJzgnLCAnLW1hJywgJzIwMCcsICctbWV0YWxfYmluZGluZycsICctaW1hZScsICc8aW5maWxlLm1hZT4nLCAnLW9tYWUnLCAnPG91dGZpbGUubWFlPic=

> <r_lp_tautomer_probability>
0.999

> <r_epik_Ionization_Penalty>
6.71699

> <r_epik_Ionization_Penalty_Charging>
5.88592

> <r_epik_Ionization_Penalty_Neutral>
0.831074

> <r_epik_State_Penalty>
6.08365

> <r_epik_Charging_Adjusted_Penalty>
11.9696

> <i_epik_Tot_Q>
0

> <i_epik_Tot_abs_Q>
2

> <r_epik_Metal_State_Penalty>
2.0947

> <b_epik_Metal_Only>
1

> <s_lp_Force_Field>
OPLS_2005

> <r_lp_Energy>
8.1919

> <b_lp_Chiralities_Consistent>
1

> <s_lp_Variant>
AV-unprocessed.smi:1815-11

> <Gold.Version>
5.8.1

> <Gold.Id.Protein>
6NUR|6NUR_protein|mol2

> <Gold.PLP.Fitness>
40.4306

> <Gold.PLP.PLP>
-28.5293

> <Gold.PLP.part.hbond>
-3.4578

> <Gold.PLP.part.metal>
0.0000

> <Gold.PLP.part.buried>
-4.4720

> <Gold.PLP.part.nonpolar>
-22.0665

> <Gold.PLP.part.repulsive>
0.2931

> <Gold.PLP.ligand.clash>
0.0000

> <Gold.PLP.ligand.torsion>
1.0540

> <Gold.PLP.Chemscore.Hbond>
4.6644

> <Gold.PLP.Chemscore.CHOScore>
0.0000

> <Gold.PLP.Chemscore.Metal>
0.0000

> <Gold.Chemscore.Hbonds>
donor molecule, donor type, donor heavy atom, donor atom, acceptor molecule, acceptor atom, score
      L1  H     4    39       P1  7948  2.00
      P1  H  6896  6908       L1    10  1.95
      P1  H  6931  6943       L1    12  0.65
      P1  H  6934  6947       L1    12  0.06

> <Gold.PLP.Chemscore.Internal.Correction>
0.0160

> <Gold.Rescore>
     Score         DG    S(hbond)    S(metal)    S(lipo)     H(rot)  DE(clash)    DE(int)     intcor
     13.64     -15.80       2.39        0.00      55.18       1.61       0.02       2.14       ----

> <Gold.Chemscore.Fitness>
13.6415

> <Gold.Chemscore.DG>
-15.7989

> <Gold.Chemscore.ZeroCoef>
-5.4800

> <Gold.Chemscore.Hbond>
2.3875

> <Gold.Chemscore.Metal>
0.0000

> <Gold.Chemscore.Lipo>
55.1790

> <Gold.Chemscore.Internal_Hbond>
0.0000

> <Gold.Chemscore.DEClash>
0.0166

> <Gold.Chemscore.DEInternal>
2.1408

> <Gold.Chemscore.Rot>
1.6060

> <Gold.Chemscore.Internal.Correction>
   9.000000E+99

> <Gold.Chemscore.Hbonds>
donor molecule, donor type, donor heavy atom, donor atom, acceptor molecule, acceptor atom, score
      L1  H     4    39       P1  7948  0.99
      P1  H  6896  6908       L1    10  0.77
      P1  H  6931  6943       L1    12  0.05

> <Gold.Chemscore.Hbond.Weighted>
-7.9742

> <Gold.Chemscore.Metal.Weighted>
-0.0000

> <Gold.Chemscore.Lipo.Weighted>
-6.4559

> <Gold.Chemscore.Internal_Hbond.Weighted>
0.0000

> <Gold.Chemscore.DEClash.Weighted>
0.0166

> <Gold.Chemscore.DEInternal.Weighted>
2.1408

> <Gold.Chemscore.Rot.Weighted>
4.1112

> <Gold.Chemscore.Internal.Correction.Weighted>
   9.000000E+99

> <Gold.Protein.RotatedTorsions>
[ 6907 6896 6895 6894 ] final  155.42 input  -60.11 | X-H torsion
[ 7974 7965 7964 7962 ] final  -74.29 input  175.53 | X-H torsion
[ 8008 7997 7996 7995 ] final  -22.49 input   59.86 | X-H torsion
[ 10167 10162 10161 10158 ] final  -36.96 input  -65.29 | X-H torsion
[ 10718 10713 10712 10709 ] final   23.81 input   66.30 | X-H torsion
[ 10763 10752 10751 10750 ] final  -44.37 input  -60.55 | X-H torsion
[ 11005 11000 10999 10996 ] final -132.54 input  -57.11 | X-H torsion

> <Gold.Protein.ActiveResidues>
 VAL166  LYS551  ARG553  GLY616  TRP617  ASP618  TYR619  PRO620  LYS621  CYS622 
 ASP623  PHE694  ASN695  SER759  ASP760  ASP761  ALA762  ILE779  LEU786  VAL792 
 PHE793  MET794  SER795  GLU796  ALA797  LYS798  CYS799  TRP800  GLU811  SER814 

> <Gold.Protein.RotatedAtoms>
  152.0445  133.3991  159.4350 H   0  0  0  0  0  0  0  0  0  0  0  0  # atno 6907 bound_to 6896
  150.6873  134.3378  159.4864 H   0  0  0  0  0  0  0  0  0  0  0  0  # atno 6908 bound_to 6896
  152.1180  134.9226  160.0615 H   0  0  0  0  0  0  0  0  0  0  0  0  # atno 6909 bound_to 6896
  145.6411  140.9311  143.1035 H   0  0  0  0  0  0  0  0  0  0  0  0  # atno 7974 bound_to 7965
  154.4641  140.2006  156.0166 H   0  0  0  0  0  0  0  0  0  0  0  0  # atno 8008 bound_to 7997
  156.0894  140.3260  155.7767 H   0  0  0  0  0  0  0  0  0  0  0  0  # atno 8009 bound_to 7997
  155.4981  140.0551  157.2934 H   0  0  0  0  0  0  0  0  0  0  0  0  # atno 8010 bound_to 7997
  140.7130  143.3373  151.2434 H   0  0  0  0  0  0  0  0  0  0  0  0  # atno 10167 bound_to 10162
  157.1712  130.6760  149.6078 H   0  0  0  0  0  0  0  0  0  0  0  0  # atno 10718 bound_to 10713
  154.0109  135.6681  153.4765 H   0  0  0  0  0  0  0  0  0  0  0  0  # atno 10763 bound_to 10752
  153.0621  135.5022  154.8113 H   0  0  0  0  0  0  0  0  0  0  0  0  # atno 10764 bound_to 10752
  154.6996  135.3076  154.9325 H   0  0  0  0  0  0  0  0  0  0  0  0  # atno 10765 bound_to 10752
  140.9161  134.1505  157.4351 H   0  0  0  0  0  0  0  0  0  0  0  0  # atno 11005 bound_to 11000
  144.7157  139.8205  143.7399 LP  0  0  0  0  0  0  0  0  0  0  0  0  # atno 17320 bound_to 7965
  146.1280  139.4310  143.0186 LP  0  0  0  0  0  0  0  0  0  0  0  0  # atno 17321 bound_to 7965
  139.6872  143.9754  152.2840 LP  0  0  0  0  0  0  0  0  0  0  0  0  # atno 17342 bound_to 10162
  139.9403  144.6685  150.8273 LP  0  0  0  0  0  0  0  0  0  0  0  0  # atno 17343 bound_to 10162
  155.9738  130.4678  150.6339 LP  0  0  0  0  0  0  0  0  0  0  0  0  # atno 17370 bound_to 10713
  157.4042  131.0814  151.1281 LP  0  0  0  0  0  0  0  0  0  0  0  0  # atno 17371 bound_to 10713
  139.8766  134.9954  156.5741 LP  0  0  0  0  0  0  0  0  0  0  0  0  # atno 17394 bound_to 11000
  140.8048  133.8476  155.8758 LP  0  0  0  0  0  0  0  0  0  0  0  0  # atno 17395 bound_to 11000

$$$$
