#       Name:                AV-unprocessed.smi:817
#       Creating user name   scv26
#       Creation time:       Fri Mar 27 01:27:00 2020


#       File generated by GOLD software.
#

@<TRIPOS>MOLECULE
AV-unprocessed.smi:817
    51    52     1
SMALL
NO_CHARGES


@<TRIPOS>ATOM
      1 ****        -2.9891   1.6105  -2.7038 C.3            1 S1                 0.0000
      2 ****        -2.9931   0.7066  -1.4629 C.3            1 S1                 0.0000
      3 ****        -3.0762   1.5367  -0.1689 C.3            1 S1                 0.0000
      4 ****        -3.0131   0.6480   1.0818 C.3            1 S1                 0.0000
      5 ****        -1.7719  -0.2623   1.0526 C.3            1 S1                 0.0000
      6 ****        -1.7262  -1.1772  -0.2086 C.3            1 S1                 0.0000
      7 ****        -0.4042  -2.0042  -0.2131 C.3            1 S1                 0.0000
      8 ****         0.8000  -1.1709  -0.2031 N.am           1 S1                 0.0000
      9 ****         2.0803  -1.5803  -0.2049 C.2            1 S1                 0.0000
     10 ****         2.3631  -2.7758  -0.1976 O.2            1 S1                 0.0000
     11 ****         2.9781  -0.5752  -0.1938 N.am           1 S1                 0.0000
     12 ****         4.3971  -0.6489  -0.2007 C.ar           1 S1                 0.0000
     13 ****         5.1180   0.4898   0.2145 C.ar           1 S1                 0.0000
     14 ****         6.5251   0.4538   0.2041 C.ar           1 S1                 0.0000
     15 ****         7.1610  -0.7245  -0.2317 C.ar           1 S1                 0.0000
     16 ****         6.4879  -1.8178  -0.6473 N.ar           1 S1                 0.0000
     17 ****         5.1381  -1.7769  -0.6337 C.ar           1 S1                 0.0000
     18 ****        -2.9239  -2.0987  -0.2336 N.4            1 S1                 1.0000
     19 ****        -3.0924  -2.9799   0.9524 C.3            1 S1                 0.0000
     20 ****        -3.1197  -2.8772  -1.4856 C.3            1 S1                 0.0000
     21 ****        -1.7508  -0.2118  -1.4340 C.3            1 S1                 0.0000
     22 ****        -2.1161   2.2641  -2.7165 H              1 S1                 0.0000
     23 ****        -3.8775   2.2421  -2.7328 H              1 S1                 0.0000
     24 ****        -2.9753   1.0200  -3.6203 H              1 S1                 0.0000
     25 ****        -3.8872   0.0852  -1.5234 H              1 S1                 0.0000
     26 ****        -2.2546   2.2540  -0.1406 H              1 S1                 0.0000
     27 ****        -3.9958   2.1230  -0.1569 H              1 S1                 0.0000
     28 ****        -2.9878   1.2749   1.9735 H              1 S1                 0.0000
     29 ****        -3.9211   0.0489   1.1575 H              1 S1                 0.0000
     30 ****        -0.8942   0.3846   1.0714 H              1 S1                 0.0000
     31 ****        -1.7020  -0.8381   1.9743 H              1 S1                 0.0000
     32 ****        -0.3598  -2.6567   0.6591 H              1 S1                 0.0000
     33 ****        -0.3583  -2.6441  -1.0943 H              1 S1                 0.0000
     34 ****         0.6477  -0.1725  -0.1897 H              1 S1                 0.0000
     35 ****         2.5959   0.3559  -0.1207 H              1 S1                 0.0000
     36 ****         4.6019   1.3807   0.5413 H              1 S1                 0.0000
     37 ****         7.1037   1.3082   0.5225 H              1 S1                 0.0000
     38 ****         8.2388  -0.7889  -0.2522 H              1 S1                 0.0000
     39 ****         4.6597  -2.6711  -1.0008 H              1 S1                 0.0000
     40 ****        -2.2890  -3.7112   1.0340 H              1 S1                 0.0000
     41 ****        -4.0268  -3.5368   0.8761 H              1 S1                 0.0000
     42 ****        -3.1548  -2.4223   1.8849 H              1 S1                 0.0000
     43 ****        -2.3019  -3.5745  -1.6648 H              1 S1                 0.0000
     44 ****        -3.2350  -2.2402  -2.3608 H              1 S1                 0.0000
     45 ****        -4.0364  -3.4649  -1.4246 H              1 S1                 0.0000
     46 ****        -1.6574  -0.7592  -2.3714 H              1 S1                 0.0000
     47 ****        -0.8707   0.4322  -1.4110 H              1 S1                 0.0000
     48 ****        -3.7174  -1.4742  -0.1991 H              1 S1                 0.0000
     49 ****         1.6354  -3.4617  -0.1902 LP             1 S1                 0.0000
     50 ****         3.3209  -3.0630  -0.1991 LP             1 S1                 0.0000
     51 ****         6.9746  -2.6348  -0.9565 LP             1 S1                 0.0000
@<TRIPOS>BOND
    1    1    2 1     
    2    1   22 1     
    3    1   23 1     
    4    1   24 1     
    5    2   21 1     
    6    2    3 1     
    7    2   25 1     
    8    3    4 1     
    9    3   26 1     
   10    3   27 1     
   11    4    5 1     
   12    4   28 1     
   13    4   29 1     
   14    5    6 1     
   15    5   30 1     
   16    5   31 1     
   17    6    7 1     
   18    6   18 1     
   19    6   21 1     
   20    7    8 1     
   21    7   32 1     
   22    7   33 1     
   23    8    9 am    
   24    8   34 1     
   25    9   10 2     
   26    9   11 am    
   27   11   12 1     
   28   11   35 1     
   29   12   17 ar    
   30   12   13 ar    
   31   13   14 ar    
   32   13   36 1     
   33   14   15 ar    
   34   14   37 1     
   35   15   16 ar    
   36   15   38 1     
   37   16   17 ar    
   38   17   39 1     
   39   18   19 1     
   40   18   20 1     
   41   18   48 1     
   42   19   40 1     
   43   19   41 1     
   44   19   42 1     
   45   20   43 1     
   46   20   44 1     
   47   20   45 1     
   48   21   46 1     
   49   21   47 1     
   50   10   49 1     
   51   10   50 1     
   52   16   51 1     
@<TRIPOS>SUBSTRUCTURE
      1 S1             1
@<TRIPOS>SET
LONE_PAIRS      STATIC     ATOMS    <user>   **** ""
3 49 50 51
DONOR_HYDROGENS      STATIC     ATOMS    <user>   **** ""
3 34 35 48
ATOM$BLUE        STATIC     ATOMS    COLORGROUP SYSTEM
3 49 50 51
ATOM$RED        STATIC     ATOMS    COLORGROUP SYSTEM
3 34 35 48
