AV-unprocessed.smi:2868|AV-procd|sdf|11027|dock9
  -GOLD-   2272015493D 1   1.00000     0.00000
 Structure written by MMmdl.
 49 50  0  0  0  0  0  0  0  0  1 V2000
  147.1756  140.3756  152.5001 C   0  0  0  0  0  0  0  0  0  0  0  0
  147.2162  140.9107  153.9421 C   0  0  0  0  0  0  0  0  0  0  0  0
  147.5264  142.4221  153.9065 C   0  0  0  0  0  0  0  0  0  0  0  0
  145.8499  140.6505  154.6111 C   0  0  0  0  0  0  0  0  0  0  0  0
  148.2823  140.1794  154.6372 N   0  0  0  0  0  0  0  0  0  0  0  0
  149.6158  140.3555  154.5593 C   0  0  0  0  0  0  0  0  0  0  0  0
  150.1310  141.2232  153.8535 O   0  0  0  0  0  0  0  0  0  0  0  0
  150.3413  139.5083  155.3336 N   0  0  0  0  0  0  0  0  0  0  0  0
  151.8036  139.3339  155.3076 C   0  0  0  0  0  0  0  0  0  0  0  0
  152.4052  140.0168  156.5489 C   0  0  0  0  0  0  0  0  0  0  0  0
  151.7839  139.4642  157.8503 C   0  0  0  0  0  0  0  0  0  0  0  0
  152.2390  140.2607  158.9854 N   0  0  0  0  0  0  0  0  0  0  0  0
  153.5197  140.4370  159.3462 C   0  0  0  0  0  0  0  0  0  0  0  0
  154.4701  139.9295  158.7515 O   0  0  0  0  0  0  0  0  0  0  0  0
  153.7682  141.3282  160.5630 C   0  0  0  0  0  0  0  0  0  0  0  0
  152.9999  142.6301  160.4258 C   0  0  0  0  0  0  0  0  0  0  0  0
  153.0542  143.3830  159.2343 C   0  0  0  0  0  0  0  0  0  0  0  0
  152.3252  144.5852  159.1575 C   0  0  0  0  0  0  0  0  0  0  0  0
  151.5700  144.9843  160.2784 C   0  0  0  0  0  0  0  0  0  0  0  0
  151.5099  144.2716  161.4238 N   0  0  0  0  0  0  0  0  0  0  0  0
  152.2127  143.1205  161.4898 C   0  0  0  0  0  0  0  0  0  0  0  0
  150.2390  139.4473  157.7767 C   0  0  0  0  0  0  0  0  0  0  0  0
  149.7485  138.7950  156.4713 C   0  0  0  0  0  0  0  0  0  0  0  0
  146.3970  140.8672  151.9156 H   0  0  0  0  0  0  0  0  0  0  0  0
  146.9732  139.3040  152.4782 H   0  0  0  0  0  0  0  0  0  0  0  0
  148.1236  140.5415  151.9865 H   0  0  0  0  0  0  0  0  0  0  0  0
  148.5066  142.6162  153.4695 H   0  0  0  0  0  0  0  0  0  0  0  0
  147.5147  142.8674  154.9013 H   0  0  0  0  0  0  0  0  0  0  0  0
  146.7895  142.9597  153.3089 H   0  0  0  0  0  0  0  0  0  0  0  0
  145.0399  141.1040  154.0386 H   0  0  0  0  0  0  0  0  0  0  0  0
  145.7993  141.0663  155.6172 H   0  0  0  0  0  0  0  0  0  0  0  0
  145.6408  139.5827  154.6844 H   0  0  0  0  0  0  0  0  0  0  0  0
  147.9680  139.4431  155.2523 H   0  0  0  0  0  0  0  0  0  0  0  0
  152.0366  138.2681  155.3225 H   0  0  0  0  0  0  0  0  0  0  0  0
  152.2807  139.7171  154.4058 H   0  0  0  0  0  0  0  0  0  0  0  0
  153.4867  139.8773  156.5632 H   0  0  0  0  0  0  0  0  0  0  0  0
  152.2332  141.0923  156.4819 H   0  0  0  0  0  0  0  0  0  0  0  0
  152.1340  138.4373  157.9727 H   0  0  0  0  0  0  0  0  0  0  0  0
  151.5263  140.7181  159.5350 H   0  0  0  0  0  0  0  0  0  0  0  0
  153.4708  140.8147  161.4786 H   0  0  0  0  0  0  0  0  0  0  0  0
  154.8355  141.5352  160.6511 H   0  0  0  0  0  0  0  0  0  0  0  0
  153.6458  143.0477  158.3950 H   0  0  0  0  0  0  0  0  0  0  0  0
  152.3447  145.1876  158.2613 H   0  0  0  0  0  0  0  0  0  0  0  0
  150.9987  145.9005  160.2542 H   0  0  0  0  0  0  0  0  0  0  0  0
  152.1458  142.5755  162.4199 H   0  0  0  0  0  0  0  0  0  0  0  0
  149.8252  138.9142  158.6333 H   0  0  0  0  0  0  0  0  0  0  0  0
  149.8542  140.4669  157.8326 H   0  0  0  0  0  0  0  0  0  0  0  0
  148.6580  138.7882  156.4450 H   0  0  0  0  0  0  0  0  0  0  0  0
  150.0488  137.7466  156.4406 H   0  0  0  0  0  0  0  0  0  0  0  0
  1  2  1  0  0  0  0
  1 24  1  0  0  0  0
  1 25  1  0  0  0  0
  1 26  1  0  0  0  0
  2  3  1  0  0  0  0
  2  4  1  0  0  0  0
  2  5  1  0  0  0  0
  3 27  1  0  0  0  0
  3 28  1  0  0  0  0
  3 29  1  0  0  0  0
  4 30  1  0  0  0  0
  4 31  1  0  0  0  0
  4 32  1  0  0  0  0
  5  6  1  0  0  0  0
  5 33  1  0  0  0  0
  6  7  2  0  0  0  0
  6  8  1  0  0  0  0
  8 23  1  0  0  0  0
  8  9  1  0  0  0  0
  9 10  1  0  0  0  0
  9 34  1  0  0  0  0
  9 35  1  0  0  0  0
 10 11  1  0  0  0  0
 10 36  1  0  0  0  0
 10 37  1  0  0  0  0
 11 12  1  0  0  0  0
 11 22  1  0  0  0  0
 11 38  1  0  0  0  0
 12 13  1  0  0  0  0
 12 39  1  0  0  0  0
 13 14  2  0  0  0  0
 13 15  1  0  0  0  0
 15 16  1  0  0  0  0
 15 40  1  0  0  0  0
 15 41  1  0  0  0  0
 16 21  1  0  0  0  0
 16 17  2  0  0  0  0
 17 18  1  0  0  0  0
 17 42  1  0  0  0  0
 18 19  2  0  0  0  0
 18 43  1  0  0  0  0
 19 20  1  0  0  0  0
 19 44  1  0  0  0  0
 20 21  2  0  0  0  0
 21 45  1  0  0  0  0
 22 23  1  0  0  0  0
 22 46  1  0  0  0  0
 22 47  1  0  0  0  0
 23 48  1  0  0  0  0
 23 49  1  0  0  0  0
M  END
> <s_m_source_file>
AV-unprocessed.smi

> <i_m_source_file_index>
2868

> <i_lp_mmshare_version>
43012

> <i_f3d_flags>
0

> <s_epik_input>
W0NIM11DKFtDSDNdKShbQ0gzXSlbTkhdQyg9TylOMVtDSDJdW0NIMl1bQ0hdKFtDSDJdW0NIMl0xKVtOSF1DKD1PKVtDSDJdYzJbY0hdW2NIXVtjSF1uW2NIXTI=

> <s_epik_cmdline>
J2VwaWtfcHl0aG9uJywgJy1waCcsICc3LjAnLCAnLXRuJywgJzgnLCAnLW1hJywgJzIwMCcsICctbWV0YWxfYmluZGluZycsICctaW1hZScsICc8aW5maWxlLm1hZT4nLCAnLW9tYWUnLCAnPG91dGZpbGUubWFlPic=

> <r_epik_Ionization_Penalty>
0.00419782

> <r_epik_Ionization_Penalty_Charging>
0

> <r_epik_Ionization_Penalty_Neutral>
0.00419782

> <r_epik_State_Penalty>
0.0029617

> <r_epik_Charging_Adjusted_Penalty>
0.0029617

> <i_epik_Tot_Q>
0

> <i_epik_Tot_abs_Q>
0

> <r_epik_Metal_State_Penalty>
-0

> <b_epik_Metal_Only>
0

> <s_lp_Force_Field>
OPLS_2005

> <r_lp_Energy>
29.348

> <b_lp_Chiralities_Consistent>
1

> <s_lp_Variant>
AV-unprocessed.smi:2868-1

> <Gold.Version>
5.8.1

> <Gold.Id.Protein>
6NUR|6NUR_protein|mol2

> <Gold.PLP.Fitness>
48.9706

> <Gold.PLP.PLP>
-45.5313

> <Gold.PLP.part.hbond>
-2.6708

> <Gold.PLP.part.metal>
0.0000

> <Gold.PLP.part.buried>
-2.3045

> <Gold.PLP.part.nonpolar>
-41.5680

> <Gold.PLP.part.repulsive>
1.3844

> <Gold.PLP.ligand.clash>
0.8750

> <Gold.PLP.ligand.torsion>
0.6839

> <Gold.PLP.Chemscore.Hbond>
1.8703

> <Gold.PLP.Chemscore.CHOScore>
0.0000

> <Gold.PLP.Chemscore.Metal>
0.0000

> <Gold.Chemscore.Hbonds>
donor molecule, donor type, donor heavy atom, donor atom, acceptor molecule, acceptor atom, score
      P1  H  7989  7998       L1     7  0.29
      P1  H  7997  8010       L1    14  1.00
      P1  H  8011  8017       L1     7  0.74

> <Gold.PLP.Chemscore.Internal.Correction>
0.0712

> <Gold.Rescore>
     Score         DG    S(hbond)    S(metal)    S(lipo)     H(rot)  DE(clash)    DE(int)     intcor
     19.90     -21.10       1.70        0.00     118.33       1.52       0.38       0.83       ----

> <Gold.Chemscore.Fitness>
19.8965

> <Gold.Chemscore.DG>
-21.1045

> <Gold.Chemscore.ZeroCoef>
-5.4800

> <Gold.Chemscore.Hbond>
1.6977

> <Gold.Chemscore.Metal>
0.0000

> <Gold.Chemscore.Lipo>
118.3293

> <Gold.Chemscore.Internal_Hbond>
0.0000

> <Gold.Chemscore.DEClash>
0.3808

> <Gold.Chemscore.DEInternal>
0.8273

> <Gold.Chemscore.Rot>
1.5197

> <Gold.Chemscore.Internal.Correction>
   9.000000E+99

> <Gold.Chemscore.Hbonds>
donor molecule, donor type, donor heavy atom, donor atom, acceptor molecule, acceptor atom, score
      P1  H  7989  7998       L1     7  0.25
      P1  H  7997  8010       L1    14  0.92
      P1  H  8011  8017       L1     7  0.71

> <Gold.Chemscore.Hbond.Weighted>
-5.6704

> <Gold.Chemscore.Metal.Weighted>
-0.0000

> <Gold.Chemscore.Lipo.Weighted>
-13.8445

> <Gold.Chemscore.Internal_Hbond.Weighted>
0.0000

> <Gold.Chemscore.DEClash.Weighted>
0.3808

> <Gold.Chemscore.DEInternal.Weighted>
0.8273

> <Gold.Chemscore.Rot.Weighted>
3.8904

> <Gold.Chemscore.Internal.Correction.Weighted>
   9.000000E+99

> <Gold.Protein.RotatedTorsions>
[ 6907 6896 6895 6894 ] final  131.99 input  -60.11 | X-H torsion
[ 7974 7965 7964 7962 ] final -178.78 input  175.53 | X-H torsion
[ 8008 7997 7996 7995 ] final    0.74 input   59.86 | X-H torsion
[ 10167 10162 10161 10158 ] final -179.23 input  -65.29 | X-H torsion
[ 10718 10713 10712 10709 ] final  114.76 input   66.30 | X-H torsion
[ 10763 10752 10751 10750 ] final  -90.29 input  -60.55 | X-H torsion
[ 11005 11000 10999 10996 ] final -165.68 input  -57.11 | X-H torsion

> <Gold.Protein.ActiveResidues>
 VAL166  LYS551  ARG553  GLY616  TRP617  ASP618  TYR619  PRO620  LYS621  CYS622 
 ASP623  PHE694  ASN695  SER759  ASP760  ASP761  ALA762  ILE779  LEU786  VAL792 
 PHE793  MET794  SER795  GLU796  ALA797  LYS798  CYS799  TRP800  GLU811  SER814 

> <Gold.Protein.RotatedAtoms>
  152.3370  133.6023  159.5849 H   0  0  0  0  0  0  0  0  0  0  0  0  # atno 6907 bound_to 6896
  150.7456  133.9781  159.3576 H   0  0  0  0  0  0  0  0  0  0  0  0  # atno 6908 bound_to 6896
  151.7649  135.0801  160.0402 H   0  0  0  0  0  0  0  0  0  0  0  0  # atno 6909 bound_to 6896
  144.7133  140.0817  143.6425 H   0  0  0  0  0  0  0  0  0  0  0  0  # atno 7974 bound_to 7965
  154.6716  140.2613  155.7001 H   0  0  0  0  0  0  0  0  0  0  0  0  # atno 8008 bound_to 7997
  156.2661  140.2828  156.1150 H   0  0  0  0  0  0  0  0  0  0  0  0  # atno 8009 bound_to 7997
  155.1160  140.0376  157.2727 H   0  0  0  0  0  0  0  0  0  0  0  0  # atno 8010 bound_to 7997
  139.5396  144.2401  152.0867 H   0  0  0  0  0  0  0  0  0  0  0  0  # atno 10167 bound_to 10162
  157.6262  131.1003  150.7233 H   0  0  0  0  0  0  0  0  0  0  0  0  # atno 10718 bound_to 10713
  154.6643  135.5309  153.8057 H   0  0  0  0  0  0  0  0  0  0  0  0  # atno 10763 bound_to 10752
  153.0461  135.6513  154.0824 H   0  0  0  0  0  0  0  0  0  0  0  0  # atno 10764 bound_to 10752
  154.0729  135.2953  155.3284 H   0  0  0  0  0  0  0  0  0  0  0  0  # atno 10765 bound_to 10752
  140.5730  134.5218  157.5165 H   0  0  0  0  0  0  0  0  0  0  0  0  # atno 11005 bound_to 11000
  145.9696  139.2860  143.1106 LP  0  0  0  0  0  0  0  0  0  0  0  0  # atno 17320 bound_to 7965
  145.9131  140.9167  143.0444 LP  0  0  0  0  0  0  0  0  0  0  0  0  # atno 17321 bound_to 7965
  140.1877  144.4782  150.6495 LP  0  0  0  0  0  0  0  0  0  0  0  0  # atno 17342 bound_to 10162
  140.6619  143.2255  151.5835 LP  0  0  0  0  0  0  0  0  0  0  0  0  # atno 17343 bound_to 10162
  156.7580  130.4790  149.5442 LP  0  0  0  0  0  0  0  0  0  0  0  0  # atno 17370 bound_to 10713
  156.1436  130.6261  151.0500 LP  0  0  0  0  0  0  0  0  0  0  0  0  # atno 17371 bound_to 10713
  139.9353  134.7887  156.0820 LP  0  0  0  0  0  0  0  0  0  0  0  0  # atno 17394 bound_to 11000
  141.1044  133.6665  156.2829 LP  0  0  0  0  0  0  0  0  0  0  0  0  # atno 17395 bound_to 11000

$$$$
