AV-unprocessed.smi:1643|AV-procd|sdf|6582|dock3
  -GOLD-   22720 7273D 1   1.00000     0.00000
 Structure written by MMmdl.
 54 56  0  0  0  0  0  0  0  0  2 V2000
  147.8940  136.5510  158.7596 C   0  0  0  0  0  0  0  0  0  0  0  0
  148.3955  135.2325  158.1647 C   0  0  0  0  0  0  0  0  0  0  0  0
  148.9063  134.4082  158.9233 O   0  0  0  0  0  0  0  0  0  0  0  0
  148.2666  135.0191  156.8332 N   0  0  0  0  0  0  0  0  0  0  0  0
  148.7750  133.8066  156.1820 C   0  0  0  0  0  0  0  0  0  0  0  0
  150.2163  134.0245  155.6938 C   0  0  0  0  0  0  0  0  0  0  0  0
  150.4020  135.2341  154.7534 C   0  0  0  0  0  0  0  0  0  0  0  0
  150.2106  136.5342  155.4123 N   0  0  0  0  0  0  0  0  0  0  0  0
  151.0720  137.5787  154.8530 C   0  0  0  0  0  0  0  0  0  0  0  0
  150.6516  139.0233  155.1914 C   0  0  2  0  0  0  0  0  0  0  0  0
  150.3430  139.6943  153.9853 O   0  0  0  0  0  0  0  0  0  0  0  0
  151.7784  139.7872  155.9116 C   0  0  0  0  0  0  0  0  0  0  0  0
  151.3366  141.0879  156.4303 N   0  0  0  0  0  0  0  0  0  0  0  0
  150.5070  142.0144  155.8790 C   0  0  0  0  0  0  0  0  0  0  0  0
  150.4072  143.0499  156.7584 N   0  3  0  0  0  0  0  0  0  0  0  0
  151.1850  142.7794  157.8868 C   0  0  0  0  0  0  0  0  0  0  0  0
  151.4068  143.5214  159.0409 C   0  0  0  0  0  0  0  0  0  0  0  0
  152.2619  142.9582  160.0152 C   0  0  0  0  0  0  0  0  0  0  0  0
  152.5292  143.7452  161.2869 C   0  0  0  0  0  0  0  0  0  0  0  0
  152.8589  141.6861  159.8160 C   0  0  0  0  0  0  0  0  0  0  0  0
  153.7730  141.0882  160.8722 C   0  0  0  0  0  0  0  0  0  0  0  0
  152.6211  140.9473  158.6350 C   0  0  0  0  0  0  0  0  0  0  0  0
  151.7809  141.5197  157.6835 C   0  0  0  0  0  0  0  0  0  0  0  0
  148.8087  136.9783  155.3642 C   0  0  0  0  0  0  0  0  0  0  0  0
  147.7302  136.0016  155.8851 C   0  0  0  0  0  0  0  0  0  0  0  0
  148.3649  137.4046  158.2724 H   0  0  0  0  0  0  0  0  0  0  0  0
  148.1304  136.6058  159.8227 H   0  0  0  0  0  0  0  0  0  0  0  0
  146.8122  136.6355  158.6548 H   0  0  0  0  0  0  0  0  0  0  0  0
  148.7397  132.9516  156.8590 H   0  0  0  0  0  0  0  0  0  0  0  0
  148.1408  133.5224  155.3416 H   0  0  0  0  0  0  0  0  0  0  0  0
  150.8802  134.1334  156.5525 H   0  0  0  0  0  0  0  0  0  0  0  0
  150.5461  133.1228  155.1771 H   0  0  0  0  0  0  0  0  0  0  0  0
  151.4103  135.1589  154.3509 H   0  0  0  0  0  0  0  0  0  0  0  0
  149.7474  135.1487  153.8849 H   0  0  0  0  0  0  0  0  0  0  0  0
  152.0969  137.4089  155.1864 H   0  0  0  0  0  0  0  0  0  0  0  0
  151.0988  137.4897  153.7656 H   0  0  0  0  0  0  0  0  0  0  0  0
  149.7629  139.0369  155.8205 H   0  0  0  0  0  0  0  0  0  0  0  0
  149.6301  140.2923  154.1536 H   0  0  0  0  0  0  0  0  0  0  0  0
  152.1805  139.2032  156.7403 H   0  0  0  0  0  0  0  0  0  0  0  0
  152.6110  139.9704  155.2309 H   0  0  0  0  0  0  0  0  0  0  0  0
  150.0134  141.9384  154.9207 H   0  0  0  0  0  0  0  0  0  0  0  0
  150.9462  144.4874  159.1872 H   0  0  0  0  0  0  0  0  0  0  0  0
  153.5982  143.9163  161.4156 H   0  0  0  0  0  0  0  0  0  0  0  0
  152.1568  143.2035  162.1566 H   0  0  0  0  0  0  0  0  0  0  0  0
  152.0377  144.7181  161.2646 H   0  0  0  0  0  0  0  0  0  0  0  0
  154.1036  140.0871  160.5936 H   0  0  0  0  0  0  0  0  0  0  0  0
  153.2568  141.0123  161.8295 H   0  0  0  0  0  0  0  0  0  0  0  0
  154.6599  141.7084  161.0042 H   0  0  0  0  0  0  0  0  0  0  0  0
  153.0744  139.9790  158.4821 H   0  0  0  0  0  0  0  0  0  0  0  0
  148.7258  137.8952  155.9488 H   0  0  0  0  0  0  0  0  0  0  0  0
  148.5485  137.2648  154.3440 H   0  0  0  0  0  0  0  0  0  0  0  0
  147.2932  135.4850  155.0301 H   0  0  0  0  0  0  0  0  0  0  0  0
  146.8939  136.5570  156.3103 H   0  0  0  0  0  0  0  0  0  0  0  0
  149.8469  143.8771  156.5979 H   0  0  0  0  0  0  0  0  0  0  0  0
  1  2  1  0  0  0  0
  1 26  1  0  0  0  0
  1 27  1  0  0  0  0
  1 28  1  0  0  0  0
  2  3  2  0  0  0  0
  2  4  1  0  0  0  0
  4 25  1  0  0  0  0
  4  5  1  0  0  0  0
  5  6  1  0  0  0  0
  5 29  1  0  0  0  0
  5 30  1  0  0  0  0
  6  7  1  0  0  0  0
  6 31  1  0  0  0  0
  6 32  1  0  0  0  0
  7  8  1  0  0  0  0
  7 33  1  0  0  0  0
  7 34  1  0  0  0  0
  8  9  1  0  0  0  0
  8 24  1  0  0  0  0
  9 10  1  0  0  0  0
  9 35  1  0  0  0  0
  9 36  1  0  0  0  0
 10 11  1  0  0  0  0
 10 12  1  0  0  0  0
 10 37  1  0  0  0  0
 11 38  1  0  0  0  0
 12 13  1  0  0  0  0
 12 39  1  0  0  0  0
 12 40  1  0  0  0  0
 13 23  1  0  0  0  0
 13 14  1  0  0  0  0
 14 15  2  0  0  0  0
 14 41  1  0  0  0  0
 15 16  1  0  0  0  0
 15 54  1  0  0  0  0
 16 23  2  0  0  0  0
 16 17  1  0  0  0  0
 17 18  2  0  0  0  0
 17 42  1  0  0  0  0
 18 19  1  0  0  0  0
 18 20  1  0  0  0  0
 19 43  1  0  0  0  0
 19 44  1  0  0  0  0
 19 45  1  0  0  0  0
 20 21  1  0  0  0  0
 20 22  2  0  0  0  0
 21 46  1  0  0  0  0
 21 47  1  0  0  0  0
 21 48  1  0  0  0  0
 22 23  1  0  0  0  0
 22 49  1  0  0  0  0
 24 25  1  0  0  0  0
 24 50  1  0  0  0  0
 24 51  1  0  0  0  0
 25 52  1  0  0  0  0
 25 53  1  0  0  0  0
M  CHG  1  15   1
M  END
> <s_m_source_file>
AV-unprocessed.smi

> <i_m_source_file_index>
1643

> <i_lp_mmshare_version>
43012

> <i_f3d_flags>
0

> <s_epik_input>
W0NIM11DKD1PKU4xW0NIMl1bQ0gyXVtDSDJdTihbQ0gyXVtDSDJdMSlbQ0gyXVtDQEhdKFtPSF0pW0NIMl1uKFtjSF1uMiljKGMyMylbY0hdYyhbQ0gzXSljKFtjSF0zKVtDSDNd

> <s_epik_cmdline>
J2VwaWtfcHl0aG9uJywgJy1waCcsICc3LjAnLCAnLXRuJywgJzgnLCAnLW1hJywgJzIwMCcsICctbWV0YWxfYmluZGluZycsICctaW1hZScsICc8aW5maWxlLm1hZT4nLCAnLW9tYWUnLCAnPG91dGZpbGUubWFlPic=

> <r_epik_Ionization_Penalty>
2.25269

> <r_epik_Ionization_Penalty_Charging>
1.20735

> <r_epik_Ionization_Penalty_Neutral>
1.04533

> <r_epik_State_Penalty>
2.37869

> <r_epik_Charging_Adjusted_Penalty>
3.58604

> <i_epik_Tot_Q>
1

> <i_epik_Tot_abs_Q>
1

> <r_epik_Metal_State_Penalty>
6.40045

> <b_epik_Metal_Only>
0

> <s_lp_Force_Field>
OPLS_2005

> <r_lp_Energy>
52.9577

> <b_lp_Chiralities_Consistent>
1

> <s_lp_Variant>
AV-unprocessed.smi:1643-11

> <Gold.Version>
5.8.1

> <Gold.Id.Protein>
6NUR|6NUR_protein|mol2

> <Gold.PLP.Fitness>
55.0866

> <Gold.PLP.PLP>
-45.5133

> <Gold.PLP.part.hbond>
-3.9988

> <Gold.PLP.part.metal>
0.0000

> <Gold.PLP.part.buried>
-5.9130

> <Gold.PLP.part.nonpolar>
-35.0758

> <Gold.PLP.part.repulsive>
0.1540

> <Gold.PLP.ligand.clash>
0.0225

> <Gold.PLP.ligand.torsion>
1.2599

> <Gold.PLP.Chemscore.Hbond>
4.0000

> <Gold.PLP.Chemscore.CHOScore>
0.0000

> <Gold.PLP.Chemscore.Metal>
0.0000

> <Gold.Chemscore.Hbonds>
donor molecule, donor type, donor heavy atom, donor atom, acceptor molecule, acceptor atom, score
      L1  H    15    54       P1  8028  2.00
      P1  H  6896  6908       L1     3  1.00
      P1  H  7989  7998       L1    11  1.00

> <Gold.PLP.Chemscore.Internal.Correction>
0.1157

> <Gold.Rescore>
     Score         DG    S(hbond)    S(metal)    S(lipo)     H(rot)  DE(clash)    DE(int)     intcor
     20.65     -23.51       2.75        0.00     122.18       2.12       0.38       2.48       ----

> <Gold.Chemscore.Fitness>
20.6550

> <Gold.Chemscore.DG>
-23.5124

> <Gold.Chemscore.ZeroCoef>
-5.4800

> <Gold.Chemscore.Hbond>
2.7454

> <Gold.Chemscore.Metal>
0.0000

> <Gold.Chemscore.Lipo>
122.1787

> <Gold.Chemscore.Internal_Hbond>
0.0000

> <Gold.Chemscore.DEClash>
0.3787

> <Gold.Chemscore.DEInternal>
2.4787

> <Gold.Chemscore.Rot>
2.1220

> <Gold.Chemscore.Internal.Correction>
   9.000000E+99

> <Gold.Chemscore.Hbonds>
donor molecule, donor type, donor heavy atom, donor atom, acceptor molecule, acceptor atom, score
      L1  H    15    54       P1  8028  0.93
      P1  H  6896  6908       L1     3  0.96
      P1  H  7989  7998       L1    11  0.21

> <Gold.Chemscore.Hbond.Weighted>
-9.1697

> <Gold.Chemscore.Metal.Weighted>
-0.0000

> <Gold.Chemscore.Lipo.Weighted>
-14.2949

> <Gold.Chemscore.Internal_Hbond.Weighted>
0.0000

> <Gold.Chemscore.DEClash.Weighted>
0.3787

> <Gold.Chemscore.DEInternal.Weighted>
2.4787

> <Gold.Chemscore.Rot.Weighted>
5.4322

> <Gold.Chemscore.Internal.Correction.Weighted>
   9.000000E+99

> <Gold.Protein.RotatedTorsions>
[ 6907 6896 6895 6894 ] final  134.30 input  -60.11 | X-H torsion
[ 7974 7965 7964 7962 ] final   60.48 input  175.53 | X-H torsion
[ 8008 7997 7996 7995 ] final -171.38 input   59.86 | X-H torsion
[ 10167 10162 10161 10158 ] final -175.60 input  -65.29 | X-H torsion
[ 10718 10713 10712 10709 ] final    6.94 input   66.30 | X-H torsion
[ 10763 10752 10751 10750 ] final   26.35 input  -60.55 | X-H torsion
[ 11005 11000 10999 10996 ] final   66.87 input  -57.11 | X-H torsion

> <Gold.Protein.ActiveResidues>
 VAL166  LYS551  ARG553  GLY616  TRP617  ASP618  TYR619  PRO620  LYS621  CYS622 
 ASP623  PHE694  ASN695  SER759  ASP760  ASP761  ALA762  ILE779  LEU786  VAL792 
 PHE793  MET794  SER795  GLU796  ALA797  LYS798  CYS799  TRP800  GLU811  SER814 

> <Gold.Protein.RotatedAtoms>
  152.3127  133.5770  159.5691 H   0  0  0  0  0  0  0  0  0  0  0  0  # atno 6907 bound_to 6896
  150.7331  134.0128  159.3684 H   0  0  0  0  0  0  0  0  0  0  0  0  # atno 6908 bound_to 6896
  151.8019  135.0707  160.0452 H   0  0  0  0  0  0  0  0  0  0  0  0  # atno 6909 bound_to 6896
  145.8956  139.3543  143.0623 H   0  0  0  0  0  0  0  0  0  0  0  0  # atno 7974 bound_to 7965
  155.9308  140.1091  157.1133 H   0  0  0  0  0  0  0  0  0  0  0  0  # atno 8008 bound_to 7997
  154.4070  140.1238  156.4866 H   0  0  0  0  0  0  0  0  0  0  0  0  # atno 8009 bound_to 7997
  155.7082  140.3471  155.4964 H   0  0  0  0  0  0  0  0  0  0  0  0  # atno 8010 bound_to 7997
  139.5573  144.1958  152.1180 H   0  0  0  0  0  0  0  0  0  0  0  0  # atno 10167 bound_to 10162
  156.9296  130.5821  149.5649 H   0  0  0  0  0  0  0  0  0  0  0  0  # atno 10718 bound_to 10713
  153.0629  135.6562  154.0422 H   0  0  0  0  0  0  0  0  0  0  0  0  # atno 10763 bound_to 10752
  154.0085  135.2930  155.3396 H   0  0  0  0  0  0  0  0  0  0  0  0  # atno 10764 bound_to 10752
  154.6975  135.5258  153.8547 H   0  0  0  0  0  0  0  0  0  0  0  0  # atno 10765 bound_to 10752
  139.9805  134.6751  156.0271 H   0  0  0  0  0  0  0  0  0  0  0  0  # atno 11005 bound_to 11000
  145.8855  140.9336  143.0579 LP  0  0  0  0  0  0  0  0  0  0  0  0  # atno 17320 bound_to 7965
  144.6732  140.0836  143.7468 LP  0  0  0  0  0  0  0  0  0  0  0  0  # atno 17321 bound_to 7965
  140.1465  144.5154  150.6713 LP  0  0  0  0  0  0  0  0  0  0  0  0  # atno 17342 bound_to 10162
  140.6847  143.2344  151.5291 LP  0  0  0  0  0  0  0  0  0  0  0  0  # atno 17343 bound_to 10162
  156.0453  130.5530  150.8866 LP  0  0  0  0  0  0  0  0  0  0  0  0  # atno 17370 bound_to 10713
  157.5855  131.0945  150.9203 LP  0  0  0  0  0  0  0  0  0  0  0  0  # atno 17371 bound_to 10713
  141.1478  133.6553  156.3920 LP  0  0  0  0  0  0  0  0  0  0  0  0  # atno 17394 bound_to 11000
  140.5105  134.6399  157.5282 LP  0  0  0  0  0  0  0  0  0  0  0  0  # atno 17395 bound_to 11000

$$$$
