AV-unprocessed.smi:2701|AV-procd|sdf|10428|dock10
  -GOLD-   2272014463D 1   1.00000     0.00000
 Structure written by MMmdl.
 31 32  0  0  0  0  0  0  0  0  2 V2000
  148.0155  136.5287  162.9983 C   0  0  0  0  0  0  0  0  0  0  0  0
  147.0583  136.4541  161.7914 C   0  0  1  0  0  0  0  0  0  0  0  0
  147.8243  136.1797  160.4737 C   0  0  0  0  0  0  0  0  0  0  0  0
  147.5222  135.1996  159.7912 O   0  0  0  0  0  0  0  0  0  0  0  0
  148.7758  137.1123  160.2241 N   0  5  0  0  0  0  0  0  0  0  0  0
  149.7017  137.1098  158.8925 S   0  0  0  0  0  0  0  0  0  0  0  0
  151.0823  136.6860  159.1749 O   0  0  0  0  0  0  0  0  0  0  0  0
  149.0187  136.4436  157.7727 O   0  0  0  0  0  0  0  0  0  0  0  0
  149.7965  138.9070  158.4470 C   0  0  0  0  0  0  0  0  0  0  0  0
  150.7578  139.1315  157.3126 C   0  0  0  0  0  0  0  0  0  0  0  0
  150.5233  139.7977  156.0779 C   0  0  0  0  0  0  0  0  0  0  0  0
  151.7257  139.7162  155.4371 C   0  0  0  0  0  0  0  0  0  0  0  0
  152.6335  139.0696  156.2108 O   0  0  0  0  0  0  0  0  0  0  0  0
  152.0085  138.7062  157.4089 N   0  0  0  0  0  0  0  0  0  0  0  0
  145.8939  135.4677  162.0201 C   0  0  0  0  0  0  0  0  0  0  0  0
  144.7295  136.1484  161.3354 C   0  0  0  0  0  0  0  0  0  0  0  0
  145.0022  137.6060  161.6765 C   0  0  0  0  0  0  0  0  0  0  0  0
  146.4212  137.7327  161.6763 O   0  0  0  0  0  0  0  0  0  0  0  0
  148.4290  135.5503  163.2462 H   0  0  0  0  0  0  0  0  0  0  0  0
  147.4982  136.8971  163.8845 H   0  0  0  0  0  0  0  0  0  0  0  0
  148.8494  137.2044  162.8037 H   0  0  0  0  0  0  0  0  0  0  0  0
  148.8004  139.2746  158.2055 H   0  0  0  0  0  0  0  0  0  0  0  0
  150.1252  139.4443  159.3363 H   0  0  0  0  0  0  0  0  0  0  0  0
  149.6148  140.2568  155.7196 H   0  0  0  0  0  0  0  0  0  0  0  0
  152.0789  140.0572  154.4754 H   0  0  0  0  0  0  0  0  0  0  0  0
  146.0704  134.4632  161.6346 H   0  0  0  0  0  0  0  0  0  0  0  0
  145.6837  135.3695  163.0860 H   0  0  0  0  0  0  0  0  0  0  0  0
  144.7782  135.9955  160.2566 H   0  0  0  0  0  0  0  0  0  0  0  0
  143.7592  135.8004  161.6901 H   0  0  0  0  0  0  0  0  0  0  0  0
  144.5388  138.2966  160.9718 H   0  0  0  0  0  0  0  0  0  0  0  0
  144.6312  137.8385  162.6755 H   0  0  0  0  0  0  0  0  0  0  0  0
  1  2  1  0  0  0  0
  1 19  1  0  0  0  0
  1 20  1  0  0  0  0
  1 21  1  0  0  0  0
  2 18  1  0  0  0  0
  2  3  1  0  0  0  0
  2 15  1  0  0  0  0
  3  4  2  0  0  0  0
  3  5  1  0  0  0  0
  5  6  1  0  0  0  0
  6  7  2  0  0  0  0
  6  8  2  0  0  0  0
  6  9  1  0  0  0  0
  9 10  1  0  0  0  0
  9 22  1  0  0  0  0
  9 23  1  0  0  0  0
 10 14  2  0  0  0  0
 10 11  1  0  0  0  0
 11 12  2  0  0  0  0
 11 24  1  0  0  0  0
 12 13  1  0  0  0  0
 12 25  1  0  0  0  0
 13 14  1  0  0  0  0
 15 16  1  0  0  0  0
 15 26  1  0  0  0  0
 15 27  1  0  0  0  0
 16 17  1  0  0  0  0
 16 28  1  0  0  0  0
 16 29  1  0  0  0  0
 17 18  1  0  0  0  0
 17 30  1  0  0  0  0
 17 31  1  0  0  0  0
M  CHG  1   5  -1
M  END
> <s_m_source_file>
AV-unprocessed.smi

> <i_m_source_file_index>
2701

> <i_lp_mmshare_version>
43012

> <i_f3d_flags>
0

> <s_epik_input>
TzFbQ0gyXVtDSDJdW0NIMl1bQ0BAXTEoW0NIM10pQyg9TylbTkhdUyg9TykoPU8pW0NIMl1jMltjSF1bY0hdb24y

> <s_epik_cmdline>
J2VwaWtfcHl0aG9uJywgJy1waCcsICc3LjAnLCAnLXRuJywgJzgnLCAnLW1hJywgJzIwMCcsICctbWV0YWxfYmluZGluZycsICctaW1hZScsICc8aW5maWxlLm1hZT4nLCAnLW9tYWUnLCAnPG91dGZpbGUubWFlPic=

> <r_lp_tautomer_probability>
1

> <r_epik_Ionization_Penalty>
0.000279175

> <r_epik_Ionization_Penalty_Charging>
0.000279174

> <r_epik_Ionization_Penalty_Neutral>
1.67252e-10

> <r_epik_State_Penalty>
-0

> <r_epik_Charging_Adjusted_Penalty>
0.000279174

> <i_epik_Tot_Q>
-1

> <i_epik_Tot_abs_Q>
1

> <r_epik_Metal_State_Penalty>
-0

> <b_epik_Metal_Only>
0

> <s_lp_Force_Field>
OPLS_2005

> <r_lp_Energy>
15.6344

> <b_lp_Chiralities_Consistent>
1

> <s_lp_Variant>
AV-unprocessed.smi:2701-1

> <Gold.Version>
5.8.1

> <Gold.Id.Protein>
6NUR|6NUR_protein|mol2

> <Gold.PLP.Fitness>
39.4988

> <Gold.PLP.PLP>
-27.4285

> <Gold.PLP.part.hbond>
-4.4867

> <Gold.PLP.part.metal>
0.0000

> <Gold.PLP.part.buried>
-3.4660

> <Gold.PLP.part.nonpolar>
-19.0947

> <Gold.PLP.part.repulsive>
0.0000

> <Gold.PLP.ligand.clash>
0.0000

> <Gold.PLP.ligand.torsion>
0.7163

> <Gold.PLP.Chemscore.Hbond>
4.1440

> <Gold.PLP.Chemscore.CHOScore>
0.0000

> <Gold.PLP.Chemscore.Metal>
0.0000

> <Gold.Chemscore.Hbonds>
donor molecule, donor type, donor heavy atom, donor atom, acceptor molecule, acceptor atom, score
      P1  H  6896  6909       L1     7  1.00
      P1  H  6931  6943       L1     5  1.22
      P1  H  6934  6947       L1    18  0.91
      P1  H  7997  8008       L1    13  0.94

> <Gold.PLP.Chemscore.Internal.Correction>
1.0709

> <Gold.Rescore>
     Score         DG    S(hbond)    S(metal)    S(lipo)     H(rot)  DE(clash)    DE(int)     intcor
     16.90     -19.16       3.48        0.00      51.71       1.56       0.02       2.23       ----

> <Gold.Chemscore.Fitness>
16.9047

> <Gold.Chemscore.DG>
-19.1586

> <Gold.Chemscore.ZeroCoef>
-5.4800

> <Gold.Chemscore.Hbond>
3.4792

> <Gold.Chemscore.Metal>
0.0000

> <Gold.Chemscore.Lipo>
51.7058

> <Gold.Chemscore.Internal_Hbond>
0.0000

> <Gold.Chemscore.DEClash>
0.0212

> <Gold.Chemscore.DEInternal>
2.2327

> <Gold.Chemscore.Rot>
1.5591

> <Gold.Chemscore.Internal.Correction>
   9.000000E+99

> <Gold.Chemscore.Hbonds>
donor molecule, donor type, donor heavy atom, donor atom, acceptor molecule, acceptor atom, score
      P1  H  6896  6909       L1     7  0.80
      P1  H  6931  6943       L1     5  0.43
      P1  H  6934  6947       L1    18  0.86
      P1  H  7997  8008       L1    13  0.62

> <Gold.Chemscore.Hbond.Weighted>
-11.6204

> <Gold.Chemscore.Metal.Weighted>
-0.0000

> <Gold.Chemscore.Lipo.Weighted>
-6.0496

> <Gold.Chemscore.Internal_Hbond.Weighted>
0.0000

> <Gold.Chemscore.DEClash.Weighted>
0.0212

> <Gold.Chemscore.DEInternal.Weighted>
2.2327

> <Gold.Chemscore.Rot.Weighted>
3.9914

> <Gold.Chemscore.Internal.Correction.Weighted>
   9.000000E+99

> <Gold.Protein.RotatedTorsions>
[ 6907 6896 6895 6894 ] final   91.80 input  -60.11 | X-H torsion
[ 7974 7965 7964 7962 ] final -119.02 input  175.53 | X-H torsion
[ 8008 7997 7996 7995 ] final  -60.65 input   59.86 | X-H torsion
[ 10167 10162 10161 10158 ] final -174.98 input  -65.29 | X-H torsion
[ 10718 10713 10712 10709 ] final -132.12 input   66.30 | X-H torsion
[ 10763 10752 10751 10750 ] final  -13.07 input  -60.55 | X-H torsion
[ 11005 11000 10999 10996 ] final  162.60 input  -57.11 | X-H torsion

> <Gold.Protein.ActiveResidues>
 VAL166  LYS551  ARG553  GLY616  TRP617  ASP618  TYR619  PRO620  LYS621  CYS622 
 ASP623  PHE694  ASN695  SER759  ASP760  ASP761  ALA762  ILE779  LEU786  VAL792 
 PHE793  MET794  SER795  GLU796  ALA797  LYS798  CYS799  TRP800  GLU811  SER814 

> <Gold.Protein.RotatedAtoms>
  152.5451  134.1600  159.8553 H   0  0  0  0  0  0  0  0  0  0  0  0  # atno 6907 bound_to 6896
  151.1619  133.4832  159.2601 H   0  0  0  0  0  0  0  0  0  0  0  0  # atno 6908 bound_to 6896
  151.1364  135.0168  159.8661 H   0  0  0  0  0  0  0  0  0  0  0  0  # atno 6909 bound_to 6896
  145.0672  140.8333  143.4117 H   0  0  0  0  0  0  0  0  0  0  0  0  # atno 7974 bound_to 7965
  154.4409  140.1035  156.6307 H   0  0  0  0  0  0  0  0  0  0  0  0  # atno 8008 bound_to 7997
  155.5608  140.3487  155.4472 H   0  0  0  0  0  0  0  0  0  0  0  0  # atno 8009 bound_to 7997
  156.0461  140.1293  157.0091 H   0  0  0  0  0  0  0  0  0  0  0  0  # atno 8010 bound_to 7997
  139.5605  144.1882  152.1230 H   0  0  0  0  0  0  0  0  0  0  0  0  # atno 10167 bound_to 10162
  156.2314  130.7039  151.0862 H   0  0  0  0  0  0  0  0  0  0  0  0  # atno 10718 bound_to 10713
  153.5079  135.7016  153.5797 H   0  0  0  0  0  0  0  0  0  0  0  0  # atno 10763 bound_to 10752
  153.3900  135.3898  155.1916 H   0  0  0  0  0  0  0  0  0  0  0  0  # atno 10764 bound_to 10752
  154.8705  135.3856  154.4556 H   0  0  0  0  0  0  0  0  0  0  0  0  # atno 10765 bound_to 10752
  140.2274  134.8150  157.3282 H   0  0  0  0  0  0  0  0  0  0  0  0  # atno 11005 bound_to 11000
  145.1336  139.2616  143.5526 LP  0  0  0  0  0  0  0  0  0  0  0  0  # atno 17320 bound_to 7965
  146.3527  140.0994  142.8608 LP  0  0  0  0  0  0  0  0  0  0  0  0  # atno 17321 bound_to 7965
  140.1395  144.5215  150.6753 LP  0  0  0  0  0  0  0  0  0  0  0  0  # atno 17342 bound_to 10162
  140.6884  143.2362  151.5199 LP  0  0  0  0  0  0  0  0  0  0  0  0  # atno 17343 bound_to 10162
  157.7134  131.0722  150.6416 LP  0  0  0  0  0  0  0  0  0  0  0  0  # atno 17370 bound_to 10713
  156.6484  130.4478  149.5728 LP  0  0  0  0  0  0  0  0  0  0  0  0  # atno 17371 bound_to 10713
  140.1786  134.4518  155.7786 LP  0  0  0  0  0  0  0  0  0  0  0  0  # atno 17394 bound_to 11000
  141.2220  133.6973  156.7830 LP  0  0  0  0  0  0  0  0  0  0  0  0  # atno 17395 bound_to 11000

$$$$
