AV-unprocessed.smi:2416|AV-procd|sdf|9547|dock7
  -GOLD-   2272013183D 1   1.00000     0.00000
 Structure written by MMmdl.
 40 41  0  0  0  0  0  0  0  0  1 V2000
  144.3384  132.3269  150.9709 C   0  0  0  0  0  0  0  0  0  0  0  0
  144.6334  133.6950  150.7209 O   0  0  0  0  0  0  0  0  0  0  0  0
  144.3967  134.6007  151.8000 C   0  0  2  0  0  0  0  0  0  0  0  0
  142.9522  134.4523  152.3032 C   0  0  0  0  0  0  0  0  0  0  0  0
  144.9106  136.0182  151.4890 C   0  0  0  0  0  0  0  0  0  0  0  0
  145.4725  136.0320  152.9089 C   0  0  2  0  0  0  0  0  0  0  0  0
  146.7524  136.7266  152.9990 N   0  0  0  0  0  0  0  0  0  0  0  0
  147.0057  137.7402  153.8382 C   0  0  0  0  0  0  0  0  0  0  0  0
  146.1723  138.1939  154.6230 O   0  0  0  0  0  0  0  0  0  0  0  0
  148.2699  138.1787  153.7047 N   0  0  0  0  0  0  0  0  0  0  0  0
  148.9209  139.2157  154.4250 C   0  0  0  0  0  0  0  0  0  0  0  0
  150.2961  139.0008  154.6711 C   0  0  0  0  0  0  0  0  0  0  0  0
  151.0332  139.9686  155.3814 C   0  0  0  0  0  0  0  0  0  0  0  0
  150.3729  141.1269  155.8280 C   0  0  0  0  0  0  0  0  0  0  0  0
  151.0391  142.0840  156.5163 F   0  0  0  0  0  0  0  0  0  0  0  0
  149.0024  141.2652  155.5411 C   0  0  0  0  0  0  0  0  0  0  0  0
  148.2951  140.3384  154.8600 N   0  0  0  0  0  0  0  0  0  0  0  0
  145.5706  134.4868  152.8270 C   0  0  0  0  0  0  0  0  0  0  0  0
  145.2789  133.7302  154.1269 C   0  0  0  0  0  0  0  0  0  0  0  0
  146.8912  133.9016  152.2866 C   0  0  0  0  0  0  0  0  0  0  0  0
  144.4516  131.7635  150.0449 H   0  0  0  0  0  0  0  0  0  0  0  0
  143.3151  132.1854  151.3193 H   0  0  0  0  0  0  0  0  0  0  0  0
  145.0208  131.8911  151.7000 H   0  0  0  0  0  0  0  0  0  0  0  0
  142.7783  135.0250  153.2138 H   0  0  0  0  0  0  0  0  0  0  0  0
  142.7142  133.4112  152.5218 H   0  0  0  0  0  0  0  0  0  0  0  0
  142.2281  134.8121  151.5729 H   0  0  0  0  0  0  0  0  0  0  0  0
  145.6780  136.0457  150.7128 H   0  0  0  0  0  0  0  0  0  0  0  0
  144.1305  136.7571  151.3044 H   0  0  0  0  0  0  0  0  0  0  0  0
  144.7311  136.3761  153.6337 H   0  0  0  0  0  0  0  0  0  0  0  0
  147.4898  136.4105  152.3863 H   0  0  0  0  0  0  0  0  0  0  0  0
  148.8347  137.7113  153.0110 H   0  0  0  0  0  0  0  0  0  0  0  0
  150.7861  138.1040  154.3207 H   0  0  0  0  0  0  0  0  0  0  0  0
  152.0849  139.8234  155.5798 H   0  0  0  0  0  0  0  0  0  0  0  0
  148.4593  142.1403  155.8662 H   0  0  0  0  0  0  0  0  0  0  0  0
  146.1285  133.7623  154.8096 H   0  0  0  0  0  0  0  0  0  0  0  0
  145.0503  132.6815  153.9343 H   0  0  0  0  0  0  0  0  0  0  0  0
  144.4318  134.1539  154.6659 H   0  0  0  0  0  0  0  0  0  0  0  0
  147.7091  134.0287  152.9966 H   0  0  0  0  0  0  0  0  0  0  0  0
  147.2025  134.3730  151.3544 H   0  0  0  0  0  0  0  0  0  0  0  0
  146.8012  132.8331  152.0884 H   0  0  0  0  0  0  0  0  0  0  0  0
  1  2  1  0  0  0  0
  1 21  1  0  0  0  0
  1 22  1  0  0  0  0
  1 23  1  0  0  0  0
  2  3  1  0  0  0  0
  3 18  1  0  0  0  0
  3  4  1  0  0  0  0
  3  5  1  0  0  0  0
  4 24  1  0  0  0  0
  4 25  1  0  0  0  0
  4 26  1  0  0  0  0
  5  6  1  0  0  0  0
  5 27  1  0  0  0  0
  5 28  1  0  0  0  0
  6  7  1  0  0  0  0
  6 18  1  0  0  0  0
  6 29  1  0  0  0  0
  7  8  1  0  0  0  0
  7 30  1  0  0  0  0
  8  9  2  0  0  0  0
  8 10  1  0  0  0  0
 10 11  1  0  0  0  0
 10 31  1  0  0  0  0
 11 17  1  0  0  0  0
 11 12  2  0  0  0  0
 12 13  1  0  0  0  0
 12 32  1  0  0  0  0
 13 14  2  0  0  0  0
 13 33  1  0  0  0  0
 14 15  1  0  0  0  0
 14 16  1  0  0  0  0
 16 17  2  0  0  0  0
 16 34  1  0  0  0  0
 18 19  1  0  0  0  0
 18 20  1  0  0  0  0
 19 35  1  0  0  0  0
 19 36  1  0  0  0  0
 19 37  1  0  0  0  0
 20 38  1  0  0  0  0
 20 39  1  0  0  0  0
 20 40  1  0  0  0  0
M  END
> <s_m_source_file>
AV-unprocessed.smi

> <i_m_source_file_index>
2416

> <i_lp_mmshare_version>
43012

> <i_f3d_flags>
0

> <s_epik_input>
W0NIM11PW0NAQF0xKFtDSDNdKVtDSDJdW0NASF0oQzEoW0NIM10pW0NIM10pW05IXUMoPU8pW05IXWMyW2NIXVtjSF1jKEYpW2NIXW4y

> <s_epik_cmdline>
J2VwaWtfcHl0aG9uJywgJy1waCcsICc3LjAnLCAnLXRuJywgJzgnLCAnLW1hJywgJzIwMCcsICctbWV0YWxfYmluZGluZycsICctaW1hZScsICc8aW5maWxlLm1hZT4nLCAnLW9tYWUnLCAnPG91dGZpbGUubWFlPic=

> <r_lp_tautomer_probability>
1

> <r_epik_Ionization_Penalty>
3.67756e-05

> <r_epik_Ionization_Penalty_Charging>
0

> <r_epik_Ionization_Penalty_Neutral>
3.67756e-05

> <r_epik_State_Penalty>
-0

> <r_epik_Charging_Adjusted_Penalty>
0

> <i_epik_Tot_Q>
0

> <i_epik_Tot_abs_Q>
0

> <r_epik_Metal_State_Penalty>
-0

> <b_epik_Metal_Only>
0

> <s_lp_Force_Field>
OPLS_2005

> <r_lp_Energy>
27.0586

> <b_lp_Chiralities_Consistent>
1

> <s_lp_Variant>
AV-unprocessed.smi:2416-4

> <Gold.Version>
5.8.1

> <Gold.Id.Protein>
6NUR|6NUR_protein|mol2

> <Gold.PLP.Fitness>
37.9183

> <Gold.PLP.PLP>
-29.6854

> <Gold.PLP.part.hbond>
-1.9382

> <Gold.PLP.part.metal>
0.0000

> <Gold.PLP.part.buried>
-2.3153

> <Gold.PLP.part.nonpolar>
-25.4588

> <Gold.PLP.part.repulsive>
0.3461

> <Gold.PLP.ligand.clash>
0.0000

> <Gold.PLP.ligand.torsion>
0.4598

> <Gold.PLP.Chemscore.Hbond>
1.9280

> <Gold.PLP.Chemscore.CHOScore>
1.0000

> <Gold.PLP.Chemscore.Metal>
0.0000

> <Gold.Chemscore.Hbonds>
donor molecule, donor type, donor heavy atom, donor atom, acceptor molecule, acceptor atom, score
      L1  H     7    30       P1  7948  1.00
      L1  H    10    31       P1  7948  0.93
      L1  C    16    34       P1  8028  0.79

> <Gold.PLP.Chemscore.Internal.Correction>
0.3685

> <Gold.Rescore>
     Score         DG    S(hbond)    S(metal)    S(lipo)     H(rot)  DE(clash)    DE(int)     intcor
     14.55     -15.99       1.92        0.00      62.61       1.27       0.03       1.41       ----

> <Gold.Chemscore.Fitness>
14.5507

> <Gold.Chemscore.DG>
-15.9912

> <Gold.Chemscore.ZeroCoef>
-5.4800

> <Gold.Chemscore.Hbond>
1.9238

> <Gold.Chemscore.Metal>
0.0000

> <Gold.Chemscore.Lipo>
62.6059

> <Gold.Chemscore.Internal_Hbond>
0.0000

> <Gold.Chemscore.DEClash>
0.0314

> <Gold.Chemscore.DEInternal>
1.4092

> <Gold.Chemscore.Rot>
1.2653

> <Gold.Chemscore.Internal.Correction>
   9.000000E+99

> <Gold.Chemscore.Hbonds>
donor molecule, donor type, donor heavy atom, donor atom, acceptor molecule, acceptor atom, score
      L1  H     7    30       P1  7948  0.95
      L1  H    10    31       P1  7948  0.91

> <Gold.Chemscore.Hbond.Weighted>
-6.4256

> <Gold.Chemscore.Metal.Weighted>
-0.0000

> <Gold.Chemscore.Lipo.Weighted>
-7.3249

> <Gold.Chemscore.Internal_Hbond.Weighted>
0.0000

> <Gold.Chemscore.DEClash.Weighted>
0.0314

> <Gold.Chemscore.DEInternal.Weighted>
1.4092

> <Gold.Chemscore.Rot.Weighted>
3.2392

> <Gold.Chemscore.Internal.Correction.Weighted>
   9.000000E+99

> <Gold.Protein.RotatedTorsions>
[ 6907 6896 6895 6894 ] final   11.47 input  -60.11 | X-H torsion
[ 7974 7965 7964 7962 ] final   21.58 input  175.53 | X-H torsion
[ 8008 7997 7996 7995 ] final  -22.56 input   59.86 | X-H torsion
[ 10167 10162 10161 10158 ] final -112.17 input  -65.29 | X-H torsion
[ 10718 10713 10712 10709 ] final   80.49 input   66.30 | X-H torsion
[ 10763 10752 10751 10750 ] final   56.72 input  -60.55 | X-H torsion
[ 11005 11000 10999 10996 ] final -166.45 input  -57.11 | X-H torsion

> <Gold.Protein.ActiveResidues>
 VAL166  LYS551  ARG553  GLY616  TRP617  ASP618  TYR619  PRO620  LYS621  CYS622 
 ASP623  PHE694  ASN695  SER759  ASP760  ASP761  ALA762  ILE779  LEU786  VAL792 
 PHE793  MET794  SER795  GLU796  ALA797  LYS798  CYS799  TRP800  GLU811  SER814 

> <Gold.Protein.RotatedAtoms>
  151.7548  135.0824  160.0336 H   0  0  0  0  0  0  0  0  0  0  0  0  # atno 6907 bound_to 6896
  152.3392  133.6043  159.5873 H   0  0  0  0  0  0  0  0  0  0  0  0  # atno 6908 bound_to 6896
  150.7469  133.9664  159.3573 H   0  0  0  0  0  0  0  0  0  0  0  0  # atno 6909 bound_to 6896
  146.2065  139.8007  142.8722 H   0  0  0  0  0  0  0  0  0  0  0  0  # atno 7974 bound_to 7965
  154.4637  140.2004  156.0176 H   0  0  0  0  0  0  0  0  0  0  0  0  # atno 8008 bound_to 7997
  156.0887  140.3261  155.7759 H   0  0  0  0  0  0  0  0  0  0  0  0  # atno 8009 bound_to 7997
  155.4992  140.0552  157.2932 H   0  0  0  0  0  0  0  0  0  0  0  0  # atno 8010 bound_to 7997
  140.1256  143.4405  152.1662 H   0  0  0  0  0  0  0  0  0  0  0  0  # atno 10167 bound_to 10162
  157.6807  130.9962  150.2087 H   0  0  0  0  0  0  0  0  0  0  0  0  # atno 10718 bound_to 10713
  152.9837  135.5666  154.5275 H   0  0  0  0  0  0  0  0  0  0  0  0  # atno 10763 bound_to 10752
  154.4752  135.2786  155.1615 H   0  0  0  0  0  0  0  0  0  0  0  0  # atno 10764 bound_to 10752
  154.3146  135.6281  153.5534 H   0  0  0  0  0  0  0  0  0  0  0  0  # atno 10765 bound_to 10752
  140.5643  134.5302  157.5149 H   0  0  0  0  0  0  0  0  0  0  0  0  # atno 11005 bound_to 11000
  145.3300  141.0264  143.3452 LP  0  0  0  0  0  0  0  0  0  0  0  0  # atno 17320 bound_to 7965
  144.8806  139.4910  143.6725 LP  0  0  0  0  0  0  0  0  0  0  0  0  # atno 17321 bound_to 7965
  139.5546  144.7363  151.4333 LP  0  0  0  0  0  0  0  0  0  0  0  0  # atno 17342 bound_to 10162
  140.6847  143.8002  150.7169 LP  0  0  0  0  0  0  0  0  0  0  0  0  # atno 17343 bound_to 10162
  156.2762  130.3728  149.7981 LP  0  0  0  0  0  0  0  0  0  0  0  0  # atno 17370 bound_to 10713
  156.5683  130.8413  151.3349 LP  0  0  0  0  0  0  0  0  0  0  0  0  # atno 17371 bound_to 10713
  139.9392  134.7818  156.0722 LP  0  0  0  0  0  0  0  0  0  0  0  0  # atno 17394 bound_to 11000
  141.1095  133.6648  156.2945 LP  0  0  0  0  0  0  0  0  0  0  0  0  # atno 17395 bound_to 11000

$$$$
