AV-unprocessed.smi:97|AV-procd|sdf|862|dock9
  -GOLD-   2262017313D 1   1.00000     0.00000
 Structure written by MMmdl.
 46 49  0  0  0  0  0  0  0  0  1 V2000
  148.9391  137.7021  155.2293 O   0  0  0  0  0  0  0  0  0  0  0  0
  149.9704  137.1261  154.8855 C   0  0  0  0  0  0  0  0  0  0  0  0
  151.2552  137.9484  154.6785 C   0  0  0  0  0  0  0  0  0  0  0  0
  151.6421  138.7890  155.8357 N   0  0  0  0  0  0  0  0  0  0  0  0
  152.5145  138.2522  156.8152 C   0  0  0  0  0  0  0  0  0  0  0  0
  152.9534  137.1055  156.7200 O   0  0  0  0  0  0  0  0  0  0  0  0
  152.8536  139.1480  157.9155 C   0  0  0  0  0  0  0  0  0  0  0  0
  153.6562  138.7157  158.9027 F   0  0  0  0  0  0  0  0  0  0  0  0
  152.3750  140.4084  157.9577 C   0  0  0  0  0  0  0  0  0  0  0  0
  151.5477  140.9277  156.9796 N   0  0  0  0  0  0  0  0  0  0  0  0
  151.0423  142.3502  157.0581 C   0  0  1  0  0  0  0  0  0  0  0  0
  150.4984  142.6444  158.4610 C   0  0  0  0  0  0  0  0  0  0  0  0
  151.6704  143.3452  159.1141 C   0  0  0  0  0  0  0  0  0  0  0  0
  152.2752  144.0952  157.9337 C   0  0  0  0  0  0  0  0  0  0  0  0
  152.1090  143.2230  156.8205 O   0  0  0  0  0  0  0  0  0  0  0  0
  151.1471  140.1143  155.8985 C   0  0  0  0  0  0  0  0  0  0  0  0
  150.3905  140.5496  155.0279 O   0  0  0  0  0  0  0  0  0  0  0  0
  150.0229  135.8045  154.6493 N   0  0  0  0  0  0  0  0  0  0  0  0
  148.8796  134.9004  154.6537 C   0  0  0  0  0  0  0  0  0  0  0  0
  149.2751  133.4321  154.5841 C   0  0  0  0  0  0  0  0  0  0  0  0
  148.6511  132.5533  153.6556 C   0  0  0  0  0  0  0  0  0  0  0  0
  149.0184  131.1907  153.5867 C   0  0  0  0  0  0  0  0  0  0  0  0
  150.0215  130.7390  154.4588 C   0  0  0  0  0  0  0  0  0  0  0  0
  150.6352  131.5874  155.3569 C   0  0  0  0  0  0  0  0  0  0  0  0
  150.2876  132.9453  155.4457 C   0  0  0  0  0  0  0  0  0  0  0  0
  151.5614  130.8991  156.0718 O   0  0  0  0  0  0  0  0  0  0  0  0
  151.5127  129.5795  155.5938 C   0  0  0  0  0  0  0  0  0  0  0  0
  150.5432  129.4920  154.5813 O   0  0  0  0  0  0  0  0  0  0  0  0
  152.0647  137.2610  154.4268 H   0  0  0  0  0  0  0  0  0  0  0  0
  151.1292  138.5438  153.7734 H   0  0  0  0  0  0  0  0  0  0  0  0
  152.6557  141.0273  158.7969 H   0  0  0  0  0  0  0  0  0  0  0  0
  150.3008  142.4629  156.2656 H   0  0  0  0  0  0  0  0  0  0  0  0
  149.6499  143.3234  158.3692 H   0  0  0  0  0  0  0  0  0  0  0  0
  150.1745  141.7416  158.9802 H   0  0  0  0  0  0  0  0  0  0  0  0
  151.3748  144.0032  159.9317 H   0  0  0  0  0  0  0  0  0  0  0  0
  152.3799  142.6138  159.5026 H   0  0  0  0  0  0  0  0  0  0  0  0
  151.7224  145.0164  157.7447 H   0  0  0  0  0  0  0  0  0  0  0  0
  153.3232  144.3520  158.0889 H   0  0  0  0  0  0  0  0  0  0  0  0
  150.9121  135.4093  154.3812 H   0  0  0  0  0  0  0  0  0  0  0  0
  148.3241  135.0604  155.5778 H   0  0  0  0  0  0  0  0  0  0  0  0
  148.1980  135.1469  153.8377 H   0  0  0  0  0  0  0  0  0  0  0  0
  147.8849  132.9195  152.9882 H   0  0  0  0  0  0  0  0  0  0  0  0
  148.5452  130.5199  152.8850 H   0  0  0  0  0  0  0  0  0  0  0  0
  150.7798  133.5939  156.1555 H   0  0  0  0  0  0  0  0  0  0  0  0
  152.4872  129.3003  155.1921 H   0  0  0  0  0  0  0  0  0  0  0  0
  151.2506  128.9046  156.4096 H   0  0  0  0  0  0  0  0  0  0  0  0
  1  2  2  0  0  0  0
  2  3  1  0  0  0  0
  2 18  1  0  0  0  0
  3  4  1  0  0  0  0
  3 29  1  0  0  0  0
  3 30  1  0  0  0  0
  4 16  1  0  0  0  0
  4  5  1  0  0  0  0
  5  6  2  0  0  0  0
  5  7  1  0  0  0  0
  7  8  1  0  0  0  0
  7  9  2  0  0  0  0
  9 10  1  0  0  0  0
  9 31  1  0  0  0  0
 10 11  1  0  0  0  0
 10 16  1  0  0  0  0
 11 15  1  0  0  0  0
 11 12  1  0  0  0  0
 11 32  1  0  0  0  0
 12 13  1  0  0  0  0
 12 33  1  0  0  0  0
 12 34  1  0  0  0  0
 13 14  1  0  0  0  0
 13 35  1  0  0  0  0
 13 36  1  0  0  0  0
 14 15  1  0  0  0  0
 14 37  1  0  0  0  0
 14 38  1  0  0  0  0
 16 17  2  0  0  0  0
 18 19  1  0  0  0  0
 18 39  1  0  0  0  0
 19 20  1  0  0  0  0
 19 40  1  0  0  0  0
 19 41  1  0  0  0  0
 20 25  1  0  0  0  0
 20 21  2  0  0  0  0
 21 22  1  0  0  0  0
 21 42  1  0  0  0  0
 22 23  2  0  0  0  0
 22 43  1  0  0  0  0
 23 28  1  0  0  0  0
 23 24  1  0  0  0  0
 24 25  2  0  0  0  0
 24 26  1  0  0  0  0
 25 44  1  0  0  0  0
 26 27  1  0  0  0  0
 27 28  1  0  0  0  0
 27 45  1  0  0  0  0
 27 46  1  0  0  0  0
M  END
> <s_m_source_file>
AV-unprocessed.smi

> <i_m_source_file_index>
97

> <i_lp_mmshare_version>
43012

> <i_f3d_flags>
0

> <s_epik_input>
TzFbQ0gyXU9jKGMxMilbY0hdYyhbY0hdW2NIXTIpW0NIMl1bTkhdQyg9TylbQ0gyXW4zYyg9TyljKEYpW2NIXW4oYzM9TylbQ0BASF00W0NIMl1bQ0gyXVtDSDJdTzQ=

> <s_epik_cmdline>
J2VwaWtfcHl0aG9uJywgJy1waCcsICc3LjAnLCAnLXRuJywgJzgnLCAnLW1hJywgJzIwMCcsICctbWV0YWxfYmluZGluZycsICctaW1hZScsICc8aW5maWxlLm1hZT4nLCAnLW9tYWUnLCAnPG91dGZpbGUubWFlPic=

> <r_lp_tautomer_probability>
1

> <r_epik_Ionization_Penalty>
3.79042e-08

> <r_epik_Ionization_Penalty_Charging>
3.81036e-09

> <r_epik_Ionization_Penalty_Neutral>
3.40938e-08

> <r_epik_State_Penalty>
-0

> <r_epik_Charging_Adjusted_Penalty>
3.81036e-09

> <i_epik_Tot_Q>
0

> <i_epik_Tot_abs_Q>
0

> <r_epik_Metal_State_Penalty>
-0

> <b_epik_Metal_Only>
0

> <s_epik_Chemistry_Notes>
This compound contains an acetal/aminal-like group ( X-CH(R)-Y where X, Y are N, S, or O) that may be acid/base labile, releasing an aldehyde.

> <s_lp_Force_Field>
OPLS_2005

> <r_lp_Energy>
39.492

> <b_lp_Chiralities_Consistent>
1

> <s_lp_Variant>
AV-unprocessed.smi:97-2

> <Gold.Version>
5.8.1

> <Gold.Id.Protein>
6NUR|6NUR_protein|mol2

> <Gold.PLP.Fitness>
44.0902

> <Gold.PLP.PLP>
-41.6573

> <Gold.PLP.part.hbond>
-2.6676

> <Gold.PLP.part.metal>
0.0000

> <Gold.PLP.part.buried>
0.5924

> <Gold.PLP.part.nonpolar>
-38.8132

> <Gold.PLP.part.repulsive>
0.3951

> <Gold.PLP.ligand.clash>
0.0000

> <Gold.PLP.ligand.torsion>
0.8141

> <Gold.PLP.Chemscore.Hbond>
1.3478

> <Gold.PLP.Chemscore.CHOScore>
0.0000

> <Gold.PLP.Chemscore.Metal>
0.0000

> <Gold.Chemscore.Hbonds>
donor molecule, donor type, donor heavy atom, donor atom, acceptor molecule, acceptor atom, score
      P1  H  7989  7998       L1    17  0.96
      P1  H 10752 10765       L1     6  0.36

> <Gold.PLP.Chemscore.Internal.Correction>
0.0177

> <Gold.Rescore>
     Score         DG    S(hbond)    S(metal)    S(lipo)     H(rot)  DE(clash)    DE(int)     intcor
      9.85     -13.10       1.15        0.00      88.62       2.58       2.49       0.76       ----

> <Gold.Chemscore.Fitness>
9.8516

> <Gold.Chemscore.DG>
-13.1011

> <Gold.Chemscore.ZeroCoef>
-5.4800

> <Gold.Chemscore.Hbond>
1.1549

> <Gold.Chemscore.Metal>
0.0000

> <Gold.Chemscore.Lipo>
88.6236

> <Gold.Chemscore.Internal_Hbond>
0.0000

> <Gold.Chemscore.DEClash>
2.4880

> <Gold.Chemscore.DEInternal>
0.7616

> <Gold.Chemscore.Rot>
2.5801

> <Gold.Chemscore.Internal.Correction>
   9.000000E+99

> <Gold.Chemscore.Hbonds>
donor molecule, donor type, donor heavy atom, donor atom, acceptor molecule, acceptor atom, score
      P1  H  7989  7998       L1    17  0.35
      P1  H 10752 10765       L1     6  0.36

> <Gold.Chemscore.Hbond.Weighted>
-3.8572

> <Gold.Chemscore.Metal.Weighted>
-0.0000

> <Gold.Chemscore.Lipo.Weighted>
-10.3690

> <Gold.Chemscore.Internal_Hbond.Weighted>
0.0000

> <Gold.Chemscore.DEClash.Weighted>
2.4880

> <Gold.Chemscore.DEInternal.Weighted>
0.7616

> <Gold.Chemscore.Rot.Weighted>
6.6050

> <Gold.Chemscore.Internal.Correction.Weighted>
   9.000000E+99

> <Gold.Protein.RotatedTorsions>
[ 6907 6896 6895 6894 ] final  159.17 input  -60.11 | X-H torsion
[ 7974 7965 7964 7962 ] final  121.92 input  175.53 | X-H torsion
[ 8008 7997 7996 7995 ] final -131.51 input   59.86 | X-H torsion
[ 10167 10162 10161 10158 ] final  173.73 input  -65.29 | X-H torsion
[ 10718 10713 10712 10709 ] final   59.97 input   66.30 | X-H torsion
[ 10763 10752 10751 10750 ] final -133.91 input  -60.55 | X-H torsion
[ 11005 11000 10999 10996 ] final   85.41 input  -57.11 | X-H torsion

> <Gold.Protein.ActiveResidues>
 VAL166  LYS551  ARG553  GLY616  TRP617  ASP618  TYR619  PRO620  LYS621  CYS622 
 ASP623  PHE694  ASN695  SER759  ASP760  ASP761  ALA762  ILE779  LEU786  VAL792 
 PHE793  MET794  SER795  GLU796  ALA797  LYS798  CYS799  TRP800  GLU811  SER814 

> <Gold.Protein.RotatedAtoms>
  151.9895  133.3786  159.4138 H   0  0  0  0  0  0  0  0  0  0  0  0  # atno 6907 bound_to 6896
  150.6923  134.3952  159.5103 H   0  0  0  0  0  0  0  0  0  0  0  0  # atno 6908 bound_to 6896
  152.1683  134.8855  160.0587 H   0  0  0  0  0  0  0  0  0  0  0  0  # atno 6909 bound_to 6896
  145.1136  139.3436  143.4750 H   0  0  0  0  0  0  0  0  0  0  0  0  # atno 7974 bound_to 7965
  155.3135  140.0458  157.3036 H   0  0  0  0  0  0  0  0  0  0  0  0  # atno 8008 bound_to 7997
  154.5420  140.2290  155.8592 H   0  0  0  0  0  0  0  0  0  0  0  0  # atno 8009 bound_to 7997
  156.1889  140.3055  155.9300 H   0  0  0  0  0  0  0  0  0  0  0  0  # atno 8010 bound_to 7997
  139.5118  144.3228  152.0186 H   0  0  0  0  0  0  0  0  0  0  0  0  # atno 10167 bound_to 10162
  157.5717  130.8912  149.9277 H   0  0  0  0  0  0  0  0  0  0  0  0  # atno 10718 bound_to 10713
  154.8726  135.3751  154.4649 H   0  0  0  0  0  0  0  0  0  0  0  0  # atno 10763 bound_to 10752
  153.5314  135.7028  153.5686 H   0  0  0  0  0  0  0  0  0  0  0  0  # atno 10764 bound_to 10752
  153.3889  135.3977  155.1874 H   0  0  0  0  0  0  0  0  0  0  0  0  # atno 10765 bound_to 10752
  139.8972  134.8285  156.2578 H   0  0  0  0  0  0  0  0  0  0  0  0  # atno 11005 bound_to 11000
  146.3525  140.1065  142.8605 LP  0  0  0  0  0  0  0  0  0  0  0  0  # atno 17320 bound_to 7965
  145.0819  140.9227  143.4820 LP  0  0  0  0  0  0  0  0  0  0  0  0  # atno 17321 bound_to 7965
  140.2669  144.4006  150.6165 LP  0  0  0  0  0  0  0  0  0  0  0  0  # atno 17342 bound_to 10162
  140.6117  143.2170  151.6874 LP  0  0  0  0  0  0  0  0  0  0  0  0  # atno 17343 bound_to 10162
  156.0762  130.3678  150.0673 LP  0  0  0  0  0  0  0  0  0  0  0  0  # atno 17370 bound_to 10713
  156.8825  130.9561  151.3598 LP  0  0  0  0  0  0  0  0  0  0  0  0  # atno 17371 bound_to 10713
  141.0182  133.7056  156.1223 LP  0  0  0  0  0  0  0  0  0  0  0  0  # atno 17394 bound_to 11000
  140.7272  134.4294  157.5569 LP  0  0  0  0  0  0  0  0  0  0  0  0  # atno 17395 bound_to 11000

$$$$
