#       Name:                AV-unprocessed.smi:99
#       Creating user name   scv26
#       Creation time:       Thu Mar 26 17:33:28 2020


#       File generated by GOLD software.
#

@<TRIPOS>MOLECULE
AV-unprocessed.smi:99
    65    68     1
SMALL
NO_CHARGES


@<TRIPOS>ATOM
      1 ****        -3.6061   0.8630  -0.7170 O.2            1 S1                 0.0000
      2 ****        -2.7905   1.7830  -0.8078 C.2            1 S1                 0.0000
      3 ****        -1.4633   1.6216  -0.6408 O.3            1 S1                 0.0000
      4 ****        -0.9380   0.3403  -0.3371 C.3            1 S1                 0.0000
      5 ****         0.5960   0.4356  -0.2188 C.3            1 S1                 0.0000
      6 ****         0.9103   1.1489   0.9700 O.3            1 S1                 0.0000
      7 ****         0.9894   0.2649   2.0461 C.3            1 S1                 0.0000
      8 ****         2.1341   0.7145   2.9295 N.am           1 S1                 0.0000
      9 ****         3.3476   1.0902   2.3698 C.2            1 S1                 0.0000
     10 ****         4.4031   1.5107   3.1061 C.2            1 S1                 0.0000
     11 ****         4.3059   1.5894   4.5601 C.2            1 S1                 0.0000
     12 ****         5.2048   1.9608   5.3116 O.2            1 S1                 0.0000
     13 ****         3.0689   1.1979   5.0811 N.am           1 S1                 0.0000
     14 ****         1.9746   0.7599   4.3325 C.2            1 S1                 0.0000
     15 ****         0.9361   0.4275   4.9024 O.2            1 S1                 0.0000
     16 ****         1.1725  -1.1633   1.4827 C.3            1 S1                 0.0000
     17 ****         2.3045  -1.8547   1.9799 O.3            1 S1                 0.0000
     18 ****         1.3066  -0.9096  -0.0154 C.3            1 S1                 0.0000
     19 ****         0.6857  -1.9318  -0.7874 O.3            1 S1                 0.0000
     20 ****         1.3716  -3.0294  -1.1699 C.2            1 S1                 0.0000
     21 ****         2.5535  -3.2311  -0.8850 O.2            1 S1                 0.0000
     22 ****         0.5442  -3.9781  -1.9691 C.ar           1 S1                 0.0000
     23 ****         1.1202  -5.1880  -2.4218 C.ar           1 S1                 0.0000
     24 ****         0.3632  -6.1044  -3.1772 C.ar           1 S1                 0.0000
     25 ****        -0.9790  -5.8218  -3.4898 C.ar           1 S1                 0.0000
     26 ****        -1.5635  -4.6213  -3.0463 C.ar           1 S1                 0.0000
     27 ****        -0.8084  -3.7037  -2.2901 C.ar           1 S1                 0.0000
     28 ****        -3.1700   3.1924  -1.1140 C.ar           1 S1                 0.0000
     29 ****        -4.5321   3.5147  -1.3188 C.ar           1 S1                 0.0000
     30 ****        -4.9206   4.8373  -1.6077 C.ar           1 S1                 0.0000
     31 ****        -3.9520   5.8540  -1.6962 C.ar           1 S1                 0.0000
     32 ****        -2.5938   5.5464  -1.4949 C.ar           1 S1                 0.0000
     33 ****        -2.2032   4.2244  -1.2050 C.ar           1 S1                 0.0000
     34 ****         2.9592   1.2315   6.0843 H              1 S1                 0.0000
     35 ****        -1.3806  -0.0452   0.5823 H              1 S1                 0.0000
     36 ****        -1.2121  -0.3414  -1.1432 H              1 S1                 0.0000
     37 ****         0.9995   0.9514  -1.0910 H              1 S1                 0.0000
     38 ****         0.0682   0.3654   2.6215 H              1 S1                 0.0000
     39 ****         3.4658   1.0411   1.2967 H              1 S1                 0.0000
     40 ****         5.3251   1.7892   2.6168 H              1 S1                 0.0000
     41 ****         0.2670  -1.7311   1.7021 H              1 S1                 0.0000
     42 ****         2.3670  -2.6877   1.5377 H              1 S1                 0.0000
     43 ****         2.3570  -0.7820  -0.2839 H              1 S1                 0.0000
     44 ****         2.1490  -5.4273  -2.1941 H              1 S1                 0.0000
     45 ****         0.8139  -7.0252  -3.5170 H              1 S1                 0.0000
     46 ****        -1.5594  -6.5248  -4.0690 H              1 S1                 0.0000
     47 ****        -2.5938  -4.4036  -3.2863 H              1 S1                 0.0000
     48 ****        -1.2882  -2.7919  -1.9657 H              1 S1                 0.0000
     49 ****        -5.2940   2.7512  -1.2555 H              1 S1                 0.0000
     50 ****        -5.9638   5.0718  -1.7607 H              1 S1                 0.0000
     51 ****        -4.2504   6.8682  -1.9174 H              1 S1                 0.0000
     52 ****        -1.8492   6.3260  -1.5622 H              1 S1                 0.0000
     53 ****        -1.1525   4.0232  -1.0549 H              1 S1                 0.0000
     54 ****        -3.2933  -0.0637  -0.5090 LP             1 S1                 0.0000
     55 ****        -4.5805   1.0435  -0.8514 LP             1 S1                 0.0000
     56 ****         0.1968   1.8263   1.1489 LP             1 S1                 0.0000
     57 ****         1.7890   1.6125   0.8562 LP             1 S1                 0.0000
     58 ****         6.0882   2.2395   4.9349 LP             1 S1                 0.0000
     59 ****         5.0527   1.9843   6.2996 LP             1 S1                 0.0000
     60 ****         0.1537   0.1065   4.3688 LP             1 S1                 0.0000
     61 ****         0.8745   0.4784   5.8992 LP             1 S1                 0.0000
     62 ****         2.2039  -2.0022   2.9638 LP             1 S1                 0.0000
     63 ****         3.1302  -1.3181   1.8060 LP             1 S1                 0.0000
     64 ****         3.0581  -2.5608  -0.3408 LP             1 S1                 0.0000
     65 ****         3.0080  -4.0650  -1.1981 LP             1 S1                 0.0000
@<TRIPOS>BOND
    1    1    2 2     
    2    2    3 1     
    3    2   28 1     
    4    3    4 1     
    5    4    5 1     
    6    4   35 1     
    7    4   36 1     
    8    5   18 1     
    9    5    6 1     
   10    5   37 1     
   11    6    7 1     
   12    7    8 1     
   13    7   16 1     
   14    7   38 1     
   15    8   14 1     
   16    8    9 1     
   17    9   10 2     
   18    9   39 1     
   19   10   11 1     
   20   10   40 1     
   21   11   12 2     
   22   11   13 1     
   23   13   34 1     
   24   13   14 1     
   25   14   15 2     
   26   16   17 1     
   27   16   18 1     
   28   16   41 1     
   29   17   42 1     
   30   18   19 1     
   31   18   43 1     
   32   19   20 1     
   33   20   21 2     
   34   20   22 1     
   35   22   27 ar    
   36   22   23 ar    
   37   23   24 ar    
   38   23   44 1     
   39   24   25 ar    
   40   24   45 1     
   41   25   26 ar    
   42   25   46 1     
   43   26   27 ar    
   44   26   47 1     
   45   27   48 1     
   46   28   33 ar    
   47   28   29 ar    
   48   29   30 ar    
   49   29   49 1     
   50   30   31 ar    
   51   30   50 1     
   52   31   32 ar    
   53   31   51 1     
   54   32   33 ar    
   55   32   52 1     
   56   33   53 1     
   57    1   54 1     
   58    1   55 1     
   59    6   56 1     
   60    6   57 1     
   61   12   58 1     
   62   12   59 1     
   63   15   60 1     
   64   15   61 1     
   65   17   62 1     
   66   17   63 1     
   67   21   64 1     
   68   21   65 1     
@<TRIPOS>SUBSTRUCTURE
      1 S1             1
@<TRIPOS>SET
LONE_PAIRS      STATIC     ATOMS    <user>   **** ""
12 54 55 56 57 58 59 60 61 62 63 64 65
DONOR_HYDROGENS      STATIC     ATOMS    <user>   **** ""
2 34 42
ATOM$BLUE        STATIC     ATOMS    COLORGROUP SYSTEM
12 54 55 56 57 58 59 60 61 62 63 64 65
ATOM$RED        STATIC     ATOMS    COLORGROUP SYSTEM
2 34 42
