AV-unprocessed.smi:2855|AV-procd|sdf|10990|dock3
  -GOLD-   2272015443D 1   1.00000     0.00000
 Structure written by MMmdl.
 46 47  0  0  0  0  0  0  0  0  2 V2000
  152.1911  144.3000  161.2992 C   0  0  0  0  0  0  0  0  0  0  0  0
  151.8748  145.0875  160.0152 C   0  0  1  0  0  0  0  0  0  0  0  0
  152.6258  144.5480  158.7857 C   0  0  0  0  0  0  0  0  0  0  0  0
  152.0565  143.2070  158.2966 C   0  0  0  0  0  0  0  0  0  0  0  0
  150.5434  143.2948  157.9839 C   0  0  1  0  0  0  0  0  0  0  0  0
  149.9630  141.9692  157.4045 C   0  0  0  0  0  0  0  0  0  0  0  0
  150.1968  140.7365  158.2979 C   0  0  0  0  0  0  0  0  0  0  0  0
  150.4434  141.6956  155.9686 C   0  0  0  0  0  0  0  0  0  0  0  0
  149.7668  143.8397  159.2169 C   0  0  2  0  0  0  0  0  0  0  0  0
  148.3607  144.0744  158.8897 N   0  0  0  0  0  0  0  0  0  0  0  0
  147.3029  143.7430  159.6463 C   0  0  0  0  0  0  0  0  0  0  0  0
  147.3962  143.1575  160.7259 O   0  0  0  0  0  0  0  0  0  0  0  0
  145.9305  144.1103  159.0650 C   0  0  0  0  0  0  0  0  0  0  0  0
  144.8022  143.6402  159.8852 N   0  0  0  0  0  0  0  0  0  0  0  0
  143.8829  144.6002  160.3436 C   0  0  0  0  0  0  0  0  0  0  0  0
  142.8221  144.2630  161.1014 C   0  0  0  0  0  0  0  0  0  0  0  0
  142.6378  142.8585  161.4451 C   0  0  0  0  0  0  0  0  0  0  0  0
  141.6762  142.5329  162.1387 O   0  0  0  0  0  0  0  0  0  0  0  0
  143.5548  141.9641  160.9730 N   0  5  0  0  0  0  0  0  0  0  0  0
  144.6287  142.3214  160.2023 C   0  0  0  0  0  0  0  0  0  0  0  0
  145.4448  141.4980  159.7866 O   0  0  0  0  0  0  0  0  0  0  0  0
  150.3651  145.1696  159.7228 C   0  0  0  0  0  0  0  0  0  0  0  0
  151.8747  143.2593  161.2332 H   0  0  0  0  0  0  0  0  0  0  0  0
  151.6895  144.7413  162.1608 H   0  0  0  0  0  0  0  0  0  0  0  0
  153.2617  144.3061  161.5062 H   0  0  0  0  0  0  0  0  0  0  0  0
  152.2266  146.1055  160.1882 H   0  0  0  0  0  0  0  0  0  0  0  0
  152.5583  145.2769  157.9770 H   0  0  0  0  0  0  0  0  0  0  0  0
  153.6880  144.4434  159.0095 H   0  0  0  0  0  0  0  0  0  0  0  0
  152.6120  142.9023  157.4105 H   0  0  0  0  0  0  0  0  0  0  0  0
  152.2438  142.4418  159.0493 H   0  0  0  0  0  0  0  0  0  0  0  0
  150.4335  144.0458  157.1993 H   0  0  0  0  0  0  0  0  0  0  0  0
  148.8834  142.0916  157.3216 H   0  0  0  0  0  0  0  0  0  0  0  0
  151.2553  140.4909  158.3808 H   0  0  0  0  0  0  0  0  0  0  0  0
  149.6936  139.8611  157.8867 H   0  0  0  0  0  0  0  0  0  0  0  0
  149.8068  140.8830  159.3044 H   0  0  0  0  0  0  0  0  0  0  0  0
  151.5078  141.4649  155.9317 H   0  0  0  0  0  0  0  0  0  0  0  0
  150.2625  142.5535  155.3204 H   0  0  0  0  0  0  0  0  0  0  0  0
  149.9137  140.8455  155.5377 H   0  0  0  0  0  0  0  0  0  0  0  0
  149.8446  143.1164  160.0286 H   0  0  0  0  0  0  0  0  0  0  0  0
  148.1761  144.5458  158.0165 H   0  0  0  0  0  0  0  0  0  0  0  0
  145.8678  145.1925  158.9341 H   0  0  0  0  0  0  0  0  0  0  0  0
  145.8688  143.6962  158.0578 H   0  0  0  0  0  0  0  0  0  0  0  0
  144.0886  145.6162  160.0405 H   0  0  0  0  0  0  0  0  0  0  0  0
  142.1243  145.0125  161.4446 H   0  0  0  0  0  0  0  0  0  0  0  0
  149.8334  145.5028  160.6155 H   0  0  0  0  0  0  0  0  0  0  0  0
  150.1999  145.9429  158.9707 H   0  0  0  0  0  0  0  0  0  0  0  0
  1  2  1  0  0  0  0
  1 23  1  0  0  0  0
  1 24  1  0  0  0  0
  1 25  1  0  0  0  0
  2 22  1  0  0  0  0
  2  3  1  0  0  0  0
  2 26  1  0  0  0  0
  3  4  1  0  0  0  0
  3 27  1  0  0  0  0
  3 28  1  0  0  0  0
  4  5  1  0  0  0  0
  4 29  1  0  0  0  0
  4 30  1  0  0  0  0
  5  6  1  0  0  0  0
  5  9  1  0  0  0  0
  5 31  1  0  0  0  0
  6  7  1  0  0  0  0
  6  8  1  0  0  0  0
  6 32  1  0  0  0  0
  7 33  1  0  0  0  0
  7 34  1  0  0  0  0
  7 35  1  0  0  0  0
  8 36  1  0  0  0  0
  8 37  1  0  0  0  0
  8 38  1  0  0  0  0
  9 10  1  0  0  0  0
  9 22  1  0  0  0  0
  9 39  1  0  0  0  0
 10 11  1  0  0  0  0
 10 40  1  0  0  0  0
 11 12  2  0  0  0  0
 11 13  1  0  0  0  0
 13 14  1  0  0  0  0
 13 41  1  0  0  0  0
 13 42  1  0  0  0  0
 14 20  1  0  0  0  0
 14 15  1  0  0  0  0
 15 16  2  0  0  0  0
 15 43  1  0  0  0  0
 16 17  1  0  0  0  0
 16 44  1  0  0  0  0
 17 18  2  0  0  0  0
 17 19  1  0  0  0  0
 19 20  1  0  0  0  0
 20 21  2  0  0  0  0
 22 45  1  0  0  0  0
 22 46  1  0  0  0  0
M  CHG  1  19  -1
M  END
> <s_m_source_file>
AV-unprocessed.smi

> <i_m_source_file_index>
2855

> <i_lp_mmshare_version>
43012

> <i_f3d_flags>
0

> <s_epik_input>
W0NIM11bQ0BASF0xW0NIMl1bQ0gyXVtDQEBIXShbQ0hdKFtDSDNdKVtDSDNdKVtDQEhdKFtDSDJdMSlbTkhdQyg9TylbQ0gyXW4yW2NIXVtjSF1jKD1PKVtuSF1jMj1P

> <s_epik_cmdline>
J2VwaWtfcHl0aG9uJywgJy1waCcsICc3LjAnLCAnLXRuJywgJzgnLCAnLW1hJywgJzIwMCcsICctbWV0YWxfYmluZGluZycsICctaW1hZScsICc8aW5maWxlLm1hZT4nLCAnLW9tYWUnLCAnPG91dGZpbGUubWFlPic=

> <r_lp_tautomer_probability>
0.999537

> <r_epik_Ionization_Penalty>
3.12102

> <r_epik_Ionization_Penalty_Charging>
2.9581e-08

> <r_epik_Ionization_Penalty_Neutral>
3.12102

> <r_epik_State_Penalty>
3.12011

> <r_epik_Charging_Adjusted_Penalty>
3.12011

> <i_epik_Tot_Q>
-1

> <i_epik_Tot_abs_Q>
1

> <r_epik_Metal_State_Penalty>
0.463583

> <b_epik_Metal_Only>
1

> <s_lp_Force_Field>
OPLS_2005

> <r_lp_Energy>
25.2964

> <b_lp_Chiralities_Consistent>
1

> <s_lp_Variant>
AV-unprocessed.smi:2855-14

> <Gold.Version>
5.8.1

> <Gold.Id.Protein>
6NUR|6NUR_protein|mol2

> <Gold.PLP.Fitness>
48.1214

> <Gold.PLP.PLP>
-39.8919

> <Gold.PLP.part.hbond>
-6.1142

> <Gold.PLP.part.metal>
0.0000

> <Gold.PLP.part.buried>
-4.2736

> <Gold.PLP.part.nonpolar>
-29.0594

> <Gold.PLP.part.repulsive>
0.1589

> <Gold.PLP.ligand.clash>
0.0000

> <Gold.PLP.ligand.torsion>
0.3972

> <Gold.PLP.Chemscore.Hbond>
2.9760

> <Gold.PLP.Chemscore.CHOScore>
0.0000

> <Gold.PLP.Chemscore.Metal>
0.0000

> <Gold.Chemscore.Hbonds>
donor molecule, donor type, donor heavy atom, donor atom, acceptor molecule, acceptor atom, score
      L1  H    10    40       P1  8029  0.96
      P1  H  6933  6944       L1    12  1.00
      P1  H  6934  6946       L1    21  1.00

> <Gold.PLP.Chemscore.Internal.Correction>
0.0959

> <Gold.Rescore>
     Score         DG    S(hbond)    S(metal)    S(lipo)     H(rot)  DE(clash)    DE(int)     intcor
     16.04     -21.96       2.69        0.00     103.55       1.81       1.50       4.41       ----

> <Gold.Chemscore.Fitness>
16.0445

> <Gold.Chemscore.DG>
-21.9596

> <Gold.Chemscore.ZeroCoef>
-5.4800

> <Gold.Chemscore.Hbond>
2.6939

> <Gold.Chemscore.Metal>
0.0000

> <Gold.Chemscore.Lipo>
103.5519

> <Gold.Chemscore.Internal_Hbond>
0.0000

> <Gold.Chemscore.DEClash>
1.5020

> <Gold.Chemscore.DEInternal>
4.4131

> <Gold.Chemscore.Rot>
1.8100

> <Gold.Chemscore.Internal.Correction>
   9.000000E+99

> <Gold.Chemscore.Hbonds>
donor molecule, donor type, donor heavy atom, donor atom, acceptor molecule, acceptor atom, score
      L1  H    10    40       P1  8029  0.32
      P1  H  6933  6944       L1    12  0.93
      P1  H  6934  6946       L1    21  0.96

> <Gold.Chemscore.Hbond.Weighted>
-8.9975

> <Gold.Chemscore.Metal.Weighted>
-0.0000

> <Gold.Chemscore.Lipo.Weighted>
-12.1156

> <Gold.Chemscore.Internal_Hbond.Weighted>
0.0000

> <Gold.Chemscore.DEClash.Weighted>
1.5020

> <Gold.Chemscore.DEInternal.Weighted>
4.4131

> <Gold.Chemscore.Rot.Weighted>
4.6335

> <Gold.Chemscore.Internal.Correction.Weighted>
   9.000000E+99

> <Gold.Protein.RotatedTorsions>
[ 6907 6896 6895 6894 ] final  179.17 input  -60.11 | X-H torsion
[ 7974 7965 7964 7962 ] final -131.84 input  175.53 | X-H torsion
[ 8008 7997 7996 7995 ] final  -55.01 input   59.86 | X-H torsion
[ 10167 10162 10161 10158 ] final  149.19 input  -65.29 | X-H torsion
[ 10718 10713 10712 10709 ] final -174.25 input   66.30 | X-H torsion
[ 10763 10752 10751 10750 ] final  170.03 input  -60.55 | X-H torsion
[ 11005 11000 10999 10996 ] final -172.87 input  -57.11 | X-H torsion

> <Gold.Protein.ActiveResidues>
 VAL166  LYS551  ARG553  GLY616  TRP617  ASP618  TYR619  PRO620  LYS621  CYS622 
 ASP623  PHE694  ASN695  SER759  ASP760  ASP761  ALA762  ILE779  LEU786  VAL792 
 PHE793  MET794  SER795  GLU796  ALA797  LYS798  CYS799  TRP800  GLU811  SER814 

> <Gold.Protein.RotatedAtoms>
  151.6760  133.3313  159.3207 H   0  0  0  0  0  0  0  0  0  0  0  0  # atno 6907 bound_to 6896
  150.7845  134.6821  159.6459 H   0  0  0  0  0  0  0  0  0  0  0  0  # atno 6908 bound_to 6896
  152.3911  134.6443  160.0159 H   0  0  0  0  0  0  0  0  0  0  0  0  # atno 6909 bound_to 6896
  144.9342  140.7163  143.4887 H   0  0  0  0  0  0  0  0  0  0  0  0  # atno 7974 bound_to 7965
  154.4181  140.1163  156.5408 H   0  0  0  0  0  0  0  0  0  0  0  0  # atno 8008 bound_to 7997
  155.6509  140.3496  155.4729 H   0  0  0  0  0  0  0  0  0  0  0  0  # atno 8009 bound_to 7997
  155.9793  140.1157  157.0731 H   0  0  0  0  0  0  0  0  0  0  0  0  # atno 8010 bound_to 7997
  139.4865  144.5621  151.7212 H   0  0  0  0  0  0  0  0  0  0  0  0  # atno 10167 bound_to 10162
  156.7823  130.9488  151.3120 H   0  0  0  0  0  0  0  0  0  0  0  0  # atno 10718 bound_to 10713
  154.3917  135.2754  155.2151 H   0  0  0  0  0  0  0  0  0  0  0  0  # atno 10763 bound_to 10752
  154.4214  135.5999  153.6016 H   0  0  0  0  0  0  0  0  0  0  0  0  # atno 10764 bound_to 10752
  152.9832  135.5973  154.4172 H   0  0  0  0  0  0  0  0  0  0  0  0  # atno 10765 bound_to 10752
  140.4921  134.5975  157.4958 H   0  0  0  0  0  0  0  0  0  0  0  0  # atno 11005 bound_to 11000
  145.3094  139.1824  143.4647 LP  0  0  0  0  0  0  0  0  0  0  0  0  # atno 17320 bound_to 7965
  146.3259  140.3096  142.8626 LP  0  0  0  0  0  0  0  0  0  0  0  0  # atno 17321 bound_to 7965
  140.5193  144.0904  150.6018 LP  0  0  0  0  0  0  0  0  0  0  0  0  # atno 17342 bound_to 10162
  140.3856  143.2779  152.0119 LP  0  0  0  0  0  0  0  0  0  0  0  0  # atno 17343 bound_to 10162
  157.6640  130.8991  149.9892 LP  0  0  0  0  0  0  0  0  0  0  0  0  # atno 17370 bound_to 10713
  156.1210  130.3646  149.9887 LP  0  0  0  0  0  0  0  0  0  0  0  0  # atno 17371 bound_to 10713
  139.9763  134.7210  155.9944 LP  0  0  0  0  0  0  0  0  0  0  0  0  # atno 17394 bound_to 11000
  141.1479  133.6553  156.3922 LP  0  0  0  0  0  0  0  0  0  0  0  0  # atno 17395 bound_to 11000

$$$$
