#       Name:                AV-unprocessed.smi:930
#       Creating user name   scv26
#       Creation time:       Fri Mar 27 02:10:22 2020


#       File generated by GOLD software.
#

@<TRIPOS>MOLECULE
AV-unprocessed.smi:930
    36    37     1
SMALL
NO_CHARGES


@<TRIPOS>ATOM
      1 ****        -6.7301   2.0993   0.8084 C.3            1 S1                 0.0000
      2 ****        -5.3741   1.5103   0.6180 C.2            1 S1                 0.0000
      3 ****        -5.1286   0.1997   0.7365 N.2            1 S1                 0.0000
      4 ****        -3.7936  -0.1076   0.5142 N.2            1 S1                 0.0000
      5 ****        -3.0690   0.9846   0.2350 C.2            1 S1                 0.0000
      6 ****        -1.6747   0.9595  -0.0330 N.am           1 S1                 0.0000
      7 ****        -0.8513  -0.1030  -0.0664 C.2            1 S1                 0.0000
      8 ****        -1.1861  -1.2703   0.1376 O.2            1 S1                 0.0000
      9 ****         0.4055   0.2666  -0.3533 N.am           1 S1                 0.0000
     10 ****         1.5443  -0.6395  -0.4713 C.3            1 S1                 0.0000
     11 ****         2.1217  -0.9754   0.9199 C.3            1 S1                 0.0000
     12 ****         3.3678  -1.8689   0.8105 C.3            1 S1                 0.0000
     13 ****         4.4365  -1.2283  -0.0887 C.3            1 S1                 0.0000
     14 ****         3.8665  -0.8963  -1.4767 C.3            1 S1                 0.0000
     15 ****         2.6210  -0.0015  -1.3695 C.3            1 S1                 0.0000
     16 ****        -3.9691   2.4915   0.2205 S.3            1 S1                 0.0000
     17 ****        -7.4727   1.3156   0.9620 H              1 S1                 0.0000
     18 ****        -7.0113   2.6787  -0.0711 H              1 S1                 0.0000
     19 ****        -6.7314   2.7572   1.6774 H              1 S1                 0.0000
     20 ****        -1.2546   1.8572  -0.2226 H              1 S1                 0.0000
     21 ****         0.5900   1.2475  -0.5045 H              1 S1                 0.0000
     22 ****         1.2124  -1.5641  -0.9478 H              1 S1                 0.0000
     23 ****         2.3831  -0.0545   1.4432 H              1 S1                 0.0000
     24 ****         1.3694  -1.4748   1.5317 H              1 S1                 0.0000
     25 ****         3.7797  -2.0550   1.8026 H              1 S1                 0.0000
     26 ****         3.0847  -2.8416   0.4060 H              1 S1                 0.0000
     27 ****         4.8118  -0.3181   0.3808 H              1 S1                 0.0000
     28 ****         5.2898  -1.8997  -0.1882 H              1 S1                 0.0000
     29 ****         4.6271  -0.4036  -2.0829 H              1 S1                 0.0000
     30 ****         3.6080  -1.8202  -1.9958 H              1 S1                 0.0000
     31 ****         2.2163   0.1827  -2.3655 H              1 S1                 0.0000
     32 ****         2.9096   0.9714  -0.9685 H              1 S1                 0.0000
     33 ****        -5.8272  -0.4801   0.9597 LP             1 S1                 0.0000
     34 ****        -3.4174  -1.0331   0.5573 LP             1 S1                 0.0000
     35 ****        -2.1391  -1.4875   0.3486 LP             1 S1                 0.0000
     36 ****        -0.5049  -2.0010   0.0924 LP             1 S1                 0.0000
@<TRIPOS>BOND
    1    1    2 1     
    2    1   17 1     
    3    1   18 1     
    4    1   19 1     
    5    2   16 1     
    6    2    3 2     
    7    3    4 1     
    8    4    5 2     
    9    5    6 1     
   10    5   16 1     
   11    6    7 am    
   12    6   20 1     
   13    7    8 2     
   14    7    9 am    
   15    9   10 1     
   16    9   21 1     
   17   10   15 1     
   18   10   11 1     
   19   10   22 1     
   20   11   12 1     
   21   11   23 1     
   22   11   24 1     
   23   12   13 1     
   24   12   25 1     
   25   12   26 1     
   26   13   14 1     
   27   13   27 1     
   28   13   28 1     
   29   14   15 1     
   30   14   29 1     
   31   14   30 1     
   32   15   31 1     
   33   15   32 1     
   34    3   33 1     
   35    4   34 1     
   36    8   35 1     
   37    8   36 1     
@<TRIPOS>SUBSTRUCTURE
      1 S1             1
@<TRIPOS>SET
LONE_PAIRS      STATIC     ATOMS    <user>   **** ""
4 33 34 35 36
DONOR_HYDROGENS      STATIC     ATOMS    <user>   **** ""
2 20 21
ATOM$BLUE        STATIC     ATOMS    COLORGROUP SYSTEM
4 33 34 35 36
ATOM$RED        STATIC     ATOMS    COLORGROUP SYSTEM
2 20 21
