AV-unprocessed.smi:246|AV-procd|sdf|1884|dock4
  -GOLD-   2262020533D 1   1.00000     0.00000
 Structure written by MMmdl.
 57 60  0  0  0  0  0  0  0  0  1 V2000
  144.7545  132.6221  150.2430 C   0  0  0  0  0  0  0  0  0  0  0  0
  144.7123  133.9506  151.0107 C   0  0  0  0  0  0  0  0  0  0  0  0
  146.0071  134.3604  151.4275 O   0  0  0  0  0  0  0  0  0  0  0  0
  146.5731  133.5555  152.4515 C   0  0  0  0  0  0  0  0  0  0  0  0
  145.9563  133.9561  153.7945 C   0  0  0  0  0  0  0  0  0  0  0  0
  146.4568  135.2321  154.1629 O   0  0  0  0  0  0  0  0  0  0  0  0
  147.5339  135.1828  155.0868 C   0  0  1  0  0  0  0  0  0  0  0  0
  148.7362  134.3820  154.5791 C   0  0  0  0  0  0  0  0  0  0  0  0
  149.9255  135.0003  155.3190 C   0  0  0  0  0  0  0  0  0  0  0  0
  149.5108  136.3561  155.6636 N   0  0  0  0  0  0  0  0  0  0  0  0
  150.4056  137.3700  155.8035 C   0  0  0  0  0  0  0  0  0  0  0  0
  151.7301  137.0625  155.8015 N   0  0  0  0  0  0  0  0  0  0  0  0
  152.6531  138.0194  155.9299 C   0  0  0  0  0  0  0  0  0  0  0  0
  152.4768  139.3329  156.0739 N   0  0  0  0  0  0  0  0  0  0  0  0
  151.1520  139.6527  156.0878 C   0  0  0  0  0  0  0  0  0  0  0  0
  150.0589  138.7458  155.9648 C   0  0  0  0  0  0  0  0  0  0  0  0
  148.8623  139.4532  156.0334 N   0  0  0  0  0  0  0  0  0  0  0  0
  149.2256  140.6977  156.1772 C   0  0  0  0  0  0  0  0  0  0  0  0
  150.5843  140.9078  156.2101 N   0  0  0  0  0  0  0  0  0  0  0  0
  151.2653  142.1826  156.3415 C   0  0  0  0  0  0  0  0  0  0  0  0
  151.1607  142.7798  157.7612 C   0  0  2  0  0  0  0  0  0  0  0  0
  150.9732  144.1735  157.6173 O   0  0  0  0  0  0  0  0  0  0  0  0
  152.3965  142.5259  158.6539 C   0  0  1  0  0  0  0  0  0  0  0  0
  152.3299  143.1852  160.0342 C   0  0  0  0  0  0  0  0  0  0  0  0
  153.2355  142.3214  160.8991 C   0  0  0  0  0  0  0  0  0  0  0  0
  153.4528  141.0592  160.0626 C   0  0  0  0  0  0  0  0  0  0  0  0
  152.5044  141.1557  159.0114 O   0  0  0  0  0  0  0  0  0  0  0  0
  148.1231  136.5789  155.2894 C   0  0  0  0  0  0  0  0  0  0  0  0
  147.2043  134.7925  156.0516 H   0  0  0  0  0  0  0  0  0  0  0  0
  143.7458  132.2783  150.0132 H   0  0  0  0  0  0  0  0  0  0  0  0
  145.2434  131.8460  150.8320 H   0  0  0  0  0  0  0  0  0  0  0  0
  145.2892  132.7147  149.2985 H   0  0  0  0  0  0  0  0  0  0  0  0
  144.2255  134.7299  150.4229 H   0  0  0  0  0  0  0  0  0  0  0  0
  144.1073  133.8173  151.9078 H   0  0  0  0  0  0  0  0  0  0  0  0
  146.4110  132.4935  152.2684 H   0  0  0  0  0  0  0  0  0  0  0  0
  147.6507  133.7221  152.4833 H   0  0  0  0  0  0  0  0  0  0  0  0
  144.8713  134.0111  153.6939 H   0  0  0  0  0  0  0  0  0  0  0  0
  146.1785  133.2046  154.5530 H   0  0  0  0  0  0  0  0  0  0  0  0
  148.6432  133.3096  154.7520 H   0  0  0  0  0  0  0  0  0  0  0  0
  148.8555  134.5408  153.5063 H   0  0  0  0  0  0  0  0  0  0  0  0
  150.1348  134.4537  156.2390 H   0  0  0  0  0  0  0  0  0  0  0  0
  150.8209  134.9770  154.6964 H   0  0  0  0  0  0  0  0  0  0  0  0
  153.6797  137.6844  155.9143 H   0  0  0  0  0  0  0  0  0  0  0  0
  148.5079  141.5015  156.2509 H   0  0  0  0  0  0  0  0  0  0  0  0
  152.3118  142.0432  156.0666 H   0  0  0  0  0  0  0  0  0  0  0  0
  150.8399  142.8703  155.6094 H   0  0  0  0  0  0  0  0  0  0  0  0
  150.2747  142.3815  158.2572 H   0  0  0  0  0  0  0  0  0  0  0  0
  150.2045  144.3198  157.0876 H   0  0  0  0  0  0  0  0  0  0  0  0
  153.3090  142.8341  158.1395 H   0  0  0  0  0  0  0  0  0  0  0  0
  152.6375  144.2311  160.0150 H   0  0  0  0  0  0  0  0  0  0  0  0
  151.3110  143.1431  160.4221 H   0  0  0  0  0  0  0  0  0  0  0  0
  154.1854  142.8152  161.1068 H   0  0  0  0  0  0  0  0  0  0  0  0
  152.7580  142.0948  161.8529 H   0  0  0  0  0  0  0  0  0  0  0  0
  154.4579  141.0467  159.6385 H   0  0  0  0  0  0  0  0  0  0  0  0
  153.3133  140.1431  160.6369 H   0  0  0  0  0  0  0  0  0  0  0  0
  148.0912  137.1477  154.3589 H   0  0  0  0  0  0  0  0  0  0  0  0
  147.5769  137.1310  156.0547 H   0  0  0  0  0  0  0  0  0  0  0  0
  1  2  1  0  0  0  0
  1 30  1  0  0  0  0
  1 31  1  0  0  0  0
  1 32  1  0  0  0  0
  2  3  1  0  0  0  0
  2 33  1  0  0  0  0
  2 34  1  0  0  0  0
  3  4  1  0  0  0  0
  4  5  1  0  0  0  0
  4 35  1  0  0  0  0
  4 36  1  0  0  0  0
  5  6  1  0  0  0  0
  5 37  1  0  0  0  0
  5 38  1  0  0  0  0
  6  7  1  0  0  0  0
  7 29  1  0  0  0  0
  7 28  1  0  0  0  0
  7  8  1  0  0  0  0
  8  9  1  0  0  0  0
  8 39  1  0  0  0  0
  8 40  1  0  0  0  0
  9 10  1  0  0  0  0
  9 41  1  0  0  0  0
  9 42  1  0  0  0  0
 10 11  1  0  0  0  0
 10 28  1  0  0  0  0
 11 16  1  0  0  0  0
 11 12  2  0  0  0  0
 12 13  1  0  0  0  0
 13 14  2  0  0  0  0
 13 43  1  0  0  0  0
 14 15  1  0  0  0  0
 15 19  1  0  0  0  0
 15 16  2  0  0  0  0
 16 17  1  0  0  0  0
 17 18  2  0  0  0  0
 18 19  1  0  0  0  0
 18 44  1  0  0  0  0
 19 20  1  0  0  0  0
 20 21  1  0  0  0  0
 20 45  1  0  0  0  0
 20 46  1  0  0  0  0
 21 22  1  0  0  0  0
 21 23  1  0  0  0  0
 21 47  1  0  0  0  0
 22 48  1  0  0  0  0
 23 27  1  0  0  0  0
 23 24  1  0  0  0  0
 23 49  1  0  0  0  0
 24 25  1  0  0  0  0
 24 50  1  0  0  0  0
 24 51  1  0  0  0  0
 25 26  1  0  0  0  0
 25 52  1  0  0  0  0
 25 53  1  0  0  0  0
 26 27  1  0  0  0  0
 26 54  1  0  0  0  0
 26 55  1  0  0  0  0
 28 56  1  0  0  0  0
 28 57  1  0  0  0  0
M  END
> <s_m_source_file>
AV-unprocessed.smi

> <i_m_source_file_index>
246

> <i_lp_mmshare_version>
43012

> <i_f3d_flags>
0

> <s_epik_input>
W0NIM11bQ0gyXU9bQ0gyXVtDSDJdT1tDQEhdMVtDSDJdW0NIMl1OKFtDSDJdMSljKG5bY0hdbjIpYyhjMjMpbltjSF1uM1tDSDJdW0NASF0oW09IXSlbQ0BASF00W0NIMl1bQ0gyXVtDSDJdTzQ=

> <s_epik_cmdline>
J2VwaWtfcHl0aG9uJywgJy1waCcsICc3LjAnLCAnLXRuJywgJzgnLCAnLW1hJywgJzIwMCcsICctbWV0YWxfYmluZGluZycsICctaW1hZScsICc8aW5maWxlLm1hZT4nLCAnLW9tYWUnLCAnPG91dGZpbGUubWFlPic=

> <r_lp_tautomer_probability>
1

> <r_epik_Ionization_Penalty>
0.0024631

> <r_epik_Ionization_Penalty_Charging>
0

> <r_epik_Ionization_Penalty_Neutral>
0.0024631

> <r_epik_State_Penalty>
0.00162428

> <r_epik_Charging_Adjusted_Penalty>
0.00162428

> <i_epik_Tot_Q>
0

> <i_epik_Tot_abs_Q>
0

> <r_epik_Metal_State_Penalty>
-0

> <b_epik_Metal_Only>
0

> <s_lp_Force_Field>
OPLS_2005

> <r_lp_Energy>
49.6926

> <b_lp_Chiralities_Consistent>
1

> <s_lp_Variant>
AV-unprocessed.smi:246-5

> <Gold.Version>
5.8.1

> <Gold.Id.Protein>
6NUR|6NUR_protein|mol2

> <Gold.PLP.Fitness>
53.2863

> <Gold.PLP.PLP>
-46.1141

> <Gold.PLP.part.hbond>
-3.0000

> <Gold.PLP.part.metal>
0.0000

> <Gold.PLP.part.buried>
-8.5757

> <Gold.PLP.part.nonpolar>
-36.4487

> <Gold.PLP.part.repulsive>
0.3525

> <Gold.PLP.ligand.clash>
0.0000

> <Gold.PLP.ligand.torsion>
1.2367

> <Gold.PLP.Chemscore.Hbond>
2.9280

> <Gold.PLP.Chemscore.CHOScore>
0.0000

> <Gold.PLP.Chemscore.Metal>
0.0000

> <Gold.Chemscore.Hbonds>
donor molecule, donor type, donor heavy atom, donor atom, acceptor molecule, acceptor atom, score
      L1  H    22    48       P1  8028  1.00
      P1  H  7997  8010       L1    14  0.99
      P1  H 10752 10765       L1    12  0.47

> <Gold.PLP.Chemscore.Internal.Correction>
0.8617

> <Gold.Rescore>
     Score         DG    S(hbond)    S(metal)    S(lipo)     H(rot)  DE(clash)    DE(int)     intcor
     14.08     -17.18       2.11        0.00     107.69       3.10       0.93       2.17       ----

> <Gold.Chemscore.Fitness>
14.0772

> <Gold.Chemscore.DG>
-17.1814

> <Gold.Chemscore.ZeroCoef>
-5.4800

> <Gold.Chemscore.Hbond>
2.1092

> <Gold.Chemscore.Metal>
0.0000

> <Gold.Chemscore.Lipo>
107.6866

> <Gold.Chemscore.Internal_Hbond>
0.0000

> <Gold.Chemscore.DEClash>
0.9323

> <Gold.Chemscore.DEInternal>
2.1718

> <Gold.Chemscore.Rot>
3.1026

> <Gold.Chemscore.Internal.Correction>
   9.000000E+99

> <Gold.Chemscore.Hbonds>
donor molecule, donor type, donor heavy atom, donor atom, acceptor molecule, acceptor atom, score
      L1  H    22    48       P1  8028  0.77
      P1  H  7997  8010       L1    14  0.51
      P1  H 10752 10765       L1    12  0.08

> <Gold.Chemscore.Hbond.Weighted>
-7.0447

> <Gold.Chemscore.Metal.Weighted>
-0.0000

> <Gold.Chemscore.Lipo.Weighted>
-12.5993

> <Gold.Chemscore.Internal_Hbond.Weighted>
0.0000

> <Gold.Chemscore.DEClash.Weighted>
0.9323

> <Gold.Chemscore.DEInternal.Weighted>
2.1718

> <Gold.Chemscore.Rot.Weighted>
7.9426

> <Gold.Chemscore.Internal.Correction.Weighted>
   9.000000E+99

> <Gold.Protein.RotatedTorsions>
[ 6907 6896 6895 6894 ] final  177.38 input  -60.11 | X-H torsion
[ 7974 7965 7964 7962 ] final -175.34 input  175.53 | X-H torsion
[ 8008 7997 7996 7995 ] final   82.91 input   59.86 | X-H torsion
[ 10167 10162 10161 10158 ] final  176.44 input  -65.29 | X-H torsion
[ 10718 10713 10712 10709 ] final   23.09 input   66.30 | X-H torsion
[ 10763 10752 10751 10750 ] final -165.46 input  -60.55 | X-H torsion
[ 11005 11000 10999 10996 ] final  -49.22 input  -57.11 | X-H torsion

> <Gold.Protein.ActiveResidues>
 VAL166  LYS551  ARG553  GLY616  TRP617  ASP618  TYR619  PRO620  LYS621  CYS622 
 ASP623  PHE694  ASN695  SER759  ASP760  ASP761  ALA762  ILE779  LEU786  VAL792 
 PHE793  MET794  SER795  GLU796  ALA797  LYS798  CYS799  TRP800  GLU811  SER814 

> <Gold.Protein.RotatedAtoms>
  151.7048  133.3311  159.3275 H   0  0  0  0  0  0  0  0  0  0  0  0  # atno 6907 bound_to 6896
  150.7720  134.6584  159.6335 H   0  0  0  0  0  0  0  0  0  0  0  0  # atno 6908 bound_to 6896
  152.3747  134.6684  160.0216 H   0  0  0  0  0  0  0  0  0  0  0  0  # atno 6909 bound_to 6896
  144.7128  140.1336  143.6397 H   0  0  0  0  0  0  0  0  0  0  0  0  # atno 7974 bound_to 7965
  155.9169  140.3424  155.6142 H   0  0  0  0  0  0  0  0  0  0  0  0  # atno 8008 bound_to 7997
  155.7321  140.0797  157.2303 H   0  0  0  0  0  0  0  0  0  0  0  0  # atno 8009 bound_to 7997
  154.4064  140.1586  156.2507 H   0  0  0  0  0  0  0  0  0  0  0  0  # atno 8010 bound_to 7997
  139.5214  144.2914  152.0460 H   0  0  0  0  0  0  0  0  0  0  0  0  # atno 10167 bound_to 10162
  157.1613  130.6718  149.6045 H   0  0  0  0  0  0  0  0  0  0  0  0  # atno 10718 bound_to 10713
  154.6930  135.2974  154.9452 H   0  0  0  0  0  0  0  0  0  0  0  0  # atno 10763 bound_to 10752
  154.0409  135.6657  153.4794 H   0  0  0  0  0  0  0  0  0  0  0  0  # atno 10764 bound_to 10752
  153.0625  135.5107  154.8032 H   0  0  0  0  0  0  0  0  0  0  0  0  # atno 10765 bound_to 10752
  141.0746  133.6669  156.3554 H   0  0  0  0  0  0  0  0  0  0  0  0  # atno 11005 bound_to 11000
  145.9265  139.2578  143.1351 LP  0  0  0  0  0  0  0  0  0  0  0  0  # atno 17320 bound_to 7965
  145.9567  140.8867  143.0231 LP  0  0  0  0  0  0  0  0  0  0  0  0  # atno 17321 bound_to 7965
  140.2365  144.4314  150.6277 LP  0  0  0  0  0  0  0  0  0  0  0  0  # atno 17342 bound_to 10162
  140.6319  143.2189  151.6476 LP  0  0  0  0  0  0  0  0  0  0  0  0  # atno 17343 bound_to 10162
  155.9753  130.4711  150.6452 LP  0  0  0  0  0  0  0  0  0  0  0  0  # atno 17370 bound_to 10713
  157.4130  131.0826  151.1203 LP  0  0  0  0  0  0  0  0  0  0  0  0  # atno 17371 bound_to 10713
  140.5600  134.5943  157.5431 LP  0  0  0  0  0  0  0  0  0  0  0  0  # atno 17394 bound_to 11000
  139.9559  134.7536  156.0343 LP  0  0  0  0  0  0  0  0  0  0  0  0  # atno 17395 bound_to 11000

$$$$
