AV-unprocessed.smi:2062|AV-procd|sdf|8407|dock3
  -GOLD-   2272011 93D 1   1.00000     0.00000
 Structure written by MMmdl.
 41 42  0  0  0  0  0  0  0  0  2 V2000
  153.0603  142.5580  159.7507 C   0  0  0  0  0  0  0  0  0  0  0  0
  152.0474  143.2917  158.8548 C   0  0  0  0  0  0  0  0  0  0  0  0
  151.7257  144.6713  159.4502 C   0  0  0  0  0  0  0  0  0  0  0  0
  150.7579  142.4629  158.6468 C   0  0  0  0  0  0  0  0  0  0  0  0
  150.9220  141.2178  157.8953 N   0  0  0  0  0  0  0  0  0  0  0  0
  151.2685  141.4914  156.5051 C   0  0  0  0  0  0  0  0  0  0  0  0
  151.4482  140.1995  155.6920 C   0  0  0  0  0  0  0  0  0  0  0  0
  150.2589  139.4228  155.7744 O   0  0  0  0  0  0  0  0  0  0  0  0
  149.9117  139.0768  157.1135 C   0  0  2  0  0  0  0  0  0  0  0  0
  148.6292  138.2335  157.0867 C   0  0  0  0  0  0  0  0  0  0  0  0
  148.0932  138.0672  158.4312 N   0  0  0  0  0  0  0  0  0  0  0  0
  148.4452  137.0998  159.2878 C   0  0  0  0  0  0  0  0  0  0  0  0
  149.2885  136.2634  158.9558 O   0  0  0  0  0  0  0  0  0  0  0  0
  147.7998  137.1616  160.4749 N   0  5  0  0  0  0  0  0  0  0  0  0
  147.4424  136.0313  161.1061 C   0  0  0  0  0  0  0  0  0  0  0  0
  147.2696  134.8653  160.4730 N   0  0  0  0  0  0  0  0  0  0  0  0
  146.8901  133.8238  161.3217 C   0  0  0  0  0  0  0  0  0  0  0  0
  146.7613  134.2077  162.6301 C   0  0  0  0  0  0  0  0  0  0  0  0
  147.1173  135.8989  162.8367 S   0  0  0  0  0  0  0  0  0  0  0  0
  149.7307  140.3723  157.9298 C   0  0  0  0  0  0  0  0  0  0  0  0
  152.6566  142.3938  160.7503 H   0  0  0  0  0  0  0  0  0  0  0  0
  153.9791  143.1353  159.8564 H   0  0  0  0  0  0  0  0  0  0  0  0
  153.3335  141.5853  159.3429 H   0  0  0  0  0  0  0  0  0  0  0  0
  152.5140  143.4699  157.8848 H   0  0  0  0  0  0  0  0  0  0  0  0
  151.2467  144.5815  160.4258 H   0  0  0  0  0  0  0  0  0  0  0  0
  151.0555  145.2334  158.7992 H   0  0  0  0  0  0  0  0  0  0  0  0
  152.6308  145.2659  159.5767 H   0  0  0  0  0  0  0  0  0  0  0  0
  150.2826  142.2602  159.6079 H   0  0  0  0  0  0  0  0  0  0  0  0
  150.0441  143.0846  158.1044 H   0  0  0  0  0  0  0  0  0  0  0  0
  150.4897  142.1006  156.0430 H   0  0  0  0  0  0  0  0  0  0  0  0
  152.1888  142.0751  156.4599 H   0  0  0  0  0  0  0  0  0  0  0  0
  151.6497  140.4332  154.6465 H   0  0  0  0  0  0  0  0  0  0  0  0
  152.2968  139.6219  156.0619 H   0  0  0  0  0  0  0  0  0  0  0  0
  150.7187  138.4859  157.5515 H   0  0  0  0  0  0  0  0  0  0  0  0
  147.8769  138.7228  156.4663 H   0  0  0  0  0  0  0  0  0  0  0  0
  148.8265  137.2557  156.6445 H   0  0  0  0  0  0  0  0  0  0  0  0
  147.4043  138.7384  158.7377 H   0  0  0  0  0  0  0  0  0  0  0  0
  146.7304  132.8393  160.9079 H   0  0  0  0  0  0  0  0  0  0  0  0
  146.4799  133.6040  163.4794 H   0  0  0  0  0  0  0  0  0  0  0  0
  149.4977  140.0998  158.9586 H   0  0  0  0  0  0  0  0  0  0  0  0
  148.8725  140.9277  157.5482 H   0  0  0  0  0  0  0  0  0  0  0  0
  1  2  1  0  0  0  0
  1 21  1  0  0  0  0
  1 22  1  0  0  0  0
  1 23  1  0  0  0  0
  2  3  1  0  0  0  0
  2  4  1  0  0  0  0
  2 24  1  0  0  0  0
  3 25  1  0  0  0  0
  3 26  1  0  0  0  0
  3 27  1  0  0  0  0
  4  5  1  0  0  0  0
  4 28  1  0  0  0  0
  4 29  1  0  0  0  0
  5 20  1  0  0  0  0
  5  6  1  0  0  0  0
  6  7  1  0  0  0  0
  6 30  1  0  0  0  0
  6 31  1  0  0  0  0
  7  8  1  0  0  0  0
  7 32  1  0  0  0  0
  7 33  1  0  0  0  0
  8  9  1  0  0  0  0
  9 10  1  0  0  0  0
  9 20  1  0  0  0  0
  9 34  1  0  0  0  0
 10 11  1  0  0  0  0
 10 35  1  0  0  0  0
 10 36  1  0  0  0  0
 11 12  1  0  0  0  0
 11 37  1  0  0  0  0
 12 13  2  0  0  0  0
 12 14  1  0  0  0  0
 14 15  1  0  0  0  0
 15 19  1  0  0  0  0
 15 16  2  0  0  0  0
 16 17  1  0  0  0  0
 17 18  2  0  0  0  0
 17 38  1  0  0  0  0
 18 19  1  0  0  0  0
 18 39  1  0  0  0  0
 20 40  1  0  0  0  0
 20 41  1  0  0  0  0
M  CHG  1  14  -1
M  END
> <s_m_source_file>
AV-unprocessed.smi

> <i_m_source_file_index>
2062

> <i_lp_mmshare_version>
43012

> <i_f3d_flags>
0

> <s_epik_input>
W0NIM11bQ0hdKFtDSDNdKVtDSDJdTjFbQ0gyXVtDSDJdT1tDQEhdKFtDSDJdMSlbQ0gyXVtOSF1DKD1PKVtOSF1jMm5bY0hdW2NIXXMy

> <s_epik_cmdline>
J2VwaWtfcHl0aG9uJywgJy1waCcsICc3LjAnLCAnLXRuJywgJzgnLCAnLW1hJywgJzIwMCcsICctbWV0YWxfYmluZGluZycsICctaW1hZScsICc8aW5maWxlLm1hZT4nLCAnLW9tYWUnLCAnPG91dGZpbGUubWFlPic=

> <r_lp_tautomer_probability>
0.999

> <r_epik_Ionization_Penalty>
7.76343

> <r_epik_Ionization_Penalty_Charging>
5.65212

> <r_epik_Ionization_Penalty_Neutral>
2.11131

> <r_epik_State_Penalty>
6.82229

> <r_epik_Charging_Adjusted_Penalty>
12.4744

> <i_epik_Tot_Q>
-1

> <i_epik_Tot_abs_Q>
1

> <r_epik_Metal_State_Penalty>
2.82401

> <b_epik_Metal_Only>
1

> <s_lp_Force_Field>
OPLS_2005

> <r_lp_Energy>
20.4401

> <b_lp_Chiralities_Consistent>
1

> <s_lp_Variant>
AV-unprocessed.smi:2062-12

> <Gold.Version>
5.8.1

> <Gold.Id.Protein>
6NUR|6NUR_protein|mol2

> <Gold.PLP.Fitness>
50.4440

> <Gold.PLP.PLP>
-39.5324

> <Gold.PLP.part.hbond>
-2.9526

> <Gold.PLP.part.metal>
0.0000

> <Gold.PLP.part.buried>
-4.4936

> <Gold.PLP.part.nonpolar>
-32.7490

> <Gold.PLP.part.repulsive>
0.1904

> <Gold.PLP.ligand.clash>
0.0000

> <Gold.PLP.ligand.torsion>
0.6861

> <Gold.PLP.Chemscore.Hbond>
4.0181

> <Gold.PLP.Chemscore.CHOScore>
0.0000

> <Gold.PLP.Chemscore.Metal>
0.0000

> <Gold.Chemscore.Hbonds>
donor molecule, donor type, donor heavy atom, donor atom, acceptor molecule, acceptor atom, score
      P1  H  6896  6907       L1    13  0.55
      P1  H  6931  6943       L1    14  0.95
      P1  H  6934  6947       L1    14  1.73

> <Gold.PLP.Chemscore.Internal.Correction>
0.2297

> <Gold.Rescore>
     Score         DG    S(hbond)    S(metal)    S(lipo)     H(rot)  DE(clash)    DE(int)     intcor
     17.69     -18.71       2.11        0.00      89.63       1.68       0.01       1.01       ----

> <Gold.Chemscore.Fitness>
17.6864

> <Gold.Chemscore.DG>
-18.7054

> <Gold.Chemscore.ZeroCoef>
-5.4800

> <Gold.Chemscore.Hbond>
2.1061

> <Gold.Chemscore.Metal>
0.0000

> <Gold.Chemscore.Lipo>
89.6265

> <Gold.Chemscore.Internal_Hbond>
0.0000

> <Gold.Chemscore.DEClash>
0.0125

> <Gold.Chemscore.DEInternal>
1.0065

> <Gold.Chemscore.Rot>
1.6779

> <Gold.Chemscore.Internal.Correction>
   9.000000E+99

> <Gold.Chemscore.Hbonds>
donor molecule, donor type, donor heavy atom, donor atom, acceptor molecule, acceptor atom, score
      P1  H  6896  6907       L1    13  0.54
      P1  H  6931  6943       L1    14  0.19
      P1  H  6934  6947       L1    14  0.66

> <Gold.Chemscore.Hbond.Weighted>
-7.0344

> <Gold.Chemscore.Metal.Weighted>
-0.0000

> <Gold.Chemscore.Lipo.Weighted>
-10.4863

> <Gold.Chemscore.Internal_Hbond.Weighted>
0.0000

> <Gold.Chemscore.DEClash.Weighted>
0.0125

> <Gold.Chemscore.DEInternal.Weighted>
1.0065

> <Gold.Chemscore.Rot.Weighted>
4.2953

> <Gold.Chemscore.Internal.Correction.Weighted>
   9.000000E+99

> <Gold.Protein.RotatedTorsions>
[ 6907 6896 6895 6894 ] final  -49.87 input  -60.11 | X-H torsion
[ 7974 7965 7964 7962 ] final   45.90 input  175.53 | X-H torsion
[ 8008 7997 7996 7995 ] final   24.50 input   59.86 | X-H torsion
[ 10167 10162 10161 10158 ] final  126.71 input  -65.29 | X-H torsion
[ 10718 10713 10712 10709 ] final -146.90 input   66.30 | X-H torsion
[ 10763 10752 10751 10750 ] final -135.65 input  -60.55 | X-H torsion
[ 11005 11000 10999 10996 ] final  118.94 input  -57.11 | X-H torsion

> <Gold.Protein.ActiveResidues>
 VAL166  LYS551  ARG553  GLY616  TRP617  ASP618  TYR619  PRO620  LYS621  CYS622 
 ASP623  PHE694  ASN695  SER759  ASP760  ASP761  ALA762  ILE779  LEU786  VAL792 
 PHE793  MET794  SER795  GLU796  ALA797  LYS798  CYS799  TRP800  GLU811  SER814 

> <Gold.Protein.RotatedAtoms>
  150.8762  134.8145  159.7191 H   0  0  0  0  0  0  0  0  0  0  0  0  # atno 6907 bound_to 6896
  152.4748  134.4868  159.9692 H   0  0  0  0  0  0  0  0  0  0  0  0  # atno 6908 bound_to 6896
  151.4949  133.3478  159.2895 H   0  0  0  0  0  0  0  0  0  0  0  0  # atno 6909 bound_to 6896
  146.0438  139.4914  142.9761 H   0  0  0  0  0  0  0  0  0  0  0  0  # atno 7974 bound_to 7965
  154.9972  140.3121  155.4882 H   0  0  0  0  0  0  0  0  0  0  0  0  # atno 8008 bound_to 7997
  156.2931  140.2238  156.5021 H   0  0  0  0  0  0  0  0  0  0  0  0  # atno 8009 bound_to 7997
  154.7650  140.0456  157.0993 H   0  0  0  0  0  0  0  0  0  0  0  0  # atno 8010 bound_to 7997
  139.5616  144.6885  151.4026 H   0  0  0  0  0  0  0  0  0  0  0  0  # atno 10167 bound_to 10162
  156.4007  130.7932  151.2143 H   0  0  0  0  0  0  0  0  0  0  0  0  # atno 10718 bound_to 10713
  154.8699  135.3697  154.4933 H   0  0  0  0  0  0  0  0  0  0  0  0  # atno 10763 bound_to 10752
  153.5578  135.7023  153.5566 H   0  0  0  0  0  0  0  0  0  0  0  0  # atno 10764 bound_to 10752
  153.3655  135.4035  155.1714 H   0  0  0  0  0  0  0  0  0  0  0  0  # atno 10765 bound_to 10752
  139.9128  134.9624  156.7580 H   0  0  0  0  0  0  0  0  0  0  0  0  # atno 11005 bound_to 11000
  145.6840  141.0183  143.1591 LP  0  0  0  0  0  0  0  0  0  0  0  0  # atno 17320 bound_to 7965
  144.7088  139.8454  143.7421 LP  0  0  0  0  0  0  0  0  0  0  0  0  # atno 17321 bound_to 7965
  140.6897  143.7891  150.7237 LP  0  0  0  0  0  0  0  0  0  0  0  0  # atno 17342 bound_to 10162
  140.1370  143.4475  152.2218 LP  0  0  0  0  0  0  0  0  0  0  0  0  # atno 17343 bound_to 10162
  157.7504  131.0287  150.4062 LP  0  0  0  0  0  0  0  0  0  0  0  0  # atno 17370 bound_to 10713
  156.4341  130.3978  149.6740 LP  0  0  0  0  0  0  0  0  0  0  0  0  # atno 17371 bound_to 10713
  140.6720  133.9551  155.7862 LP  0  0  0  0  0  0  0  0  0  0  0  0  # atno 17394 bound_to 11000
  141.0570  134.0401  157.3709 LP  0  0  0  0  0  0  0  0  0  0  0  0  # atno 17395 bound_to 11000

$$$$
