#       Name:                AV-unprocessed.smi:39
#       Creating user name   scv26
#       Creation time:       Thu Mar 26 16:19:08 2020


#       File generated by GOLD software.
#

@<TRIPOS>MOLECULE
AV-unprocessed.smi:39
    42    43     1
SMALL
NO_CHARGES


@<TRIPOS>ATOM
      1 ****        -3.2568   1.7870   0.0644 C.3            1 S1                 0.0000
      2 ****        -2.6967   0.3760   0.1341 C.2            1 S1                 0.0000
      3 ****        -1.3739   0.1264   0.3098 C.2            1 S1                 0.0000
      4 ****        -0.8323  -1.1506   0.3768 N.am           1 S1                 0.0000
      5 ****         0.6525  -1.3711   0.5658 C.3            1 S1                 0.0000
      6 ****         1.3724  -1.3537  -0.7858 C.3            1 S1                 0.0000
      7 ****         1.9595   0.0458  -0.8129 C.3            1 S1                 0.0000
      8 ****         3.1448   0.1488  -1.6668 N.2            1 S1                 0.0000
      9 ****         2.9402   0.2403  -2.8845 N.1            1 S1                 1.0000
     10 ****         2.6305   0.3078  -3.9775 N.1            1 S1                -1.0000
     11 ****         2.2820   0.2651   0.6675 C.3            1 S1                 0.0000
     12 ****         2.3984   1.7468   1.0580 C.3            1 S1                 0.0000
     13 ****         3.0805   1.8722   2.2873 O.3            1 S1                 0.0000
     14 ****         1.1721  -0.3281   1.3368 O.3            1 S1                 0.0000
     15 ****        -1.6804  -2.2681   0.2299 C.2            1 S1                 0.0000
     16 ****        -1.2694  -3.4277   0.2430 O.2            1 S1                 0.0000
     17 ****        -3.0394  -2.0125   0.0561 N.am           1 S1                 0.0000
     18 ****        -3.6286  -0.7472   0.0009 C.2            1 S1                 0.0000
     19 ****        -4.8450  -0.6497  -0.1530 O.2            1 S1                 0.0000
     20 ****         0.7714  -2.3079   1.1127 H              1 S1                 0.0000
     21 ****         1.1899   0.7565  -1.1212 H              1 S1                 0.0000
     22 ****         3.1895  -0.2839   0.9280 H              1 S1                 0.0000
     23 ****        -3.6502  -2.8103  -0.0422 H              1 S1                 0.0000
     24 ****        -2.4735   2.5389   0.1642 H              1 S1                 0.0000
     25 ****        -3.9798   1.9494   0.8646 H              1 S1                 0.0000
     26 ****        -3.7581   1.9516  -0.8899 H              1 S1                 0.0000
     27 ****        -0.7115   0.9746   0.3970 H              1 S1                 0.0000
     28 ****         2.1595  -2.1090  -0.7665 H              1 S1                 0.0000
     29 ****         0.6997  -1.5673  -1.6174 H              1 S1                 0.0000
     30 ****         2.9765   2.2885   0.3087 H              1 S1                 0.0000
     31 ****         1.4185   2.2213   1.1158 H              1 S1                 0.0000
     32 ****         3.1584   2.7907   2.4959 H              1 S1                 0.0000
     33 ****         4.0698   0.1454  -1.2868 LP             1 S1                 0.0000
     34 ****         2.3583   0.3671  -4.9379 LP             1 S1                 0.0000
     35 ****         3.9909   1.4656   2.2106 LP             1 S1                 0.0000
     36 ****         2.5665   1.4055   3.0071 LP             1 S1                 0.0000
     37 ****         1.4714  -0.6869   2.2210 LP             1 S1                 0.0000
     38 ****         0.4636   0.3629   1.4801 LP             1 S1                 0.0000
     39 ****        -0.2936  -3.6110   0.3619 LP             1 S1                 0.0000
     40 ****        -1.9112  -4.1869   0.1348 LP             1 S1                 0.0000
     41 ****        -5.2728   0.2531  -0.1960 LP             1 S1                 0.0000
     42 ****        -5.4062  -1.4733  -0.2351 LP             1 S1                 0.0000
@<TRIPOS>BOND
    1    1    2 1     
    2    1   24 1     
    3    1   25 1     
    4    1   26 1     
    5    2   18 1     
    6    2    3 2     
    7    3    4 1     
    8    3   27 1     
    9    4    5 1     
   10    4   15 1     
   11    5   20 1     
   12    5   14 1     
   13    5    6 1     
   14    6    7 1     
   15    6   28 1     
   16    6   29 1     
   17    7   21 1     
   18    7    8 1     
   19    7   11 1     
   20    8    9 2     
   21    9   10 2     
   22   11   22 1     
   23   11   12 1     
   24   11   14 1     
   25   12   13 1     
   26   12   30 1     
   27   12   31 1     
   28   13   32 1     
   29   15   16 2     
   30   15   17 1     
   31   17   23 1     
   32   17   18 1     
   33   18   19 2     
   34    8   33 1     
   35   10   34 1     
   36   13   35 1     
   37   13   36 1     
   38   14   37 1     
   39   14   38 1     
   40   16   39 1     
   41   16   40 1     
   42   19   41 1     
   43   19   42 1     
@<TRIPOS>SUBSTRUCTURE
      1 S1             1
@<TRIPOS>SET
LONE_PAIRS      STATIC     ATOMS    <user>   **** ""
10 33 34 35 36 37 38 39 40 41 42
DONOR_HYDROGENS      STATIC     ATOMS    <user>   **** ""
2 32 23
ATOM$BLUE        STATIC     ATOMS    COLORGROUP SYSTEM
10 33 34 35 36 37 38 39 40 41 42
ATOM$RED        STATIC     ATOMS    COLORGROUP SYSTEM
2 32 23
