#       Name:                AV-unprocessed.smi:2510
#       Creating user name   scv26
#       Creation time:       Fri Mar 27 13:51:49 2020


#       File generated by GOLD software.
#

@<TRIPOS>MOLECULE
AV-unprocessed.smi:2510
    53    54     1
SMALL
NO_CHARGES


@<TRIPOS>ATOM
      1 ****         0.3379  -2.1817   1.9640 C.3            1 S1                 0.0000
      2 ****        -0.8157  -1.2530   2.3839 C.3            1 S1                 0.0000
      3 ****        -1.6444  -0.5881   1.2482 C.3            1 S1                 0.0000
      4 ****        -3.0719  -0.3821   1.8118 C.3            1 S1                 0.0000
      5 ****        -3.1648   0.5783   3.0109 C.3            1 S1                 0.0000
      6 ****        -1.0655   0.6779   0.5475 C.3            1 S1                 0.0000
      7 ****         0.3941   0.7477   0.5570 N.am           1 S1                 0.0000
      8 ****         1.1310   1.5754   1.3137 C.2            1 S1                 0.0000
      9 ****         0.6425   2.3634   2.1228 O.2            1 S1                 0.0000
     10 ****         2.6534   1.4917   1.1545 C.3            1 S1                 0.0000
     11 ****         3.0625   1.2634  -0.2687 C.2            1 S1                 0.0000
     12 ****         3.0948   2.1032  -1.3470 C.2            1 S1                 0.0000
     13 ****         3.5463   1.2817  -2.4211 C.2            1 S1                 0.0000
     14 ****         3.7646   1.6680  -3.8542 C.3            1 S1                 0.0000
     15 ****         3.7813   0.0350  -2.0398 N.2            1 S1                 0.0000
     16 ****         3.4862   0.0361  -0.7269 N.pl3          1 S1                 0.0000
     17 ****        -1.5974   0.1625  -0.8025 C.3            1 S1                 0.0000
     18 ****        -0.8157   0.4203  -2.0901 C.3            1 S1                 0.0000
     19 ****        -1.5897  -1.2354  -0.1656 C.3            1 S1                 0.0000
     20 ****        -2.7296  -2.0348  -0.4462 O.3            1 S1                 0.0000
     21 ****        -2.6996  -2.6190  -1.7366 C.3            1 S1                 0.0000
     22 ****         3.5750  -0.7980  -0.1636 H              1 S1                 0.0000
     23 ****         0.8673  -2.5479   2.8437 H              1 S1                 0.0000
     24 ****         1.0710  -1.6804   1.3337 H              1 S1                 0.0000
     25 ****        -0.0321  -3.0555   1.4272 H              1 S1                 0.0000
     26 ****        -1.4636  -1.8482   3.0284 H              1 S1                 0.0000
     27 ****        -0.4083  -0.4787   3.0347 H              1 S1                 0.0000
     28 ****        -3.7341   0.0002   1.0347 H              1 S1                 0.0000
     29 ****        -3.5057  -1.3415   2.0967 H              1 S1                 0.0000
     30 ****        -4.2028   0.7011   3.3206 H              1 S1                 0.0000
     31 ****        -2.7787   1.5680   2.7692 H              1 S1                 0.0000
     32 ****        -2.6132   0.2066   3.8741 H              1 S1                 0.0000
     33 ****        -1.5477   1.6121   0.8382 H              1 S1                 0.0000
     34 ****         0.8810   0.1306  -0.0770 H              1 S1                 0.0000
     35 ****         3.1048   2.4141   1.5221 H              1 S1                 0.0000
     36 ****         3.0251   0.6870   1.7900 H              1 S1                 0.0000
     37 ****         2.8254   3.1489  -1.3680 H              1 S1                 0.0000
     38 ****         3.4511   2.6959  -4.0372 H              1 S1                 0.0000
     39 ****         3.1967   1.0241  -4.5263 H              1 S1                 0.0000
     40 ****         4.8176   1.5891  -4.1255 H              1 S1                 0.0000
     41 ****        -2.6276   0.5031  -0.9182 H              1 S1                 0.0000
     42 ****         0.1601  -0.0663  -2.0767 H              1 S1                 0.0000
     43 ****        -0.6489   1.4870  -2.2416 H              1 S1                 0.0000
     44 ****        -1.3530   0.0473  -2.9616 H              1 S1                 0.0000
     45 ****        -0.6550  -1.7554  -0.3783 H              1 S1                 0.0000
     46 ****        -3.5774  -3.2511  -1.8701 H              1 S1                 0.0000
     47 ****        -1.8141  -3.2419  -1.8687 H              1 S1                 0.0000
     48 ****        -2.7152  -1.8594  -2.5179 H              1 S1                 0.0000
     49 ****        -0.3495   2.4082   2.2407 LP             1 S1                 0.0000
     50 ****         1.2376   2.9589   2.6625 LP             1 S1                 0.0000
     51 ****         4.1033  -0.7296  -2.5981 LP             1 S1                 0.0000
     52 ****        -3.5452  -1.4604  -0.3765 LP             1 S1                 0.0000
     53 ****        -2.7787  -2.7672   0.2329 LP             1 S1                 0.0000
@<TRIPOS>BOND
    1    1    2 1     
    2    1   23 1     
    3    1   24 1     
    4    1   25 1     
    5    2    3 1     
    6    2   26 1     
    7    2   27 1     
    8    3   19 1     
    9    3    4 1     
   10    3    6 1     
   11    4    5 1     
   12    4   28 1     
   13    4   29 1     
   14    5   30 1     
   15    5   31 1     
   16    5   32 1     
   17    6    7 1     
   18    6   17 1     
   19    6   33 1     
   20    7    8 am    
   21    7   34 1     
   22    8    9 2     
   23    8   10 1     
   24   10   35 1     
   25   10   36 1     
   26   10   11 1     
   27   11   16 1     
   28   11   12 2     
   29   12   13 1     
   30   12   37 1     
   31   13   14 1     
   32   13   15 2     
   33   14   38 1     
   34   14   39 1     
   35   14   40 1     
   36   15   16 1     
   37   16   22 1     
   38   17   18 1     
   39   17   19 1     
   40   17   41 1     
   41   18   42 1     
   42   18   43 1     
   43   18   44 1     
   44   19   20 1     
   45   19   45 1     
   46   20   21 1     
   47   21   46 1     
   48   21   47 1     
   49   21   48 1     
   50    9   49 1     
   51    9   50 1     
   52   15   51 1     
   53   20   52 1     
   54   20   53 1     
@<TRIPOS>SUBSTRUCTURE
      1 S1             1
@<TRIPOS>SET
LONE_PAIRS      STATIC     ATOMS    <user>   **** ""
5 49 50 51 52 53
DONOR_HYDROGENS      STATIC     ATOMS    <user>   **** ""
2 34 22
ATOM$BLUE        STATIC     ATOMS    COLORGROUP SYSTEM
5 49 50 51 52 53
ATOM$RED        STATIC     ATOMS    COLORGROUP SYSTEM
2 34 22
