AV-unprocessed.smi:531|AV-procd|sdf|2847|dock5
  -GOLD-   2262023333D 1   1.00000     0.00000
 Structure written by MMmdl.
 45 47  0  0  0  0  0  0  0  0  2 V2000
  148.2033  141.7260  154.0307 C   0  0  0  0  0  0  0  0  0  0  0  0
  148.8343  141.1791  155.3130 C   0  0  0  0  0  0  0  0  0  0  0  0
  150.1455  141.7005  155.4285 O   0  0  0  0  0  0  0  0  0  0  0  0
  150.9872  140.9124  156.2532 C   0  0  0  0  0  0  0  0  0  0  0  0
  150.6245  141.1423  157.7269 C   0  0  0  0  0  0  0  0  0  0  0  0
  151.6932  140.7000  158.6228 N   0  0  0  0  0  0  0  0  0  0  0  0
  152.4702  141.4636  159.4397 C   0  0  0  0  0  0  0  0  0  0  0  0
  152.3586  142.8547  159.4969 N   0  0  0  0  0  0  0  0  0  0  0  0
  152.1979  143.7560  158.3552 C   0  0  0  0  0  0  0  0  0  0  0  0
  151.0418  144.7488  158.5731 C   0  0  0  0  0  0  0  0  0  0  0  0
  151.2730  145.5681  159.8502 C   0  0  0  0  0  0  0  0  0  0  0  0
  151.5543  144.6295  161.0320 C   0  0  0  0  0  0  0  0  0  0  0  0
  152.6818  143.6397  160.6874 C   0  0  0  0  0  0  0  0  0  0  0  0
  153.3086  140.7734  160.2143 N   0  0  0  0  0  0  0  0  0  0  0  0
  153.0648  139.4599  159.8464 C   0  0  0  0  0  0  0  0  0  0  0  0
  152.0926  139.3854  158.8977 C   0  0  0  0  0  0  0  0  0  0  0  0
  151.5870  138.1075  158.3429 C   0  0  0  0  0  0  0  0  0  0  0  0
  150.6923  138.0846  157.5007 O   0  0  0  0  0  0  0  0  0  0  0  0
  152.2245  137.0204  158.8816 N   0  5  0  0  0  0  0  0  0  0  0  0
  153.2148  137.0530  159.8388 C   0  0  0  0  0  0  0  0  0  0  0  0
  153.7306  136.0234  160.2762 O   0  0  0  0  0  0  0  0  0  0  0  0
  153.6472  138.2566  160.3294 N   0  0  0  0  0  0  0  0  0  0  0  0
  154.6954  138.3218  161.3521 C   0  0  0  0  0  0  0  0  0  0  0  0
  147.1902  141.3453  153.9006 H   0  0  0  0  0  0  0  0  0  0  0  0
  148.7855  141.4367  153.1554 H   0  0  0  0  0  0  0  0  0  0  0  0
  148.1525  142.8148  154.0536 H   0  0  0  0  0  0  0  0  0  0  0  0
  148.2361  141.4679  156.1785 H   0  0  0  0  0  0  0  0  0  0  0  0
  148.8643  140.0890  155.2777 H   0  0  0  0  0  0  0  0  0  0  0  0
  150.8765  139.8563  156.0032 H   0  0  0  0  0  0  0  0  0  0  0  0
  152.0308  141.1805  156.0824 H   0  0  0  0  0  0  0  0  0  0  0  0
  150.4005  142.1911  157.9037 H   0  0  0  0  0  0  0  0  0  0  0  0
  149.6991  140.6279  157.9655 H   0  0  0  0  0  0  0  0  0  0  0  0
  153.1296  144.3051  158.2125 H   0  0  0  0  0  0  0  0  0  0  0  0
  152.0534  143.1869  157.4378 H   0  0  0  0  0  0  0  0  0  0  0  0
  150.9522  145.4142  157.7142 H   0  0  0  0  0  0  0  0  0  0  0  0
  150.0969  144.2102  158.6487 H   0  0  0  0  0  0  0  0  0  0  0  0
  152.1227  146.2362  159.7059 H   0  0  0  0  0  0  0  0  0  0  0  0
  150.4091  146.1990  160.0607 H   0  0  0  0  0  0  0  0  0  0  0  0
  151.8226  145.2104  161.9148 H   0  0  0  0  0  0  0  0  0  0  0  0
  150.6492  144.0769  161.2867 H   0  0  0  0  0  0  0  0  0  0  0  0
  152.8463  142.9699  161.5322 H   0  0  0  0  0  0  0  0  0  0  0  0
  153.6199  144.1722  160.5257 H   0  0  0  0  0  0  0  0  0  0  0  0
  155.5949  137.8040  161.0160 H   0  0  0  0  0  0  0  0  0  0  0  0
  154.3543  137.8505  162.2748 H   0  0  0  0  0  0  0  0  0  0  0  0
  154.9843  139.3443  161.5942 H   0  0  0  0  0  0  0  0  0  0  0  0
  1  2  1  0  0  0  0
  1 24  1  0  0  0  0
  1 25  1  0  0  0  0
  1 26  1  0  0  0  0
  2  3  1  0  0  0  0
  2 27  1  0  0  0  0
  2 28  1  0  0  0  0
  3  4  1  0  0  0  0
  4  5  1  0  0  0  0
  4 29  1  0  0  0  0
  4 30  1  0  0  0  0
  5  6  1  0  0  0  0
  5 31  1  0  0  0  0
  5 32  1  0  0  0  0
  6 16  1  0  0  0  0
  6  7  1  0  0  0  0
  7  8  1  0  0  0  0
  7 14  2  0  0  0  0
  8 13  1  0  0  0  0
  8  9  1  0  0  0  0
  9 10  1  0  0  0  0
  9 33  1  0  0  0  0
  9 34  1  0  0  0  0
 10 11  1  0  0  0  0
 10 35  1  0  0  0  0
 10 36  1  0  0  0  0
 11 12  1  0  0  0  0
 11 37  1  0  0  0  0
 11 38  1  0  0  0  0
 12 13  1  0  0  0  0
 12 39  1  0  0  0  0
 12 40  1  0  0  0  0
 13 41  1  0  0  0  0
 13 42  1  0  0  0  0
 14 15  1  0  0  0  0
 15 22  1  0  0  0  0
 15 16  2  0  0  0  0
 16 17  1  0  0  0  0
 17 18  2  0  0  0  0
 17 19  1  0  0  0  0
 19 20  1  0  0  0  0
 20 21  2  0  0  0  0
 20 22  1  0  0  0  0
 22 23  1  0  0  0  0
 23 43  1  0  0  0  0
 23 44  1  0  0  0  0
 23 45  1  0  0  0  0
M  CHG  1  19  -1
M  END
> <s_m_source_file>
AV-unprocessed.smi

> <i_m_source_file_index>
531

> <i_lp_mmshare_version>
43012

> <i_f3d_flags>
0

> <s_epik_input>
W0NIM11uMWMoPU8pW25IXWMoPU8pYyhjMTIpbihbQ0gyXVtDSDJdT1tDSDJdW0NIM10pYyhuMilOM1tDSDJdW0NIMl1bQ0gyXVtDSDJdW0NIMl0z

> <s_epik_cmdline>
J2VwaWtfcHl0aG9uJywgJy1waCcsICc3LjAnLCAnLXRuJywgJzgnLCAnLW1hJywgJzIwMCcsICctbWV0YWxfYmluZGluZycsICctaW1hZScsICc8aW5maWxlLm1hZT4nLCAnLW9tYWUnLCAnPG91dGZpbGUubWFlPic=

> <r_lp_tautomer_probability>
1

> <r_epik_Ionization_Penalty>
5.10252

> <r_epik_Ionization_Penalty_Charging>
0.0734613

> <r_epik_Ionization_Penalty_Neutral>
5.02906

> <r_epik_State_Penalty>
5.02576

> <r_epik_Charging_Adjusted_Penalty>
5.09922

> <i_epik_Tot_Q>
-1

> <i_epik_Tot_abs_Q>
1

> <r_epik_Metal_State_Penalty>
1.13821

> <b_epik_Metal_Only>
1

> <s_lp_Force_Field>
OPLS_2005

> <r_lp_Energy>
41.0851

> <b_lp_Chiralities_Consistent>
1

> <s_lp_Variant>
AV-unprocessed.smi:531-2

> <Gold.Version>
5.8.1

> <Gold.Id.Protein>
6NUR|6NUR_protein|mol2

> <Gold.PLP.Fitness>
48.2893

> <Gold.PLP.PLP>
-46.2975

> <Gold.PLP.part.hbond>
-2.0294

> <Gold.PLP.part.metal>
0.0000

> <Gold.PLP.part.buried>
-5.2662

> <Gold.PLP.part.nonpolar>
-39.0289

> <Gold.PLP.part.repulsive>
0.1169

> <Gold.PLP.ligand.clash>
0.0000

> <Gold.PLP.ligand.torsion>
0.7974

> <Gold.PLP.Chemscore.Hbond>
1.0000

> <Gold.PLP.Chemscore.CHOScore>
0.0000

> <Gold.PLP.Chemscore.Metal>
0.0000

> <Gold.Chemscore.Hbonds>
donor molecule, donor type, donor heavy atom, donor atom, acceptor molecule, acceptor atom, score
      P1  H  6896  6909       L1    21  1.00

> <Gold.PLP.Chemscore.Internal.Correction>
0.5866

> <Gold.Rescore>
     Score         DG    S(hbond)    S(metal)    S(lipo)     H(rot)  DE(clash)    DE(int)     intcor
     15.28     -16.17       0.95        0.00      99.15       1.59       0.16       0.73       ----

> <Gold.Chemscore.Fitness>
15.2812

> <Gold.Chemscore.DG>
-16.1661

> <Gold.Chemscore.ZeroCoef>
-5.4800

> <Gold.Chemscore.Hbond>
0.9463

> <Gold.Chemscore.Metal>
0.0000

> <Gold.Chemscore.Lipo>
99.1533

> <Gold.Chemscore.Internal_Hbond>
0.0000

> <Gold.Chemscore.DEClash>
0.1553

> <Gold.Chemscore.DEInternal>
0.7296

> <Gold.Chemscore.Rot>
1.5920

> <Gold.Chemscore.Internal.Correction>
   9.000000E+99

> <Gold.Chemscore.Hbonds>
donor molecule, donor type, donor heavy atom, donor atom, acceptor molecule, acceptor atom, score
      P1  H  6896  6909       L1    21  0.30

> <Gold.Chemscore.Hbond.Weighted>
-3.1608

> <Gold.Chemscore.Metal.Weighted>
-0.0000

> <Gold.Chemscore.Lipo.Weighted>
-11.6009

> <Gold.Chemscore.Internal_Hbond.Weighted>
0.0000

> <Gold.Chemscore.DEClash.Weighted>
0.1553

> <Gold.Chemscore.DEInternal.Weighted>
0.7296

> <Gold.Chemscore.Rot.Weighted>
4.0756

> <Gold.Chemscore.Internal.Correction.Weighted>
   9.000000E+99

> <Gold.Protein.RotatedTorsions>
[ 6907 6896 6895 6894 ] final  169.25 input  -60.11 | X-H torsion
[ 7974 7965 7964 7962 ] final   51.83 input  175.53 | X-H torsion
[ 8008 7997 7996 7995 ] final    5.70 input   59.86 | X-H torsion
[ 10167 10162 10161 10158 ] final -133.97 input  -65.29 | X-H torsion
[ 10718 10713 10712 10709 ] final  -53.35 input   66.30 | X-H torsion
[ 10763 10752 10751 10750 ] final   41.74 input  -60.55 | X-H torsion
[ 11005 11000 10999 10996 ] final   43.31 input  -57.11 | X-H torsion

> <Gold.Protein.ActiveResidues>
 VAL166  LYS551  ARG553  GLY616  TRP617  ASP618  TYR619  PRO620  LYS621  CYS622 
 ASP623  PHE694  ASN695  SER759  ASP760  ASP761  ALA762  ILE779  LEU786  VAL792 
 PHE793  MET794  SER795  GLU796  ALA797  LYS798  CYS799  TRP800  GLU811  SER814 

> <Gold.Protein.RotatedAtoms>
  151.8349  133.3414  159.3624 H   0  0  0  0  0  0  0  0  0  0  0  0  # atno 6907 bound_to 6896
  150.7252  134.5447  159.5774 H   0  0  0  0  0  0  0  0  0  0  0  0  # atno 6908 bound_to 6896
  152.2908  134.7724  160.0429 H   0  0  0  0  0  0  0  0  0  0  0  0  # atno 6909 bound_to 6896
  145.9874  139.4303  143.0095 H   0  0  0  0  0  0  0  0  0  0  0  0  # atno 7974 bound_to 7965
  154.7317  140.2731  155.6450 H   0  0  0  0  0  0  0  0  0  0  0  0  # atno 8008 bound_to 7997
  156.2851  140.2714  156.1944 H   0  0  0  0  0  0  0  0  0  0  0  0  # atno 8009 bound_to 7997
  155.0373  140.0371  157.2486 H   0  0  0  0  0  0  0  0  0  0  0  0  # atno 8010 bound_to 7997
  139.8928  143.6701  152.2609 H   0  0  0  0  0  0  0  0  0  0  0  0  # atno 10167 bound_to 10162
  156.1542  130.4150  149.9895 H   0  0  0  0  0  0  0  0  0  0  0  0  # atno 10718 bound_to 10713
  152.9900  135.6153  154.2836 H   0  0  0  0  0  0  0  0  0  0  0  0  # atno 10763 bound_to 10752
  154.2564  135.2783  155.2797 H   0  0  0  0  0  0  0  0  0  0  0  0  # atno 10764 bound_to 10752
  154.5243  135.5806  153.6764 H   0  0  0  0  0  0  0  0  0  0  0  0  # atno 10765 bound_to 10752
  140.1656  134.4286  155.8289 H   0  0  0  0  0  0  0  0  0  0  0  0  # atno 11005 bound_to 11000
  145.7681  140.9908  143.1164 LP  0  0  0  0  0  0  0  0  0  0  0  0  # atno 17320 bound_to 7965
  144.6878  139.9413  143.7475 LP  0  0  0  0  0  0  0  0  0  0  0  0  # atno 17321 bound_to 7965
  139.7094  144.7623  151.1138 LP  0  0  0  0  0  0  0  0  0  0  0  0  # atno 17342 bound_to 10162
  140.7723  143.5351  150.9378 LP  0  0  0  0  0  0  0  0  0  0  0  0  # atno 17343 bound_to 10162
  156.7744  130.9198  151.3645 LP  0  0  0  0  0  0  0  0  0  0  0  0  # atno 17370 bound_to 10713
  157.6682  130.9027  149.9979 LP  0  0  0  0  0  0  0  0  0  0  0  0  # atno 17371 bound_to 10713
  141.2213  133.6933  156.7673 LP  0  0  0  0  0  0  0  0  0  0  0  0  # atno 17394 bound_to 11000
  140.2437  134.8594  157.3599 LP  0  0  0  0  0  0  0  0  0  0  0  0  # atno 17395 bound_to 11000

$$$$
