AV-unprocessed.smi:1703|AV-procd|sdf|6874|dock4
  -GOLD-   22720 8 73D 1   1.00000     0.00000
 Structure written by MMmdl.
 50 52  0  0  0  0  0  0  0  0  3 V2000
  144.6072  134.5418  155.5534 C   0  0  0  0  0  0  0  0  0  0  0  0
  144.7392  135.1897  154.1708 C   0  0  1  0  0  0  0  0  0  0  0  0
  146.1743  135.6824  153.8966 C   0  0  0  0  0  0  0  0  0  0  0  0
  146.3015  136.2337  152.5258 N   0  3  2  0  0  0  0  0  0  0  0  0
  145.7409  137.6038  152.3781 C   0  0  0  0  0  0  0  0  0  0  0  0
  146.7096  138.6923  152.8881 C   0  0  2  0  0  0  0  0  0  0  0  0
  147.8832  138.6631  152.1023 O   0  0  0  0  0  0  0  0  0  0  0  0
  147.1284  138.5171  154.3621 C   0  0  0  0  0  0  0  0  0  0  0  0
  147.7411  139.7278  154.9336 N   0  0  0  0  0  0  0  0  0  0  0  0
  147.2446  140.9958  155.0333 C   0  0  0  0  0  0  0  0  0  0  0  0
  145.9137  141.4839  154.5639 C   0  0  0  0  0  0  0  0  0  0  0  0
  146.0286  142.4377  153.5319 O   0  0  0  0  0  0  0  0  0  0  0  0
  148.2009  141.7589  155.6326 N   0  3  0  0  0  0  0  0  0  0  0  0
  149.3213  140.9778  155.9156 C   0  0  0  0  0  0  0  0  0  0  0  0
  150.5327  141.3096  156.5144 C   0  0  0  0  0  0  0  0  0  0  0  0
  151.4755  140.2705  156.6534 C   0  0  0  0  0  0  0  0  0  0  0  0
  151.1973  138.9628  156.2056 C   0  0  0  0  0  0  0  0  0  0  0  0
  149.9649  138.6380  155.6006 C   0  0  0  0  0  0  0  0  0  0  0  0
  149.0367  139.6715  155.4657 C   0  0  0  0  0  0  0  0  0  0  0  0
  145.8147  135.2510  151.5236 C   0  0  0  0  0  0  0  0  0  0  0  0
  144.3991  134.7358  151.8659 C   0  0  1  0  0  0  0  0  0  0  0  0
  143.9509  133.6196  150.9162 C   0  0  0  0  0  0  0  0  0  0  0  0
  144.3935  134.2163  153.1913 O   0  0  0  0  0  0  0  0  0  0  0  0
  144.8622  135.2477  156.3443 H   0  0  0  0  0  0  0  0  0  0  0  0
  145.2669  133.6788  155.6498 H   0  0  0  0  0  0  0  0  0  0  0  0
  143.5863  134.2013  155.7291 H   0  0  0  0  0  0  0  0  0  0  0  0
  144.0383  136.0244  154.1141 H   0  0  0  0  0  0  0  0  0  0  0  0
  146.4826  136.4221  154.6367 H   0  0  0  0  0  0  0  0  0  0  0  0
  146.8703  134.8476  153.9935 H   0  0  0  0  0  0  0  0  0  0  0  0
  145.4806  137.7744  151.3347 H   0  0  0  0  0  0  0  0  0  0  0  0
  144.8069  137.6862  152.9362 H   0  0  0  0  0  0  0  0  0  0  0  0
  146.2613  139.6780  152.7726 H   0  0  0  0  0  0  0  0  0  0  0  0
  148.2294  137.7834  152.1012 H   0  0  0  0  0  0  0  0  0  0  0  0
  146.2849  138.2080  154.9792 H   0  0  0  0  0  0  0  0  0  0  0  0
  147.8670  137.7185  154.4456 H   0  0  0  0  0  0  0  0  0  0  0  0
  145.3095  140.6482  154.2122 H   0  0  0  0  0  0  0  0  0  0  0  0
  145.3801  141.9328  155.4021 H   0  0  0  0  0  0  0  0  0  0  0  0
  146.2903  143.2633  153.9106 H   0  0  0  0  0  0  0  0  0  0  0  0
  150.7491  142.3115  156.8563 H   0  0  0  0  0  0  0  0  0  0  0  0
  152.4317  140.4814  157.1105 H   0  0  0  0  0  0  0  0  0  0  0  0
  151.9460  138.1932  156.3272 H   0  0  0  0  0  0  0  0  0  0  0  0
  149.7689  137.6313  155.2636 H   0  0  0  0  0  0  0  0  0  0  0  0
  145.8365  135.6710  150.5187 H   0  0  0  0  0  0  0  0  0  0  0  0
  146.5115  134.4117  151.5154 H   0  0  0  0  0  0  0  0  0  0  0  0
  143.6730  135.5471  151.7985 H   0  0  0  0  0  0  0  0  0  0  0  0
  143.9222  133.9698  149.8839 H   0  0  0  0  0  0  0  0  0  0  0  0
  142.9524  133.2653  151.1742 H   0  0  0  0  0  0  0  0  0  0  0  0
  144.6281  132.7661  150.9614 H   0  0  0  0  0  0  0  0  0  0  0  0
  147.2934  136.3425  152.3651 H   0  0  0  0  0  0  0  0  0  0  0  0
  148.0948  142.7474  155.8231 H   0  0  0  0  0  0  0  0  0  0  0  0
  1  2  1  0  0  0  0
  1 24  1  0  0  0  0
  1 25  1  0  0  0  0
  1 26  1  0  0  0  0
  2 23  1  0  0  0  0
  2  3  1  0  0  0  0
  2 27  1  0  0  0  0
  3  4  1  0  0  0  0
  3 28  1  0  0  0  0
  3 29  1  0  0  0  0
  4  5  1  0  0  0  0
  4 20  1  0  0  0  0
  4 49  1  0  0  0  0
  5  6  1  0  0  0  0
  5 30  1  0  0  0  0
  5 31  1  0  0  0  0
  6  7  1  0  0  0  0
  6  8  1  0  0  0  0
  6 32  1  0  0  0  0
  7 33  1  0  0  0  0
  8  9  1  0  0  0  0
  8 34  1  0  0  0  0
  8 35  1  0  0  0  0
  9 19  1  0  0  0  0
  9 10  1  0  0  0  0
 10 11  1  0  0  0  0
 10 13  2  0  0  0  0
 11 12  1  0  0  0  0
 11 36  1  0  0  0  0
 11 37  1  0  0  0  0
 12 38  1  0  0  0  0
 13 14  1  0  0  0  0
 13 50  1  0  0  0  0
 14 19  2  0  0  0  0
 14 15  1  0  0  0  0
 15 16  2  0  0  0  0
 15 39  1  0  0  0  0
 16 17  1  0  0  0  0
 16 40  1  0  0  0  0
 17 18  2  0  0  0  0
 17 41  1  0  0  0  0
 18 19  1  0  0  0  0
 18 42  1  0  0  0  0
 20 21  1  0  0  0  0
 20 43  1  0  0  0  0
 20 44  1  0  0  0  0
 21 22  1  0  0  0  0
 21 23  1  0  0  0  0
 21 45  1  0  0  0  0
 22 46  1  0  0  0  0
 22 47  1  0  0  0  0
 22 48  1  0  0  0  0
M  CHG  1   4   1
M  CHG  1  13   1
M  END
> <s_m_source_file>
AV-unprocessed.smi

> <i_m_source_file_index>
1703

> <i_lp_mmshare_version>
43012

> <i_f3d_flags>
0

> <s_epik_input>
W0NIM11bQ0BASF0xW0NIMl1OKFtDSDJdW0NASF0oTzEpW0NIM10pW0NIMl1bQ0BIXShbT0hdKVtDSDJdbihjKG4yKVtDSDJdW09IXSljKGMyMylbY0hdW2NIXVtjSF1bY0hdMw==

> <s_epik_cmdline>
J2VwaWtfcHl0aG9uJywgJy1waCcsICc3LjAnLCAnLXRuJywgJzgnLCAnLW1hJywgJzIwMCcsICctbWV0YWxfYmluZGluZycsICctaW1hZScsICc8aW5maWxlLm1hZT4nLCAnLW9tYWUnLCAnPG91dGZpbGUubWFlPic=

> <r_epik_Ionization_Penalty>
2.22579

> <r_epik_Ionization_Penalty_Charging>
2.22492

> <r_epik_Ionization_Penalty_Neutral>
0.000870007

> <r_epik_State_Penalty>
2.3141

> <r_epik_Charging_Adjusted_Penalty>
4.53902

> <i_epik_Tot_Q>
2

> <i_epik_Tot_abs_Q>
2

> <r_epik_Metal_State_Penalty>
6.36517

> <b_epik_Metal_Only>
0

> <s_lp_Force_Field>
OPLS_2005

> <r_lp_Energy>
32.0601

> <b_lp_Chiralities_Consistent>
1

> <s_lp_Variant>
AV-unprocessed.smi:1703-22

> <Gold.Version>
5.8.1

> <Gold.Id.Protein>
6NUR|6NUR_protein|mol2

> <Gold.PLP.Fitness>
48.7080

> <Gold.PLP.PLP>
-34.4734

> <Gold.PLP.part.hbond>
-4.6489

> <Gold.PLP.part.metal>
0.0000

> <Gold.PLP.part.buried>
-4.6326

> <Gold.PLP.part.nonpolar>
-25.6840

> <Gold.PLP.part.repulsive>
0.2300

> <Gold.PLP.ligand.clash>
0.0000

> <Gold.PLP.ligand.torsion>
0.4135

> <Gold.PLP.Chemscore.Hbond>
5.0000

> <Gold.PLP.Chemscore.CHOScore>
0.0000

> <Gold.PLP.Chemscore.Metal>
0.0000

> <Gold.Chemscore.Hbonds>
donor molecule, donor type, donor heavy atom, donor atom, acceptor molecule, acceptor atom, score
      L1  H     4    49       P1  7948  2.00
      L1  H     7    33       P1  7948  1.00
      L1  H    13    50       P1  8028  1.55

> <Gold.PLP.Chemscore.Internal.Correction>
0.0617

> <Gold.Rescore>
     Score         DG    S(hbond)    S(metal)    S(lipo)     H(rot)  DE(clash)    DE(int)     intcor
     16.44     -17.10       2.99        0.00      80.36       3.04       0.06       0.59       ----

> <Gold.Chemscore.Fitness>
16.4442

> <Gold.Chemscore.DG>
-17.0984

> <Gold.Chemscore.ZeroCoef>
-5.4800

> <Gold.Chemscore.Hbond>
2.9919

> <Gold.Chemscore.Metal>
0.0000

> <Gold.Chemscore.Lipo>
80.3598

> <Gold.Chemscore.Internal_Hbond>
0.0000

> <Gold.Chemscore.DEClash>
0.0594

> <Gold.Chemscore.DEInternal>
0.5949

> <Gold.Chemscore.Rot>
3.0378

> <Gold.Chemscore.Internal.Correction>
   9.000000E+99

> <Gold.Chemscore.Hbonds>
donor molecule, donor type, donor heavy atom, donor atom, acceptor molecule, acceptor atom, score
      L1  H     4    49       P1  7948  1.00
      L1  H     7    33       P1  7948  1.00
      L1  H    13    50       P1  8028  0.65

> <Gold.Chemscore.Hbond.Weighted>
-9.9930

> <Gold.Chemscore.Metal.Weighted>
-0.0000

> <Gold.Chemscore.Lipo.Weighted>
-9.4021

> <Gold.Chemscore.Internal_Hbond.Weighted>
0.0000

> <Gold.Chemscore.DEClash.Weighted>
0.0594

> <Gold.Chemscore.DEInternal.Weighted>
0.5949

> <Gold.Chemscore.Rot.Weighted>
7.7767

> <Gold.Chemscore.Internal.Correction.Weighted>
   9.000000E+99

> <Gold.Protein.RotatedTorsions>
[ 6907 6896 6895 6894 ] final  -86.64 input  -60.11 | X-H torsion
[ 7974 7965 7964 7962 ] final -102.08 input  175.53 | X-H torsion
[ 8008 7997 7996 7995 ] final   17.08 input   59.86 | X-H torsion
[ 10167 10162 10161 10158 ] final   85.64 input  -65.29 | X-H torsion
[ 10718 10713 10712 10709 ] final  -18.56 input   66.30 | X-H torsion
[ 10763 10752 10751 10750 ] final  165.69 input  -60.55 | X-H torsion
[ 11005 11000 10999 10996 ] final  -32.66 input  -57.11 | X-H torsion

> <Gold.Protein.ActiveResidues>
 VAL166  LYS551  ARG553  GLY616  TRP617  ASP618  TYR619  PRO620  LYS621  CYS622 
 ASP623  PHE694  ASN695  SER759  ASP760  ASP761  ALA762  ILE779  LEU786  VAL792 
 PHE793  MET794  SER795  GLU796  ALA797  LYS798  CYS799  TRP800  GLU811  SER814 

> <Gold.Protein.RotatedAtoms>
  150.6866  134.3019  159.4709 H   0  0  0  0  0  0  0  0  0  0  0  0  # atno 6907 bound_to 6896
  152.0914  134.9402  160.0581 H   0  0  0  0  0  0  0  0  0  0  0  0  # atno 6908 bound_to 6896
  152.0716  133.4075  159.4499 H   0  0  0  0  0  0  0  0  0  0  0  0  # atno 6909 bound_to 6896
  145.2733  140.9305  143.2973 H   0  0  0  0  0  0  0  0  0  0  0  0  # atno 7974 bound_to 7965
  154.8862  140.2980  155.5397 H   0  0  0  0  0  0  0  0  0  0  0  0  # atno 8008 bound_to 7997
  156.3021  140.2433  156.3805 H   0  0  0  0  0  0  0  0  0  0  0  0  # atno 8009 bound_to 7997
  154.8666  140.0403  157.1687 H   0  0  0  0  0  0  0  0  0  0  0  0  # atno 8010 bound_to 7997
  139.8956  144.6359  150.8691 H   0  0  0  0  0  0  0  0  0  0  0  0  # atno 10167 bound_to 10162
  156.5579  130.4718  149.6421 H   0  0  0  0  0  0  0  0  0  0  0  0  # atno 10718 bound_to 10713
  154.3279  135.2755  155.2487 H   0  0  0  0  0  0  0  0  0  0  0  0  # atno 10763 bound_to 10752
  154.4812  135.5858  153.6394 H   0  0  0  0  0  0  0  0  0  0  0  0  # atno 10764 bound_to 10752
  152.9869  135.6112  154.3469 H   0  0  0  0  0  0  0  0  0  0  0  0  # atno 10765 bound_to 10752
  140.9570  133.7186  156.1310 H   0  0  0  0  0  0  0  0  0  0  0  0  # atno 11005 bound_to 11000
  144.9316  139.4292  143.6492 LP  0  0  0  0  0  0  0  0  0  0  0  0  # atno 17320 bound_to 7965
  146.3239  139.8229  142.8923 LP  0  0  0  0  0  0  0  0  0  0  0  0  # atno 17321 bound_to 7965
  140.7717  143.3476  151.2080 LP  0  0  0  0  0  0  0  0  0  0  0  0  # atno 17342 bound_to 10162
  139.7070  143.9439  152.2931 LP  0  0  0  0  0  0  0  0  0  0  0  0  # atno 17343 bound_to 10162
  156.2826  130.7079  151.1907 LP  0  0  0  0  0  0  0  0  0  0  0  0  # atno 17370 bound_to 10713
  157.7374  131.0552  150.5354 LP  0  0  0  0  0  0  0  0  0  0  0  0  # atno 17371 bound_to 10713
  140.7521  134.4033  157.5539 LP  0  0  0  0  0  0  0  0  0  0  0  0  # atno 17394 bound_to 11000
  139.8865  134.8906  156.2578 LP  0  0  0  0  0  0  0  0  0  0  0  0  # atno 17395 bound_to 11000

$$$$
