AV-unprocessed.smi:2296|AV-procd|sdf|9220|dock9
  -GOLD-   2272012443D 1   1.00000     0.00000
 Structure written by MMmdl.
 24 24  0  0  0  0  0  0  0  0  2 V2000
  145.5444  136.3247  150.1076 N   0  3  0  0  0  0  0  0  0  0  0  0
  145.2866  136.2360  151.5580 C   0  0  2  0  0  0  0  0  0  0  0  0
  145.9566  137.4111  152.2904 C   0  0  0  0  0  0  0  0  0  0  0  0
  145.7004  138.6211  151.6089 O   0  0  0  0  0  0  0  0  0  0  0  0
  145.7678  134.8811  152.1127 C   0  0  0  0  0  0  0  0  0  0  0  0
  145.2929  133.6961  151.2896 C   0  0  0  0  0  0  0  0  0  0  0  0
  143.9173  133.4712  151.0736 C   0  0  0  0  0  0  0  0  0  0  0  0
  143.5317  132.3535  150.3059 C   0  0  0  0  0  0  0  0  0  0  0  0
  144.4134  131.4837  149.7686 N   0  0  0  0  0  0  0  0  0  0  0  0
  145.7289  131.7061  149.9772 C   0  0  0  0  0  0  0  0  0  0  0  0
  146.2194  132.7932  150.7284 C   0  0  0  0  0  0  0  0  0  0  0  0
  145.4511  135.4100  149.6901 H   0  0  0  0  0  0  0  0  0  0  0  0
  146.4827  136.6681  149.9588 H   0  0  0  0  0  0  0  0  0  0  0  0
  144.2079  136.3051  151.7081 H   0  0  0  0  0  0  0  0  0  0  0  0
  145.5599  137.5045  153.3020 H   0  0  0  0  0  0  0  0  0  0  0  0
  147.0333  137.2607  152.3792 H   0  0  0  0  0  0  0  0  0  0  0  0
  145.1723  139.1752  152.1645 H   0  0  0  0  0  0  0  0  0  0  0  0
  146.8568  134.8661  152.1776 H   0  0  0  0  0  0  0  0  0  0  0  0
  145.4030  134.7490  153.1323 H   0  0  0  0  0  0  0  0  0  0  0  0
  143.1708  134.1369  151.4819 H   0  0  0  0  0  0  0  0  0  0  0  0
  142.4870  132.1519  150.1215 H   0  0  0  0  0  0  0  0  0  0  0  0
  146.4111  130.9959  149.5339 H   0  0  0  0  0  0  0  0  0  0  0  0
  147.2824  132.9271  150.8677 H   0  0  0  0  0  0  0  0  0  0  0  0
  144.8816  136.9590  149.6850 H   0  0  0  0  0  0  0  0  0  0  0  0
  1  2  1  0  0  0  0
  1 12  1  0  0  0  0
  1 13  1  0  0  0  0
  1 24  1  0  0  0  0
  2  3  1  0  0  0  0
  2  5  1  0  0  0  0
  2 14  1  0  0  0  0
  3  4  1  0  0  0  0
  3 15  1  0  0  0  0
  3 16  1  0  0  0  0
  4 17  1  0  0  0  0
  5  6  1  0  0  0  0
  5 18  1  0  0  0  0
  5 19  1  0  0  0  0
  6 11  1  0  0  0  0
  6  7  2  0  0  0  0
  7  8  1  0  0  0  0
  7 20  1  0  0  0  0
  8  9  2  0  0  0  0
  8 21  1  0  0  0  0
  9 10  1  0  0  0  0
 10 11  2  0  0  0  0
 10 22  1  0  0  0  0
 11 23  1  0  0  0  0
M  CHG  1   1   1
M  END
> <s_m_source_file>
AV-unprocessed.smi

> <i_m_source_file_index>
2296

> <i_lp_mmshare_version>
43012

> <i_f3d_flags>
0

> <s_epik_input>
W09IXVtDSDJdW0NAQEhdKFtOSDJdKVtDSDJdYzFbY0hdW2NIXW5bY0hdW2NIXTE=

> <s_epik_cmdline>
J2VwaWtfcHl0aG9uJywgJy1waCcsICc3LjAnLCAnLXRuJywgJzgnLCAnLW1hJywgJzIwMCcsICctbWV0YWxfYmluZGluZycsICctaW1hZScsICc8aW5maWxlLm1hZT4nLCAnLW9tYWUnLCAnPG91dGZpbGUubWFlPic=

> <r_epik_Ionization_Penalty>
0.0199414

> <r_epik_Ionization_Penalty_Charging>
0.0188044

> <r_epik_Ionization_Penalty_Neutral>
0.00113699

> <r_epik_State_Penalty>
0.00788343

> <r_epik_Charging_Adjusted_Penalty>
0.0266878

> <i_epik_Tot_Q>
1

> <i_epik_Tot_abs_Q>
1

> <r_epik_Metal_State_Penalty>
-0

> <b_epik_Metal_Only>
0

> <s_lp_Force_Field>
OPLS_2005

> <r_lp_Energy>
8.03463

> <b_lp_Chiralities_Consistent>
1

> <s_lp_Variant>
AV-unprocessed.smi:2296-1

> <Gold.Version>
5.8.1

> <Gold.Id.Protein>
6NUR|6NUR_protein|mol2

> <Gold.PLP.Fitness>
38.4993

> <Gold.PLP.PLP>
-24.4382

> <Gold.PLP.part.hbond>
-5.0000

> <Gold.PLP.part.metal>
0.0000

> <Gold.PLP.part.buried>
-3.4208

> <Gold.PLP.part.nonpolar>
-18.0549

> <Gold.PLP.part.repulsive>
0.2865

> <Gold.PLP.ligand.clash>
0.0000

> <Gold.PLP.ligand.torsion>
0.1374

> <Gold.PLP.Chemscore.Hbond>
2.6378

> <Gold.PLP.Chemscore.CHOScore>
2.1389

> <Gold.PLP.Chemscore.Metal>
0.0000

> <Gold.Chemscore.Hbonds>
donor molecule, donor type, donor heavy atom, donor atom, acceptor molecule, acceptor atom, score
      L1  H     1    12       P1  7921  0.24
      L1  H     1    24       P1 10171  0.99
      L1  H     4    17       P1 10175  1.00
      P1  H 10785 10796       L1     9  0.44
      L1  C     8    21       P1 10186  0.29
      L1  C     8    21       P1 10952  1.00
      L1  C    10    22       P1 10747  0.60

> <Gold.PLP.Chemscore.Internal.Correction>
0.0060

> <Gold.Rescore>
     Score         DG    S(hbond)    S(metal)    S(lipo)     H(rot)  DE(clash)    DE(int)     intcor
     16.63     -16.92       2.94        0.00      60.65       2.14       0.20       0.09       ----

> <Gold.Chemscore.Fitness>
16.6319

> <Gold.Chemscore.DG>
-16.9201

> <Gold.Chemscore.ZeroCoef>
-5.4800

> <Gold.Chemscore.Hbond>
2.9414

> <Gold.Chemscore.Metal>
0.0000

> <Gold.Chemscore.Lipo>
60.6464

> <Gold.Chemscore.Internal_Hbond>
0.0000

> <Gold.Chemscore.DEClash>
0.1977

> <Gold.Chemscore.DEInternal>
0.0904

> <Gold.Chemscore.Rot>
2.1405

> <Gold.Chemscore.Internal.Correction>
   9.000000E+99

> <Gold.Chemscore.Hbonds>
donor molecule, donor type, donor heavy atom, donor atom, acceptor molecule, acceptor atom, score
      L1  H     1    12       P1  7921  0.24
      L1  H     1    24       P1 10171  0.94
      L1  H     4    17       P1 10175  0.93
      P1  H 10785 10796       L1     9  0.19

> <Gold.Chemscore.Hbond.Weighted>
-9.8242

> <Gold.Chemscore.Metal.Weighted>
-0.0000

> <Gold.Chemscore.Lipo.Weighted>
-7.0956

> <Gold.Chemscore.Internal_Hbond.Weighted>
0.0000

> <Gold.Chemscore.DEClash.Weighted>
0.1977

> <Gold.Chemscore.DEInternal.Weighted>
0.0904

> <Gold.Chemscore.Rot.Weighted>
5.4797

> <Gold.Chemscore.Internal.Correction.Weighted>
   9.000000E+99

> <Gold.Protein.RotatedTorsions>
[ 6907 6896 6895 6894 ] final   29.33 input  -60.11 | X-H torsion
[ 7974 7965 7964 7962 ] final -106.70 input  175.53 | X-H torsion
[ 8008 7997 7996 7995 ] final   -4.48 input   59.86 | X-H torsion
[ 10167 10162 10161 10158 ] final  -24.87 input  -65.29 | X-H torsion
[ 10718 10713 10712 10709 ] final  -28.62 input   66.30 | X-H torsion
[ 10763 10752 10751 10750 ] final -129.00 input  -60.55 | X-H torsion
[ 11005 11000 10999 10996 ] final  143.31 input  -57.11 | X-H torsion

> <Gold.Protein.ActiveResidues>
 VAL166  LYS551  ARG553  GLY616  TRP617  ASP618  TYR619  PRO620  LYS621  CYS622 
 ASP623  PHE694  ASN695  SER759  ASP760  ASP761  ALA762  ILE779  LEU786  VAL792 
 PHE793  MET794  SER795  GLU796  ALA797  LYS798  CYS799  TRP800  GLU811  SER814 

> <Gold.Protein.RotatedAtoms>
  152.0300  134.9773  160.0572 H   0  0  0  0  0  0  0  0  0  0  0  0  # atno 6907 bound_to 6896
  152.1253  133.4372  159.4703 H   0  0  0  0  0  0  0  0  0  0  0  0  # atno 6908 bound_to 6896
  150.6852  134.2404  159.4513 H   0  0  0  0  0  0  0  0  0  0  0  0  # atno 6909 bound_to 6896
  145.2145  140.9110  143.3295 H   0  0  0  0  0  0  0  0  0  0  0  0  # atno 7974 bound_to 7965
  154.6138  140.2483  155.7635 H   0  0  0  0  0  0  0  0  0  0  0  0  # atno 8008 bound_to 7997
  156.2387  140.2941  156.0333 H   0  0  0  0  0  0  0  0  0  0  0  0  # atno 8009 bound_to 7997
  155.2008  140.0394  157.2907 H   0  0  0  0  0  0  0  0  0  0  0  0  # atno 8010 bound_to 7997
  140.7287  143.4315  151.0795 H   0  0  0  0  0  0  0  0  0  0  0  0  # atno 10167 bound_to 10162
  156.4230  130.4430  149.7171 H   0  0  0  0  0  0  0  0  0  0  0  0  # atno 10718 bound_to 10713
  154.8757  135.3910  154.3849 H   0  0  0  0  0  0  0  0  0  0  0  0  # atno 10763 bound_to 10752
  153.4591  135.7029  153.6066 H   0  0  0  0  0  0  0  0  0  0  0  0  # atno 10764 bound_to 10752
  153.4572  135.3820  155.2286 H   0  0  0  0  0  0  0  0  0  0  0  0  # atno 10765 bound_to 10752
  140.0544  134.9239  157.1073 H   0  0  0  0  0  0  0  0  0  0  0  0  # atno 11005 bound_to 11000
  144.9824  139.3770  143.6255 LP  0  0  0  0  0  0  0  0  0  0  0  0  # atno 17320 bound_to 7965
  146.3390  139.8970  142.8800 LP  0  0  0  0  0  0  0  0  0  0  0  0  # atno 17321 bound_to 7965
  139.7972  143.8134  152.3159 LP  0  0  0  0  0  0  0  0  0  0  0  0  # atno 17342 bound_to 10162
  139.8139  144.7324  150.9661 LP  0  0  0  0  0  0  0  0  0  0  0  0  # atno 17343 bound_to 10162
  156.4104  130.7719  151.2732 LP  0  0  0  0  0  0  0  0  0  0  0  0  # atno 17370 bound_to 10713
  157.7508  131.0213  150.3745 LP  0  0  0  0  0  0  0  0  0  0  0  0  # atno 17371 bound_to 10713
  140.3868  134.2228  155.7168 LP  0  0  0  0  0  0  0  0  0  0  0  0  # atno 17394 bound_to 11000
  141.1945  133.8127  157.0755 LP  0  0  0  0  0  0  0  0  0  0  0  0  # atno 17395 bound_to 11000

$$$$
