AV-unprocessed.smi:3193|AV-procd|sdf|12204|dock5
  -GOLD-   2272018 43D 1   1.00000     0.00000
 Structure written by MMmdl.
 40 41  0  0  0  0  0  0  0  0  2 V2000
  152.8057  141.3681  158.9348 C   0  0  0  0  0  0  0  0  0  0  0  0
  152.1655  142.6403  159.5220 C   0  0  1  0  0  0  0  0  0  0  0  0
  152.8186  142.9624  160.8830 C   0  0  0  0  0  0  0  0  0  0  0  0
  152.1832  144.1883  161.5522 C   0  0  0  0  0  0  0  0  0  0  0  0
  152.2489  145.4080  160.6270 C   0  0  0  0  0  0  0  0  0  0  0  0
  151.5924  145.1029  159.2737 C   0  0  0  0  0  0  0  0  0  0  0  0
  152.2276  143.8785  158.5771 C   0  0  2  0  0  0  0  0  0  0  0  0
  151.5387  143.6542  157.2120 C   0  0  0  0  0  0  0  0  0  0  0  0
  150.1986  143.0553  157.3635 N   0  3  0  0  0  0  0  0  0  0  0  0
  150.1426  141.6048  157.0951 C   0  0  0  0  0  0  0  0  0  0  0  0
  149.8671  141.3246  155.6097 C   0  0  0  0  0  0  0  0  0  0  0  0
  148.4521  141.4124  155.2990 N   0  0  0  0  0  0  0  0  0  0  0  0
  147.8446  141.1495  154.0782 C   0  0  0  0  0  0  0  0  0  0  0  0
  146.4986  141.3819  154.2506 C   0  0  0  0  0  0  0  0  0  0  0  0
  146.2572  141.7828  155.5624 N   0  0  0  0  0  0  0  0  0  0  0  0
  147.4584  141.7701  156.1245 C   0  0  0  0  0  0  0  0  0  0  0  0
  153.8309  141.5497  158.6105 H   0  0  0  0  0  0  0  0  0  0  0  0
  152.2413  140.9851  158.0853 H   0  0  0  0  0  0  0  0  0  0  0  0
  152.8320  140.5663  159.6732 H   0  0  0  0  0  0  0  0  0  0  0  0
  151.1153  142.4125  159.7111 H   0  0  0  0  0  0  0  0  0  0  0  0
  152.7309  142.1057  161.5522 H   0  0  0  0  0  0  0  0  0  0  0  0
  153.8871  143.1366  160.7472 H   0  0  0  0  0  0  0  0  0  0  0  0
  151.1442  143.9727  161.8041 H   0  0  0  0  0  0  0  0  0  0  0  0
  152.6919  144.4057  162.4918 H   0  0  0  0  0  0  0  0  0  0  0  0
  151.7547  146.2586  161.0975 H   0  0  0  0  0  0  0  0  0  0  0  0
  153.2890  145.6992  160.4744 H   0  0  0  0  0  0  0  0  0  0  0  0
  150.5247  144.9313  159.4195 H   0  0  0  0  0  0  0  0  0  0  0  0
  151.6761  145.9825  158.6345 H   0  0  0  0  0  0  0  0  0  0  0  0
  153.2755  144.1230  158.3941 H   0  0  0  0  0  0  0  0  0  0  0  0
  151.4731  144.5962  156.6656 H   0  0  0  0  0  0  0  0  0  0  0  0
  152.1281  142.9739  156.5957 H   0  0  0  0  0  0  0  0  0  0  0  0
  149.8617  143.2324  158.2990 H   0  0  0  0  0  0  0  0  0  0  0  0
  151.0861  141.1416  157.3876 H   0  0  0  0  0  0  0  0  0  0  0  0
  149.3628  141.1578  157.7126 H   0  0  0  0  0  0  0  0  0  0  0  0
  150.3984  142.0456  154.9872 H   0  0  0  0  0  0  0  0  0  0  0  0
  150.2331  140.3357  155.3296 H   0  0  0  0  0  0  0  0  0  0  0  0
  148.4036  140.8317  153.2102 H   0  0  0  0  0  0  0  0  0  0  0  0
  145.6923  141.2928  153.5372 H   0  0  0  0  0  0  0  0  0  0  0  0
  147.6198  142.0393  157.1582 H   0  0  0  0  0  0  0  0  0  0  0  0
  149.5828  143.5144  156.7074 H   0  0  0  0  0  0  0  0  0  0  0  0
  1  2  1  0  0  0  0
  1 17  1  0  0  0  0
  1 18  1  0  0  0  0
  1 19  1  0  0  0  0
  2  7  1  0  0  0  0
  2  3  1  0  0  0  0
  2 20  1  0  0  0  0
  3  4  1  0  0  0  0
  3 21  1  0  0  0  0
  3 22  1  0  0  0  0
  4  5  1  0  0  0  0
  4 23  1  0  0  0  0
  4 24  1  0  0  0  0
  5  6  1  0  0  0  0
  5 25  1  0  0  0  0
  5 26  1  0  0  0  0
  6  7  1  0  0  0  0
  6 27  1  0  0  0  0
  6 28  1  0  0  0  0
  7  8  1  0  0  0  0
  7 29  1  0  0  0  0
  8  9  1  0  0  0  0
  8 30  1  0  0  0  0
  8 31  1  0  0  0  0
  9 10  1  0  0  0  0
  9 32  1  0  0  0  0
  9 40  1  0  0  0  0
 10 11  1  0  0  0  0
 10 33  1  0  0  0  0
 10 34  1  0  0  0  0
 11 12  1  0  0  0  0
 11 35  1  0  0  0  0
 11 36  1  0  0  0  0
 12 16  1  0  0  0  0
 12 13  1  0  0  0  0
 13 14  2  0  0  0  0
 13 37  1  0  0  0  0
 14 15  1  0  0  0  0
 14 38  1  0  0  0  0
 15 16  2  0  0  0  0
 16 39  1  0  0  0  0
M  CHG  1   9   1
M  END
> <s_m_source_file>
AV-unprocessed.smi

> <i_m_source_file_index>
3193

> <i_lp_mmshare_version>
43012

> <i_f3d_flags>
0

> <s_epik_input>
W0NIM11bQ0BASF0xW0NIMl1bQ0gyXVtDSDJdW0NIMl1bQ0BIXTFbQ0gyXVtOSF1bQ0gyXVtDSDJdbjJbY0hdW2NIXW5bY0hdMg==

> <s_epik_cmdline>
J2VwaWtfcHl0aG9uJywgJy1waCcsICc3LjAnLCAnLXRuJywgJzgnLCAnLW1hJywgJzIwMCcsICctbWV0YWxfYmluZGluZycsICctaW1hZScsICc8aW5maWxlLm1hZT4nLCAnLW9tYWUnLCAnPG91dGZpbGUubWFlPic=

> <r_lp_tautomer_probability>
1

> <r_epik_Ionization_Penalty>
0.0503046

> <r_epik_Ionization_Penalty_Charging>
0.0503046

> <r_epik_Ionization_Penalty_Neutral>
0

> <r_epik_State_Penalty>
0.0981804

> <r_epik_Charging_Adjusted_Penalty>
0.148485

> <i_epik_Tot_Q>
1

> <i_epik_Tot_abs_Q>
1

> <r_epik_Metal_State_Penalty>
0.000105854

> <b_epik_Metal_Only>
0

> <s_lp_Force_Field>
OPLS_2005

> <r_lp_Energy>
18.894

> <b_lp_Chiralities_Consistent>
1

> <s_lp_Variant>
AV-unprocessed.smi:3193-4

> <Gold.Version>
5.8.1

> <Gold.Id.Protein>
6NUR|6NUR_protein|mol2

> <Gold.PLP.Fitness>
51.6563

> <Gold.PLP.PLP>
-41.0302

> <Gold.PLP.part.hbond>
-1.0000

> <Gold.PLP.part.metal>
0.0000

> <Gold.PLP.part.buried>
-4.4286

> <Gold.PLP.part.nonpolar>
-36.5744

> <Gold.PLP.part.repulsive>
0.1139

> <Gold.PLP.ligand.clash>
0.0000

> <Gold.PLP.ligand.torsion>
0.6938

> <Gold.PLP.Chemscore.Hbond>
2.0000

> <Gold.PLP.Chemscore.CHOScore>
2.0000

> <Gold.PLP.Chemscore.Metal>
0.0000

> <Gold.Chemscore.Hbonds>
donor molecule, donor type, donor heavy atom, donor atom, acceptor molecule, acceptor atom, score
      L1  H     9    40       P1  8028  2.00
      L1  C    13    37       P1  7957  1.00
      L1  C    14    38       P1 10175  1.00

> <Gold.PLP.Chemscore.Internal.Correction>
0.0136

> <Gold.Rescore>
     Score         DG    S(hbond)    S(metal)    S(lipo)     H(rot)  DE(clash)    DE(int)     intcor
     17.14     -18.06       0.99        0.00     120.72       1.89       0.16       0.76       ----

> <Gold.Chemscore.Fitness>
17.1388

> <Gold.Chemscore.DG>
-18.0577

> <Gold.Chemscore.ZeroCoef>
-5.4800

> <Gold.Chemscore.Hbond>
0.9853

> <Gold.Chemscore.Metal>
0.0000

> <Gold.Chemscore.Lipo>
120.7177

> <Gold.Chemscore.Internal_Hbond>
0.0000

> <Gold.Chemscore.DEClash>
0.1574

> <Gold.Chemscore.DEInternal>
0.7614

> <Gold.Chemscore.Rot>
1.8895

> <Gold.Chemscore.Internal.Correction>
   9.000000E+99

> <Gold.Chemscore.Hbonds>
donor molecule, donor type, donor heavy atom, donor atom, acceptor molecule, acceptor atom, score
      L1  H     9    40       P1  8028  0.99

> <Gold.Chemscore.Hbond.Weighted>
-3.2908

> <Gold.Chemscore.Metal.Weighted>
-0.0000

> <Gold.Chemscore.Lipo.Weighted>
-14.1240

> <Gold.Chemscore.Internal_Hbond.Weighted>
0.0000

> <Gold.Chemscore.DEClash.Weighted>
0.1574

> <Gold.Chemscore.DEInternal.Weighted>
0.7614

> <Gold.Chemscore.Rot.Weighted>
4.8371

> <Gold.Chemscore.Internal.Correction.Weighted>
   9.000000E+99

> <Gold.Protein.RotatedTorsions>
[ 6907 6896 6895 6894 ] final  160.78 input  -60.11 | X-H torsion
[ 7974 7965 7964 7962 ] final   89.54 input  175.53 | X-H torsion
[ 8008 7997 7996 7995 ] final  -46.68 input   59.86 | X-H torsion
[ 10167 10162 10161 10158 ] final -121.79 input  -65.29 | X-H torsion
[ 10718 10713 10712 10709 ] final   38.29 input   66.30 | X-H torsion
[ 10763 10752 10751 10750 ] final   19.15 input  -60.55 | X-H torsion
[ 11005 11000 10999 10996 ] final  -90.52 input  -57.11 | X-H torsion

> <Gold.Protein.ActiveResidues>
 VAL166  LYS551  ARG553  GLY616  TRP617  ASP618  TYR619  PRO620  LYS621  CYS622 
 ASP623  PHE694  ASN695  SER759  ASP760  ASP761  ALA762  ILE779  LEU786  VAL792 
 PHE793  MET794  SER795  GLU796  ALA797  LYS798  CYS799  TRP800  GLU811  SER814 

> <Gold.Protein.RotatedAtoms>
  151.9654  133.3708  159.4050 H   0  0  0  0  0  0  0  0  0  0  0  0  # atno 6907 bound_to 6896
  150.6957  134.4196  159.5208 H   0  0  0  0  0  0  0  0  0  0  0  0  # atno 6908 bound_to 6896
  152.1891  134.8687  160.0570 H   0  0  0  0  0  0  0  0  0  0  0  0  # atno 6909 bound_to 6896
  145.5310  139.2283  143.2619 H   0  0  0  0  0  0  0  0  0  0  0  0  # atno 7974 bound_to 7965
  154.4009  140.1365  156.4051 H   0  0  0  0  0  0  0  0  0  0  0  0  # atno 8008 bound_to 7997
  155.7787  140.3482  155.5265 H   0  0  0  0  0  0  0  0  0  0  0  0  # atno 8009 bound_to 7997
  155.8695  140.0969  157.1550 H   0  0  0  0  0  0  0  0  0  0  0  0  # atno 8010 bound_to 7997
  140.0212  143.5342  152.2219 H   0  0  0  0  0  0  0  0  0  0  0  0  # atno 10167 bound_to 10162
  157.3571  130.7629  149.7020 H   0  0  0  0  0  0  0  0  0  0  0  0  # atno 10718 bound_to 10713
  153.1187  135.6714  153.9373 H   0  0  0  0  0  0  0  0  0  0  0  0  # atno 10763 bound_to 10752
  153.8895  135.3048  155.3448 H   0  0  0  0  0  0  0  0  0  0  0  0  # atno 10764 bound_to 10752
  154.7601  135.4992  153.9526 H   0  0  0  0  0  0  0  0  0  0  0  0  # atno 10765 bound_to 10752
  141.1564  133.7697  156.9750 H   0  0  0  0  0  0  0  0  0  0  0  0  # atno 11005 bound_to 11000
  146.2044  140.6126  142.9088 LP  0  0  0  0  0  0  0  0  0  0  0  0  # atno 17320 bound_to 7965
  144.7626  140.5457  143.6725 LP  0  0  0  0  0  0  0  0  0  0  0  0  # atno 17321 bound_to 7965
  139.6138  144.7615  151.2891 LP  0  0  0  0  0  0  0  0  0  0  0  0  # atno 17342 bound_to 10162
  140.7341  143.6774  150.8030 LP  0  0  0  0  0  0  0  0  0  0  0  0  # atno 17343 bound_to 10162
  155.9731  130.4124  150.4031 LP  0  0  0  0  0  0  0  0  0  0  0  0  # atno 17370 bound_to 10713
  157.2102  131.0458  151.2603 LP  0  0  0  0  0  0  0  0  0  0  0  0  # atno 17371 bound_to 10713
  140.1104  134.9480  157.2057 LP  0  0  0  0  0  0  0  0  0  0  0  0  # atno 17394 bound_to 11000
  140.3201  134.2926  155.7248 LP  0  0  0  0  0  0  0  0  0  0  0  0  # atno 17395 bound_to 11000

$$$$
