AV-unprocessed.smi:2962|AV-procd|sdf|11318|dock2
  -GOLD-   2272016223D 1   1.00000     0.00000
 Structure written by MMmdl.
 37 38  0  0  0  0  0  0  0  0  2 V2000
  150.9584  138.4069  154.1620 C   0  0  0  0  0  0  0  0  0  0  0  0
  151.7239  139.4518  154.7352 O   0  0  0  0  0  0  0  0  0  0  0  0
  152.3025  139.0842  155.9771 C   0  0  0  0  0  0  0  0  0  0  0  0
  151.4233  139.5981  157.1254 C   0  0  0  0  0  0  0  0  0  0  0  0
  151.2091  141.0501  157.0549 N   0  0  0  0  0  0  0  0  0  0  0  0
  150.4833  141.7958  156.1766 C   0  0  0  0  0  0  0  0  0  0  0  0
  149.5408  141.1933  154.8157 S   0  0  0  0  0  0  0  0  0  0  0  0
  147.8771  140.9223  155.4899 C   0  0  1  0  0  0  0  0  0  0  0  0
  147.7262  141.6308  156.8450 C   0  0  0  0  0  0  0  0  0  0  0  0
  146.7924  141.3706  154.5023 C   0  0  0  0  0  0  0  0  0  0  0  0
  145.9602  140.4324  154.0421 N   0  0  0  0  0  0  0  0  0  0  0  0
  146.7150  142.5437  154.1431 O   0  0  0  0  0  0  0  0  0  0  0  0
  150.5971  143.1007  156.5459 N   0  3  0  0  0  0  0  0  0  0  0  0
  151.4155  143.1941  157.6731 C   0  0  0  0  0  0  0  0  0  0  0  0
  151.8283  144.2993  158.4107 C   0  0  0  0  0  0  0  0  0  0  0  0
  152.6713  144.0456  159.5127 C   0  0  0  0  0  0  0  0  0  0  0  0
  153.0718  142.7352  159.8453 C   0  0  0  0  0  0  0  0  0  0  0  0
  152.6463  141.6216  159.0915 C   0  0  0  0  0  0  0  0  0  0  0  0
  151.8129  141.8809  158.0041 C   0  0  0  0  0  0  0  0  0  0  0  0
  150.5271  138.7430  153.2192 H   0  0  0  0  0  0  0  0  0  0  0  0
  150.1401  138.1099  154.8192 H   0  0  0  0  0  0  0  0  0  0  0  0
  151.5778  137.5328  153.9562 H   0  0  0  0  0  0  0  0  0  0  0  0
  152.3955  137.9990  156.0410 H   0  0  0  0  0  0  0  0  0  0  0  0
  153.3068  139.5025  156.0578 H   0  0  0  0  0  0  0  0  0  0  0  0
  150.4464  139.1149  157.0930 H   0  0  0  0  0  0  0  0  0  0  0  0
  151.8570  139.3509  158.0948 H   0  0  0  0  0  0  0  0  0  0  0  0
  147.7720  139.8494  155.6581 H   0  0  0  0  0  0  0  0  0  0  0  0
  146.7295  141.4814  157.2620 H   0  0  0  0  0  0  0  0  0  0  0  0
  147.8948  142.7051  156.7581 H   0  0  0  0  0  0  0  0  0  0  0  0
  148.4442  141.2426  157.5680 H   0  0  0  0  0  0  0  0  0  0  0  0
  145.2388  140.6745  153.3788 H   0  0  0  0  0  0  0  0  0  0  0  0
  146.0670  139.4767  154.3509 H   0  0  0  0  0  0  0  0  0  0  0  0
  151.5244  145.3045  158.1576 H   0  0  0  0  0  0  0  0  0  0  0  0
  153.0186  144.8729  160.1146 H   0  0  0  0  0  0  0  0  0  0  0  0
  153.7192  142.5807  160.6963 H   0  0  0  0  0  0  0  0  0  0  0  0
  152.9595  140.6216  159.3531 H   0  0  0  0  0  0  0  0  0  0  0  0
  150.1533  143.8674  156.0570 H   0  0  0  0  0  0  0  0  0  0  0  0
  1  2  1  0  0  0  0
  1 20  1  0  0  0  0
  1 21  1  0  0  0  0
  1 22  1  0  0  0  0
  2  3  1  0  0  0  0
  3  4  1  0  0  0  0
  3 23  1  0  0  0  0
  3 24  1  0  0  0  0
  4  5  1  0  0  0  0
  4 25  1  0  0  0  0
  4 26  1  0  0  0  0
  5 19  1  0  0  0  0
  5  6  1  0  0  0  0
  6  7  1  0  0  0  0
  6 13  2  0  0  0  0
  7  8  1  0  0  0  0
  8  9  1  0  0  0  0
  8 10  1  0  0  0  0
  8 27  1  0  0  0  0
  9 28  1  0  0  0  0
  9 29  1  0  0  0  0
  9 30  1  0  0  0  0
 10 11  1  0  0  0  0
 10 12  2  0  0  0  0
 11 31  1  0  0  0  0
 11 32  1  0  0  0  0
 13 14  1  0  0  0  0
 13 37  1  0  0  0  0
 14 19  2  0  0  0  0
 14 15  1  0  0  0  0
 15 16  2  0  0  0  0
 15 33  1  0  0  0  0
 16 17  1  0  0  0  0
 16 34  1  0  0  0  0
 17 18  2  0  0  0  0
 17 35  1  0  0  0  0
 18 19  1  0  0  0  0
 18 36  1  0  0  0  0
M  CHG  1  13   1
M  END
> <s_m_source_file>
AV-unprocessed.smi

> <i_m_source_file_index>
2962

> <i_lp_mmshare_version>
43012

> <i_f3d_flags>
0

> <s_epik_input>
W2NIXTFbY0hdW2NIXVtjSF1jKGMxMiluKFtDSDJdW0NIMl1PW0NIM10pYyhuMilTW0NASF0oW0NIM10pQyg9TylbTkgyXQ==

> <s_epik_cmdline>
J2VwaWtfcHl0aG9uJywgJy1waCcsICc3LjAnLCAnLXRuJywgJzgnLCAnLW1hJywgJzIwMCcsICctbWV0YWxfYmluZGluZycsICctaW1hZScsICc8aW5maWxlLm1hZT4nLCAnLW9tYWUnLCAnPG91dGZpbGUubWFlPic=

> <r_epik_Ionization_Penalty>
2.01771

> <r_epik_Ionization_Penalty_Charging>
2.01771

> <r_epik_Ionization_Penalty_Neutral>
3.318e-07

> <r_epik_State_Penalty>
2.14773

> <r_epik_Charging_Adjusted_Penalty>
4.16544

> <i_epik_Tot_Q>
1

> <i_epik_Tot_abs_Q>
1

> <r_epik_Metal_State_Penalty>
2.1675

> <b_epik_Metal_Only>
0

> <s_lp_Force_Field>
OPLS_2005

> <r_lp_Energy>
8.26224

> <b_lp_Chiralities_Consistent>
1

> <s_lp_Variant>
AV-unprocessed.smi:2962-4

> <Gold.Version>
5.8.1

> <Gold.Id.Protein>
6NUR|6NUR_protein|mol2

> <Gold.PLP.Fitness>
52.2375

> <Gold.PLP.PLP>
-42.8523

> <Gold.PLP.part.hbond>
-2.8037

> <Gold.PLP.part.metal>
0.0000

> <Gold.PLP.part.buried>
-6.8002

> <Gold.PLP.part.nonpolar>
-34.2197

> <Gold.PLP.part.repulsive>
0.3224

> <Gold.PLP.ligand.clash>
0.0000

> <Gold.PLP.ligand.torsion>
1.3461

> <Gold.PLP.Chemscore.Hbond>
4.0000

> <Gold.PLP.Chemscore.CHOScore>
0.0000

> <Gold.PLP.Chemscore.Metal>
0.0000

> <Gold.Chemscore.Hbonds>
donor molecule, donor type, donor heavy atom, donor atom, acceptor molecule, acceptor atom, score
      L1  H    11    31       P1 10175  1.00
      L1  H    13    37       P1  8028  2.00
      P1  H  7989  7998       L1     2  1.00

> <Gold.PLP.Chemscore.Internal.Correction>
0.0774

> <Gold.Rescore>
     Score         DG    S(hbond)    S(metal)    S(lipo)     H(rot)  DE(clash)    DE(int)     intcor
     17.76     -20.44       2.90        0.00     101.38       2.57       0.03       2.65       ----

> <Gold.Chemscore.Fitness>
17.7641

> <Gold.Chemscore.DG>
-20.4433

> <Gold.Chemscore.ZeroCoef>
-5.4800

> <Gold.Chemscore.Hbond>
2.9004

> <Gold.Chemscore.Metal>
0.0000

> <Gold.Chemscore.Lipo>
101.3774

> <Gold.Chemscore.Internal_Hbond>
0.0000

> <Gold.Chemscore.DEClash>
0.0337

> <Gold.Chemscore.DEInternal>
2.6455

> <Gold.Chemscore.Rot>
2.5723

> <Gold.Chemscore.Internal.Correction>
   9.000000E+99

> <Gold.Chemscore.Hbonds>
donor molecule, donor type, donor heavy atom, donor atom, acceptor molecule, acceptor atom, score
      L1  H    11    31       P1 10175  0.90
      L1  H    13    37       P1  8028  0.94
      P1  H  7989  7998       L1     2  0.49

> <Gold.Chemscore.Hbond.Weighted>
-9.6872

> <Gold.Chemscore.Metal.Weighted>
-0.0000

> <Gold.Chemscore.Lipo.Weighted>
-11.8612

> <Gold.Chemscore.Internal_Hbond.Weighted>
0.0000

> <Gold.Chemscore.DEClash.Weighted>
0.0337

> <Gold.Chemscore.DEInternal.Weighted>
2.6455

> <Gold.Chemscore.Rot.Weighted>
6.5850

> <Gold.Chemscore.Internal.Correction.Weighted>
   9.000000E+99

> <Gold.Protein.RotatedTorsions>
[ 6907 6896 6895 6894 ] final   27.94 input  -60.11 | X-H torsion
[ 7974 7965 7964 7962 ] final   10.81 input  175.53 | X-H torsion
[ 8008 7997 7996 7995 ] final -152.62 input   59.86 | X-H torsion
[ 10167 10162 10161 10158 ] final   75.62 input  -65.29 | X-H torsion
[ 10718 10713 10712 10709 ] final  -75.65 input   66.30 | X-H torsion
[ 10763 10752 10751 10750 ] final -176.10 input  -60.55 | X-H torsion
[ 11005 11000 10999 10996 ] final  146.37 input  -57.11 | X-H torsion

> <Gold.Protein.ActiveResidues>
 VAL166  LYS551  ARG553  GLY616  TRP617  ASP618  TYR619  PRO620  LYS621  CYS622 
 ASP623  PHE694  ASN695  SER759  ASP760  ASP761  ALA762  ILE779  LEU786  VAL792 
 PHE793  MET794  SER795  GLU796  ALA797  LYS798  CYS799  TRP800  GLU811  SER814 

> <Gold.Protein.RotatedAtoms>
  152.0097  134.9883  160.0567 H   0  0  0  0  0  0  0  0  0  0  0  0  # atno 6907 bound_to 6896
  152.1441  133.4477  159.4789 H   0  0  0  0  0  0  0  0  0  0  0  0  # atno 6908 bound_to 6896
  150.6868  134.2188  159.4431 H   0  0  0  0  0  0  0  0  0  0  0  0  # atno 6909 bound_to 6896
  146.2382  139.9579  142.8462 H   0  0  0  0  0  0  0  0  0  0  0  0  # atno 7974 bound_to 7965
  155.6580  140.0719  157.2564 H   0  0  0  0  0  0  0  0  0  0  0  0  # atno 8008 bound_to 7997
  154.4148  140.1721  156.1796 H   0  0  0  0  0  0  0  0  0  0  0  0  # atno 8009 bound_to 7997
  155.9721  140.3361  155.6588 H   0  0  0  0  0  0  0  0  0  0  0  0  # atno 8010 bound_to 7997
  140.0011  144.5686  150.7737 H   0  0  0  0  0  0  0  0  0  0  0  0  # atno 10167 bound_to 10162
  156.0201  130.4446  150.3074 H   0  0  0  0  0  0  0  0  0  0  0  0  # atno 10718 bound_to 10713
  154.5764  135.2832  155.0777 H   0  0  0  0  0  0  0  0  0  0  0  0  # atno 10763 bound_to 10752
  154.2130  135.6404  153.5125 H   0  0  0  0  0  0  0  0  0  0  0  0  # atno 10764 bound_to 10752
  153.0074  135.5496  154.6403 H   0  0  0  0  0  0  0  0  0  0  0  0  # atno 10765 bound_to 10752
  140.0788  134.9109  157.1466 H   0  0  0  0  0  0  0  0  0  0  0  0  # atno 11005 bound_to 11000
  145.1799  140.9762  143.4272 LP  0  0  0  0  0  0  0  0  0  0  0  0  # atno 17320 bound_to 7965
  144.9952  139.3651  143.6195 LP  0  0  0  0  0  0  0  0  0  0  0  0  # atno 17321 bound_to 7965
  140.7418  143.2824  151.3561 LP  0  0  0  0  0  0  0  0  0  0  0  0  # atno 17342 bound_to 10162
  139.6271  144.0792  152.2444 LP  0  0  0  0  0  0  0  0  0  0  0  0  # atno 17343 bound_to 10162
  157.1176  131.0238  151.3022 LP  0  0  0  0  0  0  0  0  0  0  0  0  # atno 17370 bound_to 10713
  157.4654  130.7677  149.7274 LP  0  0  0  0  0  0  0  0  0  0  0  0  # atno 17371 bound_to 10713
  140.3518  134.2590  155.7197 LP  0  0  0  0  0  0  0  0  0  0  0  0  # atno 17394 bound_to 11000
  141.2039  133.7900  157.0315 LP  0  0  0  0  0  0  0  0  0  0  0  0  # atno 17395 bound_to 11000

$$$$
