AV-unprocessed.smi:72|AV-procd|sdf|729|dock5
  -GOLD-   2262017 53D 1   1.00000     0.00000
 Structure written by MMmdl.
 28 29  0  0  0  0  0  0  0  0  2 V2000
  152.7804  141.3231  159.1271 N   0  0  0  0  0  0  0  0  0  0  0  0
  152.1797  141.1355  158.0345 C   0  0  0  0  0  0  0  0  0  0  0  0
  151.1923  142.0890  157.5787 N   0  0  0  0  0  0  0  0  0  0  0  0
  150.5763  141.8377  156.4646 C   0  0  0  0  0  0  0  0  0  0  0  0
  150.8416  140.6284  155.6916 N   0  0  0  0  0  0  0  0  0  0  0  0
  150.1279  140.3166  154.3838 C   0  0  2  0  0  0  0  0  0  0  0  0
  149.2155  141.3340  154.0810 O   0  0  0  0  0  0  0  0  0  0  0  0
  147.9069  140.9485  154.4921 C   0  0  1  0  0  0  0  0  0  0  0  0
  146.8297  141.8147  153.8162 C   0  0  0  0  0  0  0  0  0  0  0  0
  147.0239  143.1742  154.1441 O   0  0  0  0  0  0  0  0  0  0  0  0
  147.8896  139.4608  154.1289 C   0  0  1  0  0  0  0  0  0  0  0  0
  147.6105  139.2889  152.7484 O   0  0  0  0  0  0  0  0  0  0  0  0
  149.3031  139.0155  154.5037 C   0  0  1  0  0  0  0  0  0  0  0  0
  149.7786  137.9688  153.6778 O   0  0  0  0  0  0  0  0  0  0  0  0
  151.8530  139.7367  156.1418 C   0  0  0  0  0  0  0  0  0  0  0  0
  152.1045  138.7488  155.4512 O   0  0  0  0  0  0  0  0  0  0  0  0
  152.4991  140.0097  157.3094 N   0  5  0  0  0  0  0  0  0  0  0  0
  150.9131  140.2917  153.6261 H   0  0  0  0  0  0  0  0  0  0  0  0
  147.8252  141.0327  155.5776 H   0  0  0  0  0  0  0  0  0  0  0  0
  147.1357  138.9148  154.6968 H   0  0  0  0  0  0  0  0  0  0  0  0
  149.3063  138.6794  155.5418 H   0  0  0  0  0  0  0  0  0  0  0  0
  153.4452  140.5931  159.3370 H   0  0  0  0  0  0  0  0  0  0  0  0
  149.8311  142.5155  156.0490 H   0  0  0  0  0  0  0  0  0  0  0  0
  146.8341  141.6835  152.7337 H   0  0  0  0  0  0  0  0  0  0  0  0
  145.8402  141.5309  154.1756 H   0  0  0  0  0  0  0  0  0  0  0  0
  147.6968  143.2301  154.8049 H   0  0  0  0  0  0  0  0  0  0  0  0
  148.2014  139.8407  152.2585 H   0  0  0  0  0  0  0  0  0  0  0  0
  149.1145  137.7802  153.0311 H   0  0  0  0  0  0  0  0  0  0  0  0
  1  2  2  0  0  0  0
  1 22  1  0  0  0  0
  2 17  1  0  0  0  0
  2  3  1  0  0  0  0
  3  4  2  0  0  0  0
  4  5  1  0  0  0  0
  4 23  1  0  0  0  0
  5  6  1  0  0  0  0
  5 15  1  0  0  0  0
  6 18  1  0  0  0  0
  6 13  1  0  0  0  0
  6  7  1  0  0  0  0
  7  8  1  0  0  0  0
  8 19  1  0  0  0  0
  8  9  1  0  0  0  0
  8 11  1  0  0  0  0
  9 10  1  0  0  0  0
  9 24  1  0  0  0  0
  9 25  1  0  0  0  0
 10 26  1  0  0  0  0
 11 20  1  0  0  0  0
 11 12  1  0  0  0  0
 11 13  1  0  0  0  0
 12 27  1  0  0  0  0
 13 21  1  0  0  0  0
 13 14  1  0  0  0  0
 14 28  1  0  0  0  0
 15 16  2  0  0  0  0
 15 17  1  0  0  0  0
M  CHG  1  17  -1
M  END
> <s_m_source_file>
AV-unprocessed.smi

> <i_m_source_file_index>
72

> <i_lp_mmshare_version>
43012

> <i_f3d_flags>
0

> <s_epik_input>
W05IMl1jMW5bY0hdbihjKD1PKW4xKVtDQEBIXTJPW0NASF0oW0NIMl1bT0hdKVtDQEBIXShbT0hdKVtDQEhdMltPSF0=

> <s_epik_cmdline>
J2VwaWtfcHl0aG9uJywgJy1waCcsICc3LjAnLCAnLXRuJywgJzgnLCAnLW1hJywgJzIwMCcsICctbWV0YWxfYmluZGluZycsICctaW1hZScsICc8aW5maWxlLm1hZT4nLCAnLW9tYWUnLCAnPG91dGZpbGUubWFlPic=

> <r_lp_tautomer_probability>
7.17554e-07

> <r_epik_Ionization_Penalty>
12.8705

> <r_epik_Ionization_Penalty_Charging>
5.64144

> <r_epik_Ionization_Penalty_Neutral>
7.22905

> <r_epik_State_Penalty>
3.30104

> <r_epik_Charging_Adjusted_Penalty>
8.94249

> <i_epik_Tot_Q>
-1

> <i_epik_Tot_abs_Q>
1

> <r_epik_Metal_State_Penalty>
0.529074

> <b_epik_Metal_Only>
1

> <s_epik_Chemistry_Notes>
This compound contains an acetal/aminal-like group ( X-CH(R)-Y where X, Y are N, S, or O) that may be acid/base labile, releasing an aldehyde.

> <s_lp_Force_Field>
OPLS_2005

> <r_lp_Energy>
36.9813

> <b_lp_Chiralities_Consistent>
1

> <s_lp_Variant>
AV-unprocessed.smi:72-67

> <Gold.Version>
5.8.1

> <Gold.Id.Protein>
6NUR|6NUR_protein|mol2

> <Gold.PLP.Fitness>
45.4946

> <Gold.PLP.PLP>
-28.0361

> <Gold.PLP.part.hbond>
-7.0633

> <Gold.PLP.part.metal>
0.0000

> <Gold.PLP.part.buried>
-1.8681

> <Gold.PLP.part.nonpolar>
-19.3662

> <Gold.PLP.part.repulsive>
0.2270

> <Gold.PLP.ligand.clash>
0.0000

> <Gold.PLP.ligand.torsion>
0.0269

> <Gold.PLP.Chemscore.Hbond>
4.8299

> <Gold.PLP.Chemscore.CHOScore>
1.0000

> <Gold.PLP.Chemscore.Metal>
0.0000

> <Gold.Chemscore.Hbonds>
donor molecule, donor type, donor heavy atom, donor atom, acceptor molecule, acceptor atom, score
      L1  H    10    26       P1  8028  0.67
      L1  H    12    27       P1  7957  1.00
      L1  H    14    28       P1  7948  0.56
      P1  H  7997  8008       L1    17  2.00
      P1  H  8011  8017       L1     7  0.55
      L1  C     4    23       P1  8028  1.00

> <Gold.PLP.Chemscore.Internal.Correction>
0.0226

> <Gold.Rescore>
     Score         DG    S(hbond)    S(metal)    S(lipo)     H(rot)  DE(clash)    DE(int)     intcor
      6.85      -8.76       3.26        0.00      23.34       4.04       1.62       0.28       ----

> <Gold.Chemscore.Fitness>
6.8512

> <Gold.Chemscore.DG>
-8.7576

> <Gold.Chemscore.ZeroCoef>
-5.4800

> <Gold.Chemscore.Hbond>
3.2604

> <Gold.Chemscore.Metal>
0.0000

> <Gold.Chemscore.Lipo>
23.3401

> <Gold.Chemscore.Internal_Hbond>
0.0000

> <Gold.Chemscore.DEClash>
1.6232

> <Gold.Chemscore.DEInternal>
0.2832

> <Gold.Chemscore.Rot>
4.0403

> <Gold.Chemscore.Internal.Correction>
   9.000000E+99

> <Gold.Chemscore.Hbonds>
donor molecule, donor type, donor heavy atom, donor atom, acceptor molecule, acceptor atom, score
      L1  H    10    26       P1  8028  0.35
      L1  H    12    27       P1  7957  0.95
      L1  H    14    28       P1  7948  0.56
      P1  H  7997  8008       L1    17  0.25
      P1  H  8011  8017       L1     7  0.44

> <Gold.Chemscore.Hbond.Weighted>
-10.8899

> <Gold.Chemscore.Metal.Weighted>
-0.0000

> <Gold.Chemscore.Lipo.Weighted>
-2.7308

> <Gold.Chemscore.Internal_Hbond.Weighted>
0.0000

> <Gold.Chemscore.DEClash.Weighted>
1.6232

> <Gold.Chemscore.DEInternal.Weighted>
0.2832

> <Gold.Chemscore.Rot.Weighted>
10.3431

> <Gold.Chemscore.Internal.Correction.Weighted>
   9.000000E+99

> <Gold.Protein.RotatedTorsions>
[ 6907 6896 6895 6894 ] final   84.63 input  -60.11 | X-H torsion
[ 7974 7965 7964 7962 ] final  157.63 input  175.53 | X-H torsion
[ 8008 7997 7996 7995 ] final  -65.13 input   59.86 | X-H torsion
[ 10167 10162 10161 10158 ] final  -26.14 input  -65.29 | X-H torsion
[ 10718 10713 10712 10709 ] final   94.86 input   66.30 | X-H torsion
[ 10763 10752 10751 10750 ] final   72.23 input  -60.55 | X-H torsion
[ 11005 11000 10999 10996 ] final  134.95 input  -57.11 | X-H torsion

> <Gold.Protein.ActiveResidues>
 VAL166  LYS551  ARG553  GLY616  TRP617  ASP618  TYR619  PRO620  LYS621  CYS622 
 ASP623  PHE694  ASN695  SER759  ASP760  ASP761  ALA762  ILE779  LEU786  VAL792 
 PHE793  MET794  SER795  GLU796  ALA797  LYS798  CYS799  TRP800  GLU811  SER814 

> <Gold.Protein.RotatedAtoms>
  152.5357  134.2711  159.8971 H   0  0  0  0  0  0  0  0  0  0  0  0  # atno 6907 bound_to 6896
  151.2667  133.4268  159.2626 H   0  0  0  0  0  0  0  0  0  0  0  0  # atno 6908 bound_to 6896
  151.0404  134.9617  159.8215 H   0  0  0  0  0  0  0  0  0  0  0  0  # atno 6909 bound_to 6896
  144.7892  139.7367  143.6228 H   0  0  0  0  0  0  0  0  0  0  0  0  # atno 7974 bound_to 7965
  154.4653  140.0939  156.7003 H   0  0  0  0  0  0  0  0  0  0  0  0  # atno 8008 bound_to 7997
  155.4876  140.3469  155.4331 H   0  0  0  0  0  0  0  0  0  0  0  0  # atno 8009 bound_to 7997
  156.0945  140.1406  156.9538 H   0  0  0  0  0  0  0  0  0  0  0  0  # atno 8010 bound_to 7997
  140.7284  143.4204  151.0961 H   0  0  0  0  0  0  0  0  0  0  0  0  # atno 10167 bound_to 10162
  157.6944  131.0526  150.4251 H   0  0  0  0  0  0  0  0  0  0  0  0  # atno 10718 bound_to 10713
  153.0446  135.5107  154.7712 H   0  0  0  0  0  0  0  0  0  0  0  0  # atno 10763 bound_to 10752
  154.6622  135.2940  154.9853 H   0  0  0  0  0  0  0  0  0  0  0  0  # atno 10764 bound_to 10752
  154.0700  135.6679  153.4875 H   0  0  0  0  0  0  0  0  0  0  0  0  # atno 10765 bound_to 10752
  139.9948  134.9501  156.9938 H   0  0  0  0  0  0  0  0  0  0  0  0  # atno 11005 bound_to 11000
  146.2137  139.5511  142.9664 LP  0  0  0  0  0  0  0  0  0  0  0  0  # atno 17320 bound_to 7965
  145.5840  141.0379  143.2106 LP  0  0  0  0  0  0  0  0  0  0  0  0  # atno 17321 bound_to 7965
  139.7849  143.8302  152.3143 LP  0  0  0  0  0  0  0  0  0  0  0  0  # atno 17342 bound_to 10162
  139.8266  144.7272  150.9504 LP  0  0  0  0  0  0  0  0  0  0  0  0  # atno 17343 bound_to 10162
  156.4623  130.4034  149.6569 LP  0  0  0  0  0  0  0  0  0  0  0  0  # atno 17370 bound_to 10713
  156.3679  130.7515  151.2495 LP  0  0  0  0  0  0  0  0  0  0  0  0  # atno 17371 bound_to 10713
  140.4840  134.1261  155.7221 LP  0  0  0  0  0  0  0  0  0  0  0  0  # atno 17394 bound_to 11000
  141.1595  133.8819  157.1886 LP  0  0  0  0  0  0  0  0  0  0  0  0  # atno 17395 bound_to 11000

$$$$
