#       Name:                AV-unprocessed.smi:2253
#       Creating user name   scv26
#       Creation time:       Fri Mar 27 12:32:10 2020


#       File generated by GOLD software.
#

@<TRIPOS>MOLECULE
AV-unprocessed.smi:2253
    55    57     1
SMALL
NO_CHARGES


@<TRIPOS>ATOM
      1 ****        -3.7214  -4.7514   0.0513 C.3            1 S1                 0.0000
      2 ****        -4.0052  -3.3067  -0.0887 N.4            1 S1                 1.0000
      3 ****        -3.3416  -2.7128  -1.2757 C.3            1 S1                 0.0000
      4 ****        -3.7326  -1.2334  -1.4473 C.3            1 S1                 0.0000
      5 ****        -3.3824  -0.3915  -0.1957 C.3            1 S1                 0.0000
      6 ****        -1.9002  -0.2049  -0.0305 N.4            1 S1                 1.0000
      7 ****        -1.4629   0.2083   1.3361 C.3            1 S1                 0.0000
      8 ****         0.0699   0.2639   1.4557 C.3            1 S1                 0.0000
      9 ****         0.6842   1.1992   0.4071 C.3            1 S1                 0.0000
     10 ****         2.1409   1.1609   0.4976 N.am           1 S1                 0.0000
     11 ****         2.9669   2.1173   0.0483 C.2            1 S1                 0.0000
     12 ****         2.5724   3.1465  -0.4988 O.2            1 S1                 0.0000
     13 ****         4.2506   1.7995   0.2885 N.am           1 S1                 0.0000
     14 ****         5.4316   2.5283  -0.0237 C.ar           1 S1                 0.0000
     15 ****         5.4947   3.5920  -0.9569 C.ar           1 S1                 0.0000
     16 ****         6.7367   4.2193  -1.1818 C.ar           1 S1                 0.0000
     17 ****         7.8781   3.8567  -0.5592 N.ar           1 S1                 0.0000
     18 ****         7.8167   2.8352   0.3207 C.ar           1 S1                 0.0000
     19 ****         6.6268   2.1411   0.6186 C.ar           1 S1                 0.0000
     20 ****         6.6357   1.1209   1.5104 F              1 S1                 0.0000
     21 ****         0.2080   0.7646  -0.9871 C.3            1 S1                 0.0000
     22 ****        -1.3263   0.7163  -1.0549 C.3            1 S1                 0.0000
     23 ****        -4.1006  -1.0656   1.0010 C.3            1 S1                 0.0000
     24 ****        -3.7140  -2.5493   1.1537 C.3            1 S1                 0.0000
     25 ****        -2.6591  -4.9274   0.2257 H              1 S1                 0.0000
     26 ****        -4.0142  -5.2904  -0.8503 H              1 S1                 0.0000
     27 ****        -4.2803  -5.1748   0.8865 H              1 S1                 0.0000
     28 ****        -2.2590  -2.8116  -1.1816 H              1 S1                 0.0000
     29 ****        -3.6325  -3.2701  -2.1672 H              1 S1                 0.0000
     30 ****        -3.2879  -0.8347  -2.3566 H              1 S1                 0.0000
     31 ****        -4.8089  -1.1781  -1.6179 H              1 S1                 0.0000
     32 ****        -3.8162   0.6031  -0.3123 H              1 S1                 0.0000
     33 ****        -1.8994   1.1773   1.5837 H              1 S1                 0.0000
     34 ****        -1.8021  -0.5005   2.0887 H              1 S1                 0.0000
     35 ****         0.3478   0.5938   2.4578 H              1 S1                 0.0000
     36 ****         0.4764  -0.7421   1.3388 H              1 S1                 0.0000
     37 ****         0.3392   2.2161   0.6061 H              1 S1                 0.0000
     38 ****         2.5507   0.3510   0.9399 H              1 S1                 0.0000
     39 ****         4.4046   0.9456   0.8045 H              1 S1                 0.0000
     40 ****         4.6328   3.9320  -1.5085 H              1 S1                 0.0000
     41 ****         6.8160   5.0331  -1.8872 H              1 S1                 0.0000
     42 ****         8.7443   2.5613   0.8012 H              1 S1                 0.0000
     43 ****         0.5839   1.4531  -1.7451 H              1 S1                 0.0000
     44 ****         0.6153  -0.2173  -1.2331 H              1 S1                 0.0000
     45 ****        -1.6007   0.4112  -2.0620 H              1 S1                 0.0000
     46 ****        -1.7354   1.7181  -0.9130 H              1 S1                 0.0000
     47 ****        -3.9516  -0.5218   1.9332 H              1 S1                 0.0000
     48 ****        -5.1771  -1.0114   0.8312 H              1 S1                 0.0000
     49 ****        -4.2739  -2.9861   1.9816 H              1 S1                 0.0000
     50 ****        -2.6564  -2.6467   1.4023 H              1 S1                 0.0000
     51 ****        -1.4810  -1.1099  -0.1891 H              1 S1                 0.0000
     52 ****        -5.0000  -3.2280  -0.2469 H              1 S1                 0.0000
     53 ****         1.5927   3.3009  -0.6265 LP             1 S1                 0.0000
     54 ****         3.2315   3.8285  -0.8157 LP             1 S1                 0.0000
     55 ****         8.7400   4.3290  -0.7436 LP             1 S1                 0.0000
@<TRIPOS>BOND
    1    1    2 1     
    2    1   25 1     
    3    1   26 1     
    4    1   27 1     
    5    2   24 1     
    6    2    3 1     
    7    2   52 1     
    8    3    4 1     
    9    3   28 1     
   10    3   29 1     
   11    4    5 1     
   12    4   30 1     
   13    4   31 1     
   14    5    6 1     
   15    5   23 1     
   16    5   32 1     
   17    6   22 1     
   18    6    7 1     
   19    6   51 1     
   20    7    8 1     
   21    7   33 1     
   22    7   34 1     
   23    8    9 1     
   24    8   35 1     
   25    8   36 1     
   26    9   10 1     
   27    9   21 1     
   28    9   37 1     
   29   10   11 am    
   30   10   38 1     
   31   11   12 2     
   32   11   13 am    
   33   13   14 1     
   34   13   39 1     
   35   14   19 ar    
   36   14   15 ar    
   37   15   16 ar    
   38   15   40 1     
   39   16   17 ar    
   40   16   41 1     
   41   17   18 ar    
   42   18   19 ar    
   43   18   42 1     
   44   19   20 1     
   45   21   22 1     
   46   21   43 1     
   47   21   44 1     
   48   22   45 1     
   49   22   46 1     
   50   23   24 1     
   51   23   47 1     
   52   23   48 1     
   53   24   49 1     
   54   24   50 1     
   55   12   53 1     
   56   12   54 1     
   57   17   55 1     
@<TRIPOS>SUBSTRUCTURE
      1 S1             1
@<TRIPOS>SET
LONE_PAIRS      STATIC     ATOMS    <user>   **** ""
3 53 54 55
DONOR_HYDROGENS      STATIC     ATOMS    <user>   **** ""
4 52 51 38 39
ATOM$BLUE        STATIC     ATOMS    COLORGROUP SYSTEM
3 53 54 55
ATOM$RED        STATIC     ATOMS    COLORGROUP SYSTEM
4 52 51 38 39
