AV-unprocessed.smi:479|AV-procd|sdf|2672|dock6
  -GOLD-   2262023 93D 1   1.00000     0.00000
 Structure written by MMmdl.
 45 47  0  0  0  0  0  0  0  0  1 V2000
  155.0435  132.7084  160.3018 C   0  0  0  0  0  0  0  0  0  0  0  0
  154.6184  134.0611  160.3715 O   0  0  0  0  0  0  0  0  0  0  0  0
  154.9574  134.8025  161.4848 C   0  0  0  0  0  0  0  0  0  0  0  0
  155.7686  134.3106  162.5388 C   0  0  0  0  0  0  0  0  0  0  0  0
  156.0777  135.1179  163.6577 C   0  0  0  0  0  0  0  0  0  0  0  0
  156.9296  134.6214  164.7768 C   0  0  0  0  0  0  0  0  0  0  0  0
  157.0124  133.1117  164.9977 C   0  0  0  0  0  0  0  0  0  0  0  0
  157.5676  135.3624  165.5242 O   0  0  0  0  0  0  0  0  0  0  0  0
  155.5571  136.4280  163.7147 C   0  0  0  0  0  0  0  0  0  0  0  0
  154.7538  136.9253  162.6737 C   0  0  0  0  0  0  0  0  0  0  0  0
  154.4531  136.1205  161.5483 C   0  0  0  0  0  0  0  0  0  0  0  0
  153.6869  136.5483  160.4837 O   0  0  0  0  0  0  0  0  0  0  0  0
  153.2508  137.9016  160.4579 C   0  0  0  0  0  0  0  0  0  0  0  0
  152.7388  138.2594  159.0497 C   0  0  2  0  0  0  0  0  0  0  0  0
  153.8331  138.5540  158.2072 O   0  0  0  0  0  0  0  0  0  0  0  0
  151.7035  139.4025  159.0000 C   0  0  0  0  0  0  0  0  0  0  0  0
  152.2716  140.6853  159.3765 N   0  0  0  0  0  0  0  0  0  0  0  0
  153.3173  140.8957  160.1987 C   0  0  0  0  0  0  0  0  0  0  0  0
  153.6931  142.1557  160.3982 N   0  0  0  0  0  0  0  0  0  0  0  0
  152.7781  142.8459  159.6219 C   0  0  0  0  0  0  0  0  0  0  0  0
  152.6318  144.2329  159.3927 C   0  0  0  0  0  0  0  0  0  0  0  0
  151.6091  144.7139  158.5487 C   0  0  0  0  0  0  0  0  0  0  0  0
  150.7152  143.8185  157.9266 C   0  0  0  0  0  0  0  0  0  0  0  0
  150.8398  142.4331  158.1432 C   0  0  0  0  0  0  0  0  0  0  0  0
  151.8669  141.9554  158.9777 C   0  0  0  0  0  0  0  0  0  0  0  0
  154.7228  132.2812  159.3519 H   0  0  0  0  0  0  0  0  0  0  0  0
  154.6006  132.1093  161.0986 H   0  0  0  0  0  0  0  0  0  0  0  0
  156.1306  132.6290  160.3478 H   0  0  0  0  0  0  0  0  0  0  0  0
  156.1557  133.3052  162.4919 H   0  0  0  0  0  0  0  0  0  0  0  0
  156.0312  132.7079  165.2477 H   0  0  0  0  0  0  0  0  0  0  0  0
  157.6942  132.8829  165.8173 H   0  0  0  0  0  0  0  0  0  0  0  0
  157.3804  132.6136  164.1007 H   0  0  0  0  0  0  0  0  0  0  0  0
  155.7698  137.0692  164.5580 H   0  0  0  0  0  0  0  0  0  0  0  0
  154.3793  137.9333  162.7648 H   0  0  0  0  0  0  0  0  0  0  0  0
  152.4759  138.0736  161.2068 H   0  0  0  0  0  0  0  0  0  0  0  0
  154.0888  138.5589  160.6955 H   0  0  0  0  0  0  0  0  0  0  0  0
  152.2763  137.3635  158.6337 H   0  0  0  0  0  0  0  0  0  0  0  0
  154.4639  137.8537  158.2775 H   0  0  0  0  0  0  0  0  0  0  0  0
  151.2837  139.4889  157.9971 H   0  0  0  0  0  0  0  0  0  0  0  0
  150.8684  139.1871  159.6677 H   0  0  0  0  0  0  0  0  0  0  0  0
  153.8387  140.0750  160.6693 H   0  0  0  0  0  0  0  0  0  0  0  0
  153.3090  144.9282  159.8659 H   0  0  0  0  0  0  0  0  0  0  0  0
  151.5090  145.7760  158.3795 H   0  0  0  0  0  0  0  0  0  0  0  0
  149.9343  144.1945  157.2819 H   0  0  0  0  0  0  0  0  0  0  0  0
  150.1571  141.7447  157.6687 H   0  0  0  0  0  0  0  0  0  0  0  0
  1  2  1  0  0  0  0
  1 26  1  0  0  0  0
  1 27  1  0  0  0  0
  1 28  1  0  0  0  0
  2  3  1  0  0  0  0
  3 11  1  0  0  0  0
  3  4  2  0  0  0  0
  4  5  1  0  0  0  0
  4 29  1  0  0  0  0
  5  6  1  0  0  0  0
  5  9  2  0  0  0  0
  6  7  1  0  0  0  0
  6  8  2  0  0  0  0
  7 30  1  0  0  0  0
  7 31  1  0  0  0  0
  7 32  1  0  0  0  0
  9 10  1  0  0  0  0
  9 33  1  0  0  0  0
 10 11  2  0  0  0  0
 10 34  1  0  0  0  0
 11 12  1  0  0  0  0
 12 13  1  0  0  0  0
 13 14  1  0  0  0  0
 13 35  1  0  0  0  0
 13 36  1  0  0  0  0
 14 15  1  0  0  0  0
 14 16  1  0  0  0  0
 14 37  1  0  0  0  0
 15 38  1  0  0  0  0
 16 17  1  0  0  0  0
 16 39  1  0  0  0  0
 16 40  1  0  0  0  0
 17 25  1  0  0  0  0
 17 18  1  0  0  0  0
 18 19  2  0  0  0  0
 18 41  1  0  0  0  0
 19 20  1  0  0  0  0
 20 25  2  0  0  0  0
 20 21  1  0  0  0  0
 21 22  2  0  0  0  0
 21 42  1  0  0  0  0
 22 23  1  0  0  0  0
 22 43  1  0  0  0  0
 23 24  2  0  0  0  0
 23 44  1  0  0  0  0
 24 25  1  0  0  0  0
 24 45  1  0  0  0  0
M  END
> <s_m_source_file>
AV-unprocessed.smi

> <i_m_source_file_index>
479

> <i_lp_mmshare_version>
43012

> <i_f3d_flags>
0

> <s_epik_input>
W0NIM11PYzFbY0hdYyhDKD1PKVtDSDNdKVtjSF1bY0hdYzFPW0NIMl1bQ0BIXShbT0hdKVtDSDJdbihbY0hdbjIpYyhjMjMpW2NIXVtjSF1bY0hdW2NIXTM=

> <s_epik_cmdline>
J2VwaWtfcHl0aG9uJywgJy1waCcsICc3LjAnLCAnLXRuJywgJzgnLCAnLW1hJywgJzIwMCcsICctbWV0YWxfYmluZGluZycsICctaW1hZScsICc8aW5maWxlLm1hZT4nLCAnLW9tYWUnLCAnPG91dGZpbGUubWFlPic=

> <r_lp_tautomer_probability>
0.99995

> <r_epik_Ionization_Penalty>
0.061028

> <r_epik_Ionization_Penalty_Charging>
0

> <r_epik_Ionization_Penalty_Neutral>
0.061028

> <r_epik_State_Penalty>
0.052945

> <r_epik_Charging_Adjusted_Penalty>
0.052945

> <i_epik_Tot_Q>
0

> <i_epik_Tot_abs_Q>
0

> <r_epik_Metal_State_Penalty>
5.53801e-05

> <b_epik_Metal_Only>
0

> <s_lp_Force_Field>
OPLS_2005

> <r_lp_Energy>
25.674

> <b_lp_Chiralities_Consistent>
1

> <s_lp_Variant>
AV-unprocessed.smi:479-1

> <Gold.Version>
5.8.1

> <Gold.Id.Protein>
6NUR|6NUR_protein|mol2

> <Gold.PLP.Fitness>
46.9727

> <Gold.PLP.PLP>
-42.7725

> <Gold.PLP.part.hbond>
-2.5773

> <Gold.PLP.part.metal>
0.0000

> <Gold.PLP.part.buried>
-5.3514

> <Gold.PLP.part.nonpolar>
-34.4966

> <Gold.PLP.part.repulsive>
0.0954

> <Gold.PLP.ligand.clash>
0.0000

> <Gold.PLP.ligand.torsion>
0.9723

> <Gold.PLP.Chemscore.Hbond>
1.9913

> <Gold.PLP.Chemscore.CHOScore>
0.0000

> <Gold.PLP.Chemscore.Metal>
0.0000

> <Gold.Chemscore.Hbonds>
donor molecule, donor type, donor heavy atom, donor atom, acceptor molecule, acceptor atom, score
      P1  H  6896  6909       L1     2  0.91
      P1  H  7997  8009       L1    15  1.00

> <Gold.PLP.Chemscore.Internal.Correction>
0.1712

> <Gold.Rescore>
     Score         DG    S(hbond)    S(metal)    S(lipo)     H(rot)  DE(clash)    DE(int)     intcor
     15.72     -18.39       1.54        0.00     124.58       2.66       0.22       2.45       ----

> <Gold.Chemscore.Fitness>
15.7247

> <Gold.Chemscore.DG>
-18.3929

> <Gold.Chemscore.ZeroCoef>
-5.4800

> <Gold.Chemscore.Hbond>
1.5374

> <Gold.Chemscore.Metal>
0.0000

> <Gold.Chemscore.Lipo>
124.5801

> <Gold.Chemscore.Internal_Hbond>
0.0000

> <Gold.Chemscore.DEClash>
0.2173

> <Gold.Chemscore.DEInternal>
2.4509

> <Gold.Chemscore.Rot>
2.6555

> <Gold.Chemscore.Internal.Correction>
   9.000000E+99

> <Gold.Chemscore.Hbonds>
donor molecule, donor type, donor heavy atom, donor atom, acceptor molecule, acceptor atom, score
      P1  H  6896  6909       L1     2  0.55
      P1  H  7997  8009       L1    15  0.61

> <Gold.Chemscore.Hbond.Weighted>
-5.1350

> <Gold.Chemscore.Metal.Weighted>
-0.0000

> <Gold.Chemscore.Lipo.Weighted>
-14.5759

> <Gold.Chemscore.Internal_Hbond.Weighted>
0.0000

> <Gold.Chemscore.DEClash.Weighted>
0.2173

> <Gold.Chemscore.DEInternal.Weighted>
2.4509

> <Gold.Chemscore.Rot.Weighted>
6.7980

> <Gold.Chemscore.Internal.Correction.Weighted>
   9.000000E+99

> <Gold.Protein.RotatedTorsions>
[ 6907 6896 6895 6894 ] final -150.58 input  -60.11 | X-H torsion
[ 7974 7965 7964 7962 ] final   90.29 input  175.53 | X-H torsion
[ 8008 7997 7996 7995 ] final  154.42 input   59.86 | X-H torsion
[ 10167 10162 10161 10158 ] final   65.75 input  -65.29 | X-H torsion
[ 10718 10713 10712 10709 ] final   78.68 input   66.30 | X-H torsion
[ 10763 10752 10751 10750 ] final -104.30 input  -60.55 | X-H torsion
[ 11005 11000 10999 10996 ] final  109.72 input  -57.11 | X-H torsion

> <Gold.Protein.ActiveResidues>
 VAL166  LYS551  ARG553  GLY616  TRP617  ASP618  TYR619  PRO620  LYS621  CYS622 
 ASP623  PHE694  ASN695  SER759  ASP760  ASP761  ALA762  ILE779  LEU786  VAL792 
 PHE793  MET794  SER795  GLU796  ALA797  LYS798  CYS799  TRP800  GLU811  SER814 

> <Gold.Protein.RotatedAtoms>
  151.2006  133.4613  159.2595 H   0  0  0  0  0  0  0  0  0  0  0  0  # atno 6907 bound_to 6896
  151.1073  135.0007  159.8487 H   0  0  0  0  0  0  0  0  0  0  0  0  # atno 6908 bound_to 6896
  152.5448  134.1928  159.8733 H   0  0  0  0  0  0  0  0  0  0  0  0  # atno 6909 bound_to 6896
  145.5210  139.2279  143.2672 H   0  0  0  0  0  0  0  0  0  0  0  0  # atno 7974 bound_to 7965
  156.2532  140.1967  156.6644 H   0  0  0  0  0  0  0  0  0  0  0  0  # atno 8008 bound_to 7997
  154.6440  140.0580  156.9904 H   0  0  0  0  0  0  0  0  0  0  0  0  # atno 8009 bound_to 7997
  155.1519  140.3252  155.4432 H   0  0  0  0  0  0  0  0  0  0  0  0  # atno 8010 bound_to 7997
  140.1079  144.4845  150.6996 H   0  0  0  0  0  0  0  0  0  0  0  0  # atno 10167 bound_to 10162
  157.6752  130.9879  150.1821 H   0  0  0  0  0  0  0  0  0  0  0  0  # atno 10718 bound_to 10713
  154.7868  135.4791  153.9965 H   0  0  0  0  0  0  0  0  0  0  0  0  # atno 10763 bound_to 10752
  153.1572  135.6802  153.8801 H   0  0  0  0  0  0  0  0  0  0  0  0  # atno 10764 bound_to 10752
  153.8427  135.3177  155.3405 H   0  0  0  0  0  0  0  0  0  0  0  0  # atno 10765 bound_to 10752
  139.8867  134.9466  156.6169 H   0  0  0  0  0  0  0  0  0  0  0  0  # atno 11005 bound_to 11000
  146.2106  140.6022  142.9061 LP  0  0  0  0  0  0  0  0  0  0  0  0  # atno 17320 bound_to 7965
  144.7676  140.5565  143.6692 LP  0  0  0  0  0  0  0  0  0  0  0  0  # atno 17321 bound_to 7965
  140.6942  143.2393  151.5048 LP  0  0  0  0  0  0  0  0  0  0  0  0  # atno 17342 bound_to 10162
  139.5635  144.2098  152.1729 LP  0  0  0  0  0  0  0  0  0  0  0  0  # atno 17343 bound_to 10162
  156.2551  130.3705  149.8190 LP  0  0  0  0  0  0  0  0  0  0  0  0  # atno 17370 bound_to 10713
  156.5951  130.8523  151.3418 LP  0  0  0  0  0  0  0  0  0  0  0  0  # atno 17371 bound_to 10713
  140.7768  133.8692  155.8536 LP  0  0  0  0  0  0  0  0  0  0  0  0  # atno 17394 bound_to 11000
  140.9794  134.1425  157.4507 LP  0  0  0  0  0  0  0  0  0  0  0  0  # atno 17395 bound_to 11000

$$$$
