AV-unprocessed.smi:767|AV-procd|sdf|3658|dock5
  -GOLD-   22720 1 63D 1   1.00000     0.00000
 Structure written by MMmdl.
 47 49  0  0  0  0  0  0  0  0  1 V2000
  153.3453  141.7732  159.6199 C   0  0  0  0  0  0  0  0  0  0  0  0
  152.4869  141.3269  158.4549 C   0  0  0  0  0  0  0  0  0  0  0  0
  151.4208  142.1273  157.9924 C   0  0  0  0  0  0  0  0  0  0  0  0
  150.6537  141.6612  156.9076 C   0  0  0  0  0  0  0  0  0  0  0  0
  150.9806  140.4178  156.3290 C   0  0  0  0  0  0  0  0  0  0  0  0
  150.1778  139.8664  155.1677 C   0  0  0  0  0  0  0  0  0  0  0  0
  150.9629  138.8041  154.3821 C   0  0  0  0  0  0  0  0  0  0  0  0
  150.1359  137.6447  154.0711 N   0  0  0  0  0  0  0  0  0  0  0  0
  149.5846  136.8319  154.9828 C   0  0  0  0  0  0  0  0  0  0  0  0
  149.7021  136.9784  156.1995 O   0  0  0  0  0  0  0  0  0  0  0  0
  148.8983  135.8339  154.4111 N   0  0  0  0  0  0  0  0  0  0  0  0
  148.2031  134.7768  155.1528 C   0  0  1  0  0  0  0  0  0  0  0  0
  147.3310  133.8971  154.2533 C   0  0  1  0  0  0  0  0  0  0  0  0
  146.7502  134.0119  152.8905 C   0  0  0  0  0  0  0  0  0  0  0  0
  147.0376  132.5554  152.4345 C   0  0  0  0  0  0  0  0  0  0  0  0
  147.9040  131.9831  153.4482 O   0  0  0  0  0  0  0  0  0  0  0  0
  148.5891  133.0995  153.9799 C   0  0  2  0  0  0  0  0  0  0  0  0
  149.0424  133.4625  155.4119 C   0  0  0  0  0  0  0  0  0  0  0  0
  150.5552  133.6227  155.6006 C   0  0  0  0  0  0  0  0  0  0  0  0
  148.5735  132.5434  156.5541 C   0  0  0  0  0  0  0  0  0  0  0  0
  152.0669  139.6955  156.8660 C   0  0  0  0  0  0  0  0  0  0  0  0
  152.8080  140.1346  157.9060 N   0  0  0  0  0  0  0  0  0  0  0  0
  153.0336  142.7507  159.9893 H   0  0  0  0  0  0  0  0  0  0  0  0
  154.3904  141.8418  159.3167 H   0  0  0  0  0  0  0  0  0  0  0  0
  153.2705  141.0596  160.4408 H   0  0  0  0  0  0  0  0  0  0  0  0
  151.1926  143.0754  158.4565 H   0  0  0  0  0  0  0  0  0  0  0  0
  149.8284  142.2473  156.5304 H   0  0  0  0  0  0  0  0  0  0  0  0
  149.2470  139.4450  155.5504 H   0  0  0  0  0  0  0  0  0  0  0  0
  149.8956  140.6887  154.5088 H   0  0  0  0  0  0  0  0  0  0  0  0
  151.3211  139.2250  153.4422 H   0  0  0  0  0  0  0  0  0  0  0  0
  151.8482  138.4929  154.9397 H   0  0  0  0  0  0  0  0  0  0  0  0
  149.9824  137.4421  153.0942 H   0  0  0  0  0  0  0  0  0  0  0  0
  148.8558  135.7934  153.4035 H   0  0  0  0  0  0  0  0  0  0  0  0
  147.6716  135.1326  156.0372 H   0  0  0  0  0  0  0  0  0  0  0  0
  146.6204  133.3610  154.8873 H   0  0  0  0  0  0  0  0  0  0  0  0
  145.6857  134.2468  152.9004 H   0  0  0  0  0  0  0  0  0  0  0  0
  147.2753  134.7449  152.2767 H   0  0  0  0  0  0  0  0  0  0  0  0
  146.1246  131.9643  152.3594 H   0  0  0  0  0  0  0  0  0  0  0  0
  147.5302  132.5430  151.4613 H   0  0  0  0  0  0  0  0  0  0  0  0
  149.2411  133.5416  153.2196 H   0  0  0  0  0  0  0  0  0  0  0  0
  151.0553  132.6567  155.6772 H   0  0  0  0  0  0  0  0  0  0  0  0
  150.7856  134.1864  156.5050 H   0  0  0  0  0  0  0  0  0  0  0  0
  151.0185  134.1488  154.7660 H   0  0  0  0  0  0  0  0  0  0  0  0
  149.0172  131.5510  156.4697 H   0  0  0  0  0  0  0  0  0  0  0  0
  147.4946  132.4019  156.5842 H   0  0  0  0  0  0  0  0  0  0  0  0
  148.8601  132.9459  157.5263 H   0  0  0  0  0  0  0  0  0  0  0  0
  152.3469  138.7375  156.4535 H   0  0  0  0  0  0  0  0  0  0  0  0
  1  2  1  0  0  0  0
  1 23  1  0  0  0  0
  1 24  1  0  0  0  0
  1 25  1  0  0  0  0
  2 22  1  0  0  0  0
  2  3  2  0  0  0  0
  3  4  1  0  0  0  0
  3 26  1  0  0  0  0
  4  5  2  0  0  0  0
  4 27  1  0  0  0  0
  5  6  1  0  0  0  0
  5 21  1  0  0  0  0
  6  7  1  0  0  0  0
  6 28  1  0  0  0  0
  6 29  1  0  0  0  0
  7  8  1  0  0  0  0
  7 30  1  0  0  0  0
  7 31  1  0  0  0  0
  8  9  1  0  0  0  0
  8 32  1  0  0  0  0
  9 10  2  0  0  0  0
  9 11  1  0  0  0  0
 11 12  1  0  0  0  0
 11 33  1  0  0  0  0
 12 18  1  0  0  0  0
 12 13  1  0  0  0  0
 12 34  1  0  0  0  0
 13 17  1  0  0  0  0
 13 14  1  0  0  0  0
 13 35  1  0  0  0  0
 14 15  1  0  0  0  0
 14 36  1  0  0  0  0
 14 37  1  0  0  0  0
 15 16  1  0  0  0  0
 15 38  1  0  0  0  0
 15 39  1  0  0  0  0
 16 17  1  0  0  0  0
 17 18  1  0  0  0  0
 17 40  1  0  0  0  0
 18 19  1  0  0  0  0
 18 20  1  0  0  0  0
 19 41  1  0  0  0  0
 19 42  1  0  0  0  0
 19 43  1  0  0  0  0
 20 44  1  0  0  0  0
 20 45  1  0  0  0  0
 20 46  1  0  0  0  0
 21 22  2  0  0  0  0
 21 47  1  0  0  0  0
M  END
> <s_m_source_file>
AV-unprocessed.smi

> <i_m_source_file_index>
767

> <i_lp_mmshare_version>
43012

> <i_f3d_flags>
0

> <s_epik_input>
W0NIM11jMVtjSF1bY0hdYyhbY0hdbjEpW0NIMl1bQ0gyXVtOSF1DKD1PKVtOSF1bQ0BIXTJDKFtDSDNdKShbQ0gzXSlbQ0BIXShbQ0BASF0yMylPW0NIMl1bQ0gyXTM=

> <s_epik_cmdline>
J2VwaWtfcHl0aG9uJywgJy1waCcsICc3LjAnLCAnLXRuJywgJzgnLCAnLW1hJywgJzIwMCcsICctbWV0YWxfYmluZGluZycsICctaW1hZScsICc8aW5maWxlLm1hZT4nLCAnLW9tYWUnLCAnPG91dGZpbGUubWFlPic=

> <r_epik_Ionization_Penalty>
0.0567523

> <r_epik_Ionization_Penalty_Charging>
0

> <r_epik_Ionization_Penalty_Neutral>
0.0567523

> <r_epik_State_Penalty>
0.0489186

> <r_epik_Charging_Adjusted_Penalty>
0.0489186

> <i_epik_Tot_Q>
0

> <i_epik_Tot_abs_Q>
0

> <r_epik_Metal_State_Penalty>
0.044622

> <b_epik_Metal_Only>
0

> <s_lp_Force_Field>
OPLS_2005

> <r_lp_Energy>
57.787

> <b_lp_Chiralities_Consistent>
1

> <s_lp_Variant>
AV-unprocessed.smi:767-2

> <Gold.Version>
5.8.1

> <Gold.Id.Protein>
6NUR|6NUR_protein|mol2

> <Gold.PLP.Fitness>
40.4685

> <Gold.PLP.PLP>
-33.6820

> <Gold.PLP.part.hbond>
-3.2812

> <Gold.PLP.part.metal>
0.0000

> <Gold.PLP.part.buried>
-4.0665

> <Gold.PLP.part.nonpolar>
-26.8847

> <Gold.PLP.part.repulsive>
0.1759

> <Gold.PLP.ligand.clash>
0.0000

> <Gold.PLP.ligand.torsion>
0.8323

> <Gold.PLP.Chemscore.Hbond>
2.7280

> <Gold.PLP.Chemscore.CHOScore>
0.0000

> <Gold.PLP.Chemscore.Metal>
0.0000

> <Gold.Chemscore.Hbonds>
donor molecule, donor type, donor heavy atom, donor atom, acceptor molecule, acceptor atom, score
      L1  H     8    32       P1  7948  0.88
      L1  H    11    33       P1  7948  1.00
      P1  H  7997  8008       L1    22  0.86

> <Gold.PLP.Chemscore.Internal.Correction>
0.2670

> <Gold.Rescore>
     Score         DG    S(hbond)    S(metal)    S(lipo)     H(rot)  DE(clash)    DE(int)     intcor
     18.57     -19.40       2.13        0.00      89.77       1.45       0.04       0.79       ----

> <Gold.Chemscore.Fitness>
18.5654

> <Gold.Chemscore.DG>
-19.3960

> <Gold.Chemscore.ZeroCoef>
-5.4800

> <Gold.Chemscore.Hbond>
2.1330

> <Gold.Chemscore.Metal>
0.0000

> <Gold.Chemscore.Lipo>
89.7689

> <Gold.Chemscore.Internal_Hbond>
0.0000

> <Gold.Chemscore.DEClash>
0.0408

> <Gold.Chemscore.DEInternal>
0.7898

> <Gold.Chemscore.Rot>
1.4497

> <Gold.Chemscore.Internal.Correction>
   9.000000E+99

> <Gold.Chemscore.Hbonds>
donor molecule, donor type, donor heavy atom, donor atom, acceptor molecule, acceptor atom, score
      L1  H     8    32       P1  7948  0.22
      L1  H    11    33       P1  7948  0.93
      P1  H  7997  8008       L1    22  0.19

> <Gold.Chemscore.Hbond.Weighted>
-7.1243

> <Gold.Chemscore.Metal.Weighted>
-0.0000

> <Gold.Chemscore.Lipo.Weighted>
-10.5030

> <Gold.Chemscore.Internal_Hbond.Weighted>
0.0000

> <Gold.Chemscore.DEClash.Weighted>
0.0408

> <Gold.Chemscore.DEInternal.Weighted>
0.7898

> <Gold.Chemscore.Rot.Weighted>
3.7112

> <Gold.Chemscore.Internal.Correction.Weighted>
   9.000000E+99

> <Gold.Protein.RotatedTorsions>
[ 6907 6896 6895 6894 ] final -178.04 input  -60.11 | X-H torsion
[ 7974 7965 7964 7962 ] final -135.99 input  175.53 | X-H torsion
[ 8008 7997 7996 7995 ] final  -91.90 input   59.86 | X-H torsion
[ 10167 10162 10161 10158 ] final   10.60 input  -65.29 | X-H torsion
[ 10718 10713 10712 10709 ] final  -24.30 input   66.30 | X-H torsion
[ 10763 10752 10751 10750 ] final   51.05 input  -60.55 | X-H torsion
[ 11005 11000 10999 10996 ] final  107.62 input  -57.11 | X-H torsion

> <Gold.Protein.ActiveResidues>
 VAL166  LYS551  ARG553  GLY616  TRP617  ASP618  TYR619  PRO620  LYS621  CYS622 
 ASP623  PHE694  ASN695  SER759  ASP760  ASP761  ALA762  ILE779  LEU786  VAL792 
 PHE793  MET794  SER795  GLU796  ALA797  LYS798  CYS799  TRP800  GLU811  SER814 

> <Gold.Protein.RotatedAtoms>
  151.6307  133.3332  159.3107 H   0  0  0  0  0  0  0  0  0  0  0  0  # atno 6907 bound_to 6896
  150.8058  134.7186  159.6654 H   0  0  0  0  0  0  0  0  0  0  0  0  # atno 6908 bound_to 6896
  152.4153  134.6057  160.0063 H   0  0  0  0  0  0  0  0  0  0  0  0  # atno 6909 bound_to 6896
  144.8965  140.6714  143.5112 H   0  0  0  0  0  0  0  0  0  0  0  0  # atno 7974 bound_to 7965
  154.7165  140.0514  157.0599 H   0  0  0  0  0  0  0  0  0  0  0  0  # atno 8008 bound_to 7997
  155.0485  140.3176  155.4681 H   0  0  0  0  0  0  0  0  0  0  0  0  # atno 8009 bound_to 7997
  156.2804  140.2120  156.5610 H   0  0  0  0  0  0  0  0  0  0  0  0  # atno 8010 bound_to 7997
  140.6184  143.8257  150.7146 H   0  0  0  0  0  0  0  0  0  0  0  0  # atno 10167 bound_to 10162
  156.4795  130.4542  149.6820 H   0  0  0  0  0  0  0  0  0  0  0  0  # atno 10718 bound_to 10713
  152.9785  135.5858  154.4352 H   0  0  0  0  0  0  0  0  0  0  0  0  # atno 10763 bound_to 10752
  154.3961  135.2768  155.2127 H   0  0  0  0  0  0  0  0  0  0  0  0  # atno 10764 bound_to 10752
  154.3979  135.6110  153.5934 H   0  0  0  0  0  0  0  0  0  0  0  0  # atno 10765 bound_to 10752
  139.8831  134.9406  156.5848 H   0  0  0  0  0  0  0  0  0  0  0  0  # atno 11005 bound_to 11000
  145.3690  139.1663  143.4342 LP  0  0  0  0  0  0  0  0  0  0  0  0  # atno 17320 bound_to 7965
  146.3084  140.3760  142.8679 LP  0  0  0  0  0  0  0  0  0  0  0  0  # atno 17321 bound_to 7965
  140.1842  143.4090  152.1911 LP  0  0  0  0  0  0  0  0  0  0  0  0  # atno 17342 bound_to 10162
  139.5418  144.7263  151.4710 LP  0  0  0  0  0  0  0  0  0  0  0  0  # atno 17343 bound_to 10162
  156.3536  130.7445  151.2407 LP  0  0  0  0  0  0  0  0  0  0  0  0  # atno 17370 bound_to 10713
  157.7484  131.0370  150.4436 LP  0  0  0  0  0  0  0  0  0  0  0  0  # atno 17371 bound_to 10713
  140.8000  133.8513  155.8718 LP  0  0  0  0  0  0  0  0  0  0  0  0  # atno 17394 bound_to 11000
  140.9601  134.1667  157.4661 LP  0  0  0  0  0  0  0  0  0  0  0  0  # atno 17395 bound_to 11000

$$$$
